39
CONF4
C 1.1920625425 4.3807758856 0.6398506676
C 1.9713318021 3.1440053243 0.9350038619
C 2.1760479295 1.9895217764 0.2099825810
C 3.0225643379 1.0253315059 0.8586575886
C 3.4641196024 1.4763181949 2.0711914048
S 2.8352963558 3.0347625506 2.4398313166
C 3.4264739803 -0.3347345147 0.4209237201
O 4.4951092886 -0.8338634539 0.6913901116
O 2.4398426341 -0.9691858286 -0.2416430632
C 2.7978349996 -2.2708524273 -0.7623941695
S 1.6130459628 1.8315630082 -1.4728398748
O 1.0897921975 3.1190816427 -1.9122016697
O 2.6174578788 1.1102111196 -2.2523481277
N 0.2911562428 0.7272978291 -1.4059592055
C -0.7457390661 0.9188847898 -0.5225567547
O -0.9694012572 1.9251523739 0.1057608110
N -1.5806645016 -0.2303895283 -0.4204541170
C -1.3842034162 -1.4992653496 -0.9698533358
O -0.4847297529 -1.9134617922 -1.6888888539
N -2.4745001580 -2.2177357206 -0.5019944194
C -3.2196259926 -1.3622776182 0.2755877552
N -2.7305098044 -0.1641889026 0.3624541436
O -4.3289176329 -1.8118721655 0.8465754498
C -5.0377845377 -0.8242285658 1.6368266036
C -2.7151870649 -3.6166370837 -0.8153870574
H 1.6537095057 4.9436328294 -0.1757821620
H 0.1804586467 4.1153128410 0.3259145967
H 1.1421867330 5.0194290672 1.5249748453
H 4.1123246498 0.9445556450 2.7536691955
H 3.0906726243 -2.9351154291 0.0543977458
H 1.9013134640 -2.6327199002 -1.2639159851
H 3.6288464645 -2.1702474430 -1.4649035584
H 0.5017879944 -0.2243095545 -1.7143425675
H -4.3969292696 -0.4644003984 2.4457254292
H -5.3356269514 0.0156732705 1.0040691016
H -5.9081932396 -1.3474082540 2.0292551402
H -3.6774997638 -3.9049378278 -0.3920361813
H -1.9235199365 -4.2403110247 -0.3905041580
H -2.7304022057 -3.7533676651 -1.8997763937
