65
CONF591
C -2.2011866566 5.1849188815 0.9605552992
C -2.1362802979 4.6715680230 -0.4761976666
C -2.2286153557 3.1433464723 -0.5692538989
C -2.2065912571 2.6614218940 -2.0276129997
C -1.0647591874 2.5074474017 0.1599595658
O 0.1019605229 2.7970023161 -0.0282862367
O -1.4719690416 1.5568785567 1.0247984052
C -0.4336116674 0.8307329622 1.7550910407
C -0.1322761399 1.5486881527 3.0590094971
C 0.9977048943 0.8315947341 3.8139154994
C 0.8103976451 -0.6561345141 3.7749421942
C -0.0569565860 -1.3034504598 2.9733770821
C -0.9646691589 -0.5707913597 2.0028998033
C -1.1500034356 -1.3981958056 0.7133665866
C -1.8125771566 -2.7373627181 1.0980769123
C -1.0011689836 -3.4224526074 2.1646460140
C -0.1881085022 -2.7519680853 2.9988211962
C -2.0827913392 -3.6516938517 -0.0997989105
C 0.1809747844 -1.5767017510 -0.0548934669
C 0.1508415106 -0.8846682684 -1.4186802424
C 1.4884575481 -0.9137549334 -2.1359046294
C 1.9725126077 -2.3009745819 -2.5051982388
C 3.2093525725 -2.1928073052 -3.3803932599
C 2.8375207273 -1.4681360071 -4.6597833534
C 1.9872169782 -0.2343281466 -4.4739988179
O 1.8486080892 0.5921953423 -5.3543570797
O 1.3053817288 -0.0613545302 -3.3270347952
O 3.7245822146 -3.4713431131 -3.7680303462
C 2.3898424423 1.2223560745 3.2852648162
H -1.3607236385 4.8081426925 1.5547026056
H -2.1638561752 6.2778770564 0.9898778688
H -3.1280250776 4.8641481669 1.4484277179
H -2.9621254721 5.0916803187 -1.0623300060
H -1.2051057612 4.9965745396 -0.9551979333
H -3.1548160637 2.8071473870 -0.0906955233
H -1.2788431137 2.9732825449 -2.5173569712
H -2.2826595105 1.5712551661 -2.0900134613
H -3.0500113221 3.0972344225 -2.5711176319
H 0.4596133152 0.8007925412 1.1244690097
H 0.1486933642 2.5876576585 2.8563066278
H -1.0444287791 1.5580609021 3.6682784187
H 0.9552011827 1.1480809612 4.8657832475
H 1.4380698382 -1.2436495650 4.4453003365
H -1.9555674650 -0.4734093097 2.4741052724
H -1.8548570425 -0.8560528227 0.0703253824
H -2.7950743066 -2.4874382719 1.5313756435
H -1.0833562614 -4.5049898384 2.2462184252
H 0.3989177081 -3.2902284350 3.7407418644
H -2.6334492040 -4.5420804407 0.2206374081
H -2.6836408542 -3.1318701293 -0.8532822976
H -1.1560940007 -3.9896763906 -0.5743173057
H 1.0170874133 -1.1780039434 0.5347616894
H 0.3975142397 -2.6410596742 -0.1827225242
H -0.6074733245 -1.3527374260 -2.0601603127
H -0.1388308514 0.1658532228 -1.2915905006
H 2.2479481251 -0.4042845261 -1.5270122357
H 1.1855435512 -2.8529545598 -3.0364379978
H 2.2082655917 -2.8412678845 -1.5822570786
H 3.9846603200 -1.6247294521 -2.8423896474
H 2.2401614558 -2.1492203131 -5.2825772821
H 3.7150272383 -1.1844174809 -5.2462414384
H 4.0463945976 -3.9123215730 -2.9714574386
H 3.1748383586 0.6852046095 3.8270410232
H 2.5579296854 2.2968614302 3.4112267055
H 2.4892818178 0.9785046435 2.2222781367
