33
CONF22
C 5.2761983784 2.4827088093 1.5966885413
C 5.6785390397 1.2160430920 1.5066099891
C 4.8778599789 0.0540853600 1.9360295724
O 5.1953038226 -1.0978937318 1.7246978663
O 3.7430749524 0.4114823691 2.5918365111
C 2.8806259874 -0.6750652626 2.9785562161
C 2.0652754345 -1.2289643397 1.8141381050
C 1.0625688060 -0.2383732241 1.2586397349
C 0.1492489830 -0.8635190322 0.1582618293
C -1.0779751949 0.0130688570 -0.2708421850
C -1.6849821980 -0.4088553143 -1.6553770605
C -3.1376113497 0.1311561036 -1.8846483996
C -3.5973322285 0.1047989170 -3.3794387877
F -2.9570573793 1.0348095636 -4.0953666215
F -3.3694665033 -1.1012481302 -3.9185815060
F -4.9122040203 0.3592051501 -3.4291547866
F -4.0024964782 -0.6271398899 -1.1779914212
F -3.2184351227 1.4129183377 -1.4583789322
F -0.8867846943 0.0644546617 -2.6397625988
F -1.7225613414 -1.7590726427 -1.7306445037
F -2.0402426958 -0.1085657540 0.6738312966
F -0.7024899373 1.3074413414 -0.3515841924
F -0.3298471912 -2.0474011404 0.6211426563
F 0.9221925739 -1.1105645760 -0.9307124977
F 0.2426050902 0.2279694360 2.2548277372
F 1.6945928411 0.8384446118 0.7108634235
H 5.9043213040 3.2920734196 1.2395351996
H 6.6348707174 0.9460693169 1.0702590951
H 2.2313501215 -0.2570720013 3.7502088726
H 3.4824639792 -1.4854650088 3.3997518350
H 2.7255953994 -1.5575909322 1.0067959379
H 1.5153419850 -2.1035636759 2.1739553920
H 4.3112936820 2.7395264054 2.0197678454
