56
CONF40
C -1.4855353220 -4.2696968410 2.3011971634
C -1.2782475672 -2.7650532446 2.4764232734
C -2.0364556689 -2.1882130582 3.6730724148
N -1.5779693154 -2.0295126000 1.2406030914
C -2.8268279107 -1.8353734196 0.6790259300
C -4.0693153571 -2.3998948893 0.9784685365
C -5.1593546125 -2.0182295198 0.2086916695
C -5.0274795921 -1.1024634831 -0.8478082761
C -3.7981958497 -0.5416796179 -1.1499589632
C -2.6846488393 -0.8926843234 -0.3767918373
C -1.3059268934 -0.5207814862 -0.4312971756
C -0.6593774496 -1.2215075621 0.5758730224
C 0.7453384284 -1.1588075243 0.9465504304
C 1.4136625062 -0.0004276803 0.9841665931
C 2.8862612699 0.1550361461 1.1967535499
C 3.5533519864 0.8361111389 -0.0144911067
C 2.9148061482 2.1570805372 -0.4223239622
C 3.6942249577 2.8105879390 -1.5632366026
C 3.0483134202 4.0862169974 -2.0332242376
O 2.1119772944 4.6404139473 -1.4958443052
O 3.6446114815 4.5737682333 -3.1432794637
O 2.8879037241 2.9952632657 0.7328244327
O 3.5481413254 -1.0739785399 1.4958190213
C -0.6914683791 0.3699090327 -1.4241662751
C -1.1227856286 1.6955836231 -1.5614575429
C -0.5419358881 2.5530239064 -2.4907267717
C 0.4752663976 2.0632326268 -3.2903047794
C 0.9238735180 0.7555116891 -3.2024378716
C 0.3323460364 -0.0848662850 -2.2660045110
F 1.0637977030 2.8950985052 -4.1873308805
H -1.1459903927 -4.7946212171 3.1991370527
H -2.5361552845 -4.5231175870 2.1408868225
H -0.9137915229 -4.6400723352 1.4457620698
H -0.2131744660 -2.5931941974 2.6592073517
H -3.1152620833 -2.3342570720 3.5833859431
H -1.8430408789 -1.1159449085 3.7649781612
H -1.7017788843 -2.6808652491 4.5907975817
H -4.1985326011 -3.1190450325 1.7772944457
H -6.1331266958 -2.4446200414 0.4264141587
H -5.9010189280 -0.8367524011 -1.4339882802
H -3.6913202394 0.1592978381 -1.9722465134
H 1.2732995071 -2.0855238096 1.1670237409
H 0.8657456642 0.9254622181 0.8261327577
H 3.0481690128 0.7922888499 2.0744032304
H 4.6112748687 0.9927219034 0.2290413741
H 3.4989224302 0.1502759560 -0.8719687616
H 1.8904633496 1.9732043552 -0.7790396878
H 4.7156303857 3.0480403644 -1.2378059676
H 3.7838525922 2.1350299753 -2.4223568595
H 3.1663111640 5.3818394801 -3.3888969376
H 2.4041311588 3.7919754577 0.4725304100
H 3.5455134046 -1.6110916183 0.6937892757
H -1.9096527604 2.0645046605 -0.9109603019
H -0.8504040494 3.5879264336 -2.5834377167
H 1.7098636154 0.4082450591 -3.8644910825
H 0.6617201062 -1.1153749026 -2.1827181269
