37
CONF3
C -6.4723326701 1.2444910650 2.2807204604
C -5.1649450971 1.1619996005 1.5063215775
N -4.8589545113 -0.2530226915 1.2111041785
S -3.8593462657 -0.6614031633 -0.0527793852
O -4.2355932500 0.1422947890 -1.2095198563
O -3.7422762432 -2.1161060299 -0.0599797465
C -2.1397158840 -0.0085577824 0.5111744154
C -0.9620704156 -0.6545324849 -0.2780976996
C 0.3825961848 0.1455400767 -0.1522841024
C 1.6427397812 -0.6979454490 -0.5595463939
C 2.8996288666 0.1892750879 -0.8727369548
C 4.2446921028 -0.6196192006 -0.8436642318
C 5.4194623731 0.1145824458 -1.5757018925
C 6.8374726441 -0.4324564831 -1.2059258813
F 7.7336567063 0.0879815003 -2.0547298789
F 6.8641926077 -1.7683735399 -1.3125161765
F 7.1769692495 -0.0838774193 0.0392570313
F 5.3951584033 1.4306021949 -1.2605947605
F 5.2607610544 -0.0266613714 -2.9081607321
F 4.5987866011 -0.8248424189 0.4452395352
F 4.0529374897 -1.8157009353 -1.4438834156
F 2.7495984124 0.7345711286 -2.1000458807
F 2.9765180369 1.1768262798 0.0478413966
F 1.9482627494 -1.5349388596 0.4573902954
F 1.3429642795 -1.4219722073 -1.6598289287
F 0.3133872611 1.2369393917 -0.9463827860
F 0.5264519759 0.5419143330 1.1342110162
F -0.7680526616 -1.9051757107 0.1928903923
F -1.3109989930 -0.7109261719 -1.5817842147
F -2.1320205577 1.3320134292 0.3485222857
F -2.0200622531 -0.2878110544 1.8295138910
H -7.2922370489 0.8109528112 1.7028799279
H -6.4038064921 0.7158174190 3.2370166902
H -6.7079344110 2.2906465217 2.4949542836
H -5.2538078293 1.6785187891 0.5468295735
H -4.3504028431 1.6337563343 2.0726970833
H -4.6916796705 -0.8448003353 2.0195991752
