61
CONF12
C -0.8760171000 -1.5394447525 -3.2267149648
C -0.8457904426 -0.0774062856 -2.7600624570
C -1.7709874869 0.1586594540 -1.5912266188
C -3.0267898534 0.7288987692 -1.8186935072
C -3.9458497452 0.9079618527 -0.7884622906
C -3.5890417490 0.5006647262 0.5008948249
C -2.3473484860 -0.0694985140 0.7722073888
C -1.4286380812 -0.2381433968 -0.2873253462
C -0.1044095723 -0.8198787347 -0.0131686902
C 1.0958919502 -0.1720629067 -0.0111131156
N 2.1279117999 -0.9764052200 0.3827006667
C 3.4940301459 -0.8681086207 -0.1397075299
C 3.7523934356 -1.7176652515 -1.3844036777
O 4.0847217800 -3.0718673219 -1.0846018286
C 2.9767253861 -3.8671954862 -0.6645594060
C 2.3728664668 -3.4326302778 0.6696765224
N 1.5620804454 -2.2344124476 0.5679440428
C 0.1894908272 -2.1977552284 0.3281343409
O -0.5552129899 -3.1849563960 0.4300787724
O 1.3597295866 1.1163909688 -0.3642922329
C 0.9933876025 2.1133161772 0.5460743193
O 0.6715876879 1.8489429097 1.6726659198
C 1.0376272800 3.4767343732 -0.1105350570
C -0.1680513531 3.5467804989 -1.0721999869
C 0.9074704204 4.5492359575 0.9733716615
C 2.3482812551 3.6604234090 -0.8920972832
C -1.9506348649 -0.4972962803 2.1671881020
C -2.9370656918 -0.1582020080 3.2796816089
C -5.3003245973 1.5096970445 -1.0471751951
H -0.5596241049 -2.2101957394 -2.4214354775
H -0.2074791052 -1.6890814462 -4.0805909101
H -1.8887379314 -1.8269979678 -3.5271172988
H 0.1812154405 0.1959111681 -2.4981557636
H -1.1484210340 0.5747934081 -3.5863717794
H -3.2885851824 1.0383223791 -2.8282159606
H -4.3023909172 0.6444746656 1.3065938926
H 3.6398629428 0.1900596007 -0.3729462996
H 4.2044550479 -1.1385704867 0.6483797930
H 4.6262184928 -1.3074475307 -1.8993676699
H 2.8869744945 -1.6689754327 -2.0658239054
H 2.1917659968 -3.8655213813 -1.4375830644
H 3.3673130153 -4.8837669234 -0.5582806868
H 1.6898038928 -4.2131042378 1.0193533337
H 3.1528253625 -3.2974533655 1.4272592648
H -0.0972448191 2.7853748781 -1.8533856174
H -1.1090356894 3.4066324962 -0.5302883404
H -0.1820923468 4.5344417498 -1.5435089746
H -0.0249711262 4.4339113090 1.5314946562
H 1.7423337540 4.4987755150 1.6787038724
H 0.9114894889 5.5353820803 0.5003037842
H 2.4307035926 2.9468369621 -1.7149628055
H 3.2166011587 3.5443622529 -0.2356367187
H 2.3666543378 4.6719358244 -1.3089417616
H -0.9759108699 -0.0467580283 2.3907217570
H -2.5374966112 -0.4894554165 4.2425346461
H -3.1154168689 0.9204512788 3.3438933890
H -6.0833769610 0.7449685991 -0.9845446236
H -5.5390481230 2.2763476016 -0.3032065824
H -5.3508755971 1.9614119672 -2.0410379444
H -1.7736625836 -1.5808222151 2.1544314521
H -3.9023278882 -0.6532808108 3.1323555391
