44
CONF52
C -4.6145881401 0.1049466319 0.5700179951
C -3.1320779099 0.0113779628 0.8682337804
C -2.6699647632 -1.3864128369 1.2942664445
O -2.2742426659 -1.9853927897 0.0485741507
C -1.6386349888 -0.9384661890 -0.6573930557
O -2.3796084054 0.2348086554 -0.3584509733
C -1.7320785922 -1.1802831608 -2.1719762737
N -3.1020685698 -1.3398806981 -2.6178372632
C -3.9942222129 -0.3810061514 -2.9345214683
N -5.1664584192 -0.9253197286 -3.2384563327
C -4.9266116962 -2.2580297061 -3.0772248120
N -3.6910244380 -2.5599888758 -2.7007850393
C -0.1737737381 -0.7704538844 -0.2328159142
C 0.2922502102 0.4955452163 0.1331494272
C 1.6015315056 0.7257335416 0.5318965798
C 2.4897672437 -0.3449748875 0.5606269547
C 2.0732346722 -1.6222882502 0.1992696378
C 0.7548802338 -1.8172505144 -0.1894926148
Cl 0.3231774017 -3.4675021166 -0.6362202350
O 3.7894377923 -0.2371302284 0.9992254305
C 4.4538769453 0.9700661540 0.8444367600
C 5.1441671371 1.4629979460 1.9447194033
C 5.8959698229 2.6270663102 1.8177681476
C 5.9313759710 3.2747513981 0.5891939416
C 5.2438628974 2.7849984239 -0.5162507413
C 4.5012148815 1.6170006813 -0.3874013405
Cl 6.8738831633 4.7532642017 0.4253838460
H -5.1847328553 0.0221284615 1.5008208537
H -4.9184110741 -0.7020673195 -0.1049894015
H -4.8524468569 1.0646571417 0.1023812498
H -2.8254930581 0.7711978745 1.5959294652
H -1.8167925164 -1.3423629340 1.9841078950
H -3.4683240882 -1.9950360737 1.7220911823
H -1.2982369454 -0.3118896192 -2.6749339892
H -1.1700370841 -2.0712542799 -2.4541599615
H -3.7448371034 0.6715244284 -2.9370048325
H -5.6729789724 -3.0242664805 -3.2464362322
H -0.4086774881 1.3215270026 0.1148900834
H 1.9191608733 1.7206530453 0.8219432940
H 2.7761856961 -2.4465470807 0.2260713140
H 5.0943383025 0.9373634958 2.8921525314
H 6.4395639012 3.0231530715 2.6678398662
H 5.2921023600 3.2992487740 -1.4693073836
H 3.9663405605 1.2137935985 -1.2408547503
