45
CONF66
C -2.1065797122 -1.8486388571 1.1546672736
C -2.0410659072 -1.6860582237 -0.3291508549
C -1.9753893821 -0.5096464134 -0.9629885381
C -1.9259823011 -0.3930228042 -2.4281071884
C -0.8633889712 0.4924074726 -3.1508686236
C -2.3462644354 0.8345090480 -3.1870244558
C -2.9196039725 2.0383365617 -2.4726623010
C -2.9932597282 0.5970085895 -4.5381688875
C 0.2281838636 1.1458342541 -2.4132860584
O 1.4017716173 0.9931237422 -2.7033058577
O -0.1694755127 1.9161833885 -1.3690183645
C 0.8932397141 2.4638507119 -0.5413268235
C 1.3846816950 1.4242068371 0.4239971385
C 0.5570025383 0.9720483842 1.4488222791
C 0.9589795066 -0.0192534660 2.3288579617
C 2.2093727780 -0.6201611609 2.2243763250
C 3.0447646239 -0.1518139134 1.2177326024
C 2.6474055290 0.8475000471 0.3384719151
F 3.5219321768 1.2628657159 -0.5896254627
F 4.2782283593 -0.6694856159 1.0822958232
C 2.6568942581 -1.6712493541 3.1953862382
O 3.2559520146 -1.0082698135 4.3100622420
C 3.7091527240 -1.9527265963 5.2817908678
F 0.1210036967 -0.3948042589 3.3105806865
F -0.6631761553 1.5185893383 1.5986173256
H -2.1332761065 -0.8801944308 1.6617732910
H -1.2386062770 -2.4084030426 1.5261518189
H -2.9948249357 -2.4201860653 1.4501178304
H -2.0456820278 -2.6027494492 -0.9210416033
H -1.9634213615 0.4039709877 -0.3751928595
H -2.0726316220 -1.3378410517 -2.9477833965
H -0.4747122874 0.0377840489 -4.0563409906
H -4.0051434057 1.9148669494 -2.3902735860
H -2.7286891669 2.9441312311 -3.0583971845
H -2.5136740163 2.1909911392 -1.4749526596
H -2.8446036182 1.4650974728 -5.1900262215
H -4.0709148476 0.4429363919 -4.4150083186
H -2.5749929060 -0.2830966236 -5.0347907781
H 1.7067378234 2.8311583157 -1.1667524246
H 0.4227081476 3.2915567938 -0.0092184460
H 3.3808980450 -2.3428864537 2.7135797354
H 1.7949533833 -2.2692177619 3.5236072291
H 4.4683841531 -2.6238187295 4.8552724986
H 4.1495434073 -1.3799569295 6.1002123488
H 2.8735693896 -2.5554767132 5.6656055379
