47
CONF103
C -4.9177821663 2.4816329090 -2.3845100277
O -4.4795356733 1.1066072129 -2.1933057713
P -5.3461899088 0.1068565659 -1.2967063978
S -5.9876882706 0.7639201083 0.4147538101
O -6.4392639314 -0.3973488164 -2.3492978719
C -7.5231650011 -1.2647226875 -1.9141001809
O -4.3641749479 -1.1819509053 -1.2443907916
C -3.3840326434 -1.3117117181 -0.2526729110
C -2.2207125460 -0.5574297432 -0.3182735674
C -1.2386833940 -0.7360894392 0.6504757680
C -1.4205826173 -1.6799222258 1.6633451805
C -2.5952916042 -2.4382302938 1.7078738317
C -3.5856441688 -2.2471253537 0.7522104383
S -0.2316807614 -1.9457013387 2.9747969122
C 1.2753072140 -1.2862503503 2.2723522405
C 1.8839357857 -1.9193352586 1.1847210932
C 3.0604958861 -1.4083103893 0.6542418596
C 3.6305987967 -0.2819406033 1.2360759289
C 3.0535861228 0.3459121868 2.3312876244
C 1.8612681859 -0.1571442504 2.8447296892
O 4.8381989219 0.1799655459 0.7154640112
P 4.9277328272 1.5773074675 -0.1286297722
S 3.3970696880 1.9673769303 -1.2475676756
O 6.3592368661 1.3810165549 -0.8105126665
C 6.5272759696 0.3935306620 -1.8664231783
O 5.2200764277 2.7261703636 0.9364676371
C 6.3358671448 2.6039107929 1.8726325823
H -5.8809733694 2.5008253529 -2.9012772506
H -4.1502326039 2.9487998126 -3.0006693390
H -4.9913471811 2.9874400822 -1.4186466141
H -8.1210765923 -0.7614618944 -1.1501779076
H -8.1229626581 -1.4524448153 -2.8040782880
H -7.1198009485 -2.2040846044 -1.5257582318
H -2.0841675343 0.1661285992 -1.1146822385
H -0.3344762263 -0.1391255474 0.6065948004
H -2.7389657559 -3.1792084656 2.4881885751
H -4.5032356801 -2.8249991361 0.7766963063
H 1.4301897008 -2.8019213564 0.7460128108
H 3.5419969459 -1.8757053610 -0.1979310260
H 3.5200271894 1.2213894896 2.7704875230
H 1.3862101155 0.3342085190 3.6869096674
H 5.8696966420 0.6317016422 -2.7065420039
H 7.5709247242 0.4637790517 -2.1708085092
H 6.3115729182 -0.6067341242 -1.4815901416
H 7.2804198515 2.7123256607 1.3360723398
H 6.2063678115 3.4174050103 2.5855097314
H 6.2936093694 1.6406883591 2.3876979869
