33
CONF30
C 4.9739753023 1.0173615498 -0.2820581253
C 6.1491080663 1.6426131911 0.4522584498
O 6.5613485742 0.7678130074 1.5080040240
C 3.7311484108 0.8647473185 0.5706338315
C 2.4495936013 0.6103385709 -0.2829168633
C 1.1925777467 0.1285909082 0.5218229742
C -0.1563856943 0.3292856455 -0.2573687761
C -1.3316786711 -0.5469336293 0.3059215674
C -2.7480937129 -0.0349107125 -0.1378822410
C -3.8703328993 -1.1186056222 0.0147774304
C -5.3202732061 -0.5298120515 0.0152748473
F -5.4774189455 0.3233724955 -1.0066158811
F -6.1957487948 -1.5344156502 -0.1202932892
F -5.5758141655 0.1072975572 1.1624489795
F -3.6985052989 -1.7850009717 1.1799044719
F -3.7793462705 -1.9896244876 -1.0121710048
F -3.0767121229 1.0383481086 0.6163256800
F -2.6956618486 0.3397209443 -1.4364237610
F -1.2789762775 -0.5372386696 1.6567800660
F -1.1735958923 -1.8153251059 -0.1355110283
F -0.5113886961 1.6323186360 -0.1764284742
F 0.0326269672 0.0015429555 -1.5556868918
F 1.1139096487 0.8116819453 1.6856580204
F 1.3363314702 -1.1902153638 0.7964413890
F 2.1365259467 1.7633414190 -0.9311526960
F 2.7354503305 -0.3382347230 -1.2107543950
F 3.8410341424 -0.1844654142 1.4480016630
F 3.5061648322 1.9898987845 1.3183719139
H 4.7252631344 1.6572449330 -1.1355755882
H 5.2418803069 0.0305802284 -0.6702191754
H 5.8689962025 2.6280467603 0.8466310019
H 6.9568684210 1.7841169403 -0.2783452618
H 7.3135307815 1.1807717581 1.9498345700
