74
CONF254
C -0.5985674206 -0.8708074804 0.4191130818
C 0.0834793926 -2.1956780145 0.7258416751
O -0.7466163983 -2.7682068709 1.7976363978
C -1.4287903158 -1.7864560035 2.4426396443
O -2.1161136123 -2.0275940534 3.4082327924
C -1.1118113934 -0.4631499544 1.7911324620
C -2.1845465264 0.6246247286 1.6966817661
C -3.5208656084 0.1238459421 1.1607666288
C -3.7985799361 0.1265698675 -0.2080317424
C -5.0174317799 -0.3700983927 -0.6647673401
O -5.4078440710 -0.4242630701 -1.9751705291
C -4.4922105623 0.0779513956 -2.9579607191
C -5.9724184376 -0.8634609376 0.2309781311
O -7.1762815092 -1.3440238346 -0.2025726031
C -5.6965211171 -0.8501027540 1.6031443055
O -6.6900092883 -1.3375011412 2.4015598200
C -6.4376780244 -1.3651109722 3.8127233575
C -4.4744766056 -0.3543876010 2.0616136741
C -1.6201950004 1.7523432899 0.8414017185
C -2.2554500389 3.0074340693 0.9514873228
C -1.7974210342 4.0315369143 0.1619680280
C -0.7501772086 3.8516919869 -0.7381912142
O -0.5335453256 5.0130030622 -1.4362599187
C -1.3158826374 6.0147026052 -0.7521288827
O -2.2762250364 5.3119996267 0.0670898439
C -0.1237806740 2.6405667930 -0.8778589406
C -0.5662002301 1.5710492741 -0.0659858171
C 0.1979480074 0.2648756469 -0.1922224063
O 1.4651119812 0.4141669648 0.5135264636
C 2.5996619284 0.2528932112 -0.2691357582
O 2.7569151585 -1.1481916818 -0.5508851599
C 3.9188531983 -1.3797826028 -1.3440689938
C 3.9931566273 -2.8512795829 -1.7163320937
O 5.2227854463 -3.0767596815 -2.4198583540
C 6.3531125458 -2.7098841437 -1.6358126388
C 7.5963741465 -2.9924417203 -2.4352109172
O 6.3266635201 -1.3171130546 -1.3226757610
C 5.1667291540 -1.0118581313 -0.5420041381
C 5.1227328954 0.4599302869 -0.2028179308
O 6.2381261320 0.7898944349 0.6200228353
C 3.8049507259 0.7671286867 0.5245758990
O 3.7049753682 2.1627497292 0.7990319788
H -1.4596564278 -1.0613657163 -0.2338950731
H 0.0837780980 -2.9109257132 -0.0972977671
H 1.0940587414 -2.0640946387 1.1185198399
H -0.2680325564 -0.0564363590 2.3730659894
H -2.3649601103 1.0192003438 2.7030687669
H -3.0774382759 0.5336096667 -0.9058684862
H -3.5530967933 -0.4870408997 -2.9402740051
H -4.9869249716 -0.0576067269 -3.9197696085
H -4.2883923595 1.1419776277 -2.7918555646
H -7.1918700519 -1.2676282610 -1.1685083987
H -6.2835559650 -0.3530493299 4.2048581005
H -7.3300420680 -1.8010424036 4.2626882184
H -5.5652439779 -1.9875917207 4.0437535178
H -4.2509712830 -0.3440605683 3.1201031684
H -3.0849235120 3.1482929172 1.6371601382
H -0.6568810371 6.6087300557 -0.1050178911
H -1.8441512958 6.6266802887 -1.4854635135
H 0.6825678066 2.5019908159 -1.5906901219
H 0.4110752198 0.0616413639 -1.2483916437
H 2.5127597853 0.7968952107 -1.2295029968
H 3.8870047253 -0.7716416084 -2.2632982108
H 3.1805983420 -3.1373479578 -2.3886580117
H 3.9486844814 -3.4696910554 -0.8055956235
H 6.3233455881 -3.2784395890 -0.6884086275
H 7.6445902402 -4.0559833532 -2.6792563605
H 8.4795086576 -2.7220734375 -1.8521781462
H 7.5835219430 -2.4104948937 -3.3611524083
H 5.1806077643 -1.6039707584 0.3898165636
H 5.1530776876 1.0408958310 -1.1416229522
H 6.1214553134 1.7098295842 0.8959824963
H 3.8091731087 0.2645035121 1.4993746991
H 3.6683960643 2.6354320426 -0.0454292537
