44
CONF58
C -3.5621853823 1.2694869386 1.0415359315
C -3.2477950261 -0.2064346281 1.1935138100
C -3.7503282862 -1.0501902527 0.0410842780
O -1.7846469559 -0.3799935570 1.2010644413
C -1.1399804842 -0.1792631679 2.3545587087
O -1.6666836454 0.0706215153 3.4191474318
C 0.3662014034 -0.4173888588 2.2166891580
C 0.6523559049 -1.8815922699 2.5399986225
N 0.8769933376 0.0120961872 0.8965998457
C 1.1468968542 -0.9423894976 -0.1342561076
C 2.3341346177 -1.6730691658 -0.1038546375
C 2.5962537346 -2.5954081440 -1.1070438213
C 1.6802987270 -2.7684017033 -2.1408924991
C 0.5061280571 -2.0375001614 -2.1854088418
C 0.2339597755 -1.1270387843 -1.1721012045
F 1.9384396387 -3.6597407538 -3.1148964383
Cl 4.0724835808 -3.5242425863 -1.0925938249
C 0.6732600990 1.3402355435 0.6043583256
O 0.0971866094 2.0821458657 1.4037144884
C 1.1909856093 1.8680107981 -0.6926326780
C 2.4938149374 1.6153034839 -1.1309203873
C 2.9529413664 2.1906764128 -2.3110384008
C 2.1105031317 3.0029211394 -3.0678492694
C 0.8126336875 3.2599395116 -2.6295027171
C 0.3582789291 2.7073780115 -1.4372846107
H -3.1488736799 1.8477076032 1.8714573380
H -3.1484979040 1.6489738087 0.1013482390
H -4.6472227370 1.4100061801 1.0257220947
H -3.6247834176 -0.5861092900 2.1481263748
H -4.8412333882 -0.9862249705 -0.0052626336
H -3.3415097836 -0.6873115226 -0.9074351718
H -3.4690307832 -2.0986865919 0.1721919922
H 0.8326686765 0.2186511123 2.9744254663
H 1.7268760529 -2.0715149694 2.5747478865
H 0.1926242129 -2.5547045345 1.8117895913
H 0.2359098895 -2.0970984011 3.5271952782
H 3.0611192805 -1.5094185985 0.6829567117
H -0.1853834207 -2.1958508779 -3.0058138019
H -0.6858664194 -0.5549654187 -1.1859953024
H 3.1528714099 0.9858244621 -0.5427041071
H 3.9703047536 2.0044674927 -2.6401383855
H 2.4675632626 3.4410967386 -3.9945019171
H 0.1560871886 3.8960562983 -3.2145693271
H -0.6457551187 2.9129396130 -1.0796613364
