56
CONF19
C -3.9297625678 -3.3678044706 -0.8011885586
N -2.7824013068 -2.4689559143 -0.7072586958
C -2.0925258112 -2.3880738588 0.5833723216
C -2.5218121394 -1.2449147746 1.4925734616
C -1.4239737647 -0.9585559818 2.5260354198
O -0.2564595914 -0.4168962055 1.9069421832
O -3.7436999860 -1.6373528880 2.1286751571
C -2.3275484216 -1.8657051522 -1.8397120187
O -2.7896835568 -2.0281840779 -2.9600828389
C -1.2082220922 -0.8727243469 -1.6069705009
C -1.5020635443 0.4760323651 -1.4180011679
C -0.5116180543 1.4022590732 -1.0750284997
C 0.7977765149 0.9393702665 -0.9124445873
C 1.1302224700 -0.3985227987 -1.1151173173
C 0.1234704399 -1.2732126156 -1.5133312740
I 0.6010557193 -3.2995417853 -1.9130987707
C 2.5060863929 -0.8918634253 -0.7292654008
O 3.4306025331 -0.9764264434 -1.5313607449
N 2.5771274031 -1.1791293532 0.5885035727
C 3.8488523497 -1.4349053808 1.2570192640
C 4.2376875117 -2.9197486315 1.3482989876
C 4.3817682298 -3.5835232277 -0.0180302659
O 5.4233259330 -2.9664710806 -0.7712899867
O 5.4641412096 -3.0051870152 2.0690493386
I 2.2932090396 2.3061165829 -0.2976946264
N -0.8474039169 2.7348764296 -0.7503386588
C -1.1805374815 3.0627740543 0.5265959970
O -1.2910050728 2.2490176869 1.4392146527
C -1.3644858580 4.5540185764 0.7755753323
O -1.4181230439 5.3373074881 -0.4002222605
C -2.7377222933 5.4121559940 -0.9492224410
I -3.5002965312 1.1453910953 -1.6247225353
H -3.6031311651 -4.4161213030 -0.8010988433
H -4.5875764903 -3.1946321268 0.0545076225
H -4.4613882436 -3.1661504956 -1.7316452001
H -2.2711645156 -3.3304476438 1.1154848839
H -1.0158660950 -2.3078725080 0.4268301149
H -2.6743594966 -0.3347367972 0.8952527649
H -1.1294073830 -1.8878836184 3.0282984529
H -1.8161517167 -0.2723957290 3.2911861606
H -0.4744864764 0.5001502293 1.6551936429
H 1.7386210573 -1.0392159649 1.1442982331
H 4.6351800602 -0.8972367184 0.7145608474
H 3.7956905405 -1.0256722488 2.2698645777
H 3.4828173538 -3.4625153968 1.9334548059
H 4.6719863929 -4.6290060250 0.1358762665
H 3.4265979702 -3.5650504158 -0.5593552420
H -0.6688266801 3.4967487133 -1.3933473205
H -0.4901594543 4.8808614984 1.3523396386
H -2.2531143583 4.6840085221 1.4091894203
H -2.6622295080 5.9932038629 -1.8702291702
H -3.4171043985 5.9230224006 -0.2532281374
H -3.1373791459 4.4141700611 -1.1785684475
H -4.1229186833 -0.8617597095 2.5570564731
H 6.1587399336 -2.8277458545 1.4174824424
H 5.0210830592 -2.1946565499 -1.2033309052
