40
CONF115
C 1.6323405167 3.9010002095 -0.8314057542
C 0.5476015313 2.8539143492 -0.9120639032
O 1.0954838858 1.5879370984 -1.4120157443
P 1.6796385167 0.4562564713 -0.4623382336
S 1.7311855930 0.7450827507 1.4563264975
O 3.0668060041 0.1784722289 -1.1996110783
C 3.9755639534 -0.8641679882 -0.7070479993
C 5.2082812994 -0.8274850519 -1.5754868914
O 0.8871944085 -0.9131966697 -0.9433702727
C -0.4236385111 -1.1636705807 -0.6452952881
N -1.1871002126 -0.1696516712 -0.2324385863
C -2.4691081291 -0.4788694487 0.0387178075
N -3.0145177716 -1.6885015260 -0.0941000601
C -2.2159533039 -2.6873979180 -0.5297908446
C -2.8438410092 -4.0361299726 -0.6768044603
C -0.8769058246 -2.4668235104 -0.8196831792
C -3.3467583613 0.6490202894 0.5231347970
C -3.5209530804 1.7015331843 -0.5798422251
C -2.7736301767 1.2776793911 1.7988726959
H 1.1882484098 4.8507216872 -0.5161951182
H 2.1071890598 4.0456380690 -1.8056982196
H 2.3944105056 3.6164788233 -0.1002260440
H 0.0739421602 2.6736637753 0.0569868765
H -0.2215456153 3.1159768724 -1.6416819769
H 3.4610911267 -1.8285908740 -0.7733146183
H 4.2080219696 -0.6487726489 0.3407627386
H 5.7019079034 0.1457292431 -1.5078207740
H 4.9558369489 -1.0285023407 -2.6200594302
H 5.9073253547 -1.5961394621 -1.2329667825
H -3.6712181640 -3.9826928442 -1.3919677926
H -3.2662566447 -4.3555666476 0.2812901394
H -2.1221470728 -4.7799534569 -1.0182081665
H -0.2163443466 -3.2546567134 -1.1599903602
H -3.9360801543 1.2584706443 -1.4905617803
H -4.2000145909 2.4886856766 -0.2378478794
H -2.5578611805 2.1599855190 -0.8251759924
H -2.6462306567 0.5297643192 2.5879016522
H -1.7996979928 1.7348545175 1.5978984989
H -4.3228015136 0.2077269705 0.7486597330
H -3.4508619029 2.0550308595 2.1660786281
