56
CONF18
C -2.5020533954 1.8891804563 -1.2786196360
C -2.5777240242 0.4448304354 -0.7321493236
C -3.2266601164 -0.4110138189 -1.8339445255
C -3.7447626795 -1.7574935080 -1.3433837922
C -4.7213307801 -1.5731828038 -0.2017551515
O -5.6410312047 -2.3602467321 0.0029772453
C -4.4472323859 -0.4563309053 0.7004377816
C -3.4434878377 0.4268793146 0.5130457011
C -2.9931951601 1.3416412227 1.6056014249
C -1.5935626274 0.8743360154 2.0567298487
C -0.5941710094 0.7278531452 0.9013447554
C -1.1968111535 -0.1238822504 -0.2439913030
C -0.2014429333 -0.4643574984 -1.3642841544
C 1.1304455795 -1.0173141503 -0.8200394102
C 1.7286293538 -0.1548656063 0.2876004858
C 0.6719162215 0.0324196143 1.3923831363
C 1.4581769446 0.6324418973 2.5625581452
C 2.8643150415 -0.0227348731 2.4485321069
C 2.8558469110 -0.8557141376 1.1460222148
C 4.1591932903 -0.9441078093 0.3628899570
O 4.3155616387 -1.8652651783 -0.4282256093
C 5.2845142466 0.0419953689 0.5615859796
O 6.3136771110 -0.1342826585 -0.3809035362
O 2.4787741112 -2.1889653074 1.4953513352
C 2.2545823721 1.1819061307 -0.2584789073
O -0.0140811804 0.6910907805 -2.1972652207
H -2.1319122946 1.8753397135 -2.3039958962
H -1.8450093582 2.5396273330 -0.6998913517
H -3.5058482785 2.3286824100 -1.2761145629
H -2.5306210614 -0.5331584060 -2.6693145911
H -4.0786871918 0.1603145566 -2.2250367079
H -2.9240062369 -2.3841876775 -0.9649024616
H -4.2356464472 -2.3231621624 -2.1402574155
H -5.0462960179 -0.4213778985 1.6081090874
H -3.6884691226 1.3087667196 2.4496048384
H -2.9384579057 2.3782937806 1.2549616445
H -1.7016899486 -0.1021947442 2.5498485820
H -1.1999156658 1.5713402226 2.8048541004
H -0.3405112944 1.7271541698 0.5262744205
H -1.4243472017 -1.1008525671 0.2120974959
H -0.6508848524 -1.2661645366 -1.9714946121
H 1.8298345318 -1.1439578806 -1.6578566120
H 0.9218860615 -2.0166569741 -0.4195291039
H 0.3708646037 -0.9821122664 1.6922204051
H 1.5252895549 1.7219760747 2.4663321595
H 0.9910764769 0.4198399111 3.5271969209
H 3.6467633340 0.7385415406 2.4308616435
H 3.0823600281 -0.6927097208 3.2832063950
H 5.6483108490 -0.1229298805 1.5937253154
H 4.9143902228 1.0738314599 0.5223667344
H 6.1384381199 -0.9880703695 -0.8108175889
H 2.7330671865 -2.7533024589 0.7493878441
H 1.4449992280 1.7702386464 -0.6890623823
H 2.9844038272 1.0101451962 -1.0583599395
H 2.7355319075 1.7833737557 0.5173909962
H 0.6570007077 0.4685547186 -2.8539254960
