41
CONF453
C 0.0189440527 4.8014331684 1.0757024694
C -1.1050558849 3.9199762987 0.5370007804
C -2.4329213830 4.6860364988 0.5175766806
N -1.1598741334 2.6774982175 1.3328321571
C -1.9209633576 1.5879479131 0.7167680399
C -1.0297203255 0.7351391318 -0.1848730948
O -1.8904622799 -0.1425742151 -0.9140468307
C -0.0227301865 -0.0579439035 0.6243269563
O 0.7571891212 -0.7905452668 -0.3355824942
C 1.4638980404 -1.8786602017 0.0839885181
C 1.7861820338 -2.1250825587 1.4184108224
C 2.5181581415 -3.2649937754 1.7484033379
C 2.9267572351 -4.1508905845 0.7590137003
C 2.5993535706 -3.8890364831 -0.5712304693
C 1.8690051805 -2.7613650538 -0.9330738991
C 1.4874773929 -2.4889911294 -2.3614994896
C 0.0386869107 -2.7311368649 -2.6991887168
C -0.8958329984 -3.2018053014 -1.8757357945
H 0.0986003851 5.7277813254 0.4982383212
H -0.1797965004 5.0724225910 2.1196640537
H 0.9773635332 4.2762975892 1.0360474080
H -0.8541200279 3.6271869418 -0.4915829759
H -3.2570001932 4.0635279537 0.1561536860
H -2.3679208602 5.5643842863 -0.1332828891
H -2.6804176837 5.0322426431 1.5285778732
H -1.5594535474 2.8978162428 2.2391445366
H -2.3335414451 0.9451771412 1.5044257484
H -2.7738612512 1.9305475746 0.1079426883
H -0.4778549047 1.3888429720 -0.8809091108
H -1.3318128713 -0.8109216306 -1.3418033041
H -0.5489692077 -0.7597218691 1.2869376673
H 0.6126015444 0.6115008904 1.2165101811
H 1.4812608416 -1.4344228686 2.1958757611
H 2.7680919315 -3.4520332356 2.7881185468
H 3.4960807747 -5.0378145203 1.0159253202
H 2.9108968230 -4.5794241260 -1.3507865310
H 1.7257069973 -1.4493048644 -2.6238891520
H 2.1027806154 -3.1106937920 -3.0249466339
H -0.2320442666 -2.4929424069 -3.7280379846
H -0.6685212310 -3.4530516127 -0.8424865897
H -1.9161601043 -3.3517627133 -2.2146292521
