123
CONF2
C -3.1108350355 3.9940946865 0.4927736313
C -1.6622460051 3.4917046322 0.4026927951
C -1.0631172907 3.4816029434 1.7820442118
C 0.1567254727 3.9288348481 2.1535692991
C 1.1753815045 4.3720152716 1.2358063190
C 2.4454715874 4.7839712004 1.4507633487
C 3.1701982008 4.9748759205 2.7461498440
O 3.8635726966 5.9642721083 2.9252118725
N 3.1448057291 4.0032550287 3.7566600887
C 2.6053945453 2.7016130923 3.6654860972
C 1.7968352452 2.2523426156 4.6729137640
C 1.0249161887 1.0203350428 4.6235321336
C 0.8822017197 0.3823116164 3.3742797943
C -0.1014042184 -0.6039865638 3.2382195123
C -0.7760968790 -1.0926827781 4.3679053282
C -0.5660574566 -0.5972192757 5.6483283175
C 0.3036472172 0.4999492837 5.7455748658
O 0.4291911080 1.0111222189 6.9849624845
C -1.2766048716 -1.1284939727 6.8534900645
O -1.6985235833 -2.0421681130 4.0858657027
C -1.9643298159 -1.9688884484 2.6326403197
C -0.8267372469 -1.0670249443 2.0887829326
O -0.7625861480 -0.7542562543 0.9105093383
O -2.0100039950 -3.2365821217 2.0681515992
C -0.8268414486 -3.7376145131 1.5125591335
C -0.7009870905 -3.8657984644 0.1966394377
C -1.7559629029 -3.4939479463 -0.8100474122
C -1.2287218084 -2.5748192872 -1.9299826323
C -2.3657521896 -1.7294796556 -2.5515608627
C -2.7038396571 -0.4493448519 -1.7376618931
C -2.0278516260 0.7463108684 -2.4454081584
C -2.1481660340 2.1166552509 -1.7326631905
C -1.5929056398 2.1062714282 -0.2906312234
O -0.2211150504 1.6794274579 -0.3199428610
C -1.4858268582 3.1960827535 -2.5980727080
O -0.6675511219 0.4479022446 -2.7722560130
C -4.2053019471 -0.2022756727 -1.5736389347
O -3.5649404703 -2.5529823395 -2.6524137858
C -3.8449688050 -3.1294771231 -3.8432949081
O -3.2283738811 -2.9436173845 -4.8663760763
C -5.0250083302 -4.0522172555 -3.7056989753
C -0.4408197959 -3.3402208137 -2.9933692439
O -2.2545403669 -4.7057078464 -1.4030884807
C -3.1857788415 -5.3690034108 -0.5637366324
C -3.3192918498 -1.3181857869 2.4535333056
C 1.8328117361 0.7341319857 2.3398545128
N 2.1022441774 0.0969936590 1.2488847218
C 3.2502330643 0.8011230996 0.6786171568
C 2.9094175352 1.3300862449 -0.7321036456
C 2.6109075389 0.1808488012 -1.6835905623
N 3.7588209057 -0.7231381823 -1.7916777506
C 4.0902339026 -1.2846748542 -0.4795190698
C 4.4227485380 -0.1958955549 0.5332806191
C 3.4995738200 -1.8106457925 -2.7382183007
C 3.2956050344 -1.3681940411 -4.1909471661
C 3.1602636093 -2.6112751687 -5.0732074730
C 4.4396763635 -0.4767663971 -4.6716233689
N 3.6184511250 1.9116204773 1.5527302379
C 2.7653842590 1.8553745633 2.5239867603
O 1.5761887314 3.0422654147 5.7700697141
C 3.3116289839 5.1946433223 0.2905554985
H -3.7444301697 3.2598439558 1.0052553626
H -3.1571570532 4.9295134895 1.0573619507
H -3.5367812636 4.1780960128 -0.4966921971
H -1.0920569700 4.1862922968 -0.2212098838
H -1.7273081189 3.1270652214 2.5720297003
H 0.3843687884 3.9416784863 3.2158293868
H 0.8848956979 4.3437250517 0.1885045966
H 3.8916206775 4.1702800584 4.4228299750
H 0.9350692001 1.8395525473 6.9458478588
H -1.8092606622 -0.3274837768 7.3746614406
H -0.5646754356 -1.5534313322 7.5686426403
H -1.9873793190 -1.9031474865 6.5645698274
H -0.0678724579 -4.0281367462 2.2365451118
H 0.2085273380 -4.3269638740 -0.1792128899
H -2.5796683050 -2.9848691592 -0.2891055638
H -0.5508818216 -1.8596153452 -1.4510475842
H -2.0801114305 -1.4499379398 -3.5690568553
H -2.2631923778 -0.5641875315 -0.7431642535
H -2.5386677953 0.8585732611 -3.4156383156
H -3.2202039528 2.3367570044 -1.6697717773
H -2.1799093160 1.3959376171 0.3126102305
H -0.1376790760 0.8800951618 0.2323498145
H -0.3956963102 3.1379562748 -2.5347300541
H -1.7967224707 4.2021543477 -2.3019839105
H -1.7592985652 3.0593543010 -3.6484101300
H -0.1507639732 0.7257242262 -1.9984067854
H -4.3848766260 0.6598974993 -0.9233884325
H -4.6866953822 -0.0052072660 -2.5386057943
H -4.7039065573 -1.0657945544 -1.1286172201
H -5.7894427931 -3.6237916601 -3.0537765519
H -5.4333902379 -4.2741847757 -4.6911028354
H -4.6742016189 -4.9811283269 -3.2439967866
H 0.3679426403 -3.9263772902 -2.5446924050
H -1.0812082007 -4.0221817992 -3.5550756088
H 0.0030649055 -2.6267618913 -3.6942297277
H -2.7528659920 -5.6154436863 0.4169966239
H -4.0841786518 -4.7505235687 -0.4078935661
H -3.4678788574 -6.2963973990 -1.0691715519
H -3.3579752869 -0.3647832058 2.9869410568
H -4.0899575125 -1.9868864948 2.8443973060
H -3.4890091895 -1.1451911816 1.3874252553
H 3.7819349343 1.8903415607 -1.0830223586
H 2.0557167729 2.0076911934 -0.6633018079
H 2.3939120161 0.6011448082 -2.6713159457
H 1.7045955493 -0.3624212179 -1.3469174759
H 4.9676668737 -1.9328944398 -0.5980614702
H 3.2644908878 -1.9110844780 -0.0878450002
H 5.2960471796 0.3763739008 0.2062422718
H 4.6425966948 -0.6389928991 1.5103886091
H 2.6188223997 -2.4102041224 -2.4220967229
H 4.3693309874 -2.4835143099 -2.7072050225
H 2.3528799809 -0.8092740228 -4.2644142298
H 2.9480959117 -2.3318154899 -6.1096239267
H 2.3499719992 -3.2625959926 -4.7287302967
H 4.0896700768 -3.1935236277 -5.0669195665
H 5.3935168438 -1.0140988382 -4.6058469007
H 4.5301164771 0.4248272804 -4.0602932437
H 4.2892829177 -0.1801974092 -5.7147981408
H 1.9582495991 3.9179250965 5.5867960443
H 2.7779739509 5.0666180325 -0.6534758462
H 4.2205298781 4.5825699780 0.2663530473
H 3.6249689123 6.2376008802 0.3939767478
