38
CONF5
C 5.2256198516 1.2105776379 -1.2467705218
C 3.9912134178 0.5518580723 -0.7299958535
N 3.0185780368 0.2977856628 -1.6209853505
C 1.9458212388 -0.3156522385 -1.1118068523
N 1.7868340346 -0.6783867204 0.1660158880
C 2.8161269987 -0.3683921144 0.9548782075
N 3.9425897742 0.2442657177 0.5712566081
O 2.7651197501 -0.6767310441 2.2441085766
C 1.5726381396 -1.3485145071 2.7300476201
N 0.9341520524 -0.5761619478 -2.0127457493
C -0.3335269461 -1.1384432191 -1.8446386243
O -1.1141396506 -1.1820373161 -2.7814091424
N -0.6035116699 -1.6328633242 -0.5849629444
S -2.1837974791 -2.0574552993 -0.1252498999
O -2.1033619105 -2.2375530616 1.3265124411
O -2.6347494161 -3.1649427050 -0.9695731219
C -3.2093658897 -0.6486556662 -0.5358420268
C -3.0820781533 0.6415042556 -0.0466798235
S -4.3563950629 1.6365191347 -0.6818548504
C -5.0237077716 0.3256603940 -1.5715814895
C -4.3101763071 -0.8308507650 -1.4034698820
C -2.0587612675 1.2122491901 0.8364728074
O -1.0883640333 0.6061214861 1.2478229739
O -2.3268428996 2.4970460416 1.1243645251
C -1.3557364627 3.1606972079 1.9733752893
H 4.9639074743 2.0170584638 -1.9358119420
H 5.8367474741 1.5890296542 -0.4276843233
H 5.8091577838 0.4754763630 -1.8135096169
H 0.6941661364 -0.7185549588 2.5734089792
H 1.7544305157 -1.4994768017 3.7929287287
H 1.4471997622 -2.3082242651 2.2225132401
H 1.1088049737 -0.2561636724 -2.9573570173
H 0.0327338554 -1.3534057895 0.1747035704
H -5.9069133054 0.4759355884 -2.1788220444
H -4.5531704503 -1.7715860046 -1.8779514003
H -0.3764759704 3.1606557964 1.4891204679
H -1.2959109134 2.6527111775 2.9384586071
H -1.7288570070 4.1764349916 2.0927139620
