57
CONF80
C -4.3949780456 -0.9395802016 -2.9896081837
C -3.4584565121 -1.3566059610 -1.8643700137
C -2.5178701622 -0.2311844748 -1.4461997539
O -2.5190186326 0.8447908564 -2.0499186462
N -1.6933870929 -0.4831120127 -0.3788196132
C -1.7549016174 -1.7660905545 0.2655477554
C -1.0122342733 -2.8317193974 -0.2418796299
C -1.0731300337 -4.0776980137 0.3755268334
C -1.8726037568 -4.2605449512 1.5021202093
C -2.6114771939 -3.1933903535 2.0091542103
C -2.5539659383 -1.9462544039 1.3933197383
C -0.7439136094 0.5679138572 0.1444575424
C 0.0778797197 -0.0132297388 1.3095058900
C 1.2093053082 0.9149447006 1.7383099141
N 2.1267551467 1.1759096773 0.6260465376
C 1.4046591991 1.8296816848 -0.4672583915
C 0.2487601921 0.9662179488 -0.9664236108
C 3.2646640226 1.9727523952 1.0829320971
C 4.3830898327 2.0981283079 0.0371381919
C 4.8394135936 0.7856237164 -0.5121642798
C 4.7699650792 0.3285629392 -1.8014449406
C 5.2725969367 -0.9930316749 -1.9710663367
C 5.7250190379 -1.5444287885 -0.8059611101
S 5.5370723971 -0.4395760872 0.5211862731
C -1.5501524822 1.7854821740 0.6109985620
O -2.4308658427 1.3982504801 1.6626146855
C -3.2196330006 2.4963139444 2.1077960140
H -5.0206279366 -0.0944115703 -2.6902777572
H -5.0488531413 -1.7747487332 -3.2567539565
H -3.8348730935 -0.6414600340 -3.8794462612
H -4.0262762019 -1.6910100426 -0.9884665414
H -2.8567757738 -2.2216866142 -2.1677408013
H -0.3921576360 -2.6767661187 -1.1199560086
H -0.4937489523 -4.9048840686 -0.0225323837
H -1.9194017247 -5.2322312933 1.9835982919
H -3.2356248399 -3.3316172981 2.8865880502
H -3.1197332100 -1.1037227589 1.7770647692
H 0.5227662990 -0.9619624164 0.9933094960
H -0.5662839806 -0.2176034310 2.1685913059
H 1.7719497122 0.4240208285 2.5411541493
H 0.8068187606 1.8562676802 2.1633076753
H 2.0895555587 1.9874042188 -1.3067916056
H 1.0391150718 2.8307735045 -0.1605644059
H -0.2740840744 1.4933666850 -1.7665751473
H 0.6571528602 0.0394049567 -1.3881816935
H 2.9547303351 2.9925429058 1.3872419895
H 3.6745089300 1.4835097694 1.9758833546
H 4.0622205773 2.7204705514 -0.8041828435
H 5.2160617980 2.6293453247 0.5138882681
H 4.3637470314 0.9299715371 -2.6075909583
H 5.2977797727 -1.5134394535 -2.9216412592
H 6.1571887212 -2.5224236044 -0.6417970104
H -0.8620026591 2.5636962010 0.9718787960
H -2.1198362130 2.1988004330 -0.2297601671
H -2.5881501281 3.3043435705 2.5070287718
H -3.8344984850 2.9009105772 1.2900611151
H -3.8732604438 2.1258906276 2.9011222357
