38
CONF17
C 4.8654462898 -1.5439989375 -0.3412892865
C 3.8143605108 -0.8141091065 0.4897360048
C 3.3022306059 -1.7041955152 1.6270303056
N 2.7496133148 -0.3389531246 -0.4146051378
C 1.7071359757 0.4673272756 0.2304351942
C 0.9329843257 1.2117463096 -0.8535286838
O 1.8344500692 1.9647454800 -1.6714001865
C -0.0558870112 2.2153214423 -0.2720821024
O -1.0890233389 1.5653459617 0.4809616430
C -2.1370856219 0.9957600643 -0.1894961032
C -2.3462382346 1.0360442402 -1.5636095654
C -3.4846963661 0.4256032990 -2.1301987455
C -4.4317953042 -0.2326012981 -1.3629299198
C -4.2060564710 -0.2666983317 0.0169875433
N -4.9486538398 -0.8316349417 1.0262667056
C -4.3299032659 -0.6088229418 2.2367932790
C -3.1738768211 0.1044125722 2.0346551953
C -3.0746304808 0.3337807409 0.6260026914
H 4.4271113146 -2.4310222624 -0.8148559003
H 5.2626985720 -0.8947685289 -1.1273191050
H 5.6944869914 -1.8755734193 0.2909678707
H 4.2726234665 0.0842874246 0.9276855763
H 4.1312629525 -2.0259502246 2.2661027910
H 2.8186776746 -2.5997409524 1.2176457034
H 2.5772984365 -1.1791156927 2.2563264596
H 2.3153070441 -1.1495706369 -0.8518248394
H 1.0020879593 -0.1117321724 0.8473615106
H 2.1978364918 1.2043103559 0.8815415560
H 0.3903919624 0.4770227163 -1.4721878802
H 2.6269147507 1.4011731296 -1.7249109141
H 0.4576218383 2.8647483037 0.4437094972
H -0.4812136910 2.8419351551 -1.0646974336
H -1.6403596423 1.5261255494 -2.2227772038
H -3.6127254019 0.4767381511 -3.2070695610
H -5.3032860525 -0.6998631528 -1.8087282667
H -5.8149443101 -1.3304085296 0.9012931852
H -4.7679014566 -0.9811841517 3.1520558865
H -2.4822633161 0.4235162677 2.7996211448
