74
CONF73
C -0.6084814318 -1.9446055324 -0.7244776222
C -0.0165968387 -3.2762283039 -1.1681513253
O -0.8278286546 -4.2704309873 -0.4547742146
C -1.4192889621 -3.7113160719 0.6360103257
O -2.0785441167 -4.3744861768 1.4013822206
C -1.0398109584 -2.2530508407 0.7010742889
C -2.0313222669 -1.2159673245 1.2335933962
C -3.4256148822 -1.3461595142 0.6282458856
C -3.7747796871 -0.6600167064 -0.5370450123
C -5.0445130593 -0.8321903225 -1.0830368377
O -5.5075133659 -0.2194117898 -2.2166941388
C -4.6070865472 0.6551515847 -2.9076829957
C -5.9787699636 -1.6780904488 -0.4763049496
O -7.2298409340 -1.8488291277 -0.9979814246
C -5.6290452736 -2.3549266057 0.6980258948
O -6.6038604155 -3.1513816167 1.2233395466
C -6.2701277551 -3.8986557847 2.3994279750
C -4.3569299943 -2.1822305380 1.2468796611
C -1.4488039106 0.1694309111 0.9742204751
C -2.0390139340 1.2405426664 1.6748214229
C -1.6176120610 2.5135408469 1.3811517959
C -0.6608488486 2.7610332379 0.4016685814
O -0.4789806025 4.1143230587 0.2607051606
C -1.1654817403 4.7016693593 1.3856016410
O -2.0705979855 3.6992089935 1.8974183418
C -0.0765161216 1.7410717273 -0.3045060080
C -0.4624743928 0.4165293770 0.0050112463
C 0.2546031098 -0.7016760858 -0.7280382294
O 1.5003900679 -1.0920860204 -0.0706389635
C 2.4224771055 -0.0868029667 0.1737887549
O 2.8909788054 0.4136674373 -1.0882183233
C 3.8288675919 1.4678667779 -0.8909031998
C 4.2183596109 2.0691438775 -2.2306545883
O 5.2385080674 3.0504787387 -2.0004482176
C 6.3808705176 2.4859665123 -1.3662834162
C 7.4042104528 3.5730680902 -1.1788457370
O 6.0461257824 1.9589745406 -0.0819995556
C 5.0850216702 0.9114297352 -0.2171607243
C 4.7068169363 0.3488367784 1.1385685043
O 5.8007431990 -0.2257417258 1.8548622571
C 3.5881771015 -0.6887600602 0.9567753486
O 3.0936834058 -1.1168152413 2.2202582074
H -1.4990107594 -1.7378998907 -1.3303934010
H -0.1200321545 -3.4827550209 -2.2340726023
H 1.0224921545 -3.4019704231 -0.8524156593
H -0.1446837772 -2.2268881605 1.3437034334
H -2.1299013617 -1.3536028668 2.3163455167
H -3.0690264763 0.0204746076 -0.9967838724
H -4.3145377244 1.4975478838 -2.2701203405
H -3.7137781915 0.1122615498 -3.2378100843
H -5.1572379748 1.0224205295 -3.7742066338
H -7.2902773240 -1.3026644810 -1.7958742179
H -7.1583713746 -4.4845289721 2.6374867448
H -5.4235641411 -4.5695303510 2.2113507772
H -6.0337479910 -3.2316107559 3.2369553460
H -4.0753432551 -2.7057991647 2.1508100591
H -2.8207402711 1.0581451700 2.4052364645
H -0.4331910692 4.9559878491 2.1638528390
H -1.7375036924 5.5686589646 1.0503550456
H 0.6613881630 1.9348558016 -1.0767055159
H 0.4952672440 -0.3798871668 -1.7480286893
H 1.9796048531 0.7466153862 0.7473538951
H 3.3974476033 2.2557917787 -0.2506245031
H 3.3770074887 2.5835446875 -2.7016915119
H 4.5860838991 1.2778271772 -2.9030804882
H 6.7569372435 1.6566181658 -1.9934980415
H 8.2927826082 3.1635769574 -0.6934602279
H 6.9883146862 4.3700666214 -0.5562388418
H 7.6873772539 3.9853632358 -2.1497829310
H 5.4973509074 0.1064602544 -0.8531710481
H 4.3362488166 1.1621071392 1.7759815182
H 6.2054176493 -0.9024331847 1.2935182581
H 3.9808089615 -1.5421141931 0.3773330071
H 3.8668685870 -1.3187125025 2.7661630747
