63
CONF57
C 1.4320759325 -1.0619358076 -0.0851113356
C 0.2859656645 -1.4896027664 -0.9956154151
N -0.1046351585 -0.4023407020 -1.9025133401
C 1.0331181235 -0.0309797533 -2.7523599503
C 2.2076032668 0.4673266410 -1.9154523906
C 2.6279475425 -0.6176043049 -0.9246651996
N 3.7625636289 -0.2049529001 -0.0935290342
C 5.0151027954 -0.8095147799 -0.0778823137
C 5.5347805936 -1.8838703031 -0.7859525806
C 6.8599437612 -2.2476355556 -0.5270771818
C 7.6354645036 -1.5586622296 0.4081221835
C 7.1139255604 -0.4761672076 1.1223637272
C 5.8011301365 -0.1170061236 0.8648117751
N 4.9996648694 0.8807832713 1.3866020817
C 3.7369911417 0.8502887707 0.8150667122
O 2.7980396814 1.6040393263 1.0655150418
C -1.2578408205 -0.7790735105 -2.7328939358
C -2.5608684406 -0.8726401092 -1.9402536416
C -2.9901786975 0.4686439232 -1.3338313070
C -3.7949586076 0.2938741555 -0.0333535483
C -2.9008264295 -0.2724101908 1.0605989955
C -3.0825272031 -1.5719941948 1.5367680946
C -2.2272879865 -2.1190501972 2.4931728723
C -1.1908344363 -1.3344938976 2.9640430136
C -0.9807078974 -0.0351026102 2.5316623002
C -1.8447492322 0.4865487516 1.5753342846
F -0.3417723086 -1.8570064535 3.8906817102
C -4.4809959153 1.5629936061 0.4414915419
C -5.6170135096 1.4559105089 1.2518101571
C -6.2645482925 2.5821185257 1.7488490910
C -5.7510968465 3.8260970321 1.4211541855
C -4.6332817940 3.9833364718 0.6229205886
C -4.0023896159 2.8393146454 0.1350663415
F -6.3753238245 4.9367843342 1.9000506774
H 1.7176412026 -1.8980243831 0.5635645634
H 1.1043273672 -0.2351423508 0.5518226470
H -0.5693794042 -1.7662816832 -0.3715594175
H 0.5840163129 -2.3917994209 -1.5705722055
H 1.3620814187 -0.8900570513 -3.3746778136
H 0.7114050958 0.7602362568 -3.4390881587
H 1.9132364826 1.3686463473 -1.3682342072
H 3.0475482917 0.7213980190 -2.5716795682
H 2.9806882425 -1.4827150956 -1.4986936781
H 4.9437249980 -2.4272304178 -1.5145103401
H 7.2905192434 -3.0844085923 -1.0672522895
H 8.6606579154 -1.8664130246 0.5859330054
H 7.7101067104 0.0631411203 1.8508191235
H 5.2640319246 1.5568754861 2.0856071716
H -1.0724548822 -1.7380446022 -3.2562324011
H -1.3700717464 -0.0101953570 -3.5090436166
H -3.3445599586 -1.2469981934 -2.6092395086
H -2.4586743662 -1.6251906564 -1.1507862847
H -2.0950247818 1.0648177633 -1.1246212300
H -3.5908737195 1.0313397200 -2.0588795058
H -4.5840074489 -0.4463214781 -0.2193289310
H -3.8982665872 -2.1754386896 1.1487769700
H -2.3590305666 -3.1308521679 2.8612902578
H -0.1566023743 0.5463168146 2.9315181802
H -1.6880322749 1.5028599700 1.2251876939
H -6.0033528241 0.4707148732 1.4996208892
H -7.1484898892 2.5022989522 2.3725495427
H -4.2665705505 4.9764924538 0.3865097734
H -3.1270706456 2.9589965199 -0.4943939739
