42
CONF27
C 3.0155189545 1.2696890130 -2.0918386751
C 3.1085488234 0.8647877903 -0.6611515215
N 1.9677464008 0.8456899344 0.0441916009
C 2.0991252612 0.4919463276 1.3305136013
N 3.2412215525 0.1496810448 1.9335013670
C 4.3034227624 0.1925581239 1.1267432645
N 4.3084260781 0.5459225760 -0.1658265791
O 5.4420475912 -0.1553747838 1.7162963544
C 6.6519432257 -0.1376276391 0.9162368299
N 0.9854202405 0.4658877868 2.1425829360
C -0.3578509414 0.7591270747 1.8851713161
O -1.1895374273 0.6281707078 2.7696723941
N -0.6388983024 1.1969425996 0.6124991828
S -2.2407715169 1.3016596180 0.0327374472
O -2.9524800715 2.3327096397 0.7929820578
O -2.0646553135 1.4686340737 -1.4156251203
C -2.9838653337 -0.2765342845 0.4071760584
C -4.1611816781 -0.2865163016 1.1472361018
C -4.7953275734 -1.4931968488 1.4145160111
C -4.2328024118 -2.6778229248 0.9480476292
C -3.0474972939 -2.6777521262 0.2188932568
C -2.4056102224 -1.4699680706 -0.0651910264
O -1.2458681652 -1.3601190876 -0.7493545166
C -0.6623941484 -2.5503602706 -1.3023327329
C 0.5748103704 -2.1453389993 -2.0513693887
Cl 0.1627114680 -1.1302661842 -3.5162840548
H 2.5238155915 2.2443962697 -2.1678590449
H 2.3885976877 0.5541934444 -2.6347615947
H 4.0037360249 1.3118119835 -2.5483112972
H 6.5636656150 -0.8345834396 0.0803186435
H 7.4381678393 -0.4543742697 1.6000400644
H 6.8461085791 0.8708869111 0.5454368965
H -4.5692496048 0.6506521461 1.5073721289
H -5.7158694337 -1.5058182960 1.9867223147
H -4.7175139232 -3.6261909583 1.1566772591
H -2.6290996182 -3.6167638138 -0.1209065743
H -1.3808986730 -3.0542292897 -1.9591395490
H -0.3646184423 -3.2331523027 -0.4939469039
H 1.2400656251 -1.5426503808 -1.4298105984
H 1.0968645674 -3.0312647462 -2.4159012732
H 0.1127185724 1.1304566951 -0.0895238174
H 1.1569805416 0.1851519463 3.0999982545
