35
CONF870
C -0.3391775472 2.8364539699 0.7393920442
C 0.0107234860 2.0372586554 1.9712688719
O 0.7573865770 0.9013363518 1.5673375711
C 1.1652043358 0.0941546035 2.6611210183
C 1.8037843049 -1.1618272992 2.1190221442
O 0.7862144122 -2.0585044863 1.6970231124
C 1.2622905251 -3.0644454196 0.8068597659
C 1.1461687349 -2.6371111047 -0.6441269466
O -0.2184949261 -2.7430006434 -1.0311352831
C -0.6087477376 -1.8304700818 -2.0526951474
C -1.0529268530 -0.5141162249 -1.4329514818
O -1.3395683234 0.3778682917 -2.5149143043
C -2.1410938964 1.4957555847 -2.1703054828
C -1.4107926905 2.5535438449 -1.3643056951
O -1.2536694620 2.0811870528 -0.0344191237
H -0.7779194858 3.8046338224 1.0384139961
H 0.5799344426 3.0381584407 0.1652737869
H 0.6010057764 2.6704214261 2.6573321277
H -0.9107483392 1.7300452264 2.4927506231
H 0.3037646774 -0.1765335140 3.2930239823
H 1.8952180659 0.6375538620 3.2869054719
H 2.4205211769 -1.6319158329 2.9047037527
H 2.4680818282 -0.8828797351 1.2852203744
H 0.6386011177 -3.9512497763 0.9645718048
H 2.3051030947 -3.3328140520 1.0403826812
H 1.7693117278 -3.2894726852 -1.2811340160
H 1.5124875775 -1.6046745270 -0.7529463459
H -1.4393755486 -2.2927413398 -2.5964881495
H 0.2069725117 -1.6549347551 -2.7710694325
H -1.9493618931 -0.6773168525 -0.8163740103
H -0.2746314130 -0.1116782490 -0.7717001253
H -3.0392556365 1.1754715853 -1.6164294916
H -2.4605453367 1.9394710156 -3.1204609811
H -0.4277738219 2.7464554368 -1.8249454741
H -1.9886909802 3.4959168004 -1.3781071285
