22
CONF1
Cl -5.2772195682 -0.4822376165 -0.3378378875
C -3.5370514984 -0.5076878711 -0.2178933370
C -2.8578992101 -1.6488304039 0.2129887174
Cl -3.7275427842 -3.0941360812 0.6659418714
C -1.4717087286 -1.6475517586 0.3000022610
C -0.7401763201 -0.5064675814 -0.0438479031
C -1.4323824724 0.6329057524 -0.4731979736
C -2.8163626210 0.6325908709 -0.5602356520
C 0.7334828534 -0.5078299492 0.0478744072
C 1.4626070817 -1.6520607147 -0.2906288859
C 2.8487871912 -1.6558886298 -0.2034806504
Cl 3.7153880722 -3.1050874587 -0.6497461347
C 3.5303360671 -0.5142321589 0.2222106501
Cl 5.2705361401 -0.4919521785 0.3422609602
C 2.8120562119 0.6291686140 0.5591733566
C 1.4280891245 0.6320407773 0.4719879910
H -0.9679731999 -2.5367170958 0.6620544389
H -0.8876726466 1.5235063561 -0.7670142201
H -3.3457070076 1.5140211064 -0.9041179517
H 0.9570341663 -2.5418245914 -0.6486299125
H 3.3432587336 1.5110494527 0.8990085351
H 0.8852625415 1.5251650819 0.7616016135
