51
CONF42
C 2.4607622393 1.8121780179 2.3212846971
C 2.9809544067 2.1593646312 0.9384842986
C 3.4056072397 3.6067938734 0.8079722922
O 1.8910653276 1.9892069358 -0.0368785863
C 1.5571558679 0.7570235227 -0.4283708067
N 2.3155980775 -0.2836730845 -0.0929752557
C 1.8726875181 -1.4680221974 -0.5416701434
C 0.7197916622 -1.6498075926 -1.2627690951
C 0.0025315773 -0.4647357009 -1.5337364582
N 0.4317166635 0.7275195046 -1.1583114301
O -1.1560547735 -0.6137086839 -2.1808827102
C -2.0317164729 0.5448896605 -2.3932083380
C -3.3776820797 0.2543342595 -1.7958658118
C -4.4869050835 0.1207608846 -2.6327583289
C -5.7486547227 -0.1492263299 -2.1102446474
C -5.9069267600 -0.3009326940 -0.7359463921
C -4.8060350428 -0.1729206308 0.1068280243
C -3.5389102969 0.1119398785 -0.4054729110
C -2.3833026187 0.2481455539 0.5174224261
C -1.8091360606 1.4460530710 0.7760241464
O -2.2714759408 2.5695018921 0.2251335448
C -1.5066948549 3.7638952027 0.5286534668
C -1.8422660259 -0.9705076240 1.1189138073
O -2.3182250190 -2.0855663547 0.9587222047
O -0.7266882693 -0.7549011810 1.8608766131
C -0.1516041368 -1.9280673027 2.4769369981
C 2.7699294931 -2.6334081274 -0.1804676504
F 3.9937244742 -2.4945615573 -0.7436766361
F 2.2656878358 -3.8124727218 -0.5950709057
F 2.9577189126 -2.7182820409 1.1563555135
H 3.2624402093 1.9424745124 3.0543851306
H 2.1169412754 0.7754611524 2.3671051577
H 1.6321813966 2.4761023376 2.5892715588
H 3.7965388063 1.4906222252 0.6495476127
H 4.2224200593 3.8059809056 1.5071552282
H 3.7544163956 3.8222399928 -0.2055192962
H 2.5719306267 4.2741912222 1.0486121338
H 0.3631958765 -2.6154761511 -1.5928546181
H -1.5676879744 1.4296742498 -1.9566875511
H -2.1073536959 0.6697430345 -3.4757299227
H -6.6011656617 -0.2480633783 -2.7747002404
H -6.8852971973 -0.5167258456 -0.3180474959
H -0.9514050513 1.5413680463 1.4383782004
H -2.0270236436 4.5853791076 0.0379438326
H -1.4796801348 3.9254879902 1.6101929484
H -0.4927089396 3.6645807506 0.1305532242
H 0.0821214276 -2.6821476753 1.7210639233
H 0.7598421777 -1.5801003940 2.9626605703
H -0.8422946229 -2.3486722664 3.2127197450
H -4.9258085670 -0.2873035696 1.1800980485
H -4.3560364814 0.2280802629 -3.7059984028
