41
CONF337
C -3.0584908675 -1.9909255327 1.2055858414
C -3.4490988622 -0.6386599246 1.8165328113
C -4.9666256933 -0.4683444087 1.8045969553
N -2.8423030391 0.5233698990 1.1392142875
C -1.3845344279 0.5913488921 1.2504313889
C -0.8551353929 1.7695715556 0.4378764658
O -1.2021326424 1.6355179828 -0.9496773639
C 0.6462647151 1.9534306655 0.5848729281
O 1.2479230132 0.7535363513 0.0729708503
C 2.5604752180 0.7666583696 -0.2917307790
C 3.4507092968 1.7885826538 0.0400443987
C 4.7792546201 1.7023757556 -0.3770124210
C 5.2184219562 0.6073415951 -1.1120348815
C 4.3181515252 -0.4117003181 -1.4270220074
C 2.9854412844 -0.3549331377 -1.0286898868
C 2.0030152539 -1.4482108189 -1.3778711455
C 0.9797194272 -1.0262521773 -2.3977474249
C -0.3333182126 -1.2285421339 -2.2868428845
H -1.9773984150 -2.1562447110 1.2271935068
H -3.5319960441 -2.8122172687 1.7539570449
H -3.3938731510 -2.0406299750 0.1620276333
H -3.1010757771 -0.6112430032 2.8594522857
H -5.4544197032 -1.2985227908 2.3247003260
H -5.3369830861 -0.4528091159 0.7722089471
H -5.2585221702 0.4686165287 2.2881515924
H -3.0774231217 0.4721977878 0.1496471271
H -1.1160249726 0.7421956176 2.3053187232
H -0.8698762528 -0.3234703779 0.9096191702
H -1.3419737542 2.6911370125 0.7793469505
H -0.6941236673 0.8817645638 -1.2962528426
H 0.9271675636 2.1063253124 1.6357747865
H 0.9700066906 2.8171502563 -0.0085942882
H 3.1232809755 2.6400498666 0.6250032403
H 5.4685850598 2.4997658494 -0.1166538749
H 6.2520603830 0.5402848126 -1.4351633232
H 4.6545394842 -1.2734074631 -1.9979385494
H 2.5731701380 -2.2912874736 -1.7887903443
H 1.4882937992 -1.8074567014 -0.4791324159
H 1.3766894599 -0.5433004206 -3.2914326289
H -0.7576698758 -1.7074437414 -1.4060751084
H -1.0201702265 -0.9349794475 -3.0758651068
