33
CONF1
C -3.3003145999 0.1620252859 3.4406805103
C -2.3315524801 0.3097464516 2.3318046385
N -1.0756521772 -0.0082663577 2.4027583469
N -0.5478980831 0.2859361053 1.1547199928
C -1.4867634102 0.7844865942 0.2719755805
O -1.3648400990 1.1354366753 -0.8873340412
N -2.6497080817 0.7974708601 1.0675480807
C -3.8952146195 1.2741711869 0.5812863645
F -4.8602598472 0.3148677692 0.7196961541
F -4.3166368558 2.3478093820 1.3190618652
C 0.7983851072 0.0344276951 0.8278379028
C 1.8548242599 0.6125553369 1.5378002183
C 3.1637040580 0.3544881960 1.1529692967
C 3.4093025301 -0.4253528137 0.0328647207
C 2.3659208956 -1.0000092845 -0.7112919588
C 1.0613322020 -0.7805280061 -0.2660964754
N 2.6306713956 -1.7994873138 -1.8310425186
S 1.6722341774 -1.6995108574 -3.2563377992
O 0.3380114078 -2.2132433651 -2.9360517090
O 2.5006925951 -2.3401238800 -4.2815749224
C 1.5256528041 0.0649388577 -3.6040491283
Cl 5.0711421242 -0.6857734669 -0.4542771819
Cl 1.5654578898 1.6952595533 2.8695638418
H -4.1005600073 -0.5329816632 3.1697834777
H -2.7700624594 -0.2209253294 4.3132258778
H -3.7581193379 1.1242076287 3.6891211445
H -3.7974021057 1.5601679391 -0.4707143710
H 3.9888099087 0.7928373583 1.7005413043
H 0.2320706607 -1.2452792274 -0.7854109712
H 3.6127777200 -1.8619125682 -2.0854105385
H 0.9348558686 0.1410616274 -4.5203862557
H 2.5275941792 0.4741886383 -3.7473748526
H 1.0015456818 0.5473116855 -2.7751653978
