49
CONF38
C -5.8726110343 -2.4162886738 -0.3940455316
C -5.1124023802 -1.2186242485 -0.8901745497
C -4.1691654089 -0.6408894179 -0.1312867463
C -3.3455045124 0.5252479670 -0.4858887706
C -1.9075309211 0.6168627283 0.0354967737
C -2.9766454507 1.6107144296 0.4917009005
C -3.4058261159 1.4949848954 1.9377440253
C -2.9414491372 3.0349712087 -0.0127530154
C -0.8497968355 1.0032064255 -0.9138226144
O -0.9928068425 1.6122517658 -1.9540519885
O 0.3668232474 0.5766847651 -0.4739123267
C 1.4666930647 0.9100475698 -1.3614367675
N 2.6645002810 0.4255341989 -0.7657444436
C 3.1498529087 -0.8889187585 -0.8992972792
O 2.6789745063 -1.7428962119 -1.6156200623
C 4.3337502412 -0.9800900243 0.0031387404
C 4.4953558088 0.1959263737 0.6299072709
C 3.4267693961 1.1341299818 0.1817174487
O 3.2337259513 2.2781383019 0.5261440643
C 5.5805814969 0.5064679999 1.5955020812
C 6.6675063424 -0.5764383696 1.5102708459
C 6.0587699273 -1.9845756693 1.4528737672
C 5.1928577668 -2.1760595056 0.1980001256
C -5.5057615832 -0.7627076492 -2.2654206104
H -5.7361188609 -3.2701732880 -1.0699641427
H -5.5540140448 -2.7170355017 0.6071107523
H -6.9501270589 -2.2097435541 -0.3657397608
H -3.9821149583 -1.0770284430 0.8481035369
H -3.4229148091 0.8826068509 -1.5081963067
H -1.6063608744 -0.1138995034 0.7786706730
H -4.4403445350 1.8382490851 2.0513195296
H -3.3472791570 0.4721602846 2.3147456233
H -2.7686349981 2.1237097379 2.5687264286
H -3.9363906266 3.4819061171 0.0926456579
H -2.2391398972 3.6349239930 0.5775340056
H -2.6432241601 3.0905180848 -1.0604501316
H 1.3099753011 0.4245397289 -2.3282874562
H 1.5244646707 1.9956701402 -1.4748229177
H 5.1582128267 0.5578920873 2.6090760262
H 5.9865537269 1.5044542441 1.3939572979
H 7.2679058076 -0.4082151225 0.6069424577
H 7.3457132697 -0.4913834635 2.3648828263
H 5.4356853579 -2.1417581317 2.3427072512
H 6.8491892892 -2.7409000466 1.4784663968
H 5.8211764276 -2.3197118515 -0.6924681332
H 4.5704681401 -3.0755736033 0.2686148572
H -5.3422626860 -1.5670801674 -2.9935160032
H -6.5773865571 -0.5292115351 -2.2947782285
H -4.9596921944 0.1174034893 -2.6056439711
