45
CONF26
C -1.8818623539 -2.3556147193 0.8289418493
C -1.8433073094 -1.9738660451 -0.6151898441
C -1.8760708898 -0.7154554056 -1.0677075395
C -1.8516884666 -0.3763196893 -2.4985167869
C -0.8603504371 0.6831259944 -3.0750354114
C -2.3621024428 0.9234158766 -3.0571205520
C -3.0104516348 1.9559917606 -2.1613021763
C -3.0071762074 0.8538680933 -4.4280897106
C 0.1951926027 1.2725661752 -2.2372214385
O 1.3778697791 1.1957562699 -2.5197566689
O -0.2483950353 1.8914743649 -1.1141874931
C 0.7765421619 2.3688521417 -0.2000066856
C 1.2537123797 1.2463524547 0.6751362674
C 0.4006227778 0.6839206274 1.6224983535
C 0.7959328777 -0.3728994104 2.4242357520
C 2.0650412991 -0.9347394318 2.3188996698
C 2.9188732424 -0.3655590702 1.3833813474
C 2.5292533788 0.7018870130 0.5827598484
F 3.4256687840 1.2132782894 -0.2746736369
F 4.1691617915 -0.8440456367 1.2399606292
C 2.4883135358 -2.0607326691 3.2334502426
O 2.7559430163 -1.6004340286 4.5560569292
C 3.9371894566 -0.7984624321 4.6290879850
F -0.0698374800 -0.8603200800 3.3303537279
F -0.8399759675 1.1842190468 1.7685665976
H -2.0079290526 -1.4785040091 1.4699036601
H -0.9574427331 -2.8685453951 1.1247866266
H -2.7033611523 -3.0533418256 1.0312832725
H -1.7808625346 -2.7909666203 -1.3355207057
H -1.9311111974 0.0984697023 -0.3497223807
H -1.9398249699 -1.2384003580 -3.1568207683
H -0.4496611737 0.3994335498 -4.0387026852
H -4.0848001041 1.7485095730 -2.1053178951
H -2.8826799162 2.9553906344 -2.5910650755
H -2.6088503961 1.9700053066 -1.1505237559
H -2.5320543743 0.0962612501 -5.0577634753
H -2.9310299453 1.8221917825 -4.9352148630
H -4.0689641879 0.6025809207 -4.3295400845
H 1.6036755600 2.8079210153 -0.7575127858
H 0.2742353088 3.1325417406 0.3953250727
H 3.3664709022 -2.5667338323 2.8128421946
H 1.6726494726 -2.7823304793 3.3222707144
H 3.8295415268 0.1321227062 4.0543135820
H 4.0833007426 -0.5505662501 5.6821547862
H 4.8106001751 -1.3522991818 4.2569704261
