63
CONF103
C 8.2416097868 -0.5417173776 -3.3317076991
C 6.9596465466 0.2004655527 -3.6990475628
N 5.9700141902 0.1550078561 -2.6162328010
C 6.1578993130 1.0204005074 -1.4503355172
C 4.8159608043 1.4136411236 -0.8841717277
N 4.0559509246 0.2013303793 -0.5170354689
C 4.1575261176 -0.9145817179 -1.3106053654
O 3.5754895605 -1.9739126498 -1.1053778042
C 5.0506658684 -0.8254077259 -2.5794950206
O 4.8728942443 -1.6641367771 -3.4609933021
C 3.1046125080 0.3677488658 0.5451368614
O 2.9095117944 1.4858696096 1.0112796880
N 2.4924701493 -0.7476560916 0.9895464294
C 1.4041219129 -0.6180663365 1.9395723275
C 0.8393216450 -1.9789040858 2.2907887106
C 0.7417403611 -2.3691006100 3.6266404338
C 0.1951512324 -3.6067574652 3.9573752932
C -0.2552748639 -4.4616415859 2.9546152449
C -0.1619450871 -4.0736881228 1.6190095026
C 0.3783228540 -2.8352625776 1.2865402115
C 0.2703713058 0.2446849538 1.3400218303
O 0.0390963863 0.2833951284 0.1354780554
N -0.4785755996 0.9040144580 2.2547002360
C -1.6172687798 1.6792857761 1.8718534975
C -2.8389782150 1.0122840302 1.1635584790
N -2.6831250065 1.9885042898 0.0715537951
C -1.5498592086 2.5779760200 0.6138755559
O -0.8428042786 3.4797431415 0.2280849432
C -3.8719911669 2.5909954206 -0.5009081181
C -5.0792936020 1.7579505704 0.0703380974
S -4.5337543086 1.2799028445 1.8010564093
C -5.2657486903 0.5066651374 -0.7896556652
C -6.3804308496 2.5454732078 0.1575738687
C -3.9778871037 4.0634344685 -0.1156721876
O -4.5487052793 4.7711606320 -1.1039136665
O -3.6296792269 4.5307729606 0.9449337643
H 8.9510584388 -0.4805304967 -4.1619208341
H 8.0314765365 -1.5965093664 -3.1315086057
H 8.7129933950 -0.1039377037 -2.4467896636
H 7.1675734466 1.2549573430 -3.9075049244
H 6.4987480940 -0.2403187410 -4.5853477165
H 6.6803304776 1.9241567049 -1.7747153694
H 6.7730198026 0.5230114399 -0.6880393886
H 4.9561861964 2.0067680581 0.0191756151
H 4.2435101907 2.0068498396 -1.6073033065
H 2.6224129730 -1.6064138389 0.4634375305
H 1.7702750116 -0.1335502001 2.8515565369
H 1.0976825287 -1.7036781119 4.4078820094
H 0.1268458563 -3.9040432022 4.9991094717
H -0.6781010504 -5.4276626435 3.2119845795
H -0.5150874283 -4.7348563119 0.8339285235
H 0.4340951540 -2.5328545185 0.2444319189
H -1.9471207623 2.2878425255 2.7183398350
H -2.6729368827 -0.0245702923 0.8579775382
H -3.8939538694 2.5098642658 -1.5930680328
H -6.0375927013 -0.1316892354 -0.3530538756
H -4.3421073074 -0.0719674517 -0.8794064676
H -5.5839090958 0.8030537882 -1.7955429463
H -6.2925439242 3.4187558477 0.8099059092
H -7.1727693481 1.9006322541 0.5470099212
H -6.6750639423 2.8778054405 -0.8428132411
H -0.2388927564 0.8474456474 3.2337525621
H -4.6585061732 5.6905957201 -0.8033042699
