65
CONF185
C -3.3569270589 3.9442592646 -0.1847457378
C -2.1155588350 3.9596123461 -1.0738153005
C -1.6263206164 2.5546624530 -1.4389816304
C -0.4202315943 2.6021252920 -2.3917937659
C -1.2169005630 1.7949407587 -0.1944086746
O -0.5433594118 2.2599307402 0.7064903098
O -1.6497488524 0.5196671284 -0.2224295497
C -1.2689985332 -0.3450590462 0.8978724398
C -2.2112958351 -0.1224356900 2.0689507802
C -1.8093408300 -1.0126827884 3.2546251852
C -1.5474385065 -2.4168781685 2.7957115191
C -1.3509251674 -2.7723119849 1.5123218388
C -1.3595609822 -1.7695103697 0.3771520888
C -0.2714911624 -2.1360335549 -0.6566289838
C -0.6586019911 -3.5060548563 -1.2598902287
C -0.8730530169 -4.5082034746 -0.1550997701
C -1.1512790127 -4.1562824981 1.1118572431
C 0.3339064729 -4.0310198894 -2.3011970969
C 1.1529391703 -2.1481381121 -0.0538438635
C 2.2068478334 -1.4930099145 -0.9573335205
C 2.1572757007 0.0263861928 -0.9026726296
C 2.8338038249 0.6241483008 0.3140249110
C 2.8383310499 2.1334027227 0.2028194016
C 3.6267258510 2.5278711643 -1.0400313980
C 3.3210660063 1.7239348832 -2.2820117539
O 3.6230210583 2.1060822046 -3.3955499541
O 2.7711261702 0.5007554099 -2.1566285193
O 3.4407889747 2.6672482360 1.3882950127
C -0.6075408126 -0.4467175371 4.0325115810
H -3.1534106601 3.4468319414 0.7701002289
H -3.6950428089 4.9609983986 0.0359954416
H -4.1805328123 3.4123575299 -0.6732444215
H -2.3309439211 4.4911163251 -2.0082008690
H -1.2995994792 4.4995491133 -0.5791180669
H -2.4383284574 2.0000457523 -1.9222227281
H -0.0894732914 1.5971971520 -2.6721957511
H -0.6949317786 3.1382059357 -3.3049309232
H 0.4184063685 3.1283970458 -1.9229651884
H -0.2438265956 -0.0882613987 1.1820619022
H -2.2001767983 0.9311118749 2.3649013686
H -3.2284843408 -0.3749102642 1.7447605617
H -2.6577034149 -1.0413517572 3.9527894864
H -1.5190162734 -3.1899073375 3.5635787086
H -2.3308487188 -1.8602401345 -0.1346215900
H -0.3133339122 -1.3897604620 -1.4609182510
H -1.6193264161 -3.3624158658 -1.7807243834
H -0.7693670672 -5.5617356179 -0.4093743357
H -1.2544043997 -4.9185252891 1.8819155125
H 1.3147929653 -4.2343382740 -1.8594863443
H -0.0352920349 -4.9668893778 -2.7332756030
H 0.4639920454 -3.3091630974 -3.1138432481
H 1.1575994116 -1.6592681384 0.9279063768
H 1.4516181462 -3.1817852341 0.1459666798
H 3.2144335823 -1.8232594827 -0.6776956402
H 2.0409325150 -1.8023716634 -1.9942125379
H 1.1140563922 0.3664912131 -0.9487445202
H 3.8629599606 0.2499848717 0.3945932508
H 2.2857551687 0.3144233632 1.2101628468
H 1.8021637156 2.4887049144 0.1193024545
H 4.6946558021 2.3589317181 -0.8399296287
H 3.5080604985 3.5857612286 -1.2912652564
H 3.3725054612 3.6297354082 1.3488249417
H 0.2719327302 -0.3555861563 3.3862507648
H -0.3423561272 -1.1040840727 4.8665824168
H -0.8447256752 0.5433196513 4.4357062045
