50
CONF58
C 6.4305764199 2.6087138035 -1.0203041989
C 6.2730510362 1.3197872825 -0.2482644891
O 4.8500820380 1.1308157307 -0.0236012049
C 4.5151281975 0.0208668688 0.6898577182
O 5.3387302861 -0.7970284736 1.0923964923
N 3.1775696785 -0.0497944514 0.8906303625
C 2.2515084584 0.9729436832 0.3803229122
C 0.8730604965 0.8036700627 1.0213493796
C 0.3096679473 -0.5640694560 0.7425978709
C -0.9642058552 -0.7940920044 0.3725441215
C -2.0044979613 0.2619400180 0.2863403499
C -2.7925394996 0.4896700306 -0.8605494890
C -2.6787462304 -0.2473604448 -2.1827772071
C -1.5656230137 -1.2897083728 -2.3383632501
C -1.7100994488 -2.4107194991 -1.3532716529
C -1.4204012926 -2.1622121857 -0.0034450902
N -1.5528145139 -3.0836872709 0.9608835217
C -1.9773685260 -4.3036269545 0.6025631835
C -2.2866783120 -4.6503933682 -0.7073485606
C -2.1512016468 -3.6842362438 -1.6991461551
C -3.7700858780 1.4926329440 -0.8171291109
C -3.9653855243 2.2430828363 0.3289730373
C -3.2105505037 2.0290587696 1.4746234751
C -2.2442124644 1.0355347544 1.4342174532
Cl -5.2070338590 3.4950691962 0.3354744954
C 1.3389094227 -1.6726234609 0.8032549616
C 2.6034293684 -1.2337402052 1.5347325350
H 7.4926617997 2.7862158464 -1.2127938862
H 6.0368383461 3.4560032987 -0.4515840293
H 5.9102002419 2.5556882456 -1.9809235175
H 6.7817445520 1.3615153523 0.7202026594
H 6.6602493850 0.4615844767 -0.8067764289
H 2.6417584148 1.9671794309 0.6137777733
H 2.1632481190 0.8967943449 -0.7128544507
H 0.9655943454 0.9617698716 2.1050827672
H -2.5626604329 0.5045536292 -2.9728206950
H -3.6425969556 -0.7375242094 -2.3752299036
H -1.6076160922 -1.6835987126 -3.3584178520
H -0.5885848313 -0.8085889778 -2.2092705724
H -2.0756061268 -5.0342816177 1.4034851184
H -2.6255907889 -5.6537432045 -0.9425093813
H -2.3809679332 -3.9169407781 -2.7356478853
H -4.3750201858 1.6838525053 -1.6981169594
H -3.3774087098 2.6108837493 2.3736468617
H -1.6588341945 0.8358843969 2.3260232553
H 1.6058494248 -1.9769637719 -0.2197897195
H 2.3744102729 -1.0210162081 2.5885605681
H 3.3518153395 -2.0271934159 1.5128862671
H 0.2146570876 1.5886049043 0.6421519450
H 0.9303587509 -2.5579495727 1.2969399945
