50
CONF208
C 2.1460013430 -0.1843461993 -0.6529942496
C 1.5754099280 -0.7031583700 -1.9511307331
C 0.2743655770 -0.3386970009 -2.3132640031
C -0.2511993821 -0.7396475968 -3.5561928265
C 0.4995480673 -1.4427130802 -4.4640948164
C 1.8204037189 -1.8208626141 -4.1472950557
C 2.3407082203 -1.5029353337 -2.8528195508
C 3.6449914557 -2.0841404952 -2.5960911118
N 4.3524764532 -2.6692923913 -3.5580303904
C 3.7832203116 -2.7925269806 -4.7798613714
N 2.5399131209 -2.4680522170 -5.1075477660
N 4.5940023212 -3.2993700500 -5.7596228947
N 4.2282934371 -2.0818349968 -1.3729153535
C -0.6070660135 0.4789274861 -1.4030990426
N -1.0152540757 -0.3075659012 -0.2349835674
C -1.4886931106 0.3176480588 0.9090094399
C -1.4695698957 -0.3865270864 2.1260039468
C -1.9891117848 0.2071922824 3.2740224285
C -2.5177412473 1.5079830808 3.2348330111
C -2.5349223904 2.1959406117 2.0157100425
C -2.0192676677 1.6151857105 0.8530553808
O -3.0764012832 3.4462085682 2.0620690553
C -3.1204760469 4.1963097953 0.8414041788
O -2.9863337904 2.1077386739 4.3861616323
C -4.3914460165 1.8721345004 4.6045833296
O -2.0188899301 -0.3920552446 4.4979822413
C -1.4967703325 -1.7232940595 4.5942418069
H 3.1848705414 0.1306236130 -0.7711429448
H 1.5796208457 0.6769711663 -0.2984746051
H 2.1006763645 -0.9318707581 0.1503303355
H -1.2695545769 -0.4553114980 -3.8067880395
H 0.1054084760 -1.7100924491 -5.4390356932
H 5.4067643386 -3.8121267261 -5.4550693285
H 4.1360225973 -3.6474569432 -6.5876255203
H 5.0510164047 -2.6582962034 -1.2765800331
H -0.0917182150 1.4012409229 -1.0883821394
H -1.4944274416 0.7968350722 -1.9639411163
H -0.4271918447 -1.1085900081 -0.0560651744
H -1.0514179273 -1.3857528184 2.1495541520
H -2.0467465508 2.1509912626 -0.0849563672
H -3.5836137486 5.1491734242 1.0995584901
H -3.7277402671 3.6848209879 0.0855121064
H -2.1117949124 4.3712859634 0.4494383380
H -4.9833545034 2.2776351329 3.7753194961
H -4.5902537452 0.7987392882 4.7093060120
H -4.6558072675 2.3869060819 5.5310313004
H -1.6214894180 -2.0129943816 5.6380651786
H -2.0551562891 -2.4130641903 3.9506288117
H -0.4333698382 -1.7494426959 4.3291402330
H 3.6793567717 -1.9480257803 -0.5430319186
