44
CONF110
C -5.2172570319 0.2626550063 1.3479826723
C -3.7995442851 -0.2487092882 1.3183302165
C -3.6099784021 -1.6988511010 1.7363868171
O -2.4582586636 -2.1289822060 0.9792335073
C -2.2185988330 -1.1601059748 -0.0489984547
O -3.3352131415 -0.3021365210 -0.0549822121
C -2.1711873987 -1.9088747178 -1.3970193963
N -1.7034758091 -1.0639504094 -2.4799204608
C -0.4476489178 -0.9529833181 -2.9591559758
N -0.3832010945 0.0191749031 -3.8606122762
C -1.6630282362 0.4884657145 -3.8838446916
N -2.4994114495 -0.1319814054 -3.0611747184
C -0.9260551251 -0.3798465074 0.2123182933
C -0.9408525833 1.0121908741 0.0774460491
C 0.2020512992 1.7849531521 0.2158956279
C 1.4102572590 1.1567415752 0.4941593725
C 1.4747674703 -0.2254254663 0.6425755596
C 0.3113308999 -0.9692109810 0.4904020980
Cl 0.4947042969 -2.7165811818 0.6456244306
O 2.5109923444 1.9629762795 0.6778307857
C 3.7602757145 1.4938663290 0.3037093633
C 4.8147067658 1.7317056076 1.1771533397
C 6.1040196743 1.3538892224 0.8157305153
C 6.3055228135 0.7369350190 -0.4126850513
C 5.2547670053 0.4979277815 -1.2918270411
C 3.9693323392 0.8853905183 -0.9313218574
Cl 7.9340066747 0.2477921339 -0.8708741596
H -5.8657194937 -0.3744275357 0.7393007078
H -5.2642197465 1.2880378578 0.9721766899
H -5.5854402166 0.2578953815 2.3781799910
H -3.1295610776 0.4055824489 1.8956103891
H -3.3943735061 -1.8152316344 2.8018229426
H -4.4805491166 -2.3068531910 1.4575692320
H -1.4817198930 -2.7504186584 -1.3090494042
H -3.1735049269 -2.2790607848 -1.6254163530
H 0.3612289980 -1.5950735696 -2.6337717559
H -1.9909162193 1.2979511450 -4.5240175049
H -1.8829496086 1.4940390133 -0.1571186096
H 0.1675608409 2.8626683203 0.1017386669
H 2.4130717395 -0.7172394148 0.8698075327
H 4.6259533297 2.2112151803 2.1314949855
H 6.9354805694 1.5331831254 1.4876662386
H 5.4332577573 0.0246376589 -2.2505776451
H 3.1393759949 0.7160698256 -1.6093008634
