31
CONF11
C 5.0885034629 0.6279158438 -2.2196961881
O 3.8843826884 0.2281627496 -1.5101424322
C 3.1431279572 1.2315243419 -1.0329815555
O 3.3394369744 2.4096274258 -1.2340683290
C 1.9415875507 0.7100848251 -0.2995843268
C 2.0015574933 0.0923755558 0.9557965453
C 0.8573480112 -0.4014795686 1.5746260553
C -0.3715720676 -0.2793363373 0.9508626841
C -0.4365088786 0.3397403305 -0.2986105119
C 0.7114621195 0.8337463879 -0.9226651304
O -1.6006049201 0.5220804858 -0.9887660949
C -2.7604713046 -0.0538909847 -0.4972203396
C -3.0389557640 -1.4023049917 -0.7244880198
C -4.2351701822 -1.9588154328 -0.2876516211
C -5.1420559287 -1.1377170228 0.3719402664
C -4.8871838407 0.2092888990 0.6016768684
C -3.6837654373 0.7459751996 0.1609070752
Cl -6.6545055935 -1.8310502195 0.9244087897
Cl -1.8798019737 -2.3980357905 -1.5628618603
N 3.2681428658 0.0089635442 1.6674086632
O 3.3462986747 -0.7463754058 2.6326824259
O 4.1951238667 0.7178108904 1.2719243777
H 5.5658050378 -0.3035360555 -2.5191582185
H 5.7357735448 1.1993320402 -1.5503548803
H 4.8260095821 1.2288927693 -3.0928814098
H 0.9326217897 -0.8582578770 2.5535418455
H -1.2665155019 -0.6491883456 1.4371798758
H 0.6306043649 1.2975319753 -1.8997194037
H -4.4502337977 -3.0055851936 -0.4642399097
H -5.6111310657 0.8300618250 1.1155716177
H -3.4493103203 1.7924581470 0.3240631235
