29
CONF5
C -0.0831849900 -1.3730240905 -3.3089265121
C -0.0654647277 0.0313302882 -2.7577665351
O -0.9770313884 0.0603597122 -1.6131792440
P -0.7625133653 1.0358621860 -0.3758199769
S 0.4906382244 2.4943326661 -0.4998596895
O -2.2842193643 1.3533808586 -0.0263978030
C -2.6514532898 2.4665473733 0.8436285974
C -2.3694494727 2.1676472503 2.2996366332
O -0.4654894092 -0.0171091401 0.8932874102
C 0.6947154361 -0.6937875623 1.0093130245
N 1.4553877139 -0.8797245861 -0.0562709661
C 2.5833155743 -1.5552569006 0.0370459839
C 3.0257741599 -2.1098735019 1.2387524755
C 2.2332270553 -1.9250525326 2.3687560426
C 1.0542797585 -1.2071056313 2.2637660042
Cl 0.0485707239 -0.9475989792 3.6545477615
Cl 4.5065754638 -3.0045516142 1.3630565564
Cl 3.5099820099 -1.7376552592 -1.4289251749
H 0.5637227938 -1.4228864609 -4.1902745542
H 0.2930003128 -2.0785349963 -2.5636930511
H -1.0941857219 -1.6685271178 -3.6014705918
H -0.4336450426 0.7649582944 -3.4820180433
H 0.9349425937 0.3226850545 -2.4286668759
H -3.7205621859 2.5934432564 0.6582867301
H -2.1191167173 3.3612951688 0.5031363350
H -2.8433517548 1.2306197717 2.6039493378
H -1.2954034105 2.0935729857 2.4885134495
H -2.7702034370 2.9797790647 2.9148583902
H 2.5411427482 -2.3351258598 3.3228367845
