50
CONF4
C 4.0152155204 0.3621131511 1.3250389901
Si 2.5840324253 -0.1449741356 0.2469238473
O 1.6896691749 1.1825396879 -0.1607552041
Si 0.6205910881 2.2135430827 0.5586816271
O -0.8268457814 1.4486764695 0.7363831087
Si -2.3115924232 1.1200114196 0.1063492926
O -2.2937354364 -0.4115534879 -0.5115474707
Si -1.3561391145 -1.3270772484 -1.5150992018
O -0.1594502364 -2.0631325432 -0.6557595660
Si 0.4817699294 -2.3107941002 0.8407515882
O 1.6498085830 -1.1785468936 1.1326356032
C 1.2781839225 -3.9939105139 0.8221100162
C -0.8109104129 -2.1431606939 2.1692368613
C -2.4484114290 -2.6466036301 -2.2409338445
C -0.5562196971 -0.2641061089 -2.8202764382
C -2.7576304766 2.3354457495 -1.2348717119
C -3.5462458625 1.1384094705 1.4975901610
C 1.2020036382 2.6593469293 2.2717029411
C 0.4671820827 3.6957563902 -0.5565919810
C 3.1419234130 -0.9445615930 -1.3394014443
H 4.6264955613 1.1220562099 0.8263618984
H 4.6560747444 -0.4984369670 1.5465381657
H 3.6629342301 0.7774396278 2.2751303150
H 2.0247263175 -4.0543881886 0.0220786608
H 0.5330834581 -4.7788818676 0.6525017551
H 1.7805941846 -4.1998998579 1.7732941045
H -1.6546249359 -2.8171327583 1.9850855059
H -0.3866653981 -2.3864262338 3.1496548981
H -1.1918658363 -1.1176893078 2.2058826801
H -2.9016884246 -3.2502210983 -1.4465679850
H -3.2547110584 -2.2037596340 -2.8355649227
H -1.8734022059 -3.3152724765 -2.8904939955
H 0.0931194447 -0.8715594926 -3.4605965776
H 0.0591729597 0.5189965244 -2.3627698221
H -1.3093887111 0.2144028739 -3.4554735058
H -3.7496289851 2.1003565204 -1.6368289275
H -2.7838234650 3.3572113279 -0.8408740735
H -2.0405307457 2.3065867627 -2.0611978775
H -4.5432736210 0.8662307404 1.1347085210
H -3.2632071468 0.4281344954 2.2819426124
H -3.6084510833 2.1355265362 1.9467977924
H 0.5058417400 3.3621020293 2.7428302409
H 1.2609977820 1.7665221823 2.9046665091
H 2.1930023835 3.1249648269 2.2463400766
H 0.1918851519 3.3959810983 -1.5732376846
H 1.4232641969 4.2286797710 -0.6069142244
H -0.2925174133 4.3927277167 -0.1874853455
H 2.2817856303 -1.2406125923 -1.9486082041
H 3.7565092397 -0.2526586520 -1.9258536617
H 3.7410930827 -1.8384013389 -1.1335141236
