83
CONF1
C -4.5481954414 0.6866442580 -0.2094707606
C -5.5385379261 0.4356185958 0.9226283775
C -6.8769232603 0.7909683063 0.2601104355
C -6.7439030018 0.2231377256 -1.1582277954
N -5.2930538463 0.2600646851 -1.4025876874
C -4.7779885714 -0.2216371564 -2.5597990973
O -5.4888936507 -0.5838117648 -3.4909598510
C -3.2511925663 -0.3490154751 -2.6723171604
C -2.9050160903 -1.8094909481 -3.0186171832
C -1.4265540642 -2.0755609615 -3.3226697839
C -1.1864847947 -3.5866893532 -3.3643748877
C -0.9815478686 -1.4186815648 -4.6298745033
N -2.5785961656 0.1167170571 -1.4638698076
C -1.3813647590 0.7303288677 -1.4023173102
O -0.6199910314 1.0203241962 -2.3135959179
C -1.1108795702 0.9931786065 0.0923796071
N 0.0290683759 0.1855644825 0.5203782823
C 0.1582491385 -1.1530427693 0.3421917140
O -0.7632472700 -1.9473427884 0.1440563705
C 1.6174652372 -1.6361665420 0.3703809448
C 2.4379283694 -0.9066314350 -0.7062793909
N 2.7656591192 0.4362744889 -0.2315799873
C 3.1019359044 1.3644967988 -1.3065077856
C 3.6825937323 0.4459294345 0.9047681254
C 5.1980473977 0.2961892369 0.5573342891
C 5.9592709929 0.3264635031 1.8401839910
C 7.2295365445 0.6702595565 2.2131775732
Br 8.6534057388 1.2924895551 1.1574261513
N 7.4032948959 0.5069936537 3.5814000583
C 6.2175658436 0.0478162012 4.1234150227
C 5.8196361902 -0.3002786877 5.4129658895
C 4.5075705125 -0.7473947906 5.5649908358
C 3.6065301062 -0.8545574820 4.4907539289
C 4.0041073761 -0.5111469981 3.2012721323
C 5.3174751852 -0.0575346190 3.0487560884
C 3.2381995056 -0.5714382109 1.9506972426
C 2.2759195759 -1.4726150727 1.7072165261
O -2.3180148777 0.6263266688 0.7495573308
C -3.2114970367 -0.0449870809 -0.1520432157
O -3.4057535784 -1.3553572678 0.2059678423
C -0.7693694367 2.4694672054 0.3585195384
C -0.5044448262 2.7201573636 1.8448531204
C -1.8691960456 3.3956222964 -0.1564629726
H -4.3128378391 1.7586684411 -0.2771240692
H -5.5093105308 -0.6221350068 1.1990538941
H -5.3144088475 1.0375599630 1.8060207480
H -7.7367236318 0.3744463478 0.7895379954
H -6.9998337636 1.8791530557 0.2209056492
H -7.0949879226 -0.8139110782 -1.2269824868
H -7.2796080919 0.8046983798 -1.9144737665
H -2.9318959709 0.3107886487 -3.4886399373
H -3.5171986073 -2.0821754934 -3.8856170185
H -3.2307559155 -2.4372783058 -2.1816376210
H -0.8234352199 -1.6666491771 -2.5026806593
H -1.7995661051 -4.0558201113 -4.1433471903
H -0.1374533075 -3.8103052134 -3.5849809709
H -1.4381749863 -4.0519422620 -2.4059916866
H -1.0790215564 -0.3305693684 -4.5917692748
H 0.0711763251 -1.6420524917 -4.8330648965
H -1.5738252005 -1.7967007981 -5.4720167714
H 0.9358405044 0.6661170674 0.4803152228
H 1.5584513797 -2.7014493085 0.1248203604
H 1.8508789351 -0.8089995039 -1.6272087146
H 3.3345192894 -1.5064876736 -0.9425043347
H 3.9656471961 1.0436887494 -1.9138027461
H 2.2339847251 1.4667285922 -1.9671016119
H 3.3300065745 2.3482348666 -0.8812026251
H 3.5850683156 1.4357595626 1.3814216935
H 5.5102329642 1.1074049957 -0.1081406482
H 5.3648480851 -0.6504158863 0.0255865900
H 8.2611773134 0.6926979935 4.0706488259
H 6.4864705729 -0.2300091675 6.2655292111
H 4.1640784951 -1.0154834927 6.5587458808
H 2.5906251970 -1.1858692682 4.6804549726
H 1.9874563415 -2.1708562545 2.4889125539
H -2.5014371357 -1.7471972496 0.2403635759
H 0.1437186958 2.6660325582 -0.2218279219
H 0.3232444566 2.1194869848 2.2317019686
H -1.3962569618 2.4820803284 2.4325270487
H -0.2613430667 3.7747846871 2.0057663899
H -1.5491710524 4.4372523410 -0.0636169063
H -2.7799520046 3.2719684766 0.4370565265
H -2.1030409595 3.2111040792 -1.2094630457
