54
CONF8
C -2.5539648710 0.2348180182 1.9609637225
C -2.4008687023 0.3352937937 0.4256754776
C -2.9709134863 1.6802566398 -0.0839559127
C -4.4884800543 1.7852467831 0.0305167349
C -5.1807878878 0.6517246635 -0.6848917832
O -6.3016490921 0.7545353989 -1.1635809059
C -4.4468201164 -0.6152997835 -0.7124635427
C -3.2169536973 -0.7988448280 -0.1903975798
C -2.6300274510 -2.1765564825 -0.1596111707
C -1.2313999831 -2.1713477640 -0.7667832918
C -0.3329402261 -1.2159366515 0.0101693465
C -0.8819143766 0.2304315116 0.0096866053
C 0.0731144984 1.0616891200 0.8824697377
C 1.5013393137 1.0378063635 0.3316512178
C 2.0827507216 -0.3674462981 0.2385041564
C 1.1121062721 -1.3142858175 -0.5021039036
C 1.3370479454 -1.0095078553 -1.9969604244
C 2.7997216301 -0.5298268766 -2.1154490723
C 3.3549556723 -0.4495850086 -0.6780121150
C 4.2993994114 0.7108649132 -0.4404185447
O 4.2518689320 1.7418045704 -1.0861991796
C 5.3294380975 0.5666933595 0.6583525830
O 6.0812367791 1.7345758761 0.8411866200
C 2.4209557831 -0.9457441356 1.5931969367
O 2.3447413317 -0.3662914713 2.6501125230
O -0.3677082946 2.4228443115 0.9454198614
H -2.0508794976 -0.6490713791 2.3646027484
H -3.6090864182 0.1635265673 2.2375202920
H -2.1310051858 1.1217477637 2.4404124498
H -2.6962414958 1.7837877391 -1.1421364967
H -2.4957972440 2.5027405643 0.4477623013
H -4.8571379501 2.7329027643 -0.3721470079
H -4.8048145319 1.7482283568 1.0824765540
H -4.9897919604 -1.4566554175 -1.1376628620
H -3.2906345161 -2.8755495450 -0.6806332149
H -2.5592317350 -2.5171090897 0.8843811693
H -1.2925698341 -1.8598800672 -1.8176508470
H -0.8043170893 -3.1818465917 -0.7514465455
H -0.3216720880 -1.5609277780 1.0575647602
H -0.8230251997 0.6194360804 -1.0170701225
H 0.0765868436 0.6290677702 1.8942801079
H 2.1372304781 1.6486120742 0.9854365365
H 1.5036023096 1.5165784285 -0.6541743386
H 1.4532482836 -2.3455616647 -0.3171081322
H 1.1415802238 -1.8929844829 -2.6100469268
H 0.6521402246 -0.2288870373 -2.3401371329
H 3.4111315567 -1.2066811116 -2.7177764837
H 2.8591160979 0.4581197789 -2.5777537993
H 3.8825526370 -1.3794886640 -0.4184804440
H 5.9763198776 -0.2881343985 0.3875310600
H 4.8174390274 0.2847240007 1.5938514467
H 5.7913109824 2.3446786487 0.1424698829
H 2.7760085349 -2.0058363029 1.5480495528
H 0.2636886407 2.9065510657 1.4908078879
