41
CONF125
C -4.0917715890 1.9667902889 1.8971281818
C -4.3697825558 0.5785889075 1.3212750921
N -3.7280624127 0.3444965101 0.0184218107
C -4.6167903463 0.3716441550 -1.1412978565
C -5.1012752637 1.7735025935 -1.5144049074
O -4.0369810827 2.6851949727 -1.7863119936
C -2.3823617259 0.1854452618 -0.0867425238
C -1.7126521253 0.1508255125 -1.3417029589
C -0.3542108236 -0.0425626709 -1.4101853841
C 0.4310923870 -0.2062796159 -0.2508088069
C -0.2221613787 -0.1665533281 1.0029374081
C -1.5767679681 0.0270386740 1.0839703449
N 1.7801841086 -0.3903717466 -0.4509018896
N 2.4934496841 -0.5256936305 0.6011376398
C 3.8559545875 -0.7175140133 0.3499440715
C 4.4470766923 -0.7797313292 -0.9294953362
C 5.8070303550 -0.9746757943 -1.0556683512
C 6.5891980061 -1.1097855835 0.0957222506
C 6.0294370923 -1.0525129561 1.3723276912
C 4.6668376354 -0.8569853288 1.4911668550
N 8.0217501312 -1.3155714571 -0.0410708247
O 8.6954820301 -1.4377586261 0.9848768936
O 8.5007830717 -1.3592673269 -1.1768048828
H -4.5937914144 2.0649408244 2.8643591944
H -4.4663146140 2.7489356668 1.2320192067
H -3.0222172134 2.1334799786 2.0487769723
H -5.4449363316 0.4515531721 1.1700101496
H -4.0628822520 -0.2019342444 2.0270395039
H -5.4990933147 -0.2394139478 -0.9088513435
H -4.1279687533 -0.0995361590 -1.9956106178
H -5.7812450249 1.6802255307 -2.3734511435
H -5.6694438597 2.2091410513 -0.6867912332
H -3.6228497593 2.4266253450 -2.6188899588
H -2.2570404936 0.2945467106 -2.2644966892
H 0.1424560075 -0.0603216569 -2.3756645519
H 0.3559165841 -0.2958082503 1.9105324643
H -2.0347131524 0.0432870070 2.0639643505
H 3.8280638723 -0.6742356163 -1.8115537410
H 6.2724091091 -1.0249529322 -2.0321911247
H 6.6572551708 -1.1600649540 2.2475832162
H 4.2009379196 -0.8075724798 2.4697023037
