119
CONF39
C -10.2510203756 2.7984849542 3.5334672570
C -9.9885283871 3.5206586578 2.2102232476
C -11.2270806053 3.4565295652 1.3155184266
C -8.7239509799 2.9653446467 1.5168644241
C -8.5060456765 3.6676998365 0.1622086380
O -8.0833995110 4.8205383630 0.1513217907
N -8.7906066424 3.0025653001 -0.9876496628
C -8.7467066251 3.7594099830 -2.2591125315
C -9.4747099220 2.8508014191 -3.2291848394
C -8.7475368786 2.2228880996 -4.3859121000
C -9.7997121843 3.2808273111 -4.6230782106
C -10.4052103362 2.0154521892 -2.3746997333
C -9.5129110619 1.7243296968 -1.1577947316
C -8.5906159229 0.5692775432 -1.4506213130
N -8.9314677107 -0.4929261372 -2.1635087393
C -7.8249963143 -1.2954568029 -2.1657636064
C -6.7908550785 -0.7196963437 -1.4456024839
N -7.3150414737 0.4781969067 -0.9919259556
C -5.4374584014 -1.1672161974 -1.1750138680
C -4.6204842711 -0.5186379328 -0.2262578991
C -3.3451671859 -0.9912969595 -0.0203786731
C -2.8246264980 -2.0953349044 -0.7092085823
C -3.6248108044 -2.7442713365 -1.6437446415
C -4.9124468179 -2.2727846493 -1.8707183787
C -1.4503002871 -2.3338481124 -0.2583903614
C -1.1197362874 -1.3817156881 0.7183812526
C -2.2987565909 -0.4629980681 0.9304930500
F -1.9815573653 0.8572331613 0.6725805514
F -2.7344536066 -0.4735717340 2.2421164844
C 0.1129216222 -1.3514256286 1.3295050639
C 1.0790379170 -2.3074109134 0.9633982530
C 0.7453536467 -3.2593210075 -0.0123856930
C -0.5045204343 -3.2827487134 -0.6269072019
C 2.4133547282 -2.3026404776 1.5921998903
C 3.5520175446 -2.5684600998 0.8250376659
C 4.7789421836 -2.5446751557 1.4732200568
C 4.9092826289 -2.2635224044 2.8548068577
C 3.7683010077 -2.0044576499 3.6137664858
C 2.5402683751 -2.0253355108 2.9733538811
N 6.2428974921 -2.2852052359 3.2264432863
C 6.8939236481 -2.5645643314 2.1195100107
N 6.0702012255 -2.7376177876 1.0331485248
C 8.3808822270 -2.7058626438 1.9869155680
C 9.1510585368 -2.4104287651 3.2835724005
C 10.6277886078 -2.8107513944 3.0632720433
C 11.1675386827 -1.7057283486 2.1000441467
C 9.9104581308 -0.8480786745 1.8638081626
C 9.2322229690 -0.8739276961 3.2370805091
N 8.9583466353 -1.6710314060 1.0771227478
C 8.8996040156 -1.8103612582 -0.2621250126
O 8.2398197540 -2.7087431793 -0.8053367111
C 9.6100358117 -0.7491954587 -1.1016735606
C 8.7657003942 0.5572931142 -1.1371124707
C 9.5229856263 1.6445581514 -1.8980896748
C 7.3760827125 0.3286920607 -1.7302189630
N 9.8395294492 -1.2958676982 -2.4231621791
C 11.0818016798 -1.2597049118 -2.9827606665
O 12.0332362427 -0.6271987717 -2.5632812109
O 11.1051119889 -2.0208801544 -4.1122382561
C 12.3678006922 -2.0102698450 -4.8018214637
N -7.5786717993 3.2386067221 2.3807842696
C -6.3352622742 2.8724574833 1.9723479558
O -6.1080088186 2.0994898984 1.0487750540
O -5.3766044635 3.4314602120 2.7324585462
C -4.0280165095 3.0300509732 2.3941046380
H -10.4728379807 1.7406054509 3.3518773365
H -9.3962319235 2.8484742112 4.2122466966
H -11.1151735853 3.2387708613 4.0403281841
H -9.7811664334 4.5830027531 2.4066720056
H -11.5287617452 2.4200670464 1.1264986684
H -12.0665016793 3.9508083528 1.8129365135
H -11.0674086627 3.9567245628 0.3555712099
H -8.8063546577 1.8777279427 1.4024892376
H -9.2605108209 4.7188194889 -2.1152556197
H -7.7140110109 3.9742276794 -2.5538428237
H -7.7092191199 2.4992958684 -4.5404671161
H -8.9895996793 1.1934702866 -4.6267524590
H -10.7518602619 2.9677533102 -5.0398861174
H -9.4672359033 4.2645929658 -4.9403177444
H -11.2748203730 2.6032900405 -2.0546166728
H -10.7385318836 1.0972661320 -2.8598155484
H -10.1103357615 1.5061427156 -0.2680681948
H -7.8257230492 -2.2476593092 -2.6771895347
H -6.8585784306 1.1571622673 -0.3845471862
H -4.9795989797 0.3329366179 0.3401018720
H -3.2551094652 -3.5994469101 -2.2006295644
H -5.5292181284 -2.7663444233 -2.6140133598
H 0.3502819946 -0.5855527334 2.0609212755
H 1.4778942610 -4.0170990842 -0.2720149031
H -0.7315429484 -4.0399779694 -1.3706912455
H 3.4730962312 -2.7469466985 -0.2422966521
H 3.8478548586 -1.8007073767 4.6760734930
H 1.6380065190 -1.8545699553 3.5513155399
H 6.4190801897 -2.9261158534 0.1005598999
H 8.6118183210 -3.6998825461 1.5809409595
H 8.6720383577 -2.8425444400 4.1607899231
H 11.1657491255 -2.7997151746 4.0151813077
H 10.7224122173 -3.8161754530 2.6430555779
H 11.9526275892 -1.1050502989 2.5698692411
H 11.5674690007 -2.1066204045 1.1647172267
H 10.0764592280 0.1318677078 1.4164523030
H 9.8738361438 -0.4594870152 4.0191974788
H 8.2545218986 -0.3886230631 3.2528429754
H 10.5905570405 -0.5116639932 -0.6741029650
H 8.6427573571 0.8795054911 -0.0939953564
H 8.9603412807 2.5829875891 -1.8781149256
H 10.5139339149 1.8221623715 -1.4695585760
H 9.6607560085 1.3550258606 -2.9446766643
H 7.4501950413 -0.0277165035 -2.7630171804
H 6.8143457592 1.2673634908 -1.7404887764
H 6.7989415259 -0.4021381043 -1.1556011139
H 9.2014882334 -2.0206905582 -2.7226878721
H 13.1610443639 -2.4049471192 -4.1611463860
H 12.2258043829 -2.6505541083 -5.6727337023
H 12.6294443800 -0.9946499131 -5.1107588400
H -7.6170743212 4.0974091992 2.9113765694
H -3.8953047877 1.9585411050 2.5604882378
H -3.8093280686 3.2663665100 1.3505109869
H -3.3859409126 3.6029509670 3.0620989592
