45
CONF1345
N 5.6651996304 1.5277451071 0.7076406335
C 5.3517295989 0.9095080881 -0.5922233586
C 3.8575516914 0.7161196167 -0.8670668680
C 3.2084668636 -0.2916221728 0.0783608567
C 1.7161301582 -0.4657250134 -0.1993010912
C 1.0807196441 -1.5072193681 0.7177112186
N -0.3672537620 -1.6381112090 0.4791749145
C -1.1781003256 -0.6167179022 1.1474312662
C -2.4902615337 -0.4358079797 0.3917173679
O -2.2241639372 -0.4045949711 -1.0028867017
O -3.3759530695 -1.5064067634 0.7154787036
C -4.7583745826 -1.0729231186 0.5460741197
C -5.4028645255 -1.8941460608 -0.5549474139
O -4.8122632865 -1.6684790682 -1.8340415268
C -4.7015646241 0.4355534227 0.2845135176
O -5.7545225275 1.0760186361 0.9996542157
C -3.2921095393 0.8168053367 0.7519025438
O -2.7806479274 2.0200171928 0.2109963721
C 6.0091704143 1.7436648767 -1.7031930882
O 6.8174467324 2.7052137200 -1.2472083538
O 5.8410779425 1.5460637572 -2.8894147300
H 4.8639739792 2.0373777284 1.0658660695
H 5.9186624890 0.8339349133 1.3993416775
H 5.8488913407 -0.0696256347 -0.6427369737
H 3.7369638495 0.3844203216 -1.9036066366
H 3.3556406150 1.6907648687 -0.7831275043
H 3.3486406902 0.0276799680 1.1194664217
H 3.7182440863 -1.2599142765 -0.0239160749
H 1.2120731236 0.5019589054 -0.0767839824
H 1.5616711393 -0.7724118654 -1.2418578002
H 1.5397488853 -2.4830659391 0.5203898864
H 1.2981424339 -1.2568255721 1.7709825435
H -0.6781567426 -2.5551330123 0.7794045125
H -0.6488127531 0.3414900126 1.1040328596
H -1.3945747657 -0.8387278197 2.2024488902
H -1.4109279979 -0.9507346400 -1.0920186605
H -5.2868964234 -1.2572587348 1.4905059799
H -5.3433724304 -2.9577279356 -0.2779833051
H -6.4619218286 -1.6196418410 -0.6298184507
H -3.8557501984 -1.5596421166 -1.6986754176
H -4.7878695238 0.6431314961 -0.7917457482
H -5.7920850886 1.9940397473 0.7028283675
H -3.2995436484 0.9307473681 1.8429551844
H -2.5898020698 1.8467288666 -0.7228591886
H 6.7376470787 2.6133542600 -0.2534652528
