18
CONF8
O 0.3747808585 0.1123458697 -1.3773689738
C 0.1301471682 -0.2825212084 -0.2577970065
O -1.0720186671 -0.2773681621 0.3332338808
C -2.1543977098 0.2569564356 -0.4839894217
C -3.4096480352 0.1931058472 0.3521012242
O 1.0051686357 -0.8090483860 0.6105586262
C 2.3910328402 -0.8466714669 0.1588679227
C 3.0676664418 0.4903051811 0.3713528095
H -1.9009275976 1.2828856102 -0.7688132665
H -2.2337708545 -0.3470352839 -1.3933172779
H -3.3046640681 0.7928359076 1.2602062050
H -3.6388574433 -0.8377983373 0.6350797555
H -4.2489687887 0.5875190869 -0.2279110782
H 2.4113890982 -1.1512406937 -0.8908885392
H 2.8431014401 -1.6279935262 0.7735040999
H 4.1213134607 0.4120941632 0.0852179338
H 2.6019494692 1.2650808180 -0.2428579119
H 3.0167038521 0.7865479491 1.4228323276
