41
CONF9
C 5.4970511251 -2.9941305049 1.2782285533
C 4.6481379703 -1.8102352834 0.9268992589
C 4.9489536385 -1.0128020838 -0.1730048924
C 4.1799047669 0.0893315625 -0.5174218651
C 3.0700513570 0.4601617742 0.2348731277
C 2.7647147313 -0.3350144897 1.3351264764
C 3.5324033814 -1.4402015011 1.6726457493
F 3.1827329897 -2.1622673317 2.7507415399
F 1.6966474664 -0.0273085383 2.0859504977
C 2.2104609875 1.6325907593 -0.1191847969
O 0.9707878553 1.1389000497 -0.6950090575
C -0.1864423348 1.5557999807 -0.1059255886
O -0.2400474834 2.3345726453 0.8181904608
C -1.3376517630 0.9102665661 -0.7732384298
C -2.6115672363 0.7106365027 0.0601290127
C -2.6087364506 1.6722259646 -1.1094728112
C -2.7249504015 3.1446574944 -0.7872053647
C -3.2950797714 1.2831315719 -2.4009791459
C -3.2853034523 -0.5813583569 0.0073905545
C -3.9382625262 -1.1686055981 1.0128757563
C -4.6159022808 -2.5055967867 0.8884665493
F -4.4608674318 -3.0191882773 -0.3530210054
F -5.9438564175 -2.4186402223 1.1252797654
F -4.1155363118 -3.4054725920 1.7628270802
Cl -4.1002145090 -0.4682553636 2.5999682659
F 4.5270239153 0.8083412463 -1.5982433442
F 6.0174638166 -1.3228731831 -0.9284969213
H 6.4745246104 -2.6687053996 1.6490749690
H 5.0180027208 -3.5974600361 2.0488412193
H 5.6729274834 -3.6139804820 0.3953872783
H 2.6953327566 2.2537148607 -0.8739128780
H 1.9753646811 2.2320528118 0.7637436678
H -1.0747676340 0.1125719734 -1.4596389460
H -2.5664081017 1.1907816123 1.0326748691
H -2.2527126987 3.3964578417 0.1623294219
H -2.2548926822 3.7424062414 -1.5761911842
H -3.7834031468 3.4216666123 -0.7403085740
H -2.9246628063 1.9104365602 -3.2181523037
H -3.1228492855 0.2414572395 -2.6805106378
H -4.3756993987 1.4408393811 -2.3166280719
H -3.2626740397 -1.1309050045 -0.9280320392
