45
CONF4
C 7.6868074294 2.3358952830 0.0028654988
C 6.9256454597 1.1228447379 -0.5293131932
C 5.4581081264 1.1137112119 -0.1028133052
C 4.6833542460 -0.0928598179 -0.6306452448
C 3.2196375312 -0.1045058959 -0.1914134637
C 2.4451122260 -1.3069856095 -0.7343070272
C 1.0175934399 -1.4216317806 -0.1952523156
C 0.1025889632 -0.2674968992 -0.6395686063
C -1.2925665807 -0.3912769461 -0.0847395459
C -2.2284867179 -1.1867626388 -0.7576598863
N -3.4634065660 -1.2701286725 -0.1856348059
C -3.7857629998 -0.6264609598 1.0011678687
N -5.0689153301 -0.9045770098 1.2928854490
C -5.4511482721 -1.6999849873 0.2694003140
N -4.5330645049 -1.9673296555 -0.6627570110
N -2.9060790501 0.1129926053 1.6711649078
C -1.6822472900 0.2179628977 1.1281467008
C -0.7270669896 1.0976805652 1.8919097769
C -0.8242830198 2.5590506720 1.4281404416
N -2.0212680350 -1.8961325657 -1.8811556174
H 7.2377980764 3.2677004644 -0.3588994317
H 8.7348261670 2.3232518339 -0.3129412835
H 7.6656739505 2.3597950513 1.0981703943
H 7.4083683940 0.2009157782 -0.1786667576
H 6.9823808454 1.1033304777 -1.6258809929
H 4.9745718596 2.0374917211 -0.4512335181
H 5.4000943882 1.1305190095 0.9949112440
H 5.1716290868 -1.0165201498 -0.2891954388
H 4.7332500030 -0.1045565415 -1.7287624442
H 2.7457829916 0.8308413429 -0.5173032390
H 3.1690313901 -0.1112699111 0.9071186488
H 2.9912399726 -2.2234865891 -0.4751110769
H 2.4189307834 -1.2611702521 -1.8322768113
H 0.5758421902 -2.3714636515 -0.5213919011
H 1.0407338085 -1.4508789685 0.9023433081
H 0.5300075533 0.6867538313 -0.3270350645
H 0.0769827480 -0.2256579588 -1.7368444326
H -6.4495124069 -2.1137363301 0.1882027551
H 0.3009421807 0.7393090275 1.7881590835
H -0.5722068326 2.6570545193 0.3673663233
H -0.1382493163 3.1879082815 2.0029361903
H -1.1834885783 -1.7449770668 -2.4169477008
H -2.8164459693 -2.2937371127 -2.3574016030
H -0.9918662449 1.0352870327 2.9511273935
H -1.8411508261 2.9364722937 1.5715295696
