18
CONF6
O -0.2689894664 -0.5207392632 -1.3171025544
C -0.0987794369 0.1806947531 -0.3408705902
O -1.0202386865 0.9415733632 0.2622504802
C -2.3726711620 0.8651941545 -0.2889434311
C -3.1109226634 -0.3387640499 0.2529596741
O 1.0527168601 0.3376982468 0.3218002789
C 2.1870471156 -0.4167542446 -0.2098404303
C 3.3740767226 -0.1037704245 0.6672668583
H -2.8362766333 1.7992508418 0.0339091324
H -2.3060741713 0.8508011310 -1.3796438835
H -2.6326465974 -1.2696722268 -0.0627456913
H -4.1361026515 -0.3315669001 -0.1301818177
H -3.1511832395 -0.3086523306 1.3454094013
H 2.3498942457 -0.1084794821 -1.2469158916
H 1.9316700296 -1.4805231165 -0.1914767689
H 3.1882690172 -0.4077179511 1.7010946416
H 4.2442975052 -0.6532125431 0.2970548704
H 3.6059133073 0.9646398358 0.6459870261
