61
CONF13
C -1.6204657194 -1.5112391691 -3.3902881415
C -0.8640826500 -2.0951538879 -2.1889825333
C -1.5029644987 -1.6953639079 -0.8823958731
C -2.3249348557 -2.6022007726 -0.2118782841
C -2.9885478643 -2.2562660448 0.9609575750
C -2.8227821492 -0.9636974271 1.4630052060
C -2.0142630687 -0.0260472025 0.8253592352
C -1.3403734960 -0.4044832243 -0.3547812548
C -0.4337538532 0.5551878873 -1.0028301105
C -0.7904316444 1.7676299571 -1.7359592732
O -1.8791057622 2.2733395641 -1.9888018429
N 0.4311338499 2.2795882820 -2.1902238532
N 1.5095263831 1.4997136951 -1.7554834227
C 0.9205201680 0.5002856131 -1.0129541400
O 1.7157373027 -0.4620590000 -0.4545839971
C 1.8463059991 -0.4105169374 0.9371009752
O 1.5937700788 0.5856361358 1.5576901941
C 2.3229179975 -1.7412244410 1.4820460133
C 3.6040774240 -2.1781843487 0.7524543656
C 1.1984959174 -2.7682969410 1.2407136446
C 2.5851266957 -1.5856749968 2.9812518709
C 2.6870299489 2.2141421548 -1.2312113161
C 2.3454754319 3.4053256155 -0.3325183919
O 2.1147992139 4.6024564685 -1.0679989116
C 0.8369488884 4.6706346325 -1.6904912911
C 0.6093597525 3.5985400424 -2.7554568652
C -1.8345216784 1.3759007562 1.3603098443
C -2.4821546680 1.6660574791 2.7094204749
C -3.8913312185 -3.2352159325 1.6609804576
H -1.6485309150 -0.4187616989 -3.3388623241
H -1.1440205045 -1.8020084529 -4.3319158377
H -2.6548385298 -1.8679030893 -3.4008989812
H -0.8524813873 -3.1887125095 -2.2593937671
H 0.1796721221 -1.7647860260 -2.2223882505
H -2.4482983982 -3.6026268060 -0.6209492984
H -3.3400574067 -0.6910662191 2.3774806630
H 3.4294968238 -2.3119582961 -0.3172586490
H 3.9434959399 -3.1315353330 1.1691818071
H 4.4063261649 -1.4453767097 0.8885913709
H 0.2544451519 -2.4368742293 1.6852737406
H 1.4842717223 -3.7206713034 1.6988640286
H 1.0304617154 -2.9286750201 0.1733319282
H 1.6782440276 -1.2772462992 3.5068257219
H 3.3576618466 -0.8359512854 3.1733016872
H 2.9189703462 -2.5433984391 3.3912279952
H 3.3006561659 2.5613065218 -2.0698734783
H 3.2694436353 1.4706448360 -0.6797028030
H 1.4901549921 3.1576049648 0.3158299981
H 3.2093154815 3.6162543018 0.3060310117
H 0.0351873739 4.5968901855 -0.9377342454
H 0.7899529713 5.6603465953 -2.1565017333
H -0.3260081940 3.8161910042 -3.2833467601
H 1.4269490303 3.5881216431 -3.4852932464
H -2.2242527293 2.0731878680 0.6071049343
H -0.7577158238 1.5778201004 1.4217237666
H -2.0999086045 1.0012084240 3.4912507489
H -3.5706993323 1.5566616808 2.6704415340
H -2.2662139000 2.6942281456 3.0133213041
H -3.6819128309 -4.2624453471 1.3514335367
H -3.7784984562 -3.1726391355 2.7475809203
H -4.9427811174 -3.0266439366 1.4308717191
