65
CONF571
C -3.9165141753 4.5026743319 -2.1902253794
C -2.9846620168 3.8851485658 -1.1495736898
C -2.7494095039 2.3863558666 -1.3687181120
C -1.9722615693 2.0867965351 -2.6641533502
C -1.9662824200 1.7917812849 -0.2186125496
O -1.1464590013 2.3904624976 0.4526414048
O -2.2529943776 0.4838877673 -0.0615952555
C -1.5025126887 -0.2548664852 0.9530799454
C -2.2237576783 -0.1697396488 2.2867944598
C -1.4153368141 -0.8935939863 3.3737745607
C -0.9056466992 -2.2113421908 2.8702154026
C -0.8870315639 -2.5851321757 1.5764769394
C -1.4009970221 -1.6903068042 0.4633695118
C -0.5204189899 -1.8505434713 -0.7960504315
C -0.6169917603 -3.3183537478 -1.2599956962
C -0.2602690834 -4.2414339735 -0.1264283276
C -0.3711539474 -3.8812856449 1.1634972888
C 0.1967850967 -3.6152370080 -2.5223373260
C 0.9276367967 -1.3761133674 -0.5322459921
C 1.2456915879 -0.0695876391 -1.2611797498
C 2.5894961901 0.5538714855 -0.9207016479
C 2.7488681920 0.9810792366 0.5260085089
C 4.1635451163 1.4921097924 0.7391978524
C 5.1328712771 0.3557997560 0.4667359932
C 4.8413417215 -0.4660074391 -0.7672034867
O 5.6659527201 -1.2166107004 -1.2509716549
O 3.6158569767 -0.4258970709 -1.3203121697
O 4.4014524239 1.9183915892 2.0853903968
C -0.2599564557 -0.0305393822 3.9133211645
H -4.8763432912 3.9749521329 -2.2195603269
H -4.1172379905 5.5509911382 -1.9499592677
H -3.4839267877 4.4721073929 -3.1945756328
H -2.0172904817 4.4003620992 -1.1550952245
H -3.4106001246 4.0295027213 -0.1494632182
H -3.7139085000 1.8662552960 -1.4149485086
H -2.5378487087 2.4278547599 -3.5345241020
H -1.0061419058 2.6031122192 -2.6544409380
H -1.7931373140 1.0134761704 -2.7763434058
H -0.5098595991 0.1979433345 1.0320725774
H -2.3768239185 0.8788002093 2.5632335620
H -3.2092558510 -0.6393162560 2.1789158599
H -2.0883610653 -1.0924693343 4.2197638231
H -0.5112417805 -2.9005503153 3.6170621765
H -2.4171462258 -2.0256551415 0.2021798538
H -0.9555916215 -1.2285940938 -1.5890422120
H -1.6744454801 -3.4948015592 -1.5176893149
H 0.1088082273 -5.2340089530 -0.3792917096
H -0.0747852004 -4.5712379344 1.9514095395
H 1.2734482854 -3.5371405548 -2.3429883252
H -0.0067182656 -4.6321969708 -2.8731205359
H -0.0686435493 -2.9180553826 -3.3239949389
H 1.0766302595 -1.2541215826 0.5465446444
H 1.6474437167 -2.1381602194 -0.8428095466
H 1.2005232247 -0.2383216045 -2.3444430640
H 0.4875207983 0.6902507395 -1.0342953411
H 2.7516574549 1.4249363180 -1.5690860932
H 2.5586014697 0.1485824768 1.2131065065
H 2.0138626899 1.7691155358 0.7276856382
H 4.3585392282 2.3233768016 0.0434592834
H 5.0824582728 -0.3499279183 1.3082544644
H 6.1678557685 0.7007354973 0.4011019410
H 3.8503235394 2.6942687823 2.2498705078
H -0.6475361209 0.8866255820 4.3689283040
H 0.4319688581 0.2463462751 3.1105159826
H 0.3103587416 -0.5768066456 4.6713682565
