40
CONF30
C 1.6520379315 3.9843307452 -0.7965693928
C 0.7007503396 2.8126896674 -0.8034553904
O 1.3778370668 1.6291258434 -1.3477459348
P 1.9688067772 0.4673827975 -0.4412114303
S 2.1536798093 0.7438357139 1.4713452799
O 3.2938579833 0.1540449037 -1.2713515518
C 4.1957466177 -0.9257215829 -0.8515919472
C 5.3921622682 -0.8895922298 -1.7694412727
O 1.1104238881 -0.8852407367 -0.8657117714
C -0.2064849778 -1.0575577985 -0.5482746152
N -0.8932896735 -0.0196645202 -0.1043171971
C -2.1915056094 -0.2424145126 0.1767472824
N -2.8205095488 -1.4076297173 0.0307105344
C -2.0998229840 -2.4528319206 -0.4265561609
C -2.8207008007 -3.7536879215 -0.5808236510
C -0.7516858716 -2.3226872483 -0.7331456150
C -2.9841336869 0.9580863570 0.6344219920
C -4.0637183649 0.6082678368 1.6572701123
C -3.5912405292 1.6468373984 -0.6003782514
H 2.0332339129 4.1853005703 -1.8015186872
H 2.4950840318 3.7952467814 -0.1255593713
H 1.1204587704 4.8735218823 -0.4425745427
H 0.3257786350 2.5796475354 0.1959671699
H -0.1480784628 2.9727302417 -1.4721087548
H 3.6542402789 -1.8744083452 -0.9271986002
H 4.4775267631 -0.7510504556 0.1917328882
H 5.0924224315 -1.0484609153 -2.8087386539
H 6.0843620016 -1.6865005624 -1.4819088869
H 5.9131514333 0.0682648171 -1.6893685589
H -3.6713872856 -3.6274918645 -1.2582568093
H -3.2235513561 -4.0710321569 0.3865538667
H -2.1637152064 -4.5335355414 -0.9692922223
H -0.1534957904 -3.1499282017 -1.0946581864
H -4.5417853703 1.5260923257 2.0131030635
H -4.8324867665 -0.0298955564 1.2133454102
H -3.6398044643 0.0838084216 2.5191404339
H -4.1231746128 2.5542764938 -0.2981032347
H -2.8154112885 1.9234599110 -1.3210234159
H -2.2639719948 1.6481170780 1.0890873717
H -4.3030033626 0.9771180694 -1.0949207052
