40
CONF40
C 2.7070021854 -2.7143332336 -0.4003787089
O 3.0486257382 -1.4055822569 -0.9326900708
C 3.8332572814 -0.6474243824 -0.1521276271
O 4.2536068327 -0.9846021654 0.9319677517
C 4.1270857252 0.6706039108 -0.8478755315
S 4.4033560265 2.0689194786 0.2815166135
C 2.7787750363 2.3304165477 0.9572965260
C 1.6749575730 1.5274663440 0.6653503292
C 0.4094357695 1.7619259360 1.2237958840
C 0.2995427426 2.8341810207 2.1181797634
C 1.3651656426 3.6516270091 2.4350067806
C 2.5983041416 3.3947427191 1.8495498634
Cl 3.9536964711 4.4303716904 2.2569485058
F -0.8996467254 3.0856132330 2.6889455298
N -0.6909119812 0.9488578085 1.0035168983
C -0.9905472839 0.5213273722 -0.1683288151
N -1.9607757204 -0.4282721859 -0.3728054184
N -2.4142850297 -0.4892644034 -1.7035517683
C -1.6303329252 0.1422071468 -2.6182237259
O -1.7359404900 0.0844287543 -3.8286457822
S -0.3459933804 1.0816337774 -1.7478342557
C -3.1713871116 -1.7020996018 -2.0626558560
C -4.3182878883 -1.8972396953 -1.0826697383
C -3.7803910898 -1.9131872929 0.3453376406
C -3.0175827819 -0.6304005844 0.6418524996
H 2.0695039854 -3.1720442601 -1.1550180730
H 2.1697396953 -2.5996402872 0.5437143569
H 3.6134891712 -3.3039685685 -0.2480423433
H 3.3598553480 0.9039410623 -1.5909459376
H 5.0796552630 0.5555211054 -1.3797510275
H 1.7761249935 0.6679822063 0.0153286670
H 1.2309197125 4.4772931571 3.1242884681
H -3.5234563945 -1.5529238818 -3.0843731988
H -2.4870787203 -2.5618104479 -2.0394156646
H -5.0470209359 -1.0868335286 -1.2031789150
H -4.8203520562 -2.8395558195 -1.3205681391
H -4.5972575143 -1.9984775536 1.0680308013
H -3.1168960203 -2.7747998173 0.4866615176
H -2.5146912795 -0.6769139149 1.6076129946
H -3.6892652074 0.2403134907 0.6308842045
