59
CONF166
C 2.4493209724 2.7356779726 3.0604716371
C 3.8391517847 3.2183826097 3.4884165415
C 4.6824592293 1.9514997217 3.3325277784
C 4.1996821186 1.3220431859 2.0056836902
C 2.7268847284 1.8298381991 1.8441958389
C 4.2917889407 -0.1992511683 2.0275536672
C 3.9182268718 -0.8512883898 0.7208464598
O 3.4728705058 -1.9894254286 0.6741536807
N 4.1122466249 -0.1106709533 -0.4518093797
C 4.6707416537 1.1715438220 -0.4791154907
O 4.8419486273 1.7458254247 -1.5458229605
C 5.0699869032 1.7846033938 0.8366319978
C 3.7290622285 -0.7120724068 -1.7473190731
C 2.3829923441 -0.1984754895 -2.2536736116
C 1.2091767310 -0.5428111615 -1.3376723805
C -0.1089010728 -0.0633232206 -1.9377259649
N -1.2410934990 -0.1153515642 -1.0019825840
C -2.4238538173 0.4875878550 -1.6321420525
C -3.6150738196 0.4770212128 -0.6797427333
N -3.9041513208 -0.8938125530 -0.2587525528
C -2.7365355849 -1.5194623479 0.3612154283
C -1.5486989198 -1.4933999429 -0.5967163026
C -4.8958641250 -1.6331375734 -0.8386838457
N -4.9232886198 -2.9629404024 -0.5731900545
C -5.9333188909 -3.6520955811 -1.1003490606
C -6.9206567964 -3.0743654740 -1.8903342050
C -6.7931067913 -1.7075461933 -2.1096734387
N -5.8017977377 -0.9757778297 -1.6046145346
H 1.7567287774 3.5498527818 2.8277825806
H 2.0084219379 2.1453798831 3.8726424123
H 4.1966022251 4.0011995901 2.8076525832
H 3.8610097046 3.6229693946 4.5048472768
H 4.4551332045 1.2657990002 4.1588590176
H 5.7625891625 2.1299755156 3.3328426887
H 2.0174979279 0.9978182854 1.7882508677
H 2.6255685276 2.4006099917 0.9136973518
H 5.3227186434 -0.5091426222 2.2551471374
H 3.6458800483 -0.6343300806 2.7956405428
H 5.0451657560 2.8696639876 0.7058831127
H 6.1165525940 1.4977616924 1.0157521240
H 3.6956968182 -1.7923584745 -1.5989762342
H 4.5186306342 -0.4749997843 -2.4633842339
H 2.4371264952 0.8867286927 -2.3987931974
H 2.2197885552 -0.6433554343 -3.2438852417
H 1.3456194877 -0.0688238204 -0.3571316399
H 1.1921650987 -1.6257945717 -1.1732696355
H -0.3271468876 -0.6469231370 -2.8554191672
H 0.0044757760 0.9841464716 -2.2479498301
H -2.1881976579 1.5232374478 -1.9043969479
H -2.7039546481 -0.0512155304 -2.5604886795
H -4.4906646782 0.9105274330 -1.1604856911
H -3.3763566015 1.0633836005 0.2169644409
H -2.9716185197 -2.5437755581 0.6459477914
H -0.6829408370 -1.9243026162 -0.0842611164
H -1.7751360571 -2.1304442223 -1.4765728790
H -5.9503549069 -4.7196867349 -0.8822276293
H -7.7326418953 -3.6525751906 -2.3128392434
H -7.5184301787 -1.1734472723 -2.7230598349
H -2.4878799089 -0.9483786929 1.2651233136
