43
CONF126
C 0.6796185551 3.8945036293 3.7368847086
C 1.4882360565 2.8017936323 3.0778915650
O 0.5964750845 2.1313837509 2.1528530855
N 1.2937547347 1.1458950090 1.4775618360
C 0.5408101558 0.4432958662 0.7151961753
C -0.9154398787 0.5454132230 0.5386431817
C -1.4545355400 0.8116929825 -0.7368149529
C -2.8343236769 0.9292259271 -0.9038803197
C -3.6754134754 0.7874179339 0.1938437428
C -3.1505799183 0.5172180144 1.4486335365
C -1.7712197873 0.3815119774 1.6365800422
O -1.2559402856 0.1128746069 2.8692504692
C -1.2207462713 -1.2981729611 3.2008321924
Cl -4.2280795806 0.3562929704 2.8238446314
O -0.5506370273 0.9421964066 -1.7377252609
C -1.0458589513 1.1772151761 -3.0670710585
O 1.2820360030 -0.3847074831 -0.1170937625
C 0.7647799149 -1.5858842489 -0.5358884617
O -0.1744814686 -2.1279767112 0.0025079671
C 1.5112014902 -2.1165992618 -1.6939466458
C 2.4708714636 -1.3585771410 -2.3764544787
C 3.1253839380 -1.9030939963 -3.4748343175
C 2.8317315362 -3.1998263374 -3.8932925587
C 1.8767595791 -3.9563441491 -3.2142194242
C 1.2154452106 -3.4176612581 -2.1192086330
H -0.1754222422 3.4760057200 4.2757926679
H 1.3117953074 4.4267775867 4.4530872329
H 0.3159246379 4.6128205298 2.9965738189
H 2.3409747292 3.2062673181 2.5195045217
H 1.8534373108 2.0723233498 3.8107058450
H -3.2657972892 1.1405057038 -1.8734773730
H -4.7473928653 0.8908001866 0.0676925752
H -0.8648548918 -1.3526712717 4.2302764576
H -0.5319454625 -1.8221099435 2.5310875067
H -2.2205604385 -1.7391623117 3.1286759366
H -1.5852351464 2.1291047486 -3.1179597598
H -0.1608598917 1.2182825021 -3.7017178240
H -1.6968858634 0.3572572775 -3.3885814280
H 2.6953715724 -0.3487426504 -2.0546256281
H 3.8656749072 -1.3142957871 -4.0065176424
H 3.3468727838 -3.6215338775 -4.7506431018
H 1.6492748619 -4.9658858402 -3.5404467631
H 0.4697800135 -3.9948302327 -1.5835201856
