21
CONF2
C 2.5343869298 -0.6916733583 -1.1972230840
C 1.2009437062 -0.3094402383 -1.2455351385
C 0.5003543528 0.0212734147 -0.0815347650
C 1.1786229538 -0.0310167708 1.1477587612
C 2.5186334572 -0.4281145574 1.1903587558
C 3.1952143958 -0.7596257115 0.0210158056
Cl 3.3811508769 -0.5012228697 2.7009850641
Cl 0.3655968335 0.4472774283 2.6063779157
C -0.9091290839 0.4204811823 -0.1795549772
C -1.3944032656 1.4832227649 -0.9059189960
N -2.7625963014 1.4980761913 -0.7804335126
C -3.1787682922 0.4658679402 0.0038199575
C -2.0503282173 -0.2320510452 0.3990972781
C -2.0455166396 -1.4039892446 1.1815152872
N -2.0404461686 -2.3817784202 1.8034397126
H 3.0610254528 -0.9518394882 -2.1087922699
H 0.6690671564 -0.2818742312 -2.1903765343
H 4.2327358402 -1.0663224834 0.0803456835
H -0.8659098040 2.2346524714 -1.4723000744
H -3.3709165388 2.1835347381 -1.1940788994
H -4.2197179561 0.2845618800 0.2210340353
