46
CONF11
C 2.9457183244 2.8446188546 -0.0527159519
C 3.6169347648 1.6369624211 0.5883246311
N 3.8394743802 0.5294159160 -0.3595221806
C 5.0659584612 0.6123436909 -1.1709834650
C 6.2752119291 0.0028096610 -0.4695643685
C 3.1906110989 -0.6507544827 -0.4106379825
O 3.5639433768 -1.6464621540 -1.0079503177
N 1.9233104360 -0.7453360790 0.2931640638
C 1.3353752491 -1.9230055779 0.6577830677
N 0.1505707739 -1.6966127969 1.1848276149
C 0.0509414691 -0.3396965225 1.1006952211
N 1.0824042563 0.2859814712 0.5651198825
S -1.3941140396 0.5692645798 1.7057978209
O -1.1662169948 1.9870567560 1.4014001485
O -1.5866622098 0.1479612345 3.0984163045
C -2.7058481866 -0.0894174982 0.6486815708
C -3.5658611742 -1.1025271474 1.1264766401
C -4.5785245711 -1.5341242061 0.2691774543
C -4.7471877496 -1.0229463696 -1.0139774191
C -3.8479233160 -0.0617411715 -1.4625318427
C -2.8156760142 0.4258591742 -0.6611084486
C -1.8945204308 1.4528342376 -1.2681726008
C -5.8760484052 -1.4946023528 -1.8850826518
C -3.4674790751 -1.7749347201 2.4708914826
H 2.8784753246 3.6558374751 0.6781776084
H 1.9347076955 2.5899930862 -0.3747864081
H 3.5165986589 3.2101481413 -0.9117717335
H 4.6065407780 1.9122597218 0.9749669600
H 3.0302501303 1.2809800700 1.4351208857
H 4.8817074975 0.1008878373 -2.1191718503
H 5.2329400940 1.6731179835 -1.3846706453
H 7.1655618107 0.1194071539 -1.0945936791
H 6.1135565273 -1.0633013205 -0.2951998331
H 6.4709966107 0.4926545774 0.4893594435
H 1.8179619412 -2.8784964421 0.5099689050
H -5.2535610001 -2.3093129138 0.6218540428
H -3.9440015960 0.3260729994 -2.4730457736
H -2.0604559756 1.4885157532 -2.3471791579
H -0.8398007511 1.2327953561 -1.0864745200
H -2.0794440581 2.4447194539 -0.8495280011
H -5.6650499836 -1.3172720429 -2.9424577012
H -6.0682217265 -2.5615417042 -1.7421329439
H -6.7998411593 -0.9593928173 -1.6360620835
H -3.7018579386 -1.0868699494 3.2854884387
H -4.1706170903 -2.6101123188 2.5029059880
H -2.4608380630 -2.1540360182 2.6583238841
