33
CONF14
O -4.0003701577 3.4828940191 -1.5255393669
C -3.4850615954 2.2940207149 -1.1322219183
C -4.4004301865 1.2625363387 -0.9143129733
C -3.9256924759 0.0249393404 -0.5100748485
O -4.7966329600 -0.9794228632 -0.3259119890
C -2.5320791324 -0.1981650695 -0.3090159446
C -2.0265307272 -1.5099126547 -0.0139943439
O -2.7683845947 -2.5001707008 0.1490300180
C -0.5271306402 -1.6451788625 0.0382821851
C 0.1139124303 -0.3468283294 0.5084856491
O -0.3074970831 0.7545482395 -0.3576202102
C -1.6455426417 0.8858015126 -0.5275523818
C -2.1086430747 2.1235995123 -0.9423220974
C 1.6141634603 -0.3796808760 0.5006100757
C 2.3192568637 -0.5135307523 -0.6960480202
C 3.7100768102 -0.5679575013 -0.6863557778
C 4.4031591220 -0.5000345472 0.5171013332
O 5.7665820142 -0.5497394103 0.6251436857
C 3.6995940696 -0.3682806372 1.7231797111
O 4.3556285521 -0.2947598951 2.9176196593
C 2.3121024579 -0.3014856064 1.7066304035
H -3.2889744296 4.1270813616 -1.6478850181
H -5.4608679062 1.4244046121 -1.0672797341
H -4.2480131366 -1.7789768594 -0.0884802999
H -0.2532297929 -2.4660192650 0.7066303952
H -0.1714555482 -1.8988034941 -0.9700370247
H -0.2470564824 -0.1114435686 1.5191964754
H -1.4130223360 2.9425375140 -1.0924017519
H 1.7895315736 -0.5660639586 -1.6415482979
H 4.2652871597 -0.6654744772 -1.6156413778
H 6.1647818812 -0.6407470154 -0.2504964483
H 5.3081956302 -0.3502377338 2.7535735505
H 1.7843437812 -0.1894497487 2.6492564604
