47
CONF34
C -0.1147213473 0.5159900469 3.2647284568
C -0.0948908254 1.4861386453 2.1053708144
C 0.7809741390 2.7140995788 2.1600795309
C 1.2036781213 1.5195697815 1.2973808811
C 1.1970755656 1.6843924800 -0.1620372381
O 0.6018982282 2.5169513634 -0.8114962040
O 1.9895802117 0.7256508457 -0.7399119341
C 2.0366435062 0.7741568136 -2.1853507183
C 3.2485311083 0.0398665646 -2.5544085037
N 4.1879648175 -0.5447335283 -2.8846515885
C 0.8146755907 0.1522175159 -2.8287894122
C 0.3177055660 -1.0530838168 -2.3364638828
C -0.7933256483 -1.6343931757 -2.9361329812
C -1.3713608187 -1.0017330999 -4.0384073402
C -0.8796483785 0.1877950725 -4.5398335253
C 0.2210046438 0.7754958385 -3.9232964464
F -2.4435120898 -1.5790068874 -4.6196445181
O -1.3197167461 -2.8389904062 -2.5492227335
C -1.3718351529 -3.1228207864 -1.1861793016
C -0.9796062801 -4.3933943241 -0.7857327762
C -1.0909577841 -4.7385871009 0.5595790734
C -1.5820765116 -3.8209029539 1.4853547385
C -1.9739117448 -2.5517678340 1.0607838417
C -1.8741810310 -2.1937075389 -0.2802029222
C 1.5967139070 3.0517969349 3.3278769346
C 1.8194515511 4.2867684090 3.7785339802
Cl 1.1703187894 5.7283327134 3.0453680337
Cl 2.8044892638 4.6008453356 5.1848321181
C -1.4255632370 1.6208546225 1.4026907329
H 0.8702183683 0.3724768182 3.7129776272
H -0.4732753005 -0.4590692449 2.9189791452
H -0.8013291093 0.8763718810 4.0385153171
H 0.4054509037 3.5514864176 1.5800320328
H 1.9993016379 0.8911519598 1.6826643888
H 2.1459707189 1.8122737115 -2.5208932812
H 0.7833018231 -1.5420921044 -1.4864601061
H -1.3675630957 0.6500146229 -5.3910365443
H 0.6103021615 1.7175770161 -4.2949013819
H -0.5959816580 -5.0933423060 -1.5204455847
H -0.7860199958 -5.7290773835 0.8821035616
H -1.6639869501 -4.0934878023 2.5323199943
H -2.3705377611 -1.8358513241 1.7739232422
H -2.1877796944 -1.2127544302 -0.6227118044
H 2.0672762162 2.2445991676 3.8810121540
H -2.1850667136 1.9240582046 2.1309084279
H -1.7281978043 0.6568851831 0.9798779047
H -1.3974808593 2.3609786197 0.6019478938
