48
CONF37
C -3.4686533324 2.3819742050 1.2662091909
Si -1.9602979553 1.3710162020 0.9306964113
O -1.4356403575 0.7517044452 2.3725248567
O -2.2964446280 0.1579669732 -0.1242706139
Si -1.8460853955 -1.4193455156 -0.3358864693
C -1.3171969645 -1.6532982733 -2.1034434164
C -3.2728236594 -2.5133688783 0.1361800527
O -0.5989077206 -1.7043038242 0.7159425984
Si 0.9437049729 -2.3074867929 0.7146318938
C 1.4971024742 -2.3373840310 2.4908361021
C 0.9818139107 -3.9927984837 -0.0713150744
O 1.9103246893 -1.3208465127 -0.1867591291
Si 2.2823061591 0.2834156619 -0.3033454022
C 2.4310252838 1.0430062824 1.3938951894
C 3.8550679614 0.4165380825 -1.2848076698
O 1.0661031186 1.0099498945 -1.1512210225
Si 0.1181364547 2.3585361505 -1.0969899672
C 1.1695393555 3.8927989494 -1.0239557962
C -0.9804806369 2.3308620848 -2.5983925498
O -0.7923723695 2.3287517593 0.2851918508
H -3.2438415730 3.1980696391 1.9606491989
H -4.2626871118 1.7677905117 1.7023293123
H -3.8447559943 2.8221528650 0.3368653928
H -0.8770790568 -0.0342951932 2.3010846821
H -0.4135707301 -1.0740000250 -2.3200595111
H -1.1156871474 -2.7083019848 -2.3171158069
H -2.1111312477 -1.3186838859 -2.7804613795
H -4.1447620399 -2.3118629132 -0.4954876470
H -3.0055059289 -3.5696015411 0.0212501165
H -3.5597527483 -2.3444077858 1.1800307295
H 2.5504488216 -2.6275947756 2.5671265119
H 0.9024915370 -3.0595577067 3.0612213693
H 1.3797308714 -1.3549986046 2.9607678580
H 0.2955917113 -4.6745025013 0.4426156912
H 1.9893980517 -4.4192559485 -0.0158963255
H 0.6924322445 -3.9441984089 -1.1261441864
H 3.1709443780 0.5021232790 1.9941226238
H 2.7516721975 2.0881380484 1.3233546364
H 1.4737740223 1.0179509678 1.9260846518
H 4.1311262500 1.4669058262 -1.4287640573
H 4.6817141456 -0.0856471347 -0.7708239090
H 3.7355809888 -0.0431927754 -2.2720140048
H 1.7812288349 3.9162608822 -0.1159216869
H 0.5415411450 4.7904511402 -1.0326261763
H 1.8400759378 3.9395692106 -1.8889386871
H -1.6618072904 3.1887107305 -2.5922259607
H -0.3824846828 2.3782081910 -3.5151290717
H -1.5809066501 1.4160817148 -2.6271754026
