49
CONF15
C -3.5416967971 -3.3294480982 -1.2408131502
C -3.0868163217 -2.0378305612 -1.8881137426
C -1.8350157761 -1.3101342419 -1.3686523763
C -3.2500910698 -0.7299677559 -1.1669507283
C -3.5500177453 0.5378745473 -1.9429481542
C -3.8563367572 -0.6935931595 0.2197285502
C -1.0271648537 -1.8021735386 -0.2478771537
O -1.3820045585 -2.4288015836 0.7271625003
O 0.2875407631 -1.4361843268 -0.4452570126
C 1.1802078017 -1.7900823728 0.6426287891
C 2.5021161435 -1.9607443536 0.0423435466
N 3.5640154285 -2.0850628934 -0.3940716980
C 1.1838352367 -0.7221793237 1.7145500323
C 0.5836090201 -0.9740450848 2.9450745140
C 0.5644394882 0.0290726711 3.9105340888
C 1.1429675150 1.2647483397 3.6576219806
C 1.7384260105 1.5048986190 2.4191081711
C 1.7580526213 0.5180611602 1.4392682728
O 2.2388951285 2.7700590001 2.2220760560
C 3.2458015136 2.9723465786 1.2902695450
C 3.1080170032 4.0637638769 0.4413173262
C 4.1275007660 4.3558985908 -0.4593556197
C 5.2665766460 3.5585983986 -0.5160796306
C 5.3894548787 2.4692490879 0.3429648717
C 4.3845878202 2.1724120587 1.2568741400
C -3.2244432574 -2.0955438940 -3.3976949904
H -3.0035897099 -4.1752714705 -1.6820591478
H -4.6099176075 -3.4749022000 -1.4387630531
H -3.3770367417 -3.3598599183 -0.1662167977
H -1.2434758361 -0.8112462025 -2.1293152563
H -3.2466237088 1.4119254107 -1.3573456968
H -3.0340029435 0.5862492738 -2.9023352178
H -4.6270915846 0.6182171335 -2.1306031023
H -3.5866639420 -1.5500589117 0.8338497722
H -4.9483693028 -0.6505919639 0.1360629849
H -3.5260762708 0.2085470573 0.7458784341
H 0.8576063280 -2.7452139696 1.0726899053
H 0.1224385531 -1.9365720996 3.1353403169
H 0.0988806995 -0.1562317326 4.8728478654
H 1.1430974176 2.0541215072 4.4010711466
H 2.2200534466 0.7068721277 0.4760319157
H 2.2101331199 4.6690135452 0.5004320254
H 4.0248984713 5.2081025873 -1.1233760556
H 6.0557994893 3.7844199978 -1.2248805156
H 6.2759785168 1.8446652766 0.3078081938
H 4.4783042256 1.3283799877 1.9317048768
H -2.7104108777 -2.9822875276 -3.7829178864
H -2.8047906570 -1.2251335358 -3.9032127253
H -4.2815981300 -2.1743363044 -3.6767311348
