39
CONF310
C 3.3287903959 -0.9045449420 -2.8639194154
C 2.2056387739 -0.7917867091 -1.8346476707
C 2.5571155541 0.1837812452 -0.7124698825
C 1.5085971697 0.3025656583 0.3815393503
C 1.1624404748 -1.0115589999 1.1188273990
O -0.2149406588 -1.2626636329 0.7822329932
C -0.7722935933 0.0003509728 0.4729355588
C -1.9865804932 -0.2134537758 -0.4434698927
N -1.6291002323 -0.7275336006 -1.7503681636
C -1.3717174498 -0.0237008065 -2.8707880855
N -1.0456628523 -0.8423646678 -3.8634253431
C -1.1150784014 -2.0690831288 -3.2721832871
N -1.4643946061 -2.0519898517 -1.9922036714
O 0.2432729540 0.7013768878 -0.2064656513
C -1.2213318375 0.7258036767 1.7522608071
C -1.5343547160 2.0884068720 1.8103642180
Cl -1.4626870524 3.1251698848 0.3902547377
C -1.9407907571 2.7044080381 2.9901142838
C -2.0472023977 1.9303290428 4.1368759499
Cl -2.5556877214 2.6993865081 5.6298949516
C -1.7692962103 0.5709166626 4.1264897465
C -1.3650870427 -0.0097966540 2.9317108494
H 3.0586014419 -1.5945645908 -3.6693912412
H 3.5450406345 0.0707387498 -3.3140292607
H 4.2514478903 -1.2706522605 -2.4001092300
H 1.9908413957 -1.7842275187 -1.4194070421
H 1.2879813895 -0.4546503971 -2.3266021423
H 2.7336395453 1.1812832561 -1.1349491121
H 3.4957203314 -0.1196030569 -0.2289658343
H 1.8123164345 1.0685664261 1.1068768304
H 1.2763260483 -0.8998833320 2.2036041461
H 1.7483820484 -1.8666657521 0.7761010037
H -2.6652240776 -0.9163217226 0.0460063156
H -2.5068142406 0.7353597295 -0.5872563307
H -1.4407731300 1.0556734272 -2.9115323354
H -0.9118530513 -2.9959564309 -3.7938326885
H -2.1720647256 3.7623662120 3.0073019375
H -1.8656744140 -0.0241248997 5.0268489415
H -1.1475426304 -1.0713557148 2.9057761755
