48
CONF70
C 3.7528578414 -3.0662816009 0.0338998830
C 3.7956049458 -2.6433758458 -1.4323979068
C 2.9470694610 -1.4133910907 -1.7611409538
C 1.4711394446 -1.6829683659 -1.4582752386
O 0.8000463293 -2.3729313115 -2.2217171628
N 1.0011224645 -1.1537706662 -0.3006758441
C -0.3554776341 -1.2973256056 0.1163326796
C -1.2237513994 -0.0153740521 0.3577031630
N -1.3726764585 -0.4388900490 1.7573822060
C -0.6352991286 -1.6066681953 1.6054319647
O -0.3621736879 -2.4959763220 2.3763916130
C -2.6620967991 -0.2595754240 2.3833590699
C -3.7290705736 -0.5437660573 1.2609125212
S -2.9342653594 0.1091394080 -0.3114088253
C -3.9520917475 -2.0522369506 1.1535908975
C -5.0554833067 0.1782078090 1.4750669506
C -2.7739592689 1.1449805157 2.9553929955
O -2.2196499844 2.1185819434 2.4982388485
O -3.5828654721 1.1675549977 4.0282704434
O 3.4755646962 -0.3117148768 -1.0101885658
C 3.1134015673 0.9634303223 -1.3769545680
C 2.1784107314 1.2664502587 -2.3684101826
C 1.8876209839 2.6038576661 -2.6409290554
C 2.5106438242 3.6302997181 -1.9398630785
C 3.4404923308 3.3125232576 -0.9487899477
C 3.7432557938 1.9878723493 -0.6645451899
H 4.0770297562 -2.2552808489 0.6924491225
H 2.7450050963 -3.3697338118 0.3352794283
H 4.4192742349 -3.9180853261 0.1955914004
H 4.8230315209 -2.4151937451 -1.7360506423
H 3.4417421751 -3.4563495242 -2.0750735280
H 1.6319683267 -0.6011038470 0.2643952117
H -0.6970598802 0.9317898348 0.2154600740
H -2.7854603686 -0.9904422961 3.1887215896
H -3.0157014168 -2.5980923327 1.0098220312
H -4.6044862468 -2.2713520248 0.3045370075
H -4.4325091398 -2.4183703035 2.0682758991
H -5.7372160679 -0.0502002640 0.6512740557
H -5.5168155281 -0.1738611792 2.4032567242
H -4.9308491426 1.2629519086 1.5278628438
H -3.6614911701 2.0878435786 4.3360160000
H 1.6682276527 0.4905350766 -2.9267720654
H 1.1589353350 2.8345719329 -3.4119919705
H 2.2754844780 4.6662178342 -2.1598452470
H 3.9357071471 4.1022543368 -0.3922347327
H -0.8613888640 -2.0195635964 -0.5313206457
H 3.0210841349 -1.2072991869 -2.8361052657
H 4.4653221728 1.7276614568 0.1027319016
