60
CONF91
C 0.7666151297 -1.0421151461 1.1484533169
C -0.5911393824 -1.7470895887 1.2194057938
C -1.8270057571 -0.8618604351 0.8909970830
C -1.5078709555 0.5965343896 0.7091120445
C -0.3611760112 1.1628380170 1.2106365838
O -0.1266835568 2.4666127339 1.2248420120
C 0.7055423304 0.3052794210 1.8588439214
O 0.3361283318 0.1077137985 3.2189473813
C 2.0630771205 1.0209410547 1.8022719624
O 2.4619202922 1.5792707705 2.8311324864
C 2.7400206170 1.0289619369 0.5349986581
C 3.8653328677 1.9287472280 0.2391219032
O 4.3502551270 1.9753635517 -0.9306293937
N 4.3711908807 2.6986337073 1.2117921174
C 5.4986222283 3.5829884283 0.9532475098
O 6.7274067736 2.8879621691 0.8036937421
C 2.2849358411 0.1948147238 -0.4869011982
O 2.7906369745 0.2679547657 -1.6893619245
C 1.2652920007 -0.9057124589 -0.3015320240
N 1.7556860472 -2.2096984998 -0.7664833860
C 3.1150424120 -2.5435487535 -0.3377187754
C 1.5685272931 -2.4823989093 -2.1914696608
C -2.5306404068 1.4513502841 0.1964882840
O -2.3944315789 2.7244352714 0.2404048637
C -3.7299320346 0.8767149968 -0.4062894476
C -4.7727142554 1.7603413046 -0.8046048637
O -4.7340306064 3.0792796284 -0.5680730983
C -5.8913824844 1.2644252113 -1.4728366092
C -5.9304940712 -0.0650982482 -1.8258001681
C -4.8891596585 -0.9305291404 -1.4776863109
Cl -5.0438915080 -2.5508849929 -2.1574503601
C -3.8052764497 -0.5165683943 -0.7028304040
C -2.6743747965 -1.4641080760 -0.2657954248
C -3.1966185938 -2.8206386384 0.2484652586
O -1.8569434574 -1.7309964262 -1.4253699448
H 1.4934115547 -1.6488111087 1.7000584464
H -0.5429380148 -2.5931005387 0.5295307662
H -0.7073426409 -2.1570855087 2.2244661165
H -2.4994434037 -0.9055266068 1.7612139004
H -0.9659114940 2.8885064066 0.8461745417
H 0.8488921125 0.7666514081 3.7225764859
H 4.0055781353 2.5699853173 2.1496805132
H 5.2785880899 4.1812709552 0.0617953456
H 5.6059795106 4.2359376453 1.8208946225
H 6.7145190527 2.4636346541 -0.0648334762
H 3.5283210187 1.0127664810 -1.6207790279
H 0.4127146195 -0.6365187875 -0.9389836415
H 3.2496841603 -2.3269288506 0.7263282156
H 3.2768069875 -3.6163080456 -0.4858358440
H 3.8925035376 -2.0016644946 -0.9040730349
H 1.7137343404 -3.5557155214 -2.3610068906
H 2.2739306967 -1.9367845764 -2.8380384727
H 0.5472450457 -2.2245505579 -2.4856864080
H -3.8272849753 3.2639644148 -0.1946827145
H -6.6909447738 1.9432671558 -1.7475162992
H -6.7699199897 -0.4494144040 -2.3944253489
H -2.5449301252 -3.2063665284 1.0332476099
H -4.1979024060 -2.7134324954 0.6715863142
H -3.2292267113 -3.5563222327 -0.5516075751
H -1.6685307184 -0.8873693575 -1.8601787805
