59
CONF496
C 5.2158102962 2.8681533311 3.5471396571
C 4.0806206167 2.6947050169 4.5970454003
C 3.4628951966 1.3119976611 4.3119943696
C 3.7584112989 1.0444741823 2.8285084057
C 5.1984143188 1.5802702324 2.6995455133
C 2.7964894148 1.8176176623 1.9254337467
C 2.9934449352 1.5545766132 0.4551935627
O 2.7104868135 2.3908073438 -0.3914976565
N 3.4948088890 0.3020777333 0.0817552764
C 3.8417978806 -0.7014459529 0.9923506875
O 4.2919212747 -1.7662092304 0.5912968572
C 3.6228357526 -0.4249511724 2.4558415259
C 3.6848502208 0.0104398927 -1.3552804115
C 2.5546878816 -0.8378834183 -1.9360127880
C 1.1876134473 -0.1562095534 -1.8979716750
C 0.1066594995 -1.0735114070 -2.4624131021
N -1.2056304272 -0.4259715303 -2.5977262961
C -1.7996359486 -0.1268927565 -1.2876781765
C -3.1626375427 0.5391015310 -1.4549614394
N -4.0535794849 -0.3205479418 -2.2355835267
C -3.4741743760 -0.6348289246 -3.5423751701
C -2.1109833024 -1.2954156121 -3.3616040890
C -4.9505200871 -1.1574000791 -1.6314638776
N -5.2189932155 -0.9465427586 -0.3192319235
C -6.1415957949 -1.7333565014 0.2311668474
C -6.8087335757 -2.7316316267 -0.4694316368
C -6.4515737415 -2.8711894776 -1.8056920626
N -5.5358039959 -2.1088141391 -2.4002021640
H 6.1915423868 3.0195818078 4.0164725799
H 5.0257498402 3.7441950228 2.9194273058
H 4.4546360181 2.7591488335 5.6223327229
H 3.3292855978 3.4821687421 4.4818694597
H 2.3931980900 1.2590270639 4.5406289244
H 3.9697651867 0.5416261064 4.9064185341
H 5.5046336716 1.7507671638 1.6612799237
H 5.8801389942 0.8346985465 3.1262159391
H 1.7608862585 1.5303063558 2.1601156937
H 2.8676505824 2.8994495887 2.0633775061
H 4.3250288088 -1.0530001034 3.0114114046
H 2.6078846040 -0.7755713192 2.6959729582
H 4.6390642397 -0.5103788081 -1.4590606517
H 3.7458876066 0.9708183650 -1.8691570663
H 2.8235215291 -1.0680824846 -2.9748361631
H 2.5095580873 -1.7941030263 -1.4016593765
H 1.2161543162 0.7737005061 -2.4791163064
H 0.9522040511 0.1176563016 -0.8632779938
H 0.0353745409 -1.9867373313 -1.8370955902
H 0.4119238753 -1.3999368173 -3.4653750063
H -1.9191038942 -1.0487509635 -0.6817917276
H -1.1445977745 0.5547450021 -0.7362890417
H -3.0440049811 1.4834967144 -2.0010341533
H -3.6057098416 0.7485320047 -0.4826002684
H -3.3564969445 0.3067355060 -4.0936361962
H -2.2514955885 -2.2746829752 -2.8594711111
H -1.6686459932 -1.4851224100 -4.3466969368
H -6.3534876693 -1.5583442730 1.2856899055
H -7.5533919923 -3.3641487378 -0.0029789902
H -6.9187613510 -3.6331864855 -2.4291077123
H -4.1440306641 -1.2877112236 -4.0999058965
