119
CONF803
C -8.6155025534 -2.3737029923 4.8922709576
C -9.3094317315 -1.3654658287 3.9782854632
C -10.7651817201 -1.7654137477 3.7287558228
C -8.5601653142 -1.2446525111 2.6352831278
C -9.2474639798 -0.2006122369 1.7437557365
O -9.3080517721 0.9744286641 2.1248465440
N -9.7362054643 -0.5824477767 0.5450746315
C -10.3565310525 0.4074265322 -0.3632833004
C -10.5155468254 -0.3828357372 -1.6420326561
C -9.6285286556 -0.1007827185 -2.8243830607
C -11.1102528636 0.2046715306 -2.8780970054
C -10.7546386548 -1.8051648909 -1.1897250958
C -9.7519682731 -1.9448410320 -0.0243716357
C -8.3869686098 -2.3668549870 -0.4892706177
N -8.0742800638 -3.5863073597 -0.9003197566
C -6.7387722265 -3.5361583776 -1.2109315366
C -6.2262659535 -2.2714177751 -0.9806631752
N -7.3112711136 -1.5405243062 -0.5331384885
C -4.8803243728 -1.7422526869 -1.0718981310
C -3.7989643236 -2.6313537187 -1.2578836921
C -2.5240237610 -2.1202133129 -1.2992982944
C -2.2533693596 -0.7496147886 -1.1498649966
C -3.3101246434 0.1333401408 -0.9690652931
C -4.6091735608 -0.3685043853 -0.9380510510
C -0.8047976622 -0.5394339841 -1.2205612206
C -0.1725106218 -1.7777431869 -1.4123730925
C -1.2199532274 -2.8620707778 -1.4649900073
F -1.0365961248 -3.8122492301 -0.4747482187
F -1.1735373124 -3.5749938718 -2.6499678140
C 1.1954530693 -1.8999871958 -1.5168338125
C 1.9902146429 -0.7396027116 -1.4313355104
C 1.3529059796 0.4986883121 -1.2415421669
C -0.0313126632 0.6120406187 -1.1322392129
C 3.4598521103 -0.8250667350 -1.5388007666
C 4.2712070160 0.0285277781 -0.7815507782
C 5.6446636529 -0.0980960821 -0.9323408257
C 6.2395513752 -1.0381155314 -1.8070965238
C 5.4250537084 -1.8894859081 -2.5564478416
C 4.0510681549 -1.7708278069 -2.4112255993
N 7.6185728998 -0.9301503581 -1.7505508911
C 7.8434678905 0.0319324705 -0.8728942576
N 6.7024411330 0.5559114104 -0.3369607495
C 9.2234056875 0.4919152083 -0.4996901894
C 10.0527578080 -0.6475832486 0.1454141672
C 11.5089039039 -0.1551533125 0.3012712032
C 11.4244679856 0.8619770348 1.4823278751
C 9.9150966872 0.8815795214 1.7741758331
C 9.5315498120 -0.5879173287 1.5896036094
N 9.2512545881 1.4969282371 0.5921906832
C 9.1386433230 2.8441568674 0.4981456516
O 9.4526693832 3.5920025991 1.4276104233
C 8.5666916125 3.4460027820 -0.8006517006
C 9.6741664125 4.1773600661 -1.5953671018
C 10.8818112805 3.2824060702 -1.8731064649
C 9.1254728040 4.7297481471 -2.9141381285
N 7.5397672446 4.4290193684 -0.4584239247
C 6.5616217935 4.1721263403 0.4398290704
O 6.2736587095 3.0631807276 0.8864952275
O 5.9064676999 5.3023186461 0.7822078038
C 4.8064302353 5.1220814918 1.7043710605
N -7.1836420694 -0.7942808761 2.7913636421
C -6.1152318242 -1.6046876074 2.5909597532
O -6.1612108253 -2.8062763547 2.3705595117
O -4.9611166023 -0.8895943300 2.6764591703
C -3.7521825352 -1.6626052298 2.5102158142
H -7.5712462964 -2.1028039598 5.0730450800
H -9.1266394750 -2.4196513558 5.8589923028
H -8.6375987774 -3.3753004444 4.4474085333
H -9.2863944634 -0.3741761936 4.4498805249
H -11.2930944998 -1.0289246918 3.1133774547
H -10.8134508363 -2.7353797613 3.2191377406
H -11.3027170562 -1.8566114816 4.6770989744
H -8.5215832316 -2.2315576217 2.1661876831
H -11.3251648980 0.7267807532 0.0456816280
H -9.7165135249 1.2877915496 -0.4695332975
H -8.9432890519 0.7386715453 -2.7546692586
H -9.2655242418 -0.9509654754 -3.3940566106
H -11.7391756900 -0.4379858035 -3.4862965803
H -11.4106778938 1.2476523054 -2.8466547758
H -11.7728484093 -1.9215621335 -0.7999116304
H -10.5822329421 -2.5510042133 -1.9676840698
H -10.1112314842 -2.6754133707 0.7071504355
H -6.2109568384 -4.4060290256 -1.5765490028
H -7.3102035728 -0.5723456884 -0.2499074309
H -3.9706102149 -3.6990505255 -1.3471349669
H -3.1379871267 1.1988078229 -0.8551536536
H -5.4241342468 0.3358234518 -0.8080342165
H 1.6552166732 -2.8757128295 -1.6386004220
H 1.9569087173 1.3995492721 -1.2024829071
H -0.4902519916 1.5859737559 -0.9942632554
H 3.8441263135 0.7391510173 -0.0819758092
H 5.8549388992 -2.6135943319 -3.2411050720
H 3.4038459842 -2.4052996976 -3.0078139613
H 6.6415012502 1.3908353271 0.2509639322
H 9.7240589291 0.8584647061 -1.4007728717
H 9.9377626459 -1.5890884323 -0.3909948740
H 12.1641482015 -0.9954493760 0.5456813337
H 11.8793513203 0.3019087341 -0.6212651892
H 11.9714338639 0.5075878761 2.3613435177
H 11.7999204737 1.8557962825 1.2265354038
H 9.6084816319 1.3779338498 2.6937025791
H 10.0839683122 -1.2422314772 2.2682873740
H 8.4576749324 -0.7734683684 1.6823729695
H 8.1268645732 2.6678182433 -1.4371733507
H 10.0080219005 5.0102306622 -0.9602595686
H 10.6201523772 2.4717034016 -2.5617750639
H 11.6695245746 3.8739897700 -2.3485455448
H 11.2990857162 2.8485597255 -0.9593561004
H 8.7723151527 3.9083053442 -3.5480246134
H 9.9194029730 5.2557492678 -3.4530338533
H 8.2978845709 5.4300220173 -2.7738688073
H 7.7774096183 5.4033087537 -0.5792145328
H 4.0464885515 4.4697993061 1.2672346021
H 5.1646456978 4.6985624440 2.6455435172
H 4.4040806059 6.1216422333 1.8646229644
H -7.0245581966 0.1882799341 2.9634470132
H -3.7389007126 -2.1469849784 1.5304969408
H -2.9387449269 -0.9409047231 2.5847157793
H -3.6676714063 -2.4158150058 3.2978432117
