39
CONF76
C 2.2879269098 2.1082788368 -2.2468473760
C 2.6334235883 0.6462410837 -1.9697929776
C 2.6810944406 0.2887571979 -0.4803970526
C 1.3866720913 0.5632662092 0.2544429619
C 1.2958650322 0.0112711084 1.6674739677
O -0.1160515622 -0.1625153542 1.8502134172
C -0.6989257195 -0.3723929712 0.5692668535
C -1.1779939287 -1.8370127448 0.4589372498
N -0.0767432407 -2.7612506858 0.6184807192
C 0.8625194061 -3.1127208694 -0.2914849138
N 1.7854839555 -3.8755238452 0.2699192232
C 1.3546697701 -3.9537882937 1.5617105612
N 0.2351531317 -3.2930400760 1.8263541395
O 0.3143161357 -0.1537225607 -0.3938184481
C -1.8762402977 0.5864273182 0.3947360638
C -2.5103948347 0.8159537153 -0.8315692703
Cl -2.0009058020 0.0218393190 -2.3143965168
C -3.5848142664 1.6921322356 -0.9512680839
C -4.0456530714 2.3431772445 0.1841456768
Cl -5.3970026751 3.4442588539 0.0395594575
C -3.4562651518 2.1342373525 1.4231860477
C -2.3821356789 1.2595892574 1.5098160405
H 2.9631733786 2.7852538040 -1.7110857069
H 2.3701632931 2.3312888639 -3.3144202350
H 1.2625628098 2.3422946524 -1.9441977082
H 3.6096696155 0.4088229849 -2.4078511856
H 1.9017370369 -0.0017292807 -2.4651800372
H 3.4734002318 0.8657643808 0.0158465064
H 2.9289001677 -0.7735638300 -0.3620589280
H 1.1463856401 1.6379245764 0.2567408995
H 1.6533136734 0.7022472982 2.4352626082
H 1.8167958317 -0.9529641790 1.7553683740
H -1.9066376456 -2.0292173670 1.2494740318
H -1.6461272473 -1.9978303131 -0.5152992925
H 0.8241515674 -2.7895290360 -1.3225819721
H 1.8706403497 -4.5191075801 2.3265268760
H -4.0501188266 1.8588811881 -1.9142768068
H -3.8280077508 2.6464282111 2.3022353746
H -1.9040001408 1.0915740569 2.4668293611
