141
CONF1565
C 4.4432509559 1.8153814415 4.8624271681
C 5.5114885926 1.5582066581 3.8016657646
C 4.9920928278 1.7868108066 2.3934928843
O 3.9710000215 0.7675405089 2.1256793564
C 2.7195311054 1.1595796741 1.8493847067
O 2.3532335118 2.3232829581 1.8007578256
C 1.8082818342 -0.0271991007 1.6573699496
C 0.5450502044 0.2934967685 0.8416613171
O -0.2542443513 1.2244575403 1.5803872809
C 0.8245231047 0.7465469300 -0.6153923508
C 1.8590355065 -0.1949993668 -1.2504705320
C -0.4557772120 0.7491671534 -1.4825774648
O -1.5065690801 1.5610594374 -0.9015218869
C -2.5356215923 0.8615449743 -0.2726395859
O -3.3065759919 0.2091025217 -1.2907290226
C -4.3997419730 -0.5687137597 -0.7687661855
C -3.9153839913 -1.8034397601 -0.0100005916
C -5.3473399808 0.3516813695 0.0308856378
O -6.3525770680 -0.4655294445 0.6554743132
C -7.6937458790 -0.1736239768 0.2727768840
C -8.6243208454 -0.8951481163 1.2338071793
C -8.5966052987 -2.4141779251 1.0590107947
C -9.6604093248 -3.0803316346 1.9186865116
O -7.3281711219 -2.9642494701 1.4890930581
C -8.7950679814 -2.7517263730 -0.4343664208
O -8.6200193518 -4.1509625944 -0.6597969382
C -7.8362547114 -1.9601872825 -1.3326236957
C -8.1272447686 -2.1479540629 -2.8065740448
O -7.9468075869 -0.5400986284 -1.0730444846
C -4.5892817811 1.1409851858 1.1071447607
C -3.3996937154 1.8797307979 0.4659670563
O -3.8630858406 2.8806829657 -0.4452225886
N -5.4840674657 1.9286368053 1.9599290771
C -6.1147560809 3.1037868183 1.3534926021
C -4.8578790710 2.2921829265 3.2291416096
C -0.2747686069 1.2815825512 -2.9225143369
C -1.5466226087 1.0040754938 -3.7269590616
C -1.8645023345 -0.4322367685 -3.9869081847
O -1.1093838057 -1.3681113182 -3.7959645590
C 0.0651200843 2.7899945529 -2.9494956780
C 1.0894069637 3.2140806955 -4.0381061779
C 0.6336890098 2.9300691520 -5.4640218770
C 2.4245413034 2.5601306007 -3.7223753574
O 2.8547440232 1.6163133581 -4.3877322925
C 3.1300182505 3.0758003650 -2.5411170357
C 4.0823386046 2.3419676932 -1.9264351796
C 4.7565727988 2.6815820403 -0.6920430348
C 4.6123886577 4.0705822203 -0.1422083766
C 5.4228409902 1.6815117488 -0.0718160019
C 6.0687665869 1.7225374003 1.2820883656
C 7.0613190328 0.5735460205 1.4314618555
O 6.3188441877 -0.6496889572 1.4028364716
C 7.0891661830 -1.8163050089 1.5036451335
O 7.9148177604 -2.0427602717 0.3682371227
C 7.1907391595 -2.1402070493 -0.8780678682
C 8.2218996257 -2.3208866266 -1.9706574446
C 6.2041314773 -3.3019711208 -0.7896458877
O 5.4514196193 -3.3345872030 -2.0029192056
C 5.2749227398 -3.1352441581 0.4085658217
O 4.4400095955 -4.2966761082 0.4470158050
C 3.0742948083 -4.0247716535 0.7805442391
C 6.0987864557 -2.9833058736 1.6824204043
O 5.2026638799 -2.7949824221 2.7677239239
C 5.8407026961 -2.8250470630 4.0467270325
H 3.5885302924 1.1439679777 4.7303613764
H 4.0780874710 2.8464631080 4.8091275218
H 4.8472092348 1.6487379304 5.8650536567
H 5.8911745666 0.5338694548 3.8873240974
H 6.3635411990 2.2325808284 3.9516737066
H 4.4998133911 2.7608294396 2.3323379232
H 2.3712659804 -0.8686208706 1.2486927333
H 1.4841130111 -0.3300589396 2.6619598291
H -0.0406356176 -0.6351906626 0.7978732670
H 0.2970045803 2.0155543243 1.6834484120
H 1.2397880377 1.7616242399 -0.5760650440
H 2.0382296356 0.0409407748 -2.3001555061
H 2.8240316627 -0.1197328595 -0.7436490544
H 1.5207406164 -1.2367673935 -1.1895266003
H -0.8137441823 -0.2869297805 -1.5423895679
H -2.1430336506 0.1162031164 0.4334468176
H -4.9368703812 -0.9025317128 -1.6635129337
H -4.7278609380 -2.5272282739 0.0901310444
H -3.5360355962 -1.5810525846 0.9906354035
H -3.1158392959 -2.2769463880 -0.5881721729
H -5.8247516096 1.0365361129 -0.6783627047
H -7.8602954048 0.9099878917 0.3017191255
H -8.3740767257 -0.6328743030 2.2674220706
H -9.6397837238 -0.5380334658 1.0315206705
H -9.5895265463 -4.1679807657 1.8352936997
H -10.6591085163 -2.7687268290 1.5999457988
H -9.5203460213 -2.7978872118 2.9663806761
H -6.6429468054 -2.3147097362 1.2623400874
H -9.8276165106 -2.5089124306 -0.7182823594
H -7.8222397431 -4.3969319050 -0.1653834864
H -6.8085898274 -2.2893810704 -1.1139186838
H -7.4126674465 -1.5794120871 -3.4087975943
H -9.1397845261 -1.8023929778 -3.0403459778
H -8.0454605222 -3.2039916230 -3.0729355774
H -4.1359164865 0.3978709549 1.7789703689
H -2.7808905480 2.3320528995 1.2546241949
H -3.0957125014 3.1447838044 -0.9729402538
H -6.9550706504 3.4135652217 1.9866762618
H -5.4284455114 3.9598337083 1.2486806927
H -6.5059610235 2.8689720245 0.3608936626
H -5.6118623878 2.7404561518 3.8858645522
H -4.4607733287 1.3984947444 3.7224886304
H -4.0349548174 3.0235962274 3.1209766153
H 0.5387937498 0.7169216982 -3.3874473838
H -2.4233682643 1.4548488629 -3.2461466770
H -1.5000833402 1.4721661992 -4.7215136668
H -2.8736803745 -0.6113392196 -4.4178015023
H 0.4566334596 3.1038956975 -1.9770921976
H -0.8510303847 3.3711238290 -3.1073111924
H 1.2300283614 4.2965591249 -3.9112007893
H 0.5358394194 1.8568468899 -5.6471073978
H -0.3314481849 3.4082646192 -5.6573700318
H 1.3616962327 3.3195198583 -6.1820825203
H 2.7964126682 4.0248903960 -2.1301326149
H 4.3202090262 1.3693679690 -2.3547177614
H 3.5929068621 4.2353285526 0.2246561565
H 5.3013444961 4.2550844325 0.6837270745
H 4.8035547401 4.8126656044 -0.9241475541
H 5.4405811902 0.7121937469 -0.5671377459
H 6.6459015568 2.6513911597 1.3925770371
H 7.7791218303 0.6040462886 0.5997044266
H 7.6213036909 0.6486772749 2.3739001065
H 7.7977159037 -1.7489402711 2.3416613173
H 6.6228566473 -1.2129384902 -1.0435490886
H 8.7890964632 -3.2435219421 -1.8102042362
H 8.9146615411 -1.4747800592 -1.9773004693
H 7.7296985726 -2.3750239680 -2.9444023039
H 6.7721049406 -4.2396909697 -0.6646309989
H 4.7521694314 -3.9906090261 -1.8704197440
H 4.6584936516 -2.2356117604 0.2603108182
H 2.9820017942 -3.6308524343 1.7989703714
H 2.6347963428 -3.3072141172 0.0734335670
H 2.5399102161 -4.9749111477 0.7063802660
H 6.6943262811 -3.8980299975 1.8398636687
H 5.0445502676 -2.8382750228 4.7942445187
H 6.4664966344 -1.9378122945 4.2107078789
H 6.4585679804 -3.7273834201 4.1571414030
