46
CONF5
C -4.6764433541 3.6182707980 1.5249914959
N -4.1406052544 2.2666408929 1.6480047312
C -3.7139557651 1.8843665466 2.9893437005
C -3.8633082210 1.5570621416 0.5366775746
O -4.1512501100 1.9070251912 -0.6120004151
C -3.2482468004 0.1896564774 0.7094856748
C -1.8916724285 -0.0853573316 0.8582951015
N -1.3469275204 -1.2914868999 0.8939108659
C -2.1615693110 -2.3427818366 0.7763097068
C -3.5386298415 -2.2015014626 0.6188002722
C -4.0814405265 -0.9270758675 0.5800960459
S -0.6619366903 1.2434542635 1.0899413859
O -0.0649595315 1.1139519183 2.4267946608
O -1.2470816089 2.5196853198 0.6736649036
N 0.5929068460 0.8093542988 0.0394895538
C 0.3275846641 0.4932404164 -1.2812885865
O -0.7285267433 0.7493688753 -1.8408808586
N 1.3639072450 -0.1303684680 -1.9626163813
C 2.5901107021 -0.6165949049 -1.5194157230
N 3.3467919083 -1.1561259056 -2.4764061382
C 4.5263555318 -1.6367962695 -2.0700128036
C 4.9575476077 -1.5934352358 -0.7453183239
C 4.0744702511 -1.0066032430 0.1513304174
N 2.8869171286 -0.5116484190 -0.2230556655
O 4.4355457501 -0.9391960351 1.4365504067
C 3.5083821855 -0.3280767501 2.3654060351
O 5.3531092507 -2.1921541462 -2.9634503053
C 4.9211886453 -2.2363368582 -4.3440059372
H -5.4993769454 3.7491024285 2.2346520621
H -5.0377846227 3.7763611995 0.5094999704
H -3.8944513868 4.3544387569 1.7511038678
H -4.5323636942 2.0706363287 3.6919842345
H -3.4592632227 0.8248068656 3.0298087639
H -2.8426921440 2.4753283508 3.3005307409
H -1.6972728763 -3.3250308144 0.8064799975
H -4.1698640679 -3.0777634870 0.5233672673
H -5.1487500563 -0.7804062066 0.4474853607
H 1.4317267961 0.3702234962 0.4544271034
H 1.1689958968 -0.2869218971 -2.9430538338
H 5.9158894248 -1.9881659633 -0.4365502096
H 3.3276138979 0.7161982124 2.0960134925
H 4.0025220454 -0.3881421510 3.3342340265
H 2.5644559093 -0.8799933827 2.3853568043
H 5.7426139680 -2.7133481328 -4.8774652351
H 4.7522878435 -1.2262678733 -4.7248134240
H 4.0074487485 -2.8275923475 -4.4407596821
