56
CONF17
C -4.0737637938 1.5020551410 -1.3233365459
C -2.6557618212 2.0300264009 -1.5431298320
C -2.5608056447 2.7940316944 -2.8650325143
C -1.6507311087 0.8572154460 -1.5245062258
C -1.6714571639 0.0510285313 -0.2362664550
C -2.0066022624 -1.3013550615 -0.2598268524
C -2.0294756996 -2.0731537023 0.8987784857
C -1.6890912219 -1.4720381790 2.1058885738
C -1.3486624864 -0.1238050546 2.1572970620
C -1.3436399349 0.6307628054 0.9938252678
O -1.6497960819 -2.1177789400 3.3400677482
C -1.7826982633 -3.4728936561 3.4309997091
F -0.8666471538 -4.1294048635 2.6589923220
F -3.0171738402 -3.8960481413 3.0117152778
C -0.2046097369 1.2603980311 -1.7502860147
O 0.6081097464 0.6171839607 -2.3670079776
O 0.0861893638 2.4206267545 -1.0899208847
C 1.5080495926 2.7246588801 -0.9466170612
C 1.6365103247 4.1710499484 -1.0840710824
N 1.7520414032 5.3151777593 -1.1871243955
C 1.9656362691 2.1999224947 0.3935730654
C 1.8174387111 2.9617217931 1.5512801425
C 2.1366619183 2.3966899238 2.7818453956
C 2.5836600492 1.0844746010 2.8637681512
C 2.7274719766 0.3329559374 1.6983263415
C 2.4285282399 0.8866386897 0.4553185895
O 3.2317951940 -0.9335917230 1.8483961627
C 2.9232965113 -1.9075382543 0.9073725923
C 1.6142236287 -2.1243520421 0.4893649105
C 1.3562644544 -3.1635507622 -0.3965099941
C 2.3884362470 -3.9807193706 -0.8506988532
C 3.6902031696 -3.7544329754 -0.4134740505
C 3.9660764499 -2.7122594079 0.4664566026
H -4.7935586178 2.3257679214 -1.3373935240
H -4.3522408018 0.8007716153 -2.1192941075
H -4.1680118961 0.9816807587 -0.3661490923
H -2.4008205501 2.7102192521 -0.7219615592
H -2.7915025056 2.1327432394 -3.7085772335
H -1.5640986240 3.2164151781 -3.0242066057
H -3.2776778110 3.6201567835 -2.8831364400
H -1.8906617585 0.1795846673 -2.3515132903
H -2.2606002589 -1.7718794491 -1.2051271240
H -2.2992081411 -3.1186970360 0.8428730525
H -1.0773702984 0.3173152685 3.1099578427
H -1.0631712586 1.6768701558 1.0466937055
H -1.6458300936 -3.7551726037 4.4786409661
H 2.0506531975 2.2360824733 -1.7641311793
H 1.4627339315 3.9853701639 1.4890547218
H 2.0321632749 2.9833620770 3.6886348961
H 2.8330217359 0.6282709941 3.8154259545
H 2.5375216516 0.2985183897 -0.4493960436
H 0.8119291920 -1.4912307189 0.8526134961
H 0.3360272251 -3.3346967687 -0.7235783649
H 2.1783267336 -4.7908242120 -1.5405863263
H 4.4999321144 -4.3876084655 -0.7614470624
H 4.9727677132 -2.5167165391 0.8190463574
