45
CONF119
C -2.3807606977 -2.0710309319 1.0798379455
C -2.6682670697 -1.6769933041 -0.3333936353
C -2.1671925099 -0.5896937504 -0.9291575741
C -2.4778370301 -0.2161819751 -2.3198685712
C -1.3924568026 0.1148260442 -3.3821020435
C -2.3557178419 1.1814404032 -2.8552348008
C -1.8678329798 2.3105408816 -1.9764517733
C -3.4048460331 1.6229582630 -3.8550302753
C 0.0569841725 0.0487722571 -3.1399562048
O 0.8704513227 -0.2368779827 -4.0024985744
O 0.4124051828 0.3056367780 -1.8602269915
C 1.8173684170 0.1422644952 -1.5300987764
C 1.8671877365 0.0244464893 -0.0394896853
C 2.2356442931 1.0804755218 0.7838541924
C 2.2230537952 0.9591010683 2.1678639532
C 1.8292987626 -0.2150546022 2.7969302326
C 1.4572053460 -1.2705538152 1.9688189804
C 1.4738481516 -1.1545361039 0.5893653828
F 1.0916509951 -2.2034792775 -0.1585982321
F 1.0644092707 -2.4343133206 2.5152081531
C 1.8528774568 -0.3857219125 4.2982463599
O 2.9588042357 -1.1777042606 4.7242819719
C 4.2102778510 -0.5066568002 4.5592151923
F 2.6023920862 2.0203567202 2.9037424122
F 2.6149616670 2.2518308755 0.2440523292
H -1.8949245488 -3.0540416685 1.1209981600
H -3.3043428020 -2.1548208911 1.6654886643
H -1.7252586736 -1.3436896658 1.5691187092
H -3.3254225886 -2.3370340589 -0.9017822729
H -1.5083917815 0.0576315792 -0.3575998230
H -3.2802378091 -0.8075727867 -2.7572690011
H -1.6214842257 -0.2400494046 -4.3817187838
H -1.4490304058 3.1091325672 -2.5985776805
H -1.1070819220 2.0060040303 -1.2597532185
H -2.7171548864 2.7265501437 -1.4231342169
H -4.2707255937 2.0372193991 -3.3264016703
H -3.7470532571 0.7877767555 -4.4725177180
H -3.0043574751 2.4007732533 -4.5146886762
H 2.2007380945 -0.7606967396 -2.0109965900
H 2.3806425819 1.0074878265 -1.8853099475
H 0.9551533997 -0.9205822285 4.6174538851
H 1.8701350097 0.5990347746 4.7823214228
H 4.2190837390 0.4462929900 5.1069438773
H 4.9772618419 -1.1686783616 4.9655482720
H 4.4285423454 -0.3145895713 3.4992337564
