53
CONF124
C 1.9965858084 -3.5387839999 -0.7421592706
N 2.1711141709 -3.0812822400 0.6399471693
C 2.6311448096 -4.2229896580 1.4496950828
C 2.8094559334 -3.8529279920 2.9148975220
C 3.8108378259 -2.7094687023 3.0423344943
C 3.3542733830 -1.5401758424 2.1757959884
C 3.1298028374 -1.9595947298 0.7174537841
C 2.6770822813 -0.7603464237 -0.1277392738
C 1.2322730610 -0.3340589474 0.1438359444
N 0.9146022727 0.9191985063 -0.5543072137
C 1.6127610277 2.0927150372 -0.1932703196
C 2.2820441645 2.2185634828 1.0298557162
C 2.9877718619 3.3801599099 1.3323317951
C 3.0114465347 4.4491800835 0.4422262205
C 2.3175890953 4.3529048717 -0.7615125159
C 1.6442530129 3.1784021300 -1.0813624428
S 0.8425356686 3.0096207655 -2.6631744292
C -0.5496340972 2.0456013908 -2.1342991907
C -0.3550823103 1.0741514723 -1.1318449568
C -1.4480837609 0.2841805464 -0.7591819288
C -2.6604409153 0.4390770868 -1.4236249094
C -2.8538956430 1.3849458068 -2.4223313264
C -1.7836014178 2.2080017670 -2.7567529580
S -4.0347539726 -0.6164440347 -0.9447446786
O -4.9625575181 -0.7134228551 -2.0945325666
O -3.4818752757 -1.8610377437 -0.3630311335
C -4.8634115122 0.3008504230 0.3690652398
H 1.3407107199 -4.4151750554 -0.7491192593
H 2.9563433643 -3.8244302343 -1.2144401892
H 1.5283577419 -2.7696444719 -1.3620969057
H 1.8912431170 -5.0256096028 1.3470474020
H 3.5934954129 -4.6148178003 1.0574974062
H 3.1465994508 -4.7359746404 3.4696532013
H 1.8414546418 -3.5489736286 3.3345828918
H 3.9176494527 -2.3939599001 4.0862625173
H 4.7982076775 -3.0529340452 2.7034635031
H 4.0969900482 -0.7338783622 2.1892529561
H 2.4226245594 -1.1324738613 2.5889668444
H 4.1122592079 -2.2871211945 0.3123277756
H 2.7752869929 -0.9751808077 -1.1971005325
H 3.3663594558 0.0636753919 0.0820931186
H 1.0183151760 -0.2615329753 1.2187254687
H 0.5678486462 -1.1015457531 -0.2534982528
H 3.5137617042 3.4465031857 2.2792741906
H 2.3128869463 5.1800413444 -1.4645138434
H -1.3632777979 -0.4521349063 0.0301981392
H -3.8077752024 1.4792378769 -2.9276854476
H -1.8986845530 2.9639816181 -3.5267833014
H -5.2040842268 1.2544560090 -0.0399908011
H -5.7095176044 -0.3139582591 0.6886620783
H -4.1545745280 0.4484612449 1.1867472371
H 2.2664513086 1.4062267813 1.7467203543
H 3.5573046034 5.3556433307 0.6807919646
