39
CONF1
N 2.0220845175 -0.0788879181 2.1074679414
C 2.6516986886 -0.6936236001 1.0683086425
N 3.4049109253 -1.7642048200 1.3574086197
C 4.0598762659 -2.3412560265 0.3351520572
N 4.7866764540 -3.4647583255 0.6306419484
N 4.0338971360 -1.9540127610 -0.9530529191
C 3.2700839402 -0.8780055074 -1.2028510467
C 2.5491636710 -0.1844741190 -0.2513581723
C 1.7179008605 1.0223121013 -0.5816731450
C 0.2315427373 0.8383369763 -0.3233835485
C -0.3989268210 -0.3386681533 -0.7266036325
C -1.7675165170 -0.5038511782 -0.5032527263
O -2.4788019103 -1.6081023248 -0.8581788239
C -1.7642201704 -2.6704858843 -1.5031133403
C -0.4926231015 1.8475005001 0.3108247707
C -1.8645642792 1.6836145079 0.5357256727
O -2.6610783901 2.6040763829 1.1441761780
C -2.0452163311 3.8233909293 1.5784985334
C -2.5062121320 0.5033628880 0.1372474414
O -3.8404152930 0.3155104487 0.4082121745
C -4.6992944018 0.7761471537 -0.6548523558
H 1.9786659460 -0.5882599268 2.9772365844
H 1.2346497755 0.5192878790 1.9061833278
H 5.4794084517 -3.7401060150 -0.0476778408
H 5.0352574086 -3.6001321648 1.5979260183
H 3.2364376033 -0.5443880686 -2.2409380135
H 1.8705025119 1.2653912112 -1.6407794928
H 2.0677205102 1.8922367167 -0.0106288095
H 0.1861470961 -1.1148260541 -1.2048858476
H -1.3255839006 -2.3324071689 -2.4491613963
H -0.9771474975 -3.0673082288 -0.8513148958
H -2.5053343116 -3.4460837394 -1.6979960785
H 0.0164158971 2.7528728651 0.6200609956
H -1.6180487759 4.3727060453 0.7314437213
H -1.2656509929 3.6263806644 2.3236073980
H -2.8447757434 4.4106015875 2.0308479940
H -4.4890395046 0.2309153943 -1.5824499488
H -4.5647923300 1.8519124963 -0.8182600616
H -5.7237995961 0.5772853265 -0.3342971169
