46
CONF1
C -4.6783365392 1.4938388261 3.8092654247
N -4.1169113831 0.9319268253 2.5848232494
C -3.8419290157 -0.5006539807 2.6171343914
C -3.6474590221 1.7609268813 1.6351368543
O -3.7007403056 2.9946780350 1.6866022064
C -3.1164594985 1.1422343649 0.3666913746
C -1.7689445660 1.1011384113 0.0225312196
N -1.2798375528 0.7245060874 -1.1464999429
C -2.1512864640 0.3387353095 -2.0838654296
C -3.5255001639 0.3191429270 -1.8587743426
C -4.0103891122 0.7281040809 -0.6252878503
S -0.4917849494 1.6116483954 1.2233055614
O -1.0257724106 1.4458417432 2.5773180160
O 0.0818204135 2.8992486736 0.8103419330
N 0.7623949785 0.4997946075 0.9580081594
C 0.4877581524 -0.8566365453 0.8925335345
O -0.5245464433 -1.3680744809 1.3498022948
N 1.4647703649 -1.6322400731 0.2847428100
C 2.6010626034 -1.2755771391 -0.4363152827
N 3.2816710792 -2.3087249999 -0.9351074176
C 4.3735871166 -1.9883006458 -1.6373185415
C 4.7915183870 -0.6758791534 -1.8496682336
C 3.9932336258 0.3056787468 -1.2772722244
N 2.8950579114 0.0189021076 -0.5646754274
O 4.3462645139 1.5827872348 -1.4508322365
C 3.5064680159 2.6014657169 -0.8561421866
O 5.1191643234 -2.9607876773 -2.1744361085
C 4.6951133628 -4.3285943369 -1.9658420392
H -5.0468499529 2.5012139308 3.6163716950
H -3.9164658431 1.5331765219 4.5984407963
H -5.5020300152 0.8577575091 4.1461832230
H -3.3443342517 -0.8189359518 1.7013694083
H -3.1846441021 -0.7316671231 3.4642242815
H -4.7780201722 -1.0576944306 2.7319427705
H -1.7341314772 0.0329379191 -3.0397154818
H -4.2010990026 -0.0099101930 -2.6402426009
H -5.0762388991 0.7317016604 -0.4187104504
H 1.5430199988 0.8240039346 0.3612316271
H 1.2668245902 -2.6241950213 0.3065126768
H 5.6780182385 -0.4372539078 -2.4212492312
H 3.4789625740 2.4893471136 0.2312071362
H 2.4936612307 2.5511626470 -1.2653375302
H 3.9777090196 3.5453952564 -1.1269201099
H 4.6826284559 -4.5677140329 -0.8997661648
H 5.4393292747 -4.9326363890 -2.4837089319
H 3.7036724298 -4.4918185124 -2.3950901726
