80
CONF4
C -5.2347741603 -0.2365486871 -0.6869570316
C -6.1936524902 0.8466474802 -0.2065421715
C -7.5144314031 0.0717199647 -0.1004817193
C -7.0992451795 -1.2850012634 0.4808393785
N -5.6988525938 -1.4305183159 0.0366132738
C -4.9698033390 -2.5154940674 0.3364470421
O -5.4430581828 -3.4909297722 0.9315199227
C -3.4795713201 -2.5267339736 -0.0447686857
C -2.6492665367 -2.8278261474 1.2267326520
C -1.2215480569 -3.2149062308 0.9479727091
C -0.1666970477 -2.3644834290 1.2821558552
C 1.1529869936 -2.7313294001 1.0226540041
C 1.4341700181 -3.9554087956 0.4223763912
C 0.3871079670 -4.8179580584 0.0951788408
C -0.9277220667 -4.4513229604 0.3617027003
N -3.0724475126 -1.3018340132 -0.7237088851
C -2.1448110304 -1.2016970143 -1.6952473516
O -1.4292666259 -2.0790629114 -2.1560847861
C -2.1898748244 0.2558655788 -2.2010483000
C -2.5673112714 0.2898359613 -3.6713486220
N -0.9259703434 0.9357072827 -2.0153934405
C -0.3047787957 1.0845765837 -0.8173129793
O -0.7986539611 0.6779206642 0.2433942385
C 1.0412785931 1.7672859112 -0.8443073699
C 1.0308228850 3.0020357699 0.0835109426
N 2.3258975002 3.6758985082 0.1520124284
C 2.6548294115 4.3879200946 -1.0882501543
C 3.3642825983 2.7513630678 0.6362792508
C 4.7110913687 3.4765364164 0.8358025114
C 5.6945616640 2.5044219176 1.4034089196
C 6.8121974720 2.5942451539 2.1960646371
N 7.3414645584 1.3205440021 2.3866447517
C 6.5670574410 0.3959185463 1.7251177589
C 6.6280037188 -0.9939454689 1.5942798388
C 5.6258134706 -1.5946005213 0.8358132420
C 4.5859409044 -0.8604834448 0.2218908477
C 4.5258265988 0.5241124080 0.3464257146
C 5.5314270788 1.1254854409 1.1039947898
C 3.4851245613 1.4602015736 -0.2356393910
C 2.1160572039 0.7843904474 -0.3574176616
O -3.2275679134 0.8705606429 -1.4183393397
C -3.7453892803 -0.0333055426 -0.4465201033
O -3.5131735116 0.4221700122 0.8400145306
H -5.3501942108 -0.3909261689 -1.7693769446
H -6.2415483439 1.6879671920 -0.9006703323
H -5.8798809990 1.2099232967 0.7765057459
H -7.9482682839 -0.0635211649 -1.0964781177
H -8.2500806744 0.5748093950 0.5299118735
H -7.7083227718 -2.1163344650 0.1143227161
H -7.1304986391 -1.2922911474 1.5769610421
H -3.3437888470 -3.3495212974 -0.7586048017
H -3.1596798247 -3.6531515795 1.7318708891
H -2.6877132674 -1.9548710434 1.8851704067
H -0.3805336704 -1.4041344309 1.7402205577
H 1.9631005489 -2.0595891560 1.2905536706
H 2.4619515851 -4.2403829628 0.2180067818
H 0.5975455772 -5.7799008794 -0.3628085158
H -1.7389178408 -5.1296086900 0.1074334650
H -3.5184822241 -0.2278367873 -3.8120075414
H -2.6721534301 1.3287204989 -3.9970602316
H -1.7970095125 -0.2051965426 -4.2684859112
H -0.4865493728 1.3269587853 -2.8359394729
H 1.2735308463 2.0842893340 -1.8675476879
H 0.7590676602 2.6663274938 1.0928997440
H 0.2733785499 3.7208481518 -0.2501137066
H 3.4712197454 5.0941897703 -0.9141005144
H 2.9429860519 3.7380271403 -1.9312753645
H 1.7784969849 4.9662132373 -1.3977385194
H 3.0280951871 2.4173456200 1.6317179170
H 4.5620353550 4.3491352493 1.4813120254
H 5.0753587910 3.8460938400 -0.1316807773
H 7.2897305602 3.4514363151 2.6504791711
H 8.1586586854 1.1168020323 2.9388229519
H 7.4108867483 -1.5842584186 2.0597483403
H 5.6400673803 -2.6738265992 0.7135475397
H 3.8368389918 -1.4012800060 -0.3481956262
H 3.8208640043 1.7620531453 -1.2402181618
H 1.8209736941 0.4017614684 0.6284632007
H 2.1713455153 -0.0723196801 -1.0383275184
H -2.5405855074 0.5440764522 0.8894120222
