46
CONF138
C -4.5529528285 -1.3848533260 0.9567493359
C -3.3512632685 -1.9309569047 1.6944777827
C -1.9924027426 -1.9888263753 1.0326861978
C -2.2637589715 -1.0267144405 2.2284898201
C -2.1655360153 0.4211082182 1.9663924435
O -2.7489043660 1.0594516126 1.1121883050
O -1.2435089728 0.9758206881 2.7985229314
C -0.8162807704 2.3136029546 2.4329520770
C -0.0457267704 2.3008639552 1.1367820631
C 0.7638788912 1.2125171683 0.8166337504
C 1.4549087840 1.1967638202 -0.3906054024
C 1.3628852810 2.2606121823 -1.2865169122
C 0.5692276711 3.3517472674 -0.9457267034
C -0.1377017564 3.3770692496 0.2537865995
O 2.1616115551 0.0435031341 -0.6666164156
C 3.2764445861 0.1058470143 -1.4879581540
C 4.2783879361 1.0522582037 -1.2846577889
C 5.4108309633 1.0192101763 -2.0925050453
C 5.5466707634 0.0480079796 -3.0837863390
C 4.5401617566 -0.8976792401 -3.2647340039
C 3.3968989502 -0.8715977333 -2.4696792595
C -1.7487123036 -1.4415647653 -0.3007866140
C -0.8248093606 -1.8813584329 -1.1561869436
Cl -0.6100090032 -1.1650052654 -2.7329195707
Cl 0.2682243089 -3.2000063012 -0.8334349367
C -3.6878031079 -3.1071837184 2.5888858315
H -4.9935650835 -2.1848286261 0.3520187905
H -5.3060876273 -1.0561949607 1.6806582514
H -4.3183555754 -0.5411799068 0.3111715930
H -1.3693415519 -2.8323223615 1.3117071679
H -1.7821975493 -1.3383505501 3.1493454125
H -0.1852597171 2.6263471894 3.2693865012
H -1.6800405438 2.9800647473 2.3638190093
H 0.8494752210 0.3612168198 1.4842316945
H 1.8908942178 2.2323972061 -2.2330109376
H 0.4834334400 4.1817456673 -1.6401169102
H -0.7761270285 4.2218478424 0.4940727882
H 4.1709542432 1.8005085697 -0.5061838407
H 6.1955706130 1.7533094601 -1.9382986948
H 6.4338649954 0.0271539233 -3.7080304362
H 4.6383075373 -1.6592587091 -4.0319982613
H 2.6009247996 -1.5973605489 -2.5980513238
H -2.3484738383 -0.6018806814 -0.6352420617
H -4.4241666023 -2.8077878806 3.3425505301
H -2.8017515908 -3.4894099892 3.1036395509
H -4.1188182667 -3.9186543378 1.9929217091
