32
CONF5
C -1.1819688232 -2.7479788258 1.1722955308
C -1.1173027327 -1.4407005764 0.4375323423
C -2.2564012976 -0.8709949103 -0.1178150879
C -2.1120338459 0.3513682690 -0.7849975555
N -0.9219772661 0.9471734120 -0.8853503269
C 0.1203794382 0.3097725114 -0.3130641144
N 0.0852224466 -0.8557140354 0.3457545008
N 1.3100628269 0.9828837994 -0.4587909166
C 2.6144319885 0.7063254496 -0.0401490460
C 2.9985745665 -0.4317240829 0.6812610706
C 4.3323378907 -0.5955606228 1.0414283207
C 5.2994271748 0.3443290238 0.7032526799
C 4.9156120468 1.4749664043 -0.0137314258
C 3.5919646013 1.6560900533 -0.3817637495
C -3.2421267744 1.0631295452 -1.4162098940
C -4.6230135649 1.0141258207 -0.7924596036
C -4.3680819287 0.2872001779 -2.0703256944
H -1.8701030098 -2.6776628890 2.0209873227
H -1.5559400691 -3.5401067752 0.5153567182
H -0.1927358596 -3.0257808839 1.5375894893
H -3.2170344199 -1.3659668801 -0.0299701533
H 1.1905791004 1.8428066582 -0.9727666494
H 2.2573823759 -1.1687784029 0.9506710197
H 4.6139842486 -1.4828150046 1.6003139877
H 6.3347535389 0.2005886581 0.9922414748
H 5.6509645054 2.2238734956 -0.2902968709
H 3.3045509612 2.5428062329 -0.9411847427
H -2.9493693957 1.9945394287 -1.8876223579
H -4.7296154969 0.4342675920 0.1181367596
H -5.2074709249 1.9270033075 -0.8243163837
H -4.7758500355 0.6956455976 -2.9884038296
H -4.2992022768 -0.7951116588 -2.0427590082
