119
CONF855
C -8.4244396897 -3.9479283118 3.9262369546
C -8.5094548138 -2.4234593759 3.8728337348
C -9.9666317138 -1.9572159396 3.8899774288
C -7.7958408897 -1.8825957241 2.6166400401
C -7.8613342517 -0.3489933724 2.5988324498
O -7.3232635824 0.2901817026 3.5107167626
N -8.4814841178 0.2683672498 1.5709576719
C -8.5244138176 1.7452573531 1.4979222202
C -9.0251856705 1.9861719559 0.0923673219
C -8.0933506700 2.5080623830 -0.9678008686
C -9.2359904422 3.3582570868 -0.4552363677
C -9.9372168415 0.8162898840 -0.1982279507
C -9.1610337562 -0.3660102394 0.4230913328
C -8.1754629023 -0.9792124221 -0.5294945110
N -8.4905490489 -1.7938341620 -1.5252465273
C -7.3004726473 -2.1068371318 -2.1321042383
C -6.2425717020 -1.4825526046 -1.4940107834
N -6.8371059979 -0.7625082523 -0.4749874683
C -4.8081950249 -1.5673337963 -1.6829969822
C -3.9083744891 -1.0653874858 -0.7194152836
C -2.5579088543 -1.2254641427 -0.9318249143
C -2.0429800959 -1.8713909627 -2.0649530903
C -2.9223254562 -2.3634803930 -3.0244959057
C -4.2889928735 -2.2023406053 -2.8277593391
C -0.5799453933 -1.8920945365 -1.9787741808
C -0.1837099315 -1.2602747795 -0.7894012789
C -1.4130564425 -0.8010800388 -0.0450957407
F -1.4063926884 0.5652118902 0.1775721356
F -1.5005203290 -1.3626199040 1.2172277361
C 1.1390973580 -1.1308128542 -0.4283004189
C 2.1304915662 -1.6481601622 -1.2854658542
C 1.7301712592 -2.2773910914 -2.4763015601
C 0.3888744743 -2.4071120686 -2.8313639618
C 3.5609646430 -1.5121312537 -0.9506783234
C 4.0216396811 -0.3465520482 -0.3274266249
C 5.3819852539 -0.2565878281 -0.0772295790
C 6.2997181506 -1.2773221935 -0.4174750983
C 5.8305594167 -2.4457190288 -1.0197893189
C 4.4718410915 -2.5445507952 -1.2796802312
N 7.5906763441 -0.8798726659 -0.1097269572
C 7.4604654252 0.3318503131 0.3934385892
N 6.1579984758 0.7527276998 0.4479017668
C 8.6074881452 1.1790672281 0.8546719156
C 9.0806160434 0.8713907558 2.3003597605
C 10.3930815351 1.6537123935 2.5338449554
C 9.9147477228 3.1356719170 2.6539467553
C 8.4003765167 3.0036394549 2.4138450667
C 8.0739796819 1.6876743985 3.1268481178
N 8.2289285401 2.6023931843 0.9942794019
C 7.9684266689 3.4860411432 0.0067825399
O 7.7262159936 4.6773256204 0.2314836660
C 7.9385514913 2.9708246164 -1.4405201839
C 8.9608199275 3.7518046863 -2.2917002454
C 10.3616972609 3.5880226215 -1.6974291807
C 8.9276443962 3.2814552347 -3.7444336839
N 6.5677948774 3.1201742186 -1.9086972176
C 5.9121628921 2.1326599083 -2.5667558617
O 6.3943667056 1.0633981204 -2.9117152124
O 4.6208940567 2.4931167757 -2.7989259453
C 3.8480406635 1.5264564599 -3.5448524527
N -6.3818490997 -2.2288751918 2.5763594612
C -5.8730419103 -3.1513866040 1.7237725968
O -6.5187671115 -3.8402409141 0.9469923221
O -4.5198325275 -3.2154670622 1.8525260721
C -3.8723572244 -4.1766441989 0.9908743668
H -8.9444331813 -4.3929820599 3.0701231546
H -7.3873534317 -4.2954885116 3.9160824128
H -8.8973265456 -4.3185693487 4.8410966532
H -7.9900592235 -2.0027469087 4.7439959985
H -10.4762903530 -2.3385995974 4.7796852484
H -10.0487332683 -0.8650180409 3.8988333719
H -10.5005332459 -2.3342030346 3.0092136968
H -8.2568691903 -2.3285806618 1.7314433164
H -9.2221144902 2.1320781517 2.2537510079
H -7.5347670073 2.1693331619 1.6899556501
H -7.0864781644 2.7811150910 -0.6669636566
H -8.1828159779 2.0884977848 -1.9653504981
H -10.0879229967 3.5125853103 -1.1101585205
H -8.9889372438 4.1991701097 0.1857423451
H -10.8918293995 0.9304971200 0.3289027163
H -10.1330914674 0.6616224865 -1.2607720825
H -9.8545507129 -1.1467973800 0.7514726260
H -7.2568285024 -2.7885096786 -2.9701165036
H -6.3736654010 -0.1509055743 0.1798582557
H -4.2575279102 -0.5837205296 0.1885116001
H -2.5564889722 -2.8637024494 -3.9154697183
H -4.9754520190 -2.5796094363 -3.5783243212
H 1.4141886934 -0.6587603598 0.5099468660
H 2.4906532728 -2.6522055945 -3.1537065553
H 0.1152903253 -2.8921029033 -3.7630260012
H 3.3492962230 0.4735779493 -0.0978301599
H 6.5104435070 -3.2502311705 -1.2810629752
H 4.0885178992 -3.4522660916 -1.7341081902
H 5.8389621404 1.6560829914 0.7644537357
H 9.4383967816 1.0397421304 0.1538698631
H 9.1396978078 -0.1997165889 2.4962840450
H 10.8690705720 1.3146447235 3.4577740934
H 11.1033226920 1.5058905849 1.7151714916
H 10.1026262630 3.5419973083 3.6522528971
H 10.3810123530 3.7984092100 1.9206577077
H 7.7963947801 3.8787423077 2.6475688858
H 8.3339270034 1.7224548107 4.1876833251
H 7.0340709409 1.3711113544 3.0116645407
H 8.1786457012 1.9060572464 -1.5059720644
H 8.6765995840 4.8112297239 -2.2480273216
H 11.0971074214 4.1281807122 -2.3009975007
H 10.4196282087 3.9741209957 -0.6743129704
H 10.6505697632 2.5299760304 -1.6817205725
H 9.2202049250 2.2275548832 -3.8154790190
H 9.6278233993 3.8704583426 -4.3451785771
H 7.9312365434 3.3898387957 -4.1825888222
H 6.0788867301 3.9783947773 -1.6983327235
H 4.2816225090 1.3735533469 -4.5365973238
H 3.8045869667 0.5749216303 -3.0080835751
H 2.8516626188 1.9603054132 -3.6285718153
H -5.7516470363 -1.7226745464 3.1817474848
H -4.0745770451 -3.9478294439 -0.0590967329
H -2.8073611995 -4.0754800495 1.1992292616
H -4.2130532245 -5.1890945246 1.2228645247
