41
CONF98
C -3.9776176968 -0.8160328294 3.4173370848
C -4.1575988264 0.1033872089 2.2095445180
N -3.4901357646 -0.3941188701 1.0082878110
C -4.2850440849 -1.2482841354 0.1366619355
C -4.9406743501 -0.4610642025 -1.0050695889
O -5.6728869225 -1.3159898784 -1.8764572186
C -2.1681925848 -0.1325441179 0.7565667182
C -1.3674545665 0.5835143516 1.6790271602
C -0.0435762476 0.8501565832 1.4025527830
C 0.5569869747 0.4214712244 0.2098951539
C -0.2286782054 -0.2966926737 -0.7119979922
C -1.5504340362 -0.5662473785 -0.4485009858
N 1.8958468644 0.7523515664 0.0447101970
N 2.4257094808 0.3613754121 -1.0378134122
C 3.7808976399 0.7120487708 -1.1745259484
C 4.3902819467 0.2985862634 -2.3681181968
C 5.7211839922 0.5852685349 -2.6174225143
C 6.4404008289 1.2912954861 -1.6586209051
C 5.8587561996 1.7137988676 -0.4629800599
C 4.5300891751 1.4244964098 -0.2207129943
N 7.8544192498 1.6013669899 -1.9121398144
O 8.3416213765 1.2171942180 -2.9713048999
O 8.4645402229 2.2257682742 -1.0494705410
H -4.4977609979 -0.4071018047 4.2890084036
H -2.9200290750 -0.9336618733 3.6679409828
H -4.3868891325 -1.8098307737 3.2116608990
H -3.8018344131 1.1148653992 2.4303021287
H -5.2232912405 0.2041306368 1.9740087267
H -5.0645056224 -1.7251362704 0.7453117378
H -3.6785809249 -2.0606368389 -0.2768273466
H -5.5713371868 0.3414345132 -0.5919782713
H -4.1693086271 0.0147818289 -1.6182201679
H -6.4632967795 -1.6199498628 -1.4172950198
H -1.7775727494 0.9184136553 2.6225771156
H 0.5662942737 1.3964439683 2.1149816007
H 0.2219338753 -0.6289128246 -1.6399025300
H -2.1243724648 -1.1044116705 -1.1925564193
H 3.7925295325 -0.2497441251 -3.0880968666
H 6.2090059770 0.2750529339 -3.5326357941
H 6.4585239195 2.2606514856 0.2538849093
H 4.0520519702 1.7396640517 0.6983871031
