29
CONF90
C 3.0530945851 1.2237446462 0.0089087107
C 2.7863647059 -0.1717899946 -0.4807300001
C 1.5836415522 -0.6385258260 -0.8466217423
C 0.2713709201 0.0874321366 -0.8373102638
C -0.6282924910 -0.4188618322 0.3021470330
C -2.0770649453 0.0998108512 0.2719340344
C -2.1421594463 1.6327432907 0.2610541189
C -2.7900007286 -0.4121441549 1.5020687423
C -3.7957243191 -1.2831066624 1.5115827968
O -2.6618056479 -0.4243821875 -0.9322769524
C 4.0071783314 -1.0498291629 -0.5328074894
H 3.7649425353 1.7306322340 -0.6550932035
H 3.5247137397 1.1888090015 0.9990552727
H 2.1540886621 1.8377665028 0.0817707964
H 1.5283988243 -1.6812838327 -1.1644432800
H -0.2429971566 -0.0827325118 -1.7911693048
H 0.4203138128 1.1660169452 -0.7432613251
H -0.1819459233 -0.1414657012 1.2643281098
H -0.6708815943 -1.5151516459 0.2741636369
H -3.1859418680 1.9629727513 0.2935323292
H -1.6790727880 2.0283934871 -0.6463771519
H -1.6236768641 2.0469695750 1.1315392694
H -2.4175041063 -0.0033389200 2.4415926643
H -4.1866591373 -1.7117727825 0.5930789724
H -4.2556901262 -1.5944252666 2.4444958277
H -3.5601768776 -0.0737174564 -0.9979094374
H 4.7729039850 -0.6100682139 -1.1847926142
H 3.7714724054 -2.0519290244 -0.9007127754
H 4.4611084578 -1.1407662563 0.4623555283
