50
CONF23
C 6.1903351045 3.3965666482 -0.3807913488
C 6.0996533486 1.9103889581 -0.6352408143
O 4.8727327774 1.4472246328 -0.0067989353
C 4.6181186395 0.1204302979 -0.1310218419
O 5.3496134115 -0.6475079867 -0.7489357057
N 3.4917573619 -0.2528352005 0.5430869169
C 2.4957811629 0.7102073141 1.0223483732
C 1.3535933804 0.8454121751 -0.0022996197
C 0.7653073201 -0.5070996397 -0.2979471101
C -0.5373712547 -0.8206880097 -0.1580736744
C -1.5707206809 0.1141786878 0.3613777482
C -2.7539428620 0.4315464634 -0.3355640543
C -3.1393038068 -0.0684243870 -1.7161701879
C -2.1703844681 -1.0050337991 -2.4478086129
C -1.8893169803 -2.2518099303 -1.6630455992
C -1.0711560089 -2.1625396053 -0.5265756546
N -0.7768140589 -3.2110945689 0.2553474609
C -1.2916376611 -4.4031954750 -0.0820821127
C -2.1111208430 -4.5954620540 -1.1874338661
C -2.4129369949 -3.4986731248 -1.9892689130
C -3.6803124009 1.2929936176 0.2677683330
C -3.4465332987 1.8147988727 1.5276477320
C -2.3002739796 1.4968076592 2.2442792110
C -1.3832705649 0.6436290036 1.6493034182
Cl -4.6392268255 2.8981832497 2.2448933016
C 1.8047774683 -1.4904609415 -0.7628759669
C 2.9358772171 -1.5808078268 0.2799718840
H 5.3344494690 3.9204668437 -0.8158992364
H 7.1033716323 3.7846695977 -0.8414134503
H 6.2274196557 3.6084446474 0.6916039037
H 6.9458074893 1.3704859196 -0.1984013158
H 6.0555785685 1.6830519617 -1.7050385990
H 2.0947471504 0.3322735718 1.9712849789
H 2.9683714823 1.6732226287 1.2093005908
H 0.6084626224 1.5532636576 0.3653639573
H 1.7808951109 1.2557415057 -0.9286469746
H -3.3198721825 0.8075386213 -2.3511905891
H -4.1085190628 -0.5758064154 -1.6229582510
H -2.6149964604 -1.2659926595 -3.4130231328
H -1.2301908920 -0.4788452038 -2.6499033130
H -1.0344774990 -5.2394107991 0.5655745124
H -2.5013807715 -5.5817496453 -1.4151273309
H -3.0443980955 -3.6107678988 -2.8666881364
H -4.5890848460 1.5535982363 -0.2661480595
H -2.1317884793 1.8925261055 3.2391944395
H -0.4929657513 0.3615536315 2.2024015310
H 1.3866423927 -2.4843011659 -0.9330081553
H 2.2431475122 -1.1361461058 -1.7067682252
H 2.5370247353 -1.9773221734 1.2217189930
H 3.7334386969 -2.2379000080 -0.0678913931
