70
CONF284
C -1.7132780930 -1.2645018274 -1.2872683030
C -2.8403320479 -1.0374373745 -2.3241547761
C -4.1418785621 -1.5078527952 -1.7614344827
C -5.3133047838 -1.9799846378 -2.3018769976
N -6.1941611168 -2.3006759880 -1.2730799097
C -5.5944416693 -2.0527104470 -0.0593171767
C -5.9984189497 -2.2088705511 1.2690671558
C -5.0720399867 -1.8567878900 2.2475915350
C -3.7825847949 -1.3633916859 1.9429922050
C -3.3835878921 -1.1975450713 0.6212733780
C -4.3104643108 -1.5530599095 -0.3555068775
C -2.0674193298 -0.6526980915 0.1053257222
C -0.9325708198 -0.8484925538 1.1105806932
C 0.3741908672 -0.3062166631 0.5420058941
C 0.6397703460 -0.9936334460 -0.8018316002
N -0.4370897390 -0.6751113771 -1.7451020051
C -0.0357801586 -1.0993735476 -3.0985797664
C 1.1586843433 -0.3318982302 -3.5810818565
C 2.2326283056 -0.8780128385 -4.1462335540
C 1.5354024607 -0.5530750227 1.4929362484
O 1.5161293438 -1.5429573735 2.2306991906
N 2.5872343122 0.3483157098 1.4714550216
C 2.5853761043 1.4899973243 0.5327105958
C 1.9139659619 2.7456361131 1.0908581400
C 1.5769728132 3.7108138553 -0.0467473868
N 0.5456410106 3.1691269067 -0.9446310543
C 0.6078763359 3.8063163567 -2.2603215349
C -0.7940225801 3.3392295287 -0.3801840888
C 3.7070583948 0.3319378845 2.3821327174
O 4.5371790561 1.2391809778 2.3235486575
N 3.7667637373 -0.6807045706 3.2633894887
C 4.8887189803 -0.8078943205 4.1893221596
C 6.1074871639 -1.4690150159 3.5502794173
H -1.5995057604 -2.3604417493 -1.1457275212
H -2.8735770136 0.0351151207 -2.5673349410
H -2.6235858309 -1.5738275373 -3.2513791276
H -5.6095702056 -2.1232314276 -3.3319762945
H -7.1183482915 -2.6769013064 -1.4068753541
H -6.9796528429 -2.5886024627 1.5353337037
H -5.3494361574 -1.9690972793 3.2915497914
H -3.1161815878 -1.1174488221 2.7632894787
H -2.1942572748 0.4293822995 -0.0645555248
H -1.1702406749 -0.3376578090 2.0496461378
H -0.8233650152 -1.9154886881 1.3351793886
H 0.2549634563 0.7624586615 0.3457520342
H 1.5866621336 -0.6568467970 -1.2339981715
H 0.7285985958 -2.0862665649 -0.6364742880
H 0.1608299436 -2.1874057953 -3.1568043756
H -0.8571206133 -0.8776020125 -3.7869121329
H 1.0893568357 0.7514399986 -3.4708839209
H 2.3265343850 -1.9562939537 -4.2543650805
H 3.0475096078 -0.2664267170 -4.5214361537
H 2.0852859268 1.1888042848 -0.3864994667
H 3.6252561487 1.7048002508 0.2828077358
H 1.0072954869 2.4723987016 1.6435196270
H 2.5806337484 3.2396123656 1.8050847269
H 2.4856670150 3.8795567777 -0.6390088530
H 1.2767818552 4.6932017263 0.3642188908
H 0.4347033837 4.8989878867 -2.2132198282
H -0.1550550421 3.3707809266 -2.9147628922
H 1.5894808804 3.6325637634 -2.7135307473
H -0.8597759896 2.8764325074 0.6091429368
H -1.0724500572 4.4062505562 -0.2792344175
H -1.5300679754 2.8494062472 -1.0271745665
H 3.0542862646 -1.4005831769 3.1970849009
H 5.1481637041 0.1876582970 4.5620272217
H 4.5358569969 -1.4013426103 5.0383926920
H 6.9179668207 -1.5482044358 4.2816354951
H 6.4650103523 -0.8788248943 2.7017660368
H 5.8616405538 -2.4750100461 3.1969067239
