50
CONF143
C 0.6974962039 -0.3105686307 1.0680479111
C 1.6647301060 -1.2807262752 0.4307554006
C 1.1876985605 -2.1602511903 -0.5445744021
C 2.0366003236 -3.1461280853 -1.0833683995
C 3.3265435043 -3.3021614043 -0.6490985180
C 3.8535035460 -2.4349180710 0.3305527429
C 3.0288913942 -1.3773654823 0.8362629421
C 3.7315051290 -0.4793689629 1.7255675930
N 4.9628927569 -0.7180709302 2.1432536958
C 5.5851090369 -1.8218086939 1.6634791487
N 5.1243556630 -2.6586266979 0.7507711482
N 6.8528899044 -2.0298735670 2.1385359986
N 3.1826711964 0.6823324472 2.2010495181
C -0.2297396575 -2.0728551737 -1.0558385740
N -0.4563131303 -0.8149522060 -1.7681802364
C -1.5844477106 -0.0334200387 -1.5641794676
C -1.5060430169 1.3478611180 -1.8026410768
C -2.6378699427 2.1443475098 -1.6393436782
C -3.8582395826 1.5863558840 -1.2323176361
C -3.9181837476 0.2111117926 -0.9835166396
C -2.7960510264 -0.6052085264 -1.1553357130
O -5.1367643187 -0.2491511085 -0.5826371344
C -5.2716290013 -1.6463317069 -0.3544391145
O -4.9831457002 2.3671589169 -1.1301937792
C -5.1669954283 2.9188795461 0.1787343330
O -2.6594766577 3.4925725624 -1.8392986938
C -1.4683520994 4.1036988285 -2.3175136023
H -0.3336305535 -0.6401924457 0.9354564851
H 0.8776940201 -0.2157693436 2.1405271942
H 0.7366110015 0.6901454694 0.6147579779
H 1.6414988099 -3.8106681891 -1.8470853961
H 3.9724083685 -4.0828269084 -1.0347273496
H 7.2426057411 -2.9435115836 1.9798950984
H 3.8545580177 1.2967356240 2.6350225256
H -0.4276902420 -2.9339084018 -1.7092350545
H -0.9398360229 -2.1485526041 -0.2200503207
H 0.3906963451 -0.2918267898 -1.9260645578
H -0.5615558830 1.7773179025 -2.1150416351
H -2.8719387522 -1.6752872158 -1.0243767159
H -4.6014948858 -1.9901587642 0.4449866788
H -5.0770048122 -2.2223297946 -1.2685770989
H -6.3076595259 -1.7972180530 -0.0474935315
H -4.3259604607 3.5712908230 0.4477390142
H -6.0870280265 3.5069041091 0.1419296400
H -5.2711687000 2.1218665018 0.9262883700
H -1.1630185961 3.6817360261 -3.2839347161
H -1.7067035182 5.1609439013 -2.4430913419
H -0.6454608309 4.0005925222 -1.5969391285
H 2.4509978439 1.1272315551 1.6779649804
H 7.0998808801 -1.5562763118 2.9905242948
