41
CONF761
C -5.4092613699 -0.4480104660 2.4452683976
C -4.1013487802 0.3189216209 2.6171016730
C -4.3705493205 1.7916062545 2.9430220828
N -3.2804967756 0.1232599104 1.4065623015
C -1.9479073138 0.7316076210 1.4584953597
C -1.0732746792 0.0672262621 0.3920067552
O -1.1428848076 -1.3555029936 0.5254015702
C 0.3642173498 0.5035351144 0.5376578182
O 1.0941021276 -0.0119350926 -0.5861466136
C 2.4367497095 0.2262497297 -0.6456805953
C 3.1364152023 0.9806920994 0.2975299148
C 4.5088648457 1.1805449554 0.1395638019
C 5.1780334697 0.6371519708 -0.9490963501
C 4.4663496276 -0.1166249521 -1.8849524862
C 3.0992680540 -0.3406479839 -1.7537535005
C 2.3007687673 -1.1438551173 -2.7581635313
C 3.1298705771 -1.9532802369 -3.7056266978
C 3.1065021387 -1.8279114215 -5.0310134756
H -6.0246774342 -0.3632700539 3.3457749357
H -5.9827355963 -0.0376918298 1.6051132993
H -5.2188509707 -1.5074709684 2.2491201820
H -3.5373230478 -0.1269534367 3.4488948744
H -4.9805028741 1.8790783547 3.8483370967
H -4.9139566165 2.2673066922 2.1172921290
H -3.4416575082 2.3455895374 3.1090158884
H -3.7865245193 0.5022282414 0.6085259455
H -1.9424452856 1.8222716756 1.3054848925
H -1.5177977846 0.5282898519 2.4488614038
H -1.4339387831 0.3659970125 -0.6074917827
H -2.0664129244 -1.5136197169 0.7970444494
H 0.7834113073 0.1068837891 1.4725071314
H 0.4201967861 1.6008438556 0.5513130745
H 2.6291718621 1.4162534245 1.1496518091
H 5.0459696956 1.7688917056 0.8773703071
H 6.2442488318 0.7946180345 -1.0755285624
H 4.9858830625 -0.5389235144 -2.7401254189
H 1.6369639692 -1.8199824547 -2.2019527020
H 1.6381970505 -0.4716902291 -3.3198582322
H 3.7791081427 -2.7024742517 -3.2508331502
H 2.4745651765 -1.0869300406 -5.5160470954
H 3.7136891195 -2.4616325775 -5.6706468888
