46
CONF20
C -3.7684662767 -0.4275180260 -2.8256020555
C -3.8949812852 -0.3522870263 -1.3219334401
C -2.8909661283 -1.0237002700 -0.4351152115
C -2.9436467564 0.5231176532 -0.5087900013
C -1.8110808066 1.2462783194 -1.1045528908
O -1.0909576524 0.8678770957 -2.0093375143
O -1.6424442653 2.4405605278 -0.4744467667
C -0.4970798735 3.2166724230 -0.8933910848
C 0.8059745430 2.6362355594 -0.4065881441
C 0.8519857642 1.8041016949 0.7111476688
C 2.0758625802 1.3090911247 1.1463036977
C 3.2645360388 1.6404467327 0.5006047963
C 3.2071914650 2.4709389810 -0.6138355280
C 1.9879486367 2.9626709562 -1.0732128593
O 2.0646340762 0.5402736396 2.2986043080
C 2.8222837947 -0.6171548022 2.3421884251
C 3.3147535264 -0.9914320504 3.5895380803
C 4.0169570212 -2.1870637533 3.7124728675
C 4.2314415668 -2.9985975500 2.5997725732
C 3.7295587495 -2.6093212264 1.3590148854
C 3.0205199000 -1.4195672492 1.2207359639
C -1.7499515031 -1.7755570061 -0.9768823798
C -0.7909642398 -2.3133891220 -0.2241183290
Cl 0.4957845152 -3.2818775625 -0.8935415848
Cl -0.7020982288 -2.1122291379 1.5039224835
C -5.3292754220 -0.3472504641 -0.8362723553
H -2.7362900784 -0.3741961841 -3.1699888280
H -4.2133604493 -1.3638483379 -3.1798820259
H -4.3211840012 0.4013916195 -3.2798972223
H -3.2646424579 -1.3904349676 0.5176385569
H -3.3753503344 1.0082152699 0.3597898429
H -0.6681946756 4.2022533832 -0.4504678313
H -0.4907527923 3.3142830702 -1.9828003260
H -0.0514950206 1.5272716555 1.2445688477
H 4.2109839394 1.2515109634 0.8605485147
H 4.1248456223 2.7335287589 -1.1308892566
H 1.9538936730 3.5987201167 -1.9529108130
H 3.1406789445 -0.3485326726 4.4461863022
H 4.4019865688 -2.4804882125 4.6841796632
H 4.7822679446 -3.9280504339 2.6989439000
H 3.8799811750 -3.2397434942 0.4879318350
H 2.6171985836 -1.1249371677 0.2581960747
H -1.6801527733 -1.9412744843 -2.0466470228
H -5.3850709376 -0.3047275051 0.2550231337
H -5.8373304638 -1.2574483147 -1.1731234103
H -5.8655308840 0.5151874813 -1.2460619318
