65
CONF307
C -3.6245183227 3.2108463123 -0.2871321361
C -2.7649268274 2.7543324159 -1.4647035644
C -1.2453939698 2.7993068718 -1.1846744991
C -0.7206848999 4.2196367302 -0.9942495907
C -0.8935783924 1.9218957157 0.0005907400
O -0.2839871166 2.2894040817 0.9917829976
O -1.3324936006 0.6637574910 -0.1749771910
C -1.1319503810 -0.2914263495 0.9176577343
C -2.1990393051 -0.0935702369 1.9814632907
C -1.9649260638 -1.0579693917 3.1537301438
C -1.6838827727 -2.4415072124 2.6478266971
C -1.3602808001 -2.7362092277 1.3745354205
C -1.2243418386 -1.6768611759 0.2985323888
C -0.0711981412 -2.0374216541 -0.6699262809
C -0.4611608777 -3.3665839982 -1.3607879043
C -0.7959813516 -4.4095307039 -0.3267151745
C -1.1678351154 -4.1061725086 0.9278690321
C 0.5819581471 -3.8950651248 -2.3495209147
C 1.3004135467 -2.1160891115 0.0392116579
C 2.5027032917 -1.6229900388 -0.7802623560
C 2.4683129131 -0.1402034019 -1.1100774364
C 2.5668162071 0.7895197156 0.0771292648
C 2.6012219340 2.2174507933 -0.4403078379
C 3.8780230739 2.4046964258 -1.2375592138
C 4.2057633381 1.2700521104 -2.1829672463
O 5.0495448944 1.3797941857 -3.0508680920
O 3.5939289027 0.0781017469 -2.0411350996
O 2.5845386201 3.1924135225 0.6017191099
C -0.8551318202 -0.5724841027 4.1033151647
H -3.4180989971 4.2491149276 -0.0115509373
H -4.6864952156 3.1388796172 -0.5397886034
H -3.4525143916 2.5864820781 0.5975679048
H -3.0435817287 1.7358443533 -1.7510641164
H -2.9549354219 3.3936274794 -2.3344703097
H -0.7443361699 2.3435100713 -2.0508782613
H -0.9872440381 4.8269084323 -1.8641209020
H -1.1460120551 4.6863806965 -0.1021901348
H 0.3671245146 4.2344426127 -0.8879918961
H -0.1421115630 -0.1084078454 1.3431220330
H -2.1899703000 0.9414884441 2.3366873630
H -3.1788404379 -0.2891161261 1.5283544133
H -2.8926454414 -1.0998305747 3.7417209256
H -1.7590463750 -3.2551076588 3.3691933763
H -2.1512455847 -1.6944675054 -0.2970619567
H -0.0430330303 -1.2590608888 -1.4412357195
H -1.3744089594 -3.1598515322 -1.9423496962
H -0.7034750781 -5.4531893254 -0.6224371567
H -1.3597999803 -4.8977592156 1.6496438152
H 0.8301420630 -3.1380911911 -3.1003194782
H 1.5031403242 -4.1945724467 -1.8399525875
H 0.1899249337 -4.7755106369 -2.8690696303
H 1.2698469606 -1.5672094331 0.9875294901
H 1.4926177299 -3.1564316107 0.3240785696
H 3.4253144515 -1.8275991965 -0.2230776712
H 2.5667250480 -2.1720203197 -1.7240965417
H 1.5648750864 0.1011201575 -1.6858345798
H 3.4671614490 0.5724198282 0.6667490898
H 1.6946655683 0.6456734930 0.7190522798
H 1.7360022573 2.3698168994 -1.1062014239
H 4.7235664756 2.4653126082 -0.5380930712
H 3.8755511224 3.3310352671 -1.8182096435
H 1.6983173315 3.1557451381 0.9942934364
H 0.1017129625 -0.4817249266 3.5786186684
H -0.7172434519 -1.2789652731 4.9279799858
H -1.1135642515 0.4039887122 4.5259036500
