39
CONF4
C -0.9024157143 -2.9715123245 1.7519640062
O -1.9824364041 -2.2283406642 1.1694145035
C -1.7338532798 -0.9366962227 0.8205684738
C -0.5094414974 -0.2896146790 1.0018796309
C -0.3634105362 1.0394961989 0.6038881321
C -1.4286535390 1.7260098793 0.0215611005
C -2.6565451869 1.0790944155 -0.1608688027
C -2.8158561789 -0.2529485589 0.2441512215
O -4.0315693513 -0.8794742920 0.1000521970
C -4.1771872211 -1.5338380756 -1.1780892022
O -3.7552193018 1.6539303226 -0.7209334763
C -3.6337438624 3.0122733738 -1.1667848622
C 0.9642800160 1.7474355065 0.8158450904
C 2.1627650845 0.9331795299 0.4189373600
C 3.1257933539 0.5342406482 1.3238113935
N 4.2206251715 -0.1808364810 1.0146783138
C 4.3344549707 -0.5057867897 -0.2863051202
N 3.4713111693 -0.1903967135 -1.2674535462
C 2.3897152648 0.5225889610 -0.9198660511
N 1.5365059956 0.8809780659 -1.9171289482
N 5.4101462457 -1.2767248062 -0.6419758287
H -0.5719556861 -2.5135618356 2.6912881389
H -1.3039410372 -3.9657981358 1.9490811420
H -0.0567777413 -3.0454624340 1.0583378951
H 0.3353473986 -0.8069738232 1.4404591731
H -1.2921549697 2.7562513074 -0.2857892178
H -5.1688978460 -1.9903062999 -1.1820187228
H -4.1018032847 -0.8048526594 -1.9932372815
H -3.4121282929 -2.3092959704 -1.3018420558
H -4.6083002480 3.2727365037 -1.5803536059
H -3.3968014915 3.6805410684 -0.3310769304
H -2.8662854548 3.1034485597 -1.9439845537
H 1.0645446011 2.0109508556 1.8762377803
H 0.9483020694 2.6946692355 0.2611007131
H 3.0145649972 0.8121949984 2.3727436845
H 1.6471093822 0.4141388840 -2.8047279339
H 0.5963067756 1.1554872756 -1.6748210924
H 5.6513508391 -1.2924768854 -1.6206326659
H 6.1850257617 -1.2890029923 0.0027522702
