51
CONF20
C 3.4837152048 -2.4578357052 2.7375908700
C 3.2209893825 -2.0207011289 1.2889825403
C 2.6889229041 -0.6164707375 1.1932920093
N 3.4677602938 0.4161893975 1.3103809227
O 4.8121744680 0.1105158414 1.5028868303
C 5.5655580888 1.3394973178 1.6276316868
C 7.0114440661 0.9448893187 1.8192109200
C 1.2884220617 -0.3128133523 0.8571814840
C 0.9320211509 0.9333984962 0.3534315237
C -0.4383716301 1.2658358493 -0.1361983385
C -1.1769711837 0.0016190076 -0.5787155539
C -1.1620266416 -1.0073294577 0.5719748694
C 0.2285843576 -1.2832197614 1.1189037850
O 0.4055042179 -2.2920980492 1.8076118485
C -2.5534458546 0.2015474182 -1.1902091244
C -3.5856802903 0.9359429396 -0.5704126029
C -4.8280921382 1.0489055415 -1.2061524395
C -5.0936354563 0.4574000141 -2.4360808429
C -4.0738171091 -0.2859140384 -3.0280696562
C -2.8215155781 -0.4261911315 -2.4304936765
C -1.7908996258 -1.2674251504 -3.1450777388
C -6.4279221508 0.6149066303 -3.1122142017
C -3.4463150521 1.6413571744 0.7583208251
O 1.7816459172 1.9408200226 0.2797317695
H 4.2011134308 -1.7918124315 3.2235188801
H 2.5528271809 -2.4547234460 3.3087054672
H 3.8937497219 -3.4719770575 2.7499740973
H 4.1609383003 -2.0498123492 0.7267404476
H 2.5175414596 -2.7054952422 0.8169607328
H 5.4263590639 1.9372132565 0.7176492114
H 5.1846297329 1.9058091051 2.4866858351
H 7.3801163743 0.3797212555 0.9584275370
H 7.6204682763 1.8468852567 1.9265438188
H 7.1332313166 0.3373991031 2.7206358708
H -0.9527066544 1.7876961186 0.6778664220
H -0.3414583976 1.9829761154 -0.9584908849
H -0.5426602091 -0.4280945846 -1.3586684581
H -1.5838220528 -1.9688695098 0.2615281048
H -1.7714045029 -0.6570572881 1.4148710774
H -5.6131033217 1.6173925320 -0.7123905812
H -4.2591437948 -0.7758259243 -3.9814389391
H -0.9209813409 -0.6759289920 -3.4528874492
H -1.4215988877 -2.0854666421 -2.5169451711
H -2.2266211780 -1.7079952868 -4.0446052930
H -7.1758543161 1.0167486663 -2.4240257439
H -6.3526609599 1.3005825265 -3.9643517974
H -6.7897891031 -0.3425653969 -3.4999236224
H -2.8717952948 1.0726277830 1.4907962409
H -4.4360837817 1.8254593596 1.1835915741
H -2.9592862822 2.6165957124 0.6417586704
H 2.6599439125 1.6056903956 0.6963153477
