63
CONF546
C 6.5126594456 -0.6540408936 -4.4797126726
C 6.8277069400 -1.3802968011 -3.1758009085
N 5.7914057175 -1.1568651909 -2.1614473920
C 5.8945190453 0.0152045567 -1.2923612148
C 4.5205102434 0.5453207505 -0.9632358823
N 3.7109471512 -0.5180381079 -0.3346331525
C 3.8077808455 -1.7946385141 -0.8351996616
O 3.1806811919 -2.7606765823 -0.4183557908
C 4.7748536407 -2.0259721032 -2.0267397206
O 4.5886475469 -3.0112752612 -2.7374022371
C 2.7720584699 -0.0895408309 0.6611394176
O 2.6837831397 1.0994568960 0.9467013327
N 2.0135794101 -1.0513851342 1.2302628216
C 1.1015717404 -0.6941182692 2.3052054051
C 0.5254343045 -1.9348921513 2.9567018168
C -0.0569818373 -2.9459648700 2.1871607779
C -0.6111377308 -4.0629599952 2.8046490951
C -0.6002072036 -4.1730379879 4.1937167460
C -0.0295190344 -3.1628484888 4.9633635626
C 0.5330009594 -2.0479359950 4.3470802667
C -0.0661167576 0.2002878157 1.8472340981
O -0.6530442604 0.9169298631 2.6519068414
N -0.4360676453 0.1004285157 0.5480423086
C -1.5183694737 0.8662540153 0.0202954022
C -1.4654637233 2.4365761413 -0.0098474858
N -2.7021994210 2.4418129984 0.7831637260
C -2.7907565669 1.0720001047 0.8571402246
O -3.6437981596 0.3485051681 1.3496817402
C -3.6524367313 3.4977775571 0.4722790029
C -3.6824254646 3.5866010044 -1.0944742166
S -1.8702999038 3.3512840795 -1.5557794312
C -4.1234926495 4.9589710933 -1.5871702604
C -4.5376800515 2.4787109355 -1.7046042737
C -5.0612209772 3.3829736423 1.0626262835
O -5.4962713756 2.2323556100 1.5662635789
O -5.7791204017 4.3611329322 1.0433141618
H 5.5772182936 -1.0244828567 -4.9082043764
H 7.3172716159 -0.8254017636 -5.2007522900
H 6.4216097870 0.4245881518 -4.3187657460
H 6.9041434378 -2.4574393759 -3.3437117456
H 7.7753941061 -1.0297745045 -2.7530675569
H 6.4465487201 0.7930982901 -1.8269815893
H 6.4509405284 -0.2326157060 -0.3776358446
H 4.5996657288 1.3688070578 -0.2545076029
H 4.0144829994 0.9067410848 -1.8668384401
H 2.1771504611 -2.0196008435 0.9692280721
H 1.6291880931 -0.1015337395 3.0601034948
H -0.0851331995 -2.8663794575 1.1037264597
H -1.0569143182 -4.8457940442 2.1992888272
H -1.0354879427 -5.0437319931 4.6737346858
H -0.0163501983 -3.2432634613 6.0457001254
H 0.9831659291 -1.2628086381 4.9471543993
H -1.7969669886 0.4753438562 -0.9626380627
H -0.5991527640 2.8798988132 0.4873956840
H -3.2475755636 4.4396084328 0.8599408278
H -3.9979322018 5.0267940691 -2.6717014937
H -3.5452881573 5.7564875943 -1.1136511984
H -5.1825880039 5.1041572395 -1.3573006339
H -5.5934573209 2.6420820672 -1.4564300626
H -4.2469279797 1.4853678560 -1.3505576090
H -4.4390344475 2.4902812761 -2.7927159492
H 0.0930793638 -0.4895389979 -0.0777527006
H -4.8324169637 1.4855835513 1.5430758027
