46
CONF32
C -3.8365143883 -1.5297799944 0.7999507238
C -2.4884549526 -1.9733645090 1.3158882992
C -1.3122409455 -2.0682980801 0.3713407951
C -1.3387518934 -0.9810062997 1.4621413737
C -1.4887196092 0.4475404415 1.1294087560
O -2.1241148958 0.9284277513 0.2097023848
O -0.8027890922 1.2057912317 2.0237379406
C -0.8274785757 2.6362279080 1.7776920511
C -0.0368635051 3.0162063180 0.5533888955
C 1.1098683625 2.2999991778 0.2159149972
C 1.8228849829 2.6507857441 -0.9263498108
C 1.4349578911 3.7318793512 -1.7139145110
C 0.3050547163 4.4566166609 -1.3510242478
C -0.4409009981 4.0962359241 -0.2315219984
O 2.9802285870 1.9979208947 -1.3035836607
C 3.1355538385 0.6550549431 -0.9972563881
C 4.3896908807 0.2562147503 -0.5472923560
C 4.6265957740 -1.0933914180 -0.2989129735
C 3.6159321180 -2.0323359827 -0.4899661730
C 2.3651064268 -1.6152410364 -0.9429807972
C 2.1155578436 -0.2719489532 -1.2057363811
C -1.4212018003 -1.7176083091 -1.0482032881
C -1.1245850274 -2.5423335590 -2.0519782267
Cl -1.2308911250 -2.0560273222 -3.7238138102
Cl -0.5965416597 -4.1916792188 -1.8355643180
C -2.5668524824 -3.0255887576 2.4004640694
H -4.4291967222 -1.1101508376 1.6199484891
H -3.7642971762 -0.7824701706 0.0110922118
H -4.3717199448 -2.4017582966 0.4086401102
H -0.6138829916 -2.8694665918 0.5956300738
H -0.6684773477 -1.1652908101 2.2944837821
H -0.3838075327 3.0627748541 2.6816767771
H -1.8625204792 2.9774978455 1.6897422712
H 1.4319284709 1.4631889597 0.8258843862
H 2.0127544107 3.9865733974 -2.5959302314
H -0.0098041114 5.2957456036 -1.9633566858
H -1.3421703999 4.6449381304 0.0246891798
H 5.1638750403 1.0020468910 -0.4000562813
H 5.6050295172 -1.4073501006 0.0509828652
H 3.8004815483 -3.0828640941 -0.2912519011
H 1.5754564386 -2.3418685349 -1.1024394100
H 1.1432680399 0.0514160866 -1.5642710979
H -1.7639831716 -0.7228805465 -1.3140090934
H -1.5726522299 -3.3318071272 2.7372374910
H -3.0930681819 -3.9097033699 2.0245421348
H -3.1217423615 -2.6388689293 3.2622571744
