50
CONF5
C 4.2030202671 -3.0728928846 -0.7659120408
C 3.0380245523 -2.4870264949 -0.0275073052
O 3.0795828068 -1.9954368482 1.0799502596
O 1.9057639912 -2.5957076298 -0.7687695510
C 0.6758304220 -2.0689516151 -0.2153783130
C -0.4275400742 -3.0804346755 -0.4038931637
C -1.6874229200 -2.7188833847 -0.1336554119
C -1.8706088917 -1.3136773215 0.3518862155
C -3.2723082863 -0.7272791384 0.5717463604
C -3.1614883796 0.6723841472 1.2890485549
C -1.8492748584 1.4026428244 1.0850350763
C -0.9349318929 0.8866403458 0.1855955853
C -1.1359498672 -0.3521737528 -0.6122483427
C 0.3132689932 -0.7684959375 -0.9365914317
O 1.1828022448 0.3524760083 -0.5274717002
C 0.4070498726 1.2241307762 0.1838529480
C 0.8402298089 2.2876316003 0.9605397978
C -0.0905209825 2.9276078461 1.7808044799
C -1.4081383923 2.4759511123 1.8751851416
O 2.1884202243 2.6368673327 1.0529810979
C 2.8125397998 3.0615392445 -0.0947129790
O 2.2324607035 3.2099639904 -1.1430216663
C 4.2633363321 3.3075925200 0.1676723651
C -1.9416252183 -0.1689046410 -1.9095636901
C -3.3851913788 0.2293066937 -1.6495627343
N -3.9980153842 -0.7084376148 -0.7069435311
C -5.4250366628 -0.4433314178 -0.5451039491
H 4.0403526256 -4.1461261196 -0.9054521577
H 4.2835644676 -2.6211802102 -1.7582174679
H 5.1183698879 -2.9088116899 -0.1991872821
H 0.8334911567 -1.8508329851 0.8496818729
H -0.1509550324 -4.0728059217 -0.7461089082
H -1.3531267785 -1.2415800876 1.3215728755
H -3.8310059644 -1.3932637394 1.2399938715
H -3.2862277259 0.5198670164 2.3674600972
H -4.0066440116 1.3005608767 0.9835150499
H 0.4757961783 -0.9008744920 -2.0096489885
H 0.2528116913 3.7535133056 2.3960029937
H -2.0767549754 2.9378051961 2.5957586283
H 4.7345486075 2.3854417343 0.5201897075
H 4.7480510775 3.6532794347 -0.7440072051
H -1.4472618595 0.5853402689 -2.5321534562
H -1.9214377376 -1.1202455910 -2.4554427698
H -3.4349491225 1.2737595657 -1.2836038025
H -3.9494617071 0.1966963046 -2.5887701352
H -5.6492460435 0.5751993295 -0.1785165166
H -5.9249759348 -0.5628441286 -1.5123564762
H -5.8573615509 -1.1629387776 0.1581752367
H 4.3727330814 4.0546107160 0.9593495500
H -2.5249247801 -3.4012313247 -0.2481779235
