33
CONF11
C -5.0659207275 1.2686773336 -0.3037742474
C -3.6736648668 0.7700206097 0.0641964227
C -3.7972307379 -0.4565833242 0.9648046833
O -3.7360450615 -1.6045417608 0.5900840200
O -4.0345816749 -0.0861910890 2.2372632665
O -3.0184212613 0.4316817633 -1.1512457687
C -1.6789288771 0.1293206441 -1.1063732986
C -0.8937522762 0.1491376004 0.0446025170
C 0.4637722067 -0.1695767520 -0.0333842338
C 1.0238155447 -0.4975960126 -1.2590878106
C 0.2445158518 -0.5189068535 -2.4136135866
C -1.1031784967 -0.2103502671 -2.3346319107
O 2.3591399996 -0.8564992523 -1.4170111916
C 3.2263673991 -0.5726159659 -0.3892220125
C 3.6922726253 0.7263652271 -0.1644963511
C 4.6192845908 0.9893453752 0.8369767022
C 5.0785875329 -0.0733794051 1.6058697284
C 4.6411533240 -1.3756113449 1.3978879403
C 3.7083235177 -1.6138624625 0.3956134545
Cl 6.2531638802 0.2487040947 2.8702448325
Cl 3.1207835673 2.0377936898 -1.1644402597
H -4.9741517550 2.1419795814 -0.9534314903
H -5.6120303685 1.5535972201 0.5980858282
H -5.6202803756 0.4859583877 -0.8286984480
H -3.1240093304 1.5564775616 0.5983364499
H -4.1701810594 -0.8883987559 2.7710599582
H -1.3046343191 0.4027379329 1.0147176159
H 1.0667525001 -0.1580209355 0.8681983451
H 0.7004154943 -0.7777229995 -3.3633866735
H -1.7251351775 -0.2231482697 -3.2234800001
H 4.9779017205 1.9980328003 1.0021653288
H 5.0156544225 -2.1895061291 2.0071039148
H 3.3402421825 -2.6173180463 0.2097875774
