57
CONF6
C 1.7249153235 -0.6247165767 0.6956775676
C 2.6198155761 -0.8042288022 1.9258391780
C 4.0513467735 -0.8375829151 1.3649425920
O 4.8807482543 0.0298625138 2.1556771425
C 3.9556325046 -0.3725629547 -0.1471863882
C 4.1280714108 -1.5712669034 -1.0695796088
O 5.0302995461 0.5088021157 -0.4904350491
C 2.5442342082 0.2942241711 -0.2310431735
C 2.6459111211 1.7304141398 0.3164432503
C 1.8632075848 0.3092819315 -1.6004780814
C 0.4020288801 0.7698380561 -1.4818073080
C -0.4117902045 -0.0687484839 -0.4774221607
C 0.2842705759 -0.1659891564 0.9020585783
C -0.4775640245 -1.1285489076 1.8145809126
C -1.9425963012 -0.7312970733 1.9479621245
C -2.6308561544 -0.6231576387 0.5875373248
C -4.1226246395 -0.2935762758 0.7826513432
C -4.7381659347 -0.0098935555 -0.5372723802
C -4.0468012472 0.2447375106 -1.7064550523
C -2.5540871004 0.2398947734 -1.7834169935
C -1.9058014582 0.3644334846 -0.3775468622
C -2.0546700680 1.8146244169 0.1062609044
C -5.0507503164 0.4810467807 -2.6685245805
N -6.2770981214 0.3800273633 -2.1405118907
N -6.0566034852 0.0812796194 -0.8396901228
H 1.6585640974 -1.6006489576 0.1888195933
H 2.5256371583 0.0546868377 2.6009397645
H 2.3858548381 -1.7029063213 2.5027220826
H 4.4701027116 -1.8518011761 1.3984966085
H 5.8015375454 -0.1794684969 1.9522409122
H 5.0966886984 -2.0405990110 -0.8703267493
H 3.3487901119 -2.3220494727 -0.9141167214
H 4.1050094631 -1.2583689649 -2.1172842404
H 5.1082303117 1.1526759086 0.2272625222
H 1.6610949244 2.1710124679 0.4803412025
H 3.1750087728 2.3650911435 -0.4017785251
H 3.1848095170 1.7741692352 1.2672192906
H 2.4052341977 0.9596711351 -2.2997194872
H 1.8714773457 -0.7019074311 -2.0251148310
H 0.3730372791 1.8273507584 -1.1995248240
H -0.0609318395 0.7044771608 -2.4718766260
H -0.4288486882 -1.1009880264 -0.8705056076
H 0.2874877669 0.8230618470 1.3818619945
H -0.0058149789 -1.1609467464 2.8038390679
H -0.4085705790 -2.1435154701 1.3943148983
H -2.0181339110 0.2303944804 2.4730121507
H -2.4809536944 -1.4634540866 2.5636195097
H -2.5763508646 -1.6118864673 0.1039616105
H -4.6199185468 -1.1341168870 1.2821538983
H -4.2301703373 0.5732706539 1.4506563135
H -2.2144214127 1.0601313616 -2.4256536291
H -2.2016087233 -0.6904036201 -2.2528253401
H -3.1075779724 2.1130821997 0.1124299572
H -1.6588466656 1.9604519591 1.1149762036
H -1.5297644182 2.5018160316 -0.5629954351
H -4.9379923285 0.7191206435 -3.7192797815
H -6.8397315935 -0.0443005230 -0.2161270385
