45
CONF82
C 4.1092972373 3.3130637747 -1.0754145617
C 3.8779373222 2.5068646258 -2.3533585295
C 3.3228481420 1.1002975541 -2.1086566864
C 1.9233301006 1.0778754787 -1.4923129840
C 1.3852508717 -0.3443513232 -1.3315565325
C -0.0795734341 -0.4301161320 -0.8603839912
C -0.2862996377 0.1753339415 0.5382244014
C -1.7372849622 0.1319991755 1.0138787497
C -1.9329442941 0.7829399688 2.3817993126
C -3.3815860187 0.7399958929 2.8662339290
C -3.5666511178 1.3930187214 4.2341128287
C -0.5670919930 -1.8621531818 -0.9293992553
C -0.0153128088 -2.8504241412 -0.1077946333
C -0.4562823793 -4.1669167883 -0.1772749412
C -1.4608942594 -4.5237649460 -1.0732901473
C -2.0182296923 -3.5516898174 -1.8966963769
C -1.5728479252 -2.2345310939 -1.8224801533
H 3.1723380118 3.5227819443 -0.5509424408
H 4.5825984655 4.2745411800 -1.2966113508
H 4.7637990733 2.7694564438 -0.3847486767
H 3.1930597241 3.0542703959 -3.0146062471
H 4.8261397336 2.4204741958 -2.8980306877
H 3.2984328598 0.5552811406 -3.0615850317
H 4.0136355437 0.5471557101 -1.4564447499
H 1.9447406322 1.5792748878 -0.5185722606
H 1.2382225038 1.6581002151 -2.1278612225
H 2.0233715338 -0.8987712254 -0.6298043309
H 1.4642995012 -0.8683435382 -2.2931960381
H -0.6880557738 0.1542357317 -1.5663008861
H 0.3544463104 -0.3501677768 1.2604997909
H 0.0529522465 1.2181437368 0.5277719905
H -2.3748078451 0.6375221155 0.2743169590
H -2.0807848564 -0.9095866063 1.0521103452
H -1.5942365404 1.8280965333 2.3436265638
H -1.2900286440 0.2805647681 3.1184509056
H -3.7168535599 -0.3045673730 2.9061777049
H -4.0233426900 1.2391556490 2.1283372188
H -4.6096516310 1.3512708845 4.5623005376
H -3.2648534901 2.4457212171 4.2096953699
H -2.9563749180 0.8914665503 4.9929867142
H 0.7668520220 -2.5878462844 0.5986066082
H -0.0148008198 -4.9182446574 0.4702951506
H -1.8060503461 -5.5511690621 -1.1274995810
H -2.8031189054 -3.8172193936 -2.5982484887
H -2.0155922876 -1.4790380072 -2.4664794707
