44
CONF37
C -2.7148558214 -4.0314583709 0.8899961285
C -2.0950317942 -2.8862239537 0.1264589737
C -2.4841770806 -2.8003317818 -1.3612396112
O -2.7360886999 -1.4047359852 -1.5927949587
C -2.3935473911 -0.7091110731 -0.3903315482
O -2.5949675702 -1.6414173961 0.6462296605
C -3.4082899716 0.4262396252 -0.2030700706
N -3.2282581085 1.4605356891 -1.2006033919
C -3.5721563904 1.4511323507 -2.5097321752
N -3.1141999555 2.5351911176 -3.1130737507
C -2.4688322349 3.1835673827 -2.1029981853
N -2.5032303057 2.5727953908 -0.9261800345
C -0.9521771411 -0.2039826825 -0.4706097825
C -0.3068234958 -0.1699096769 -1.7098445775
C 0.9855298860 0.3070408867 -1.8596979663
C 1.6639967364 0.7789352313 -0.7421306029
C 1.0523066490 0.7863605518 0.5074602902
C -0.2441709517 0.3014135010 0.6246977891
Cl -0.9561616389 0.3869357974 2.2278747739
O 2.9209384447 1.2974999632 -0.9521253047
C 3.8455031434 1.2759187044 0.0757786356
C 4.1102765062 0.1139836785 0.7960061514
C 5.1029914079 0.1216523059 1.7676303362
C 5.8238798635 1.2889117373 1.9975821958
C 5.5695864537 2.4470946429 1.2732017497
C 4.5687912785 2.4392199932 0.3080429167
Cl 7.0781112053 1.2962560665 3.2223080438
H -2.4372364254 -3.9822158025 1.9456996610
H -2.3627901592 -4.9856478084 0.4858147087
H -3.8050899960 -3.9948500009 0.8088950372
H -0.9990579668 -2.8965328345 0.2287128246
H -1.6823514176 -3.1569776985 -2.0193915009
H -3.4064156856 -3.3541600254 -1.5733283777
H -4.4103311226 -0.0034220871 -0.2866258383
H -3.2798492339 0.8785007011 0.7811364582
H -4.1414378444 0.6480477208 -2.9573309950
H -1.9653994227 4.1325090485 -2.2321140065
H -0.8499035826 -0.5285949199 -2.5762366665
H 1.4710606695 0.3287189606 -2.8283638420
H 1.5658903233 1.1800358987 1.3757164426
H 3.5439359786 -0.7893689509 0.5973852869
H 5.3223104319 -0.7746910080 2.3357495179
H 6.1420649962 3.3468823655 1.4648684645
H 4.3456564339 3.3282529354 -0.2709452721
