45
CONF32
C -0.3696639397 1.6057795933 -2.5752419752
C -1.0994099945 1.4253203042 -1.2829872058
C -1.7101600457 0.2925063138 -0.9168771049
C -2.4235097294 0.1289802258 0.3591876778
C -2.0836421612 -1.0517818795 1.3308781597
C -3.4233062937 -0.9608518139 0.6175884747
C -3.7983005587 -1.9466329863 -0.4657788472
C -4.5848367967 -0.6027317300 1.5230636721
C -0.9812719061 -1.9333806813 0.9392326047
O -0.7683211930 -2.4214466537 -0.1538022826
O -0.1204585544 -2.1005852384 1.9918061232
C 1.1816593504 -2.6438243877 1.6421143047
C 1.9955316896 -1.5595273040 0.9925355556
C 2.3266653353 -1.5572839139 -0.3591076701
C 2.9787597892 -0.4775923915 -0.9386580505
C 3.3614511185 0.6383284534 -0.2027543198
C 3.0455858293 0.6241180959 1.1511290713
C 2.3794004930 -0.4439452000 1.7308214073
F 2.0877418643 -0.3897999538 3.0428234816
F 3.3881037763 1.6665800664 1.9314695898
C 4.0507891790 1.8087112328 -0.8649413871
O 3.1312352281 2.6456566405 -1.5651133201
C 2.2874110756 3.3929284353 -0.6845066696
F 3.2531451436 -0.5254673739 -2.2555127330
F 2.0263791083 -2.6121245160 -1.1329414120
H -0.4566422384 0.7168508326 -3.2070505526
H 0.6962160546 1.7979665411 -2.3987335554
H -0.7540916947 2.4691039553 -3.1316741015
H -1.1184331475 2.2807619591 -0.6057355575
H -1.6778072730 -0.5575835682 -1.5925812096
H -2.5838782861 1.0559715035 0.9058593176
H -2.0816442468 -0.7783017176 2.3804645341
H -4.2185006075 -2.8492738985 -0.0090588697
H -2.9546239123 -2.2449540709 -1.0858673318
H -4.5689788060 -1.5030344739 -1.1058278566
H -4.2875797164 0.1199097776 2.2882641998
H -4.9714841390 -1.4982921626 2.0217593446
H -5.3958207109 -0.1640694058 0.9312511080
H 1.6211804599 -2.9466264892 2.5929667336
H 1.0756857159 -3.5064742760 0.9841815790
H 4.7554094716 1.4391563307 -1.6132205502
H 4.6028785191 2.3862400994 -0.1126619635
H 1.6700359133 4.0381321217 -1.3128459269
H 1.6310377232 2.7341023503 -0.0983554006
H 2.8860639180 4.0084809258 0.0011059985
