39
CONF287
C 2.4030068714 0.5491076917 -1.5368538568
C 1.0779348659 -0.1716364516 -1.5176713883
O 1.2886538187 -1.5470008756 -1.8716852448
C 0.0813242032 -2.2835483699 -2.0642413393
C -0.4422170500 -2.9246545899 -0.7909513470
O -0.8295961469 -1.9659549911 0.2129998968
C -1.9210240703 -1.1759571811 -0.0201419139
C -2.9702930451 -1.4881980227 -0.8780018492
C -4.0540537912 -0.6159063215 -1.0124973089
C -4.0899856431 0.5686148399 -0.2904813932
C -3.0403136236 0.8957658340 0.5720257363
C -1.9535944033 0.0365533445 0.7067449946
O -0.8785772971 0.2643631339 1.5104301439
C -0.6666263900 1.5992080504 1.9999542233
C 0.7603963538 1.6617109366 2.4806358386
O 1.6190624625 1.5968617473 1.3442777241
C 2.9395686124 1.1718848579 1.6701400671
C 3.7597151270 1.0847422997 0.4014468217
O 3.2775337528 0.0837254233 -0.4984635911
H 2.8985323794 0.3841084377 -2.5048651684
H 2.2084557201 1.6226472276 -1.4276895981
H 0.6226896692 -0.0861281711 -0.5242900411
H 0.4120883136 0.3025141976 -2.2578672727
H -0.6848415351 -1.6453324264 -2.5286996117
H 0.3128714258 -3.0961702227 -2.7637557493
H -1.2673844270 -3.6097557125 -1.0262089530
H 0.3545750664 -3.5017856885 -0.3143144028
H -2.9516583024 -2.4077038952 -1.4512100008
H -4.8634298821 -0.8744585998 -1.6874072918
H -4.9295462923 1.2489124377 -0.3897459208
H -3.0747280453 1.8213102974 1.1352433021
H -1.3553813171 1.8190989416 2.8263533954
H -0.8294864281 2.3251913663 1.1925931249
H 0.9190370467 2.5982349530 3.0375657588
H 0.9569556108 0.8190879937 3.1605822697
H 3.4241468250 1.8844030776 2.3593342698
H 2.9052416756 0.1867614775 2.1623559871
H 3.7975819883 2.0638452361 -0.0956006117
H 4.7833655997 0.8055379126 0.6799605070
