47
CONF28
C 6.1950636270 -0.4139208693 -0.7291771601
C 5.2972081305 0.0973047154 0.4065954043
C 4.0369622035 0.7105112969 -0.1025446080
N 3.8948155928 2.0368937205 -0.2358072141
N 2.6675757962 2.2451433259 -0.7371194311
C 2.2283972909 3.6123315027 -0.9989349609
C 1.9909221314 1.0832999838 -0.9564854303
C 0.5920226207 1.0673565527 -1.4435398164
O -0.1870866309 1.9932035963 -1.1919132586
N 0.2396046085 -0.0151102428 -2.1695767875
C -1.1265276155 -0.2098932091 -2.6282693795
C -2.0984092737 -0.6147481644 -1.5376333189
C -3.4681338591 -0.4303009107 -1.7439350040
C -4.3918446432 -0.8282770734 -0.7865451215
C -3.9895020289 -1.4204186653 0.4202911560
C -2.6175795004 -1.5933102369 0.6177794979
C -1.6864958546 -1.1994616450 -0.3449385046
C -5.0412887025 -1.8421321962 1.4485746697
C -4.4141318195 -2.4567018182 2.7054026204
C -5.9799332329 -2.8868068782 0.8140052156
C -5.8647318225 -0.6105659659 1.8726914152
C 2.8696036527 0.0771944625 -0.5529716782
Cl 2.5879054733 -1.6332210338 -0.5300645698
H 6.4826258203 0.4082001955 -1.3914466695
H 7.1050333519 -0.8654182821 -0.3233404909
H 5.6760009467 -1.1687441411 -1.3277489708
H 5.0442893684 -0.7310711786 1.0777567645
H 5.8314309304 0.8459878367 0.9993788830
H 1.7325660942 3.6647977341 -1.9691212387
H 3.1197457462 4.2403920120 -1.0013674829
H 1.5357440169 3.9484302520 -0.2236355142
H -1.4820400611 0.7112729215 -3.1030870796
H -1.0968738565 -0.9841039990 -3.4024893497
H -3.8152641836 0.0333391150 -2.6644569106
H -6.6159260815 -0.9032482647 2.6145440257
H -2.2486694832 -2.0417831094 1.5330334532
H -0.6278005482 -1.3491482489 -0.1524144269
H -3.8410530902 -3.3603300908 2.4723010606
H -5.2095283896 -2.7349040890 3.4040683573
H -3.7529319686 -1.7474755475 3.2143872297
H -6.7380403796 -3.1978083090 1.5412827346
H -6.4957826420 -2.4827364872 -0.0620995516
H -5.4162073542 -3.7726564652 0.5021833153
H -5.2172269467 0.1514590144 2.3196605808
H -6.3862214432 -0.1618806105 1.0221828448
H -5.4469922423 -0.6658480176 -0.9843818231
H 0.9226339455 -0.7310620684 -2.3633362527
