56
CONF11
C -3.0631134413 1.5087180161 -0.9941441828
C -2.6073294354 0.1610188468 -0.3775829352
C -3.2627294431 -0.9894998849 -1.1668655332
C -4.7660504181 -1.0968026791 -0.9293915659
C -5.0731679166 -1.2282235780 0.5426753618
O -6.0840733597 -1.8110350494 0.9453315385
C -4.1618926068 -0.5621175368 1.4627447672
C -3.0715182936 0.1370377988 1.0657889770
C -2.3371696745 1.0110094918 2.0359823407
C -0.8140277414 0.8935223253 1.9346200350
C -0.3435992185 1.0645578212 0.4868088014
C -1.0428601590 0.0838942925 -0.4748046689
C -0.4574691363 -1.3337842037 -0.3740365767
C 1.0569382500 -1.3246392617 -0.5762136350
C 1.8502886667 -0.3691962562 0.3374775581
C 1.1891884217 1.0307138345 0.3460155303
C 1.6791395397 1.7290988518 -0.9496247793
C 2.9116344930 0.9542401166 -1.4528669416
C 3.2377806014 -0.0749977540 -0.3540455284
C 4.2156984200 0.5558181861 0.6350143966
O 4.0464686823 1.6716277139 1.1063119643
C 5.4606007756 -0.2140686131 1.0146904924
O 6.2258983513 0.4884871027 1.9722165044
O 3.8387933923 -1.2252374108 -0.9494533120
C 2.0614009487 -0.9881175781 1.7232867244
O -0.7605620066 -2.0025931555 0.8671022492
H -4.1465155912 1.6303219949 -0.9130583328
H -2.7862904383 1.5316636616 -2.0531294719
H -2.5987590644 2.3627812161 -0.4989205338
H -2.8302203464 -1.9492195512 -0.8652913518
H -3.0450281985 -0.8660033429 -2.2337372378
H -5.1933958856 -1.9537546637 -1.4581930162
H -5.2963612796 -0.2047955041 -1.2899583168
H -4.4541635152 -0.5631616869 2.5109783649
H -2.6225191511 2.0494930946 1.8060641248
H -2.6849973212 0.8094860614 3.0537129778
H -0.3521217843 1.6689552592 2.5568393475
H -0.5057228733 -0.0741455351 2.3324627856
H -0.6348044309 2.0815053713 0.1871530784
H -0.8104415440 0.3957921320 -1.5036141085
H -0.8585971441 -1.9342651997 -1.2024082588
H 1.4241567126 -2.3508337096 -0.4622108980
H 1.2172418058 -1.0508949510 -1.6244053013
H 1.5993110502 1.5810494423 1.1993066000
H 1.9161539325 2.7754547252 -0.7404144075
H 0.8967113167 1.7246545268 -1.7147411423
H 3.7672311084 1.6017683677 -1.6624505563
H 2.6925035859 0.3976229824 -2.3678662950
H 6.0397536067 -0.3925408241 0.0961235029
H 5.1690838362 -1.2032628972 1.4005219345
H 5.7578268871 1.3310994371 2.1114123833
H 3.7802124879 -1.9705227000 -0.3359761892
H 2.7006910837 -1.8779068120 1.6528328211
H 2.5342215061 -0.2786961189 2.4112623307
H 1.1177553837 -1.3145487501 2.1576015152
H -1.7211822263 -2.0265271668 0.9749655738
