38
CONF45
O -0.7671358343 -1.6238653051 3.2602001887
P -0.8619417601 -0.7797044482 2.0545437725
O -0.9476536574 -1.5135480949 0.6259440674
C 0.0590525801 -2.3434100466 0.1020397644
C 0.3310892005 -2.1892367328 -1.2505991921
C 1.3052421800 -2.9927112190 -1.8329828540
C 1.9933847988 -3.9328361163 -1.0671095835
C 1.6911539146 -4.0785904591 0.2839651659
C 0.7116004444 -3.2880843059 0.8830286667
O 0.3215756728 0.3024663037 1.9346289445
C 1.1868811983 0.4542644377 0.8363731629
C 0.7780390682 1.1782985237 -0.2733499163
C 1.6718098657 1.3347363364 -1.3305784863
C 2.9468747170 0.7786168003 -1.2650798374
C 3.3380695081 0.0672371784 -0.1320776038
C 2.4565262964 -0.0978944621 0.9321057610
O -2.2211433029 0.0669025795 2.0608669309
C -2.4660713094 1.0914306104 1.1280940946
C -2.1843327348 2.3987211398 1.4980638882
C -2.4535879658 3.4204255054 0.5907142311
C -2.9947208165 3.1259619914 -0.6591832111
C -3.2783452215 1.8055310981 -1.0021017863
C -3.0172662660 0.7725041689 -0.1047440752
H -0.2032739997 -1.4386287624 -1.8224706797
H 1.5310038129 -2.8758632767 -2.8881208652
H 2.7576808668 -4.5527721678 -1.5238350599
H 2.2143948101 -4.8161626034 0.8840311638
H 0.4664247210 -3.4006249550 1.9327219787
H -0.2191077460 1.6021581878 -0.3135743694
H 1.3637168929 1.8940868556 -2.2081559955
H 3.6363171336 0.9016063181 -2.0938402889
H 4.3317142683 -0.3652668618 -0.0740504372
H 2.7356719344 -0.6548776186 1.8201034791
H -1.7560626141 2.6033382209 2.4733373316
H -2.2353597145 4.4477892584 0.8635767393
H -3.1992178983 3.9252996875 -1.3637215374
H -3.7064283584 1.5734061046 -1.9718925944
H -3.2311872370 -0.2607513756 -0.3532542189
