54
CONF160
C -3.1238542862 -3.9677336480 -0.7785355785
C -2.8351387156 -3.5204971994 0.6566818415
C -4.0643344929 -3.6723187769 1.5530655654
C -2.2680142773 -2.0840396804 0.7292940397
C -0.9142043930 -2.0276652399 0.0050518606
O 0.0279782968 -2.7173326837 0.4011350148
N -0.8363819182 -1.2095781581 -1.0617020073
C 0.4107566558 -0.9851967477 -1.7741970930
C 0.1082300510 -0.2420728431 -3.0968339630
C -0.4624092507 1.1257289911 -2.8160289377
O -1.5649111683 1.3160299772 -2.3315253068
O 0.3944398112 2.1082886372 -3.1206365462
C -0.0539193346 3.4530903177 -2.8036343189
C 1.4360202242 -0.2151859905 -0.9563834294
C 1.0617088007 0.6081659922 0.1032886075
C 2.0082485419 1.3640436820 0.7901519759
C 3.3383737480 1.2831173676 0.4014010676
C 3.7433959923 0.4636643398 -0.6460598682
C 2.7820997933 -0.2815743637 -1.3196136517
Cl 4.5460773714 2.2327104859 1.2636571468
N -3.2402715974 -1.1086946575 0.2538009469
C -3.3932216152 0.1648063225 0.7161160808
O -4.3403574177 0.8831664015 0.4237529697
O -2.3641603041 0.5303191782 1.5135255698
C -2.4444594815 1.8670114298 2.1202702500
C -1.5680427026 1.8000573218 3.3540129397
C -1.9882352958 2.9178860816 1.1249398344
H -2.2366683359 -3.8829729170 -1.4144942357
H -3.4427636462 -5.0142475133 -0.7819627663
H -3.9307076854 -3.3844161726 -1.2375558229
H -2.0347084783 -4.1538003366 1.0551590831
H -3.8473507338 -3.3543861655 2.5780357021
H -4.9071439376 -3.0783963441 1.1831112999
H -2.0393622184 -1.8688569952 1.7795695892
H -1.6251940821 -0.6132343390 -1.2790257118
H 0.8416285099 -1.9582232952 -2.0382184206
H 1.0285840208 -0.1607313295 -3.6763963634
H -0.6296481213 -0.8141844878 -3.6682610073
H 0.7623531242 4.1062508555 -3.1078433680
H -0.2394341868 3.5379357362 -1.7301118322
H -0.9651962789 3.6851715487 -3.3590283626
H 0.0227657827 0.6566513129 0.4136133373
H 1.7115976351 2.0009518145 1.6161826737
H 4.7883610943 0.4052188668 -0.9286478129
H 3.0905209246 -0.9258135876 -2.1387573095
H -3.4901372473 2.0350002584 2.3960111081
H -0.5322820582 1.5784791322 3.0757247917
H -1.9218351133 1.0307364686 4.0455725625
H -1.5890358413 2.7661753417 3.8662120661
H -2.0998173849 3.9101522271 1.5730980338
H -2.5850600087 2.8817539361 0.2107450582
H -0.9332692171 2.7744704305 0.8703443636
H -4.3818394296 -4.7192096222 1.5781329966
H -3.9974060376 -1.4272463423 -0.3315202402
