38
CONF7
C -5.5764219487 2.5426387600 2.9004523482
C -5.0373389084 1.7020417756 1.7754538251
C -5.8640621154 1.3216280565 0.7136492787
C -5.3576029476 0.5429050312 -0.3178033837
C -4.0313203451 0.1211809688 -0.3295366198
C -3.2009683432 0.4974560394 0.7277623517
C -3.7114612230 1.2842469937 1.7691152463
N -1.8486791534 0.1266815971 0.8225881357
C -1.1131522852 -0.6089461267 -0.0629653843
O -1.4785100829 -1.0955310690 -1.1048539925
O 0.1708025509 -0.6989890070 0.4501228063
C 1.1154324440 -1.4517603920 -0.2430851750
C 0.8693875672 -2.7653318799 -0.6189182522
C 1.8997670957 -3.4647978191 -1.2371138881
C 3.1348094827 -2.8740740841 -1.4607090958
C 3.3610168517 -1.5498616580 -1.0650779940
C 2.3362471188 -0.8262300420 -0.4511352617
N 4.6313614443 -1.0121124154 -1.3172881079
C 5.1001275923 0.2367199784 -1.0009526528
O 4.4973105650 1.1244514383 -0.4373378972
O 6.3916621736 0.3344991657 -1.4295743727
C 7.0036914526 1.6093230984 -1.1570177118
H -6.3688126380 2.0118591782 3.4391623618
H -6.0100347090 3.4729882150 2.5194337282
H -4.7947777267 2.8015420898 3.6186591784
H -6.9025600216 1.6392485510 0.6999401881
H -6.0043727268 0.2523568833 -1.1398249218
H -3.6456150191 -0.4826434490 -1.1378952404
H -3.0578635201 1.5745458926 2.5889160129
H -1.3458966765 0.4544563123 1.6327935897
H -0.0967600072 -3.2196598190 -0.4448042997
H 1.7373090103 -4.4917168857 -1.5470680938
H 3.9279240597 -3.4391535438 -1.9417940016
H 2.4824236403 0.1973860921 -0.1386817762
H 5.2904871220 -1.6149359369 -1.7844006284
H 6.4532443244 2.4129372893 -1.6530637803
H 7.0280790125 1.8009096341 -0.0810387039
H 8.0151276890 1.5337408752 -1.5561067996
