35
CONF75
C -3.1523598102 -2.8847909294 2.1670130092
C -3.6191937444 -1.4956152129 1.8100943465
O -2.4458578540 -0.6082674166 1.6997869603
P -2.0346403243 0.0179692316 0.2977016840
S -1.9320341862 -1.1459232383 -1.2525154453
O -2.9794617212 1.2957434183 0.2040607577
C -3.1922326763 2.0262268016 -1.0558172602
C -1.9890614537 2.8584660961 -1.4309606317
O -0.6111412176 0.7256714364 0.7260957774
C 0.5644405215 0.0558112266 0.6186249815
N 0.8282775814 -1.0973931659 1.2745989195
C 2.0826748519 -1.3184400103 0.9014469558
N 2.5398697708 -0.3537197154 0.0818196713
N 1.5436235566 0.5544222479 -0.1153962635
C 3.8532984924 -0.1892528071 -0.5697246039
C 4.5146223258 1.0960226631 -0.0850055257
C 3.6872960767 -0.2383488334 -2.0845426031
Cl 3.0165645171 -2.6658994320 1.4011899001
H -2.5341023449 -3.3036586993 1.3682607084
H -4.0252450242 -3.5300492916 2.3077957733
H -2.5765263009 -2.8728734713 3.0965368186
H -4.2376039990 -1.0523012894 2.5939286779
H -4.1764108426 -1.4828669882 0.8679996670
H -3.4460130451 1.2973320346 -1.8314350996
H -4.0651690137 2.6464669993 -0.8450986047
H -1.7196759771 3.5435558482 -0.6222711846
H -2.2361255124 3.4491597184 -2.3187264387
H -1.1259957283 2.2296988785 -1.6688157574
H 4.4403291704 -1.0503329608 -0.2380844326
H 4.6015167279 1.1054511595 1.0048993964
H 5.5167436094 1.1622145366 -0.5166119559
H 3.9404792764 1.9696457280 -0.4057773982
H 3.1047110697 0.6175565472 -2.4364309899
H 3.1890767622 -1.1612058299 -2.3939037967
H 4.6753256721 -0.2004755815 -2.5507360027
