63
CONF232
C 7.6451260442 -2.6056342477 -3.2003292045
C 6.3938157795 -1.8993491334 -3.7152019385
N 5.4771369560 -1.5405358933 -2.6273319279
C 5.8122901519 -0.4048321100 -1.7680710555
C 4.5481411283 0.2595251458 -1.2818693243
N 3.7180385576 -0.7201273674 -0.5523818127
C 3.6703276653 -2.0193720314 -0.9985782837
O 3.0093718015 -2.9109646402 -0.4802585740
C 4.4910816190 -2.3843120213 -2.2679016080
O 4.1997310034 -3.4219395308 -2.8561458276
C 2.8575919241 -0.1674616204 0.4541677654
O 2.8150095043 1.0482028307 0.6124598184
N 2.1498457532 -1.0427279069 1.1970420100
C 1.1422793735 -0.5242842897 2.1023735420
C 0.4235235664 -1.6552975301 2.8075039165
C -0.2311040267 -2.6459901082 2.0695377291
C -0.9060552951 -3.6715368780 2.7235220021
C -0.9414823701 -3.7103271661 4.1164650964
C -0.2971347220 -2.7203979384 4.8536983740
C 0.3845918882 -1.6960044443 4.2012746251
C 0.1044808876 0.3102520178 1.3197998422
O -0.2113642425 0.0583158029 0.1626333731
N -0.4695119169 1.3115433554 2.0316930206
C -1.4918214919 2.1330987787 1.4678727255
C -2.8841362329 1.5351438819 1.0533280276
N -2.6326789036 2.0255769159 -0.3091518182
C -1.4011050425 2.5572907678 -0.0069320068
O -0.6142984716 3.1971882171 -0.6888552015
C -3.7927732926 2.5306808002 -1.0274305186
C -4.5952209853 3.3838069316 0.0174814820
S -4.4413376414 2.3586847861 1.5911272564
C -6.0731266591 3.4904541302 -0.3362085263
C -3.9723875479 4.7636109751 0.2145124983
C -3.5411563705 3.3028164469 -2.3270652956
O -2.3293959915 3.7628413067 -2.6210342213
O -4.4766968276 3.4994622021 -3.0744530244
H 7.3784403164 -3.5329905072 -2.6849176863
H 8.2042718765 -1.9682447958 -2.5088723796
H 8.2995534194 -2.8521300902 -4.0413356682
H 6.6580653302 -0.9741980815 -4.2384690874
H 5.8459564880 -2.5415455576 -4.4076664349
H 6.3827140244 0.3159726485 -2.3598380391
H 6.4360764459 -0.7238625409 -0.9216479753
H 4.7952052863 1.0671927210 -0.5933913376
H 3.9775222730 0.6771901993 -2.1200672314
H 2.1491545431 -2.0194419620 0.9182971807
H 1.6187040407 0.1215344852 2.8486387407
H -0.2178790335 -2.6119769045 0.9837665180
H -1.4087240336 -4.4396982424 2.1444167885
H -1.4695393101 -4.5107849147 4.6248986007
H -0.3192750986 -2.7469216310 5.9385865560
H 0.8930265515 -0.9272423252 4.7761244607
H -1.6292694936 3.0236028103 2.0877360143
H -2.9688122946 0.4491485634 1.1429487203
H -4.4110844326 1.6722546253 -1.3136290869
H -6.1883409291 4.1066613498 -1.2321396610
H -6.6205798438 3.9707634369 0.4799733859
H -6.5092877260 2.5060186653 -0.5239600343
H -2.9049888155 4.7082532039 0.4468643097
H -4.4696585384 5.2823405205 1.0375918969
H -4.1010291348 5.3641388536 -0.6941262167
H -0.1574454772 1.5051396582 2.9717129673
H -1.6252085472 3.5559958376 -1.9414884548
