49
CONF43
C -5.5411009875 0.5312496778 -2.0696051525
C -4.1817601472 -0.1587788787 -1.9234610781
C -3.2497259573 0.2512414591 -3.0674070648
C -3.5529015465 0.1821774333 -0.5711944228
C -4.2946672355 -0.3141911102 0.7053266039
C -4.1359361197 -1.8585543157 0.5763819800
C -2.7187082914 -2.0185628429 -0.0435989197
C -2.2258116046 -0.5467352988 -0.1998194998
C -2.0293096189 -0.0180707825 1.1982855611
C -3.3110366175 0.1255907192 1.7592006061
C -3.4941071882 0.6084148022 3.0440792839
C -2.3618096861 0.9824346257 3.7768887423
C -1.0886486757 0.8507446011 3.2342658373
C -0.9087854131 0.3386123200 1.9389659208
N 0.4045525326 0.2897325929 1.4069907019
C 0.9761263457 -0.8096888087 0.8252347923
O 0.4019746638 -1.8944971051 0.7124313487
C 2.3476580417 -0.6125393495 0.3312389109
C 3.0316285292 0.5645485780 0.0460899105
N 4.2502340221 0.2061581661 -0.4047273821
N 4.4226803908 -1.1265750420 -0.4367114668
C 3.2716416505 -1.6327106746 0.0042705681
C 3.0720906406 -3.1079029915 0.0958379713
F 2.5778785960 -3.5936504278 -1.1063778812
F 4.2744845409 -3.7454917068 0.2960604876
C 5.3212307189 1.0855681935 -0.8552324975
H -5.4285303756 1.6194221224 -1.9893369759
H -6.2456830930 0.2056421816 -1.2981552501
H -5.9841809717 0.3090890872 -3.0460361888
H -4.3423753238 -1.2418225687 -1.9883824344
H -2.2969280238 -0.2856846293 -3.0268725029
H -3.7128128425 0.0417480451 -4.0373776066
H -3.0359983256 1.3261669056 -3.0207491402
H -3.4099740093 1.2710172256 -0.5211455424
H -5.3194591782 0.0280151745 0.8584859379
H -4.9122131420 -2.2687870175 -0.0767658556
H -4.2273123312 -2.3468122192 1.5502561099
H -2.7608696216 -2.5067748755 -1.0221629398
H -4.4886993213 0.7208987714 3.4656461901
H -2.4722523686 1.3861483149 4.7786329759
H 2.7380247627 1.6028052598 0.1119386758
H 2.3774625783 -3.4044614898 0.8846542667
H 5.5081781856 0.9251623988 -1.9201020704
H 6.2297653848 0.8724255636 -0.2875584602
H 5.0139354087 2.1179568408 -0.6861763343
H -2.0378202737 -2.5893744270 0.5878270129
H -1.3799156502 -0.4201062300 -0.8752866960
H 1.0255742395 1.0339562311 1.6910926253
H -0.2169350634 1.1486730377 3.8100908043
