54
CONF8
C -2.6561996544 -0.8502174636 1.6123026880
C -2.4512033906 -0.0411630716 0.3091535040
C -3.1489227425 1.3340723952 0.4200155078
C -4.6723075254 1.2518743571 0.4280598714
C -5.1952047245 0.5177050149 -0.7749891406
O -6.3142676641 0.7401998137 -1.2483405494
C -4.3334862803 -0.5224827968 -1.3111606891
C -3.1113485409 -0.8294048643 -0.8162285867
C -2.3882503665 -2.0223814858 -1.3542445200
C -0.9647321205 -1.6473490851 -1.7554185270
C -0.2169740917 -1.0825100673 -0.5528368590
C -0.9139363254 0.1748048029 0.0199149265
C -0.0970924409 0.6151772986 1.2464803158
C 1.3580369868 0.9191578854 0.8774352990
C 2.0803669091 -0.2686488296 0.2562680559
C 1.2567316785 -0.8528221186 -0.9157402337
C 1.5370084550 0.0972239238 -2.0983898398
C 2.9372191370 0.6956378300 -1.8396935844
C 3.4088762231 0.1242311757 -0.4870205764
C 4.2637459067 1.0611370267 0.3297986871
O 4.1516156570 2.2772765220 0.2925852810
C 5.2987125694 0.4409242028 1.2382486124
O 5.9569865149 1.4027124878 2.0334336526
C 2.3897301355 -1.3604638315 1.2485724257
O 2.1882115848 -1.3083793167 2.4445794528
O -0.6645355549 1.7962696225 1.8367332434
H -3.7087155729 -1.1188245623 1.7390916403
H -2.3488515045 -0.2512274964 2.4738773246
H -2.0757925561 -1.7769644397 1.6097183528
H -2.8392167903 1.9450812036 -0.4382295747
H -2.8026274432 1.8424365630 1.3177520053
H -5.1255613090 2.2470868082 0.4677468209
H -5.0279301662 0.7066798218 1.3144973258
H -4.7530012993 -1.1222398761 -2.1165902597
H -2.9438379790 -2.4504308494 -2.1934437791
H -2.3391773872 -2.7905921688 -0.5682952611
H -0.9967673130 -0.9036479524 -2.5619441357
H -0.4384690616 -2.5282470925 -2.1405151997
H -0.2337864727 -1.8543875315 0.2328548661
H -0.8537813573 0.9748712827 -0.7316459899
H -0.1149136920 -0.2020310205 1.9814912535
H 1.8852976612 1.2388307457 1.7847973214
H 1.3668780168 1.7654142037 0.1808116651
H 1.6867342787 -1.8347235805 -1.1623395477
H 1.4898917253 -0.4439482871 -3.0465100116
H 0.7869990521 0.8921123012 -2.1445158612
H 3.6544011297 0.4361335262 -2.6222997765
H 2.8935167749 1.7854404566 -1.7798445974
H 3.9749011634 -0.8041892254 -0.6421708779
H 6.0109748619 -0.1004150318 0.5923656014
H 4.8140688587 -0.3172570240 1.8729106904
H 5.6278717202 2.2652497067 1.7265636013
H 2.8542455466 -2.2631742205 0.7908821684
H -0.1421320775 2.0003827503 2.6234663044
