30
CONF13
N 5.4622636389 -0.6086117162 0.9220270299
C 4.1559152325 -0.3104282696 0.6903606310
N 3.7637392441 0.9240724041 1.0998521564
C 2.4784994954 1.2309406652 0.9338326887
N 2.0361586756 2.4382804889 1.3160719201
C 1.5689078357 0.2874052727 0.3484673430
N 0.2630408164 0.5810019140 0.2118811724
C -0.5358814832 -0.3215551229 -0.3225981294
C 0.0209890059 -1.5701922709 -0.8027348456
N -0.7637355024 -2.4777591198 -1.4335033845
N 1.3084931122 -1.8730077620 -0.6506629758
C 2.1063262571 -0.9584275578 -0.0547625774
N 3.4101959032 -1.2666941794 0.1194049696
C -1.9699714399 0.0170625464 -0.4452966499
C -2.9763642039 -0.8796723960 -0.0601231480
C -4.3164764492 -0.5143273943 -0.1476179384
C -4.6717199154 0.7451014619 -0.6251619107
C -3.6769854271 1.6448692633 -1.0057574338
C -2.3372067657 1.2861434967 -0.9138361150
H 5.8513569311 -1.4182758108 0.4668911087
H 6.0880174773 0.1451868350 1.1546380162
H 2.6652980320 3.0948003383 1.7480586671
H 1.0618855800 2.6697743945 1.2129412273
H -1.6685954442 -2.1996521253 -1.7775456349
H -0.3023853582 -3.2349936262 -1.9145781894
H -2.7116038406 -1.8542077971 0.3384547802
H -5.0842986807 -1.2144401066 0.1663973124
H -5.7177740657 1.0255779336 -0.6976920254
H -3.9465401098 2.6279929018 -1.3792738674
H -1.5615481438 1.9840354283 -1.2124757138
