52
CONF97
C 5.6424893092 0.1703400734 2.6074730403
N 4.3728299173 -0.5502307502 2.5325057140
C 3.2491046409 0.3898494089 2.5044182372
C 1.9253141941 -0.3536849509 2.4213474254
N 1.8842755615 -1.1878632585 1.2157444915
C 3.0045032112 -2.1329252896 1.2496864286
C 4.3273717173 -1.3882079605 1.3305720541
C 0.6113046011 -1.9052297095 1.0878393421
C -0.5796770291 -0.9833857819 0.8329978359
C -0.3146228929 -0.0524609112 -0.3500126331
N -1.4900453538 0.7618872612 -0.6803235217
C -1.3017022837 2.1031864849 -1.0789571916
C -0.0785160927 2.5761199683 -1.5699737761
C 0.0745954639 3.9180747342 -1.9100639818
C -0.9934693691 4.8037795801 -1.8076065677
C -2.2292993066 4.3368055455 -1.3665132793
C -2.3746257656 3.0049268300 -0.9916266461
S -3.9251404349 2.4264736269 -0.3309968465
C -3.8969069548 0.7936814958 -1.0278348734
C -2.6634736585 0.1187961059 -1.1075328615
C -2.6582219311 -1.1870718464 -1.6024919237
C -3.8560713018 -1.8056887972 -1.9618107341
C -5.0711983959 -1.1358366954 -1.8768742839
C -5.0791265393 0.1811010470 -1.4262230833
C -3.7842488288 -3.2159257086 -2.4589684049
F -3.1950676360 -4.0457023141 -1.5541046982
F -4.9981542750 -3.7392439965 -2.7371795899
F -3.0415297438 -3.3173042178 -3.5970185556
H 5.8005464955 0.8381562454 1.7388261175
H 6.4718211492 -0.5442175730 2.6442152021
H 5.6693838423 0.7802323489 3.5169262423
H 3.3278513763 1.0817404549 1.6404196398
H 3.2694968337 0.9953145782 3.4184855371
H 1.1146015780 0.3818919527 2.3867961872
H 1.7859049258 -0.9668648317 3.3346017952
H 2.9221464924 -2.8239119808 2.1131023794
H 2.9849974935 -2.7381415098 0.3355864696
H 5.1511326117 -2.1110184186 1.3701478185
H 4.4575806760 -0.7772026758 0.4140735387
H 0.7088201336 -2.5934744046 0.2376086057
H 0.4047297494 -2.5241588632 1.9832137849
H -1.4536139626 -1.6160938708 0.6494280060
H -0.8155998747 -0.3777430343 1.7149487298
H 0.0551770459 -0.6183677637 -1.2195441054
H 0.4820763020 0.6351046624 -0.0654787621
H 0.7585092512 1.8993625746 -1.6935193124
H 1.0371569321 4.2635348813 -2.2734611307
H -0.8748644966 5.8474141023 -2.0785759313
H -3.0792140173 5.0083663841 -1.2935931207
H -1.7268400384 -1.7321660740 -1.7007023253
H -5.9981746680 -1.6195903968 -2.1589361921
H -6.0143156590 0.7275734398 -1.3610402059
