47
CONF442
C -2.9212784315 1.1549700237 4.2031844797
C -3.9270667924 1.2427539579 3.0570764963
C -3.2614662350 1.0446890118 1.6946670235
C -4.2774137270 1.1017758174 0.5705219151
O -3.6204764222 0.8674247856 -0.7162511383
C -3.0867756602 1.9272801773 -1.3259550159
O -3.1781476345 3.0792191819 -0.9518682714
C -2.3776065712 1.5469782786 -2.6263049836
C -3.3584284079 1.6369296894 -3.7858947477
O -1.8726985482 0.2083895170 -2.6118585034
C -0.8946488127 -0.1023402869 -1.7065711089
C -0.5209279240 -1.4500150660 -1.6704096617
C 0.4579013298 -1.8776814789 -0.7862322583
C 1.0566777295 -0.9523956465 0.0607031689
C 0.6973964756 0.3838628256 0.0376891850
C -0.2837449221 0.8188096701 -0.8523304263
O 1.9941208272 -1.3935897828 1.0039149328
C 3.3049939522 -1.4415655594 0.6402339773
C 3.7635674336 -1.0445956801 -0.6231291436
C 5.1196624519 -1.1371999600 -0.8669010927
C 5.9631908446 -1.6166835363 0.1381159054
C 5.4038746776 -1.9831366799 1.3563700728
N 4.0947465497 -1.8985709268 1.6067140746
C 7.4317219552 -1.7067853494 -0.1098798513
F 7.7151145557 -2.4156982355 -1.2354976465
F 8.0969676764 -2.2971894118 0.9076341733
F 7.9939411578 -0.4789899304 -0.2895949579
H -3.4091883360 1.3039348625 5.1712202587
H -2.4321912155 0.1749399125 4.2179373854
H -2.1415528181 1.9170179578 4.0964454653
H -4.7101451285 0.4855005204 3.1922832192
H -4.4278407176 2.2190706958 3.0773075533
H -2.5001471250 1.8190199495 1.5377559474
H -2.7502455500 0.0740113068 1.6661397260
H -4.7949944115 2.0640994372 0.5352358193
H -5.0086691403 0.2941394022 0.6493341407
H -1.5587560137 2.2629684286 -2.7690209690
H -2.8380200677 1.4147644600 -4.7205062282
H -3.7697698111 2.6475287562 -3.8425032274
H -4.1755834823 0.9235266800 -3.6486934111
H -1.0103893637 -2.1515119145 -2.3376995984
H 0.7551980111 -2.9206087782 -0.7474569849
H 1.1787665973 1.0862709758 0.7102794407
H -0.5495249427 1.8688890995 -0.8569123022
H 3.0841337236 -0.6776696347 -1.3817262351
H 5.5197124508 -0.8398547423 -1.8313555175
H 6.0260088288 -2.3598828911 2.1637882062
