48
CONF4
C 2.8569449177 1.4979848769 1.1075923065
C 2.8902501945 0.4701898355 -0.0449055470
C 2.3072949570 1.0778279485 -1.3205616331
C 0.7969638906 1.3343303890 -1.1534952020
C -0.0038792560 0.1101698197 -0.6583110110
C 0.6376430733 -0.5540803548 0.5906600122
C 2.0961606115 -0.8206397347 0.2570131823
C 3.0219003012 -1.6221894358 1.1859186029
C 4.3755114468 -1.2149170778 0.6415511162
C 4.2975509327 -0.0941235993 -0.0822399778
C -0.1047167741 -1.8351123451 0.9716502068
C -1.6008234057 -1.5946910930 1.1520324577
C -2.2002327107 -0.9590172048 -0.1002355372
C -1.5263460779 0.3923856697 -0.4677452425
C -2.1415837588 0.8590019536 -1.8028990772
C -3.6750803541 0.9739496150 -1.7714116807
C -4.3386109585 -0.2894978969 -1.2671134135
O -5.2796080982 -0.8059103198 -1.8361162023
C -3.7325212431 -0.8642201075 -0.0064425305
C -1.7594798202 1.4676265243 0.6061943363
H 1.8705270311 1.9470626262 1.2509876041
H 3.5631166853 2.3080064425 0.8947224165
H 3.1601887901 1.0359702307 2.0515784641
H 2.8102565032 2.0185995856 -1.5796764858
H 2.4745436210 0.3825967381 -2.1538039705
H 0.6524036726 2.1744958274 -0.4654694705
H 0.3981569100 1.6613801327 -2.1190907941
H 0.0592136490 -0.6501639808 -1.4564509127
H 0.5865295247 0.1370119828 1.4435662413
H 2.1013464833 -1.3823747790 -0.6919579295
H 2.8453587261 -2.7020218419 1.1384123860
H 2.9167071295 -1.3279094311 2.2418617421
H 5.2889960984 -1.7622509208 0.8503719451
H 5.1377846332 0.4213996088 -0.5385151293
H 0.0482669865 -2.5828034936 0.1785349020
H 0.3275041966 -2.2569012155 1.8869866658
H -1.7779713764 -0.9449391280 2.0199532808
H -2.1144852102 -2.5406493468 1.3632587184
H -1.9796637806 -1.6386459521 -0.9401108900
H -1.8559811223 0.1455248001 -2.5881477808
H -1.7289513124 1.8309499218 -2.0914489865
H -4.0797178919 1.2116020123 -2.7586471574
H -3.9665332799 1.7875203743 -1.0918723723
H -4.1730292069 -1.8492716985 0.1737000946
H -4.0164369116 -0.2201733217 0.8382122959
H -1.4310465731 2.4474338048 0.2468087733
H -2.8162328615 1.5638331759 0.8686376755
H -1.2181884898 1.2556502721 1.5309032244
