27
CONF1
C -2.8221772466 -0.8655555742 -0.2230261883
C -1.4513955051 -1.5113541877 0.0098869001
N -0.6223246724 -0.8041894472 -0.9708373758
C -1.1839117778 0.4183859688 -1.2329053692
N -0.4607467268 1.3218071271 -1.8753159126
N -1.0844465379 2.5071303596 -2.2259558182
O -2.3171921513 2.6501472945 -2.1263875771
O -0.3377228101 3.3730357530 -2.6515453553
N -2.4307714950 0.4602308560 -0.7032885507
C 0.8260144214 -1.0192287498 -1.0086723829
C 1.5200897124 -0.5474339479 0.2451815384
C 1.8166613999 -1.4352898168 1.2751884355
N 2.3862390790 -1.0762204561 2.4319386762
C 2.6810839822 0.1970525527 2.5824788268
C 2.4496007346 1.1870841338 1.6274673628
C 1.8544887455 0.7975325399 0.4387506652
Cl 3.4248602007 0.6641790031 4.1072957364
H -3.4165160911 -0.7997627872 0.6913427444
H -3.3940765904 -1.4100603529 -0.9873797123
H -1.0902238819 -1.3259204102 1.0332828175
H -1.4492570081 -2.5884267014 -0.1800280203
H -3.0688930273 1.1502546667 -1.0749436809
H 0.9919366889 -2.0931055550 -1.1492881630
H 1.2109885487 -0.4950788774 -1.8862037745
H 1.5927907653 -2.4971810548 1.1669871008
H 2.7294628409 2.2164852880 1.8144605038
H 1.6454383071 1.5254826772 -0.3391070131
