43
CONF43
C 0.8623601642 0.6386168436 4.4470703672
C 0.9751935717 1.6744401683 3.3464000501
O 0.9623855431 1.0709800867 2.0375473540
N -0.3266866724 0.6795860281 1.7284746382
C -0.4094892293 0.0969886844 0.5950401655
C -1.6767761198 -0.4828038959 0.1254341939
C -2.1097311477 -0.2293363061 -1.1952317618
C -3.2731173497 -0.8180799880 -1.6852649851
C -4.0080766499 -1.6722997361 -0.8716401128
C -3.5933958795 -1.9338649729 0.4230874075
C -2.4330452816 -1.3406797583 0.9422710556
O -1.9951899519 -1.6634063354 2.1888390553
C -2.6532580794 -0.9498903097 3.2542073593
Cl -4.5010004659 -3.0678612596 1.4002624869
O -1.3395722116 0.6289245461 -1.9057713570
C -1.7330807799 0.9517320470 -3.2363395280
O 0.6857278210 -0.1639149362 -0.2171161304
C 1.3598137135 0.9023846056 -0.7816555791
O 1.0156535834 2.0483112565 -0.6680653257
C 2.5283322056 0.4298097462 -1.5624582997
C 3.2902734036 1.3952455462 -2.2276838540
C 4.3929633529 1.0143102694 -2.9790158777
C 4.7422667980 -0.3315705452 -3.0704783143
C 3.9862782669 -1.2951768656 -2.4079822548
C 2.8808842043 -0.9199325288 -1.6541128154
H 0.9066931435 1.1256936440 5.4267593797
H -0.0859742656 0.1013558090 4.3693299520
H 1.6790088290 -0.0857402074 4.3805984602
H 0.1716978858 2.4181438646 3.4017761406
H 1.9380613983 2.1929794333 3.3809650478
H -3.6173893957 -0.6222585096 -2.6920431714
H -4.9068085535 -2.1452968023 -1.2503646220
H -2.2822272081 -1.3904717096 4.1812479255
H -3.7397002585 -1.0783420221 3.2008072068
H -2.3894898782 0.1118742932 3.2058361269
H -2.7200535668 1.4308924242 -3.2519116595
H -0.9816722602 1.6542685455 -3.5981506046
H -1.7420178438 0.0603111404 -3.8763743323
H 3.0004798269 2.4364999184 -2.1392689284
H 4.9832331021 1.7656935333 -3.4933298731
H 5.6053831821 -0.6292351991 -3.6575334911
H 4.2600114581 -2.3428689306 -2.4780431662
H 2.2910514577 -1.6660110597 -1.1361181964
