45
CONF117
C 4.2612538903 3.3786377733 -2.5448398438
C 3.1658294815 3.0112767718 -1.5461328045
C 2.6825268572 1.5701779287 -1.7035913183
C 1.5793113429 1.1931942341 -0.7153079620
C 1.1236071804 -0.2580322222 -0.8703408098
C -0.1219950379 -0.6296606807 -0.0418045708
C 0.1250875584 -0.4928330533 1.4703172968
C -1.0754906878 -0.8688753165 2.3451077411
C -2.3512679732 -0.0707708959 2.0583012385
C -2.1917823027 1.4437867560 2.1917555163
C -3.5118703444 2.1860856536 1.9934152033
C -0.6038147376 -2.0145267946 -0.4190506697
C 0.1389927077 -3.1525563374 -0.0884614724
C -0.2950392141 -4.4216142107 -0.4549688908
C -1.4842127207 -4.5790409619 -1.1626139463
C -2.2317160076 -3.4562472418 -1.5008889508
C -1.7920317374 -2.1879406619 -1.1309634705
H 3.9057401386 3.2668890459 -3.5748527878
H 5.1349026824 2.7290099230 -2.4241048017
H 4.5930354324 4.4133048249 -2.4156339803
H 3.5344825708 3.1589216164 -0.5225083069
H 2.3129850697 3.6924433635 -1.6657565574
H 2.3196756161 1.4189707591 -2.7298867626
H 3.5334389272 0.8858820314 -1.5772294611
H 1.9417227016 1.3715906985 0.3047168901
H 0.7178780863 1.8618062687 -0.8589432034
H 1.9479216170 -0.9348633789 -0.6059348187
H 0.8983867845 -0.4506737358 -1.9276489399
H -0.9161518551 0.0769844715 -0.3220923274
H 0.9830914796 -1.1181996796 1.7514477827
H 0.4244730225 0.5385738374 1.6861781360
H -1.2913597238 -1.9371545479 2.2202482635
H -0.7955507520 -0.7273984403 3.3974269552
H -3.1355356493 -0.4066315919 2.7495354500
H -2.7208999544 -0.3097355063 1.0521076054
H -1.4591771799 1.8087515029 1.4605158802
H -1.7778072772 1.6782154029 3.1819852178
H -4.2541043701 1.8715389871 2.7349845340
H -3.9287789425 1.9802694453 1.0013454598
H -3.3841218808 3.2690261980 2.0846893648
H 1.0673386474 -3.0465809776 0.4654141483
H 0.2962119643 -5.2919401816 -0.1870389803
H -1.8241270014 -5.5695141479 -1.4473406556
H -3.1602478258 -3.5662757505 -2.0525871922
H -2.3808095828 -1.3142700730 -1.3990944003
