37
CONF227
C -0.1312049626 0.7987903042 -2.8765185013
C -1.5247304015 0.2275184588 -2.7343164955
O -1.5625978943 -0.8608250742 -1.7545804775
P -1.5548365824 -0.5140524094 -0.2056039900
O -2.1218277072 0.7903442420 0.2083777901
O -2.2086610732 -1.8430067112 0.3557963093
C -2.2280009916 -2.0585551786 1.8136233640
C -1.2929898276 -3.1903574450 2.1656638737
O 0.0246212337 -0.6567170452 0.2007948512
P 0.8253389650 0.2388887350 1.3115920376
O 0.2996125701 0.1184232406 2.6855278719
O 2.2938093359 -0.3285221960 1.1334781679
C 2.9480716238 -0.3740746410 -0.1783264912
C 3.0326961858 -1.8052528815 -0.6547174541
O 0.8751354024 1.6983951002 0.6740798709
C 0.1099111567 2.8073359909 1.2635692104
C -0.2806726260 3.7387027220 0.1436209708
H 0.1922390748 1.2931537635 -1.9554268174
H -0.1296812824 1.5426175089 -3.6799156210
H 0.5858591828 0.0125660567 -3.1306181479
H -2.2488958520 0.9915555188 -2.4346820948
H -1.8632380636 -0.2420388653 -3.6602133385
H -3.2677505702 -2.2957960436 2.0507705202
H -1.9493067651 -1.1332794384 2.3286012583
H -1.3545133157 -3.3826769560 3.2414734606
H -1.5689301281 -4.1035227512 1.6312871042
H -0.2587980868 -2.9317610959 1.9238031601
H 3.9381364339 0.0609839420 -0.0192106322
H 2.4020338956 0.2578497041 -0.8861835864
H 2.0347868456 -2.2233105802 -0.8090983695
H 3.5756753135 -1.8386019049 -1.6048696612
H 3.5682012467 -2.4221441310 0.0718266648
H -0.7673424104 2.4031978590 1.7724804010
H 0.7645760527 3.2924945283 1.9940742279
H -0.9498951326 3.2298927016 -0.5548381449
H -0.8077232724 4.6016966348 0.5624958038
H 0.6008932364 4.1000880358 -0.3938166778
