82
CONF111
C -2.4598932335 2.8733473113 -1.9068071214
C -1.7320144835 2.6197909971 -0.6151796196
C -0.5818811670 3.2481383177 -0.3390590420
C -2.3724791679 1.6980345102 0.3954364375
C -3.5918797353 2.3516175140 1.0793376425
C -4.2105703715 1.1897843250 1.8508461911
C -4.0468117389 -0.0540080023 0.9384678231
C -2.9697914088 0.3603201751 -0.1228263461
C -2.0537785148 -0.8169411814 -0.5317306709
C -1.1045036263 -0.4388026358 -1.6714714649
C -0.0590844623 -1.5240729721 -1.8782684250
C 0.9193512452 -1.6325644295 -0.6866837243
C 2.2574878439 -0.8096492104 -0.9920515158
C 2.0498312798 0.5310036369 -1.7391020920
C 3.3695095178 1.2593458752 -2.0221768577
C 4.1763534168 1.5772017458 -0.7686898395
C 4.3501601797 0.3373895957 0.1510401992
C 3.0117029397 -0.4672403037 0.3229252095
C 2.0727419007 0.2710879065 1.3168511895
C 0.5678671964 0.0298099732 1.1546992858
C 0.2214945576 -1.3895602249 0.7067714710
C -1.3470102613 -1.6315480500 0.6225630374
C -2.0744586056 -1.2951924563 1.9485194382
C -3.5911899051 -1.2761241622 1.7589747972
C -1.5925245730 -3.1470653239 0.3742642778
C 0.8125414952 -2.3661554627 1.7475730045
C 5.4824771558 -0.5244187104 -0.4512297123
C 4.8827849512 0.7704781758 1.5315948252
O 3.5121505739 2.6966054293 -0.1404991148
C 3.0490777561 -1.7807995979 -1.8986649711
C -5.3632301836 -0.4285713366 0.2641411451
O -5.9281755371 0.7138812115 -0.3995754006
H -1.9815572087 3.6773216837 -2.4717656862
H -3.5055109827 3.1488163411 -1.7281240543
H -2.4771736916 1.9765298452 -2.5357989238
H -0.0512855692 3.0739140363 0.5939666836
H -0.1395275183 3.9539253162 -1.0375684368
H -1.6396571563 1.4976631793 1.1827446778
H -3.2971945164 3.1914399351 1.7173449771
H -4.2909767459 2.7220890503 0.3224490130
H -3.6456284361 1.0333247107 2.7782215721
H -5.2566918500 1.3589150867 2.1263850564
H -3.5186460432 0.6216896130 -1.0374754202
H -2.7598224237 -1.5350800565 -0.9737324989
H -1.6895201149 -0.2946147333 -2.5888982478
H -0.6139071862 0.5155523808 -1.4669818462
H 0.4943600278 -1.3460106163 -2.8043672543
H -0.5760616760 -2.4775296841 -2.0333188264
H 1.2612738152 -2.6746557684 -0.6550478949
H 1.4107867445 1.1977187236 -1.1514873513
H 1.5412166391 0.3689402691 -2.6947292971
H 3.9933385493 0.6772436529 -2.7066562385
H 3.1603278638 2.2050145351 -2.5360427102
H 5.1866189546 1.9054532818 -1.0663668793
H 3.3099075603 -1.4236733215 0.7740423506
H 2.3737873018 -0.0013072723 2.3341474454
H 2.2354655592 1.3467799825 1.2299064718
H 0.1599906785 0.7398224677 0.4349523226
H 0.0942335747 0.2593123095 2.1153460458
H -1.8094249895 -2.0315982302 2.7140674314
H -1.7661877916 -0.3193646596 2.3359768983
H -3.9123065748 -2.2024804698 1.2666216338
H -4.0976107716 -1.2549477289 2.7319063346
H -0.9231873744 -3.5629293236 -0.3818306260
H -2.6157004496 -3.3285527911 0.0343405871
H -1.4457324912 -3.7227304855 1.2928029207
H 1.8812763145 -2.1989644763 1.8852165288
H 0.6896329435 -3.4083147987 1.4438790424
H 0.3366566908 -2.2338526123 2.7250018611
H 5.5104320179 -1.5070503154 0.0309103794
H 6.4465452813 -0.0352816585 -0.2741769571
H 5.3930302008 -0.6788584110 -1.5256360125
H 4.1920812987 1.4010191272 2.0943375936
H 5.8248270177 1.3187466835 1.4108307867
H 5.0896181770 -0.1165630098 2.1416453739
H 4.0435129874 2.9720956577 0.6161754968
H 3.4873396548 -2.5869958319 -1.3004813716
H 3.8494230940 -1.3100184804 -2.4665987333
H 2.3747647310 -2.2389138941 -2.6298830484
H -5.1806863523 -1.2384879373 -0.4606322913
H -6.0626442996 -0.8059028521 1.0275841035
H -6.7400622831 0.4262291743 -0.8331922502
