70
CONF90
C -2.8311622331 0.5888986330 -0.7277351661
C -4.3032942968 0.2554645599 -0.3887735639
C -4.4396937653 -1.2143643199 -0.1562610533
C -5.4634287038 -2.1224859892 -0.2754973179
N -4.9957735768 -3.3872177698 0.0705962076
C -3.6626540465 -3.3099140951 0.4036870386
C -2.7088973978 -4.2506297827 0.8011211682
C -1.4215895810 -3.7733602474 1.0363411627
C -1.0690597158 -2.4122036001 0.8890449301
C -2.0202411685 -1.4738166412 0.5037897699
C -3.3062969057 -1.9532247080 0.2667970167
C -1.8393043983 0.0196535971 0.3311199946
C -0.3988022135 0.3885448483 -0.0137913082
C -0.2622647623 1.9048534084 -0.1941834852
C -1.2567457360 2.3670307147 -1.2508798383
N -2.6246854015 2.0478463585 -0.8173491379
C -3.6009401307 2.7630171438 -1.6684051616
C -3.6253975130 2.3450891051 -3.1145218292
C -3.2942459568 3.1444038030 -4.1268036907
C 1.1580268728 2.2763638002 -0.5874078626
O 1.4115562022 2.7964688784 -1.6725461533
N 2.1911944436 1.9153258549 0.2623697836
C 3.5694711752 2.0164245751 -0.2690884225
C 3.8898233945 1.0190179187 -1.3872803197
C 3.5509935244 -0.4354707207 -1.0806367772
N 4.1472207122 -0.9469087277 0.1639512345
C 5.6120551871 -0.9537859726 0.1169867387
C 3.6383383502 -2.2943489714 0.4413362120
C 1.9748950141 1.5960508114 1.6498794916
O 1.1325530934 2.1940727136 2.3206591254
N 2.7838574584 0.6345607713 2.1231613908
C 2.6855037382 0.1929185967 3.5101428372
C 1.5705287564 -0.8302468105 3.7181750379
H -2.5858982458 0.0923916303 -1.6898429621
H -4.5892000937 0.8272106632 0.5063410981
H -4.9656398921 0.5729846662 -1.1988379986
H -6.4932620258 -1.9912185079 -0.5781193752
H -5.5516823046 -4.2264189455 0.0567144676
H -2.9476516896 -5.3027437420 0.9194905081
H -0.6531124259 -4.4767640807 1.3432662793
H -0.0428656906 -2.1187170448 1.0872173403
H -2.0918009558 0.5072936253 1.2871905405
H 0.2688232119 0.0274421789 0.7743531755
H -0.1063012273 -0.1165578383 -0.9455917961
H -0.5054620516 2.3898237322 0.7548526531
H -1.1816319145 3.4508670161 -1.3884754927
H -1.0120679837 1.8985516544 -2.2210363075
H -4.5984259694 2.6426724168 -1.2314459029
H -3.3580492878 3.8304686357 -1.6071584358
H -3.9300033797 1.3195656818 -3.3248728443
H -2.9818421271 4.1721893306 -3.9512789498
H -3.3267942416 2.8045338143 -5.1580993580
H 4.2503571857 1.8850773758 0.5739178235
H 3.7116486243 3.0327436449 -0.6514532982
H 3.3392908314 1.2968565269 -2.2906155021
H 4.9532500487 1.1316073414 -1.6274039373
H 3.8504084104 -1.0611456419 -1.9425273887
H 2.4622926613 -0.5340511138 -0.9785350746
H 5.9975202291 0.0637363896 0.0107502458
H 5.9960260735 -1.5621597661 -0.7217663257
H 6.0013920051 -1.3683040801 1.0518526904
H 4.0474653932 -2.6562102777 1.3902824483
H 2.5458387138 -2.2640489413 0.5223743487
H 3.9083243881 -3.0128092188 -0.3527916917
H 3.3520324550 0.0691705090 1.4580916236
H 3.6536071193 -0.2398124676 3.7845887620
H 2.5188691168 1.0692224673 4.1444890826
H 1.7422414948 -1.7192998278 3.1030438568
H 0.6005924924 -0.4028961436 3.4455745029
H 1.5301691080 -1.1392797105 4.7674638030
