74
CONF26
C -0.3440545172 -1.0913817529 0.2043748464
C 0.7004413000 -2.1803188680 0.3998377972
O 0.0143887984 -3.1672796477 1.2457445946
C -1.0018968802 -2.5791315300 1.9309597294
O -1.6535194354 -3.1940033658 2.7421167707
C -1.0769147564 -1.1240088368 1.5362133746
C -2.4311153849 -0.4152832198 1.4545718911
C -3.4771442842 -1.1884399307 0.6582444519
C -3.6359249479 -0.9843497464 -0.7140866957
C -4.5769435675 -1.7325746406 -1.4176829174
O -4.8283129426 -1.6266329828 -2.7594684019
C -4.0601743238 -0.6705707707 -3.5003249586
C -5.3703115473 -2.6831024237 -0.7667525012
O -6.3016986660 -3.4185762698 -1.4435356033
C -5.2170599248 -2.8752557258 0.6114056650
O -6.0393603924 -3.8135725606 1.1626676586
C -5.8921844277 -4.0652028758 2.5654363696
C -4.2751605420 -2.1250025111 1.3179449030
C -2.1899335140 0.9706970753 0.8698891673
C -3.2051184586 1.9287699834 1.0736125495
C -3.0392021599 3.1705185142 0.5148216660
C -1.9177843506 3.4879287264 -0.2470290487
O -2.0323041793 4.7669289202 -0.7315142005
C -3.1551272137 5.3366547558 -0.0274005873
O -3.8986408376 4.2378605205 0.5424809851
C -0.9218895188 2.5738777117 -0.4732668226
C -1.0602330421 1.2906375954 0.1028159267
C 0.0937373958 0.3261599590 -0.1060001329
O 1.1753690647 0.7122004420 0.7920621241
C 2.3585234681 1.0747054201 0.1646119116
O 2.9897805659 -0.1186664093 -0.3296641719
C 4.2152824793 0.1917267140 -0.9894431868
C 4.8122192641 -1.0662179080 -1.5972260615
O 6.0942269928 -0.7287005142 -2.1464379725
C 6.9734637493 -0.2000856020 -1.1609440437
C 8.2915378979 0.1079671641 -1.8181849305
O 6.4525205626 1.0103494958 -0.6078400825
C 5.1996533052 0.7536523995 0.0325844449
C 4.6393783943 2.0360946430 0.6100783086
O 5.4320850951 2.5589843479 1.6779294703
C 3.2537201653 1.7615955846 1.1962510400
O 2.6151745398 2.9756991571 1.5768845753
H -1.0388128181 -1.4058283399 -0.5850020567
H 1.0016246941 -2.6931757191 -0.5143104018
H 1.5776275947 -1.8218959628 0.9431741225
H -0.4619832627 -0.5971950735 2.2847366154
H -2.8189366239 -0.2939748582 2.4724814404
H -3.0434415218 -0.2316242218 -1.2189981031
H -4.4093738459 -0.7442184207 -4.5304096900
H -4.2309493725 0.3441909372 -3.1225486403
H -2.9911298411 -0.9087363434 -3.4531219550
H -6.2671673003 -3.1491440942 -2.3734642025
H -4.8783680903 -4.4117007922 2.7987008210
H -6.1199862256 -3.1679972036 3.1530580440
H -6.6122295231 -4.8495799888 2.8005274534
H -4.1454693055 -2.2714427365 2.3819985981
H -4.0920276740 1.6799032213 1.6474685831
H -2.7858215229 5.9801379836 0.7824929784
H -3.7901912797 5.8762930397 -0.7326190015
H -0.0562004700 2.8232494675 -1.0777046582
H 0.4564974278 0.4016832327 -1.1381099312
H 2.1758569703 1.7553689885 -0.6874414948
H 4.0485308284 0.9379243744 -1.7841977892
H 4.2024395030 -1.4495628530 -2.4190199151
H 4.9137493210 -1.8439004693 -0.8234723594
H 7.0726108530 -0.9378422988 -0.3437151409
H 8.7180241277 -0.8064031072 -2.2363926912
H 8.9847734438 0.5181417468 -1.0805480063
H 8.1449797104 0.8366779771 -2.6202686992
H 5.3399996398 0.0127385847 0.8390035926
H 4.5443770651 2.7817017654 -0.1960014544
H 6.2606820919 2.8807468409 1.3010163672
H 3.3607848809 1.0834245750 2.0584030981
H 3.2300365928 3.4473898328 2.1550193757
