46
CONF2032
C 2.6805094119 0.1975878858 2.7449317547
C 2.2749294200 -0.8434542812 1.7100387028
O 2.9449275020 -2.0523743358 2.0651937934
C 2.8228953651 -3.0984089224 1.1003908007
C 1.4228814375 -3.6638704470 0.9679104149
O 0.6596268992 -2.8742098517 0.0504793551
C -0.7170250816 -3.2342146841 0.0828048728
C -1.4564441728 -2.5470731702 -1.0324154222
O -1.4449549693 -1.1299590674 -0.7915698754
C -2.2319650561 -0.3612977502 -1.6000798943
C -2.9934603127 -0.8458207964 -2.6597725699
C -3.8040145584 0.0183380575 -3.4026420838
C -3.8567127113 1.3653851741 -3.0842068126
C -3.0845001869 1.8677470925 -2.0320536391
C -2.2562105196 1.0224587348 -1.2990630446
O -1.4410287864 1.4193961555 -0.2800959197
C -1.4986706585 2.8034286076 0.1093787632
C -0.3950453454 3.0641031652 1.0992729898
O 0.8392647536 3.1282860008 0.3823579499
C 1.9697171721 3.4701241086 1.1915752058
C 2.7944833171 2.2610526194 1.5622177772
O 2.0535366472 1.4524095881 2.4799685143
H 3.7751066187 0.3049869382 2.7684433542
H 2.3460051794 -0.1241726144 3.7372965982
H 1.1833440177 -0.9719832493 1.7233159154
H 2.5684512842 -0.5299383432 0.6959638650
H 3.4890046211 -3.8927847548 1.4512365198
H 3.1772587557 -2.7552585533 0.1151413462
H 1.4782037650 -4.7015127516 0.6003515766
H 0.9390949063 -3.6782495445 1.9578024409
H -1.1587529798 -2.9665446078 1.0560525811
H -0.8355762549 -4.3207631545 -0.0591121220
H -0.9888955809 -2.7637964887 -2.0022817824
H -2.4894392624 -2.9192205733 -1.0406045571
H -2.9684541281 -1.8974033896 -2.9167997959
H -4.3919793863 -0.3796772200 -4.2231612859
H -4.4930295991 2.0418117848 -3.6454228933
H -3.1384481582 2.9228476062 -1.7950375873
H -1.3598670515 3.4514435864 -0.7650826064
H -2.4752325066 3.0170135584 0.5641443401
H -0.5968016593 4.0262738561 1.5948465375
H -0.3699471096 2.2764096951 1.8647956824
H 2.6001568262 4.1454068104 0.6002187798
H 1.6484412904 4.0057770697 2.0958981853
H 3.0419316816 1.6957008019 0.6519708575
H 3.7366868676 2.5940006598 2.0283457063
