42
CONF92
C 2.2827674415 2.1887262614 1.7776603214
C 2.0414439659 2.0331407349 0.2764795774
C 2.9948505839 2.9086351843 -0.5391923795
C 2.1978233135 0.5902487006 -0.1698747138
O 1.2276876235 -0.2092483613 0.5526505275
C 1.1273207310 -1.4987271855 0.1708580613
O 1.8033580949 -2.0075919465 -0.6956687144
C 0.1461020944 -2.2375911771 1.0155272535
C 0.4662202579 -3.5551032311 1.3442717438
C -0.3323151574 -4.2766194689 2.2225353055
C -1.4558239928 -3.6809468936 2.7883596190
C -1.7912602112 -2.3740795460 2.4550985271
C -1.0078690138 -1.6510757017 1.5566151039
C -1.5034683417 -0.2985068493 1.1658285116
O -1.9098804481 0.5327288701 1.9454558997
O -1.5252386973 -0.1624063505 -0.1753196966
C -2.0164429389 1.1115938038 -0.6663113776
C -1.9912566579 1.0689040983 -2.1855202474
C -2.9116099631 -0.0244768756 -2.7322761201
C -0.5654854762 0.9170759782 -2.7196115806
H 3.3027969213 1.8796754713 2.0356885131
H 1.5832376806 1.5815761303 2.3575091826
H 2.1610216657 3.2329549048 2.0812773853
H 1.0087204946 2.3375438989 0.0554968286
H 4.0373460008 2.6269868217 -0.3509793005
H 2.8089774670 2.8177918796 -1.6146545282
H 2.8806838008 3.9609412278 -0.2638018118
H 3.2015845242 0.2087425219 0.0584985303
H 2.0242693194 0.4722211704 -1.2441440207
H 1.3603333657 -3.9922335687 0.9130341455
H -0.0706990907 -5.2988511738 2.4748617344
H -2.0766766916 -4.2362989613 3.4836483957
H -2.6734126144 -1.9018424697 2.8742399776
H -1.3745525328 1.9074928247 -0.2702556931
H -3.0301066149 1.2664302457 -0.2798569793
H -2.3814456981 2.0456522665 -2.5065816483
H -2.9444272602 0.0103310070 -3.8253288481
H -3.9340713179 0.0912122121 -2.3578797582
H -2.5511888767 -1.0140548891 -2.4360738151
H 0.0843079655 1.7166938362 -2.3464894394
H -0.5544235968 0.9558725673 -3.8130063443
H -0.1391976805 -0.0435171738 -2.4127682389
