44
CONF187
C -3.2562415684 -3.3229894567 -1.6540186269
S -3.0111750848 -1.7407741877 -2.4826815691
O -4.1789077938 -0.8674414153 -2.2427596153
O -2.6194268198 -2.0218505039 -3.8795228051
C -1.5468563684 -1.0200412193 -1.6599922660
C -1.6194720039 -0.3930298622 -0.4078660831
C -0.4348378572 0.1834555642 0.0749765188
C 0.7716186783 0.0986246572 -0.6278299349
C 0.8003963821 -0.5823250313 -1.8447575622
C -0.3592945655 -1.1232169180 -2.3748149535
C 2.0267106222 0.7781834920 -0.1710645959
O 2.0407201187 1.9520806076 0.1365771378
C 3.2819262733 -0.1011855333 -0.1526671981
C 3.8155538219 -0.1441256950 1.2961178487
O 3.6336035674 -1.1396304825 1.9639941417
C 4.5664654227 1.0702101096 1.7524026551
C 5.6549675523 1.4501510579 0.7361389822
C 5.0712584557 1.6782330465 -0.6673254146
C 4.3294541655 0.4617285773 -1.1318211464
O 4.5206553669 -0.1065201364 -2.1870163124
Cl -0.4521654653 0.9636162967 1.6406808403
C -2.8799437266 -0.2974942934 0.4079446314
O -3.3558986348 1.0545223136 0.2834368760
C -4.2511509292 1.4564888490 1.2971344695
C -5.6785926059 1.0186081217 1.0085097005
F -6.5211272627 1.5210558304 1.9435048567
F -5.8233382872 -0.3311835160 1.0226765000
F -6.1083265476 1.4461989961 -0.1988736885
H -2.3552860182 -3.9218671605 -1.8035900389
H -3.4511923659 -3.1565146204 -0.5928582610
H -4.1203994814 -3.7844678092 -2.1406554030
H 1.7328611879 -0.6649344399 -2.3947538710
H -0.3433710598 -1.6200899789 -3.3369552465
H 3.0291843485 -1.1188176400 -0.4511229743
H 3.8492058898 1.8983223124 1.8311708755
H 4.9861420465 0.8722721107 2.7409383728
H 6.4141085479 0.6611523864 0.6960937612
H 6.1486966271 2.3660376559 1.0695832711
H 5.8480156700 1.9173658009 -1.3965980655
H 4.3559123510 2.5105846903 -0.6227667730
H -3.6378478328 -0.9992168378 0.0608320656
H -2.6537838446 -0.5215426293 1.4583662456
H -3.9696421620 1.0699264898 2.2865654233
H -4.2491776984 2.5504408876 1.3231445226
