39
CONF9
N 1.2771045434 -2.2468569868 0.7018757322
C 2.3066970109 -1.3564613080 0.7479056542
N 3.1490466469 -1.4497152541 1.7864620748
C 4.1880689155 -0.5969654554 1.8054697840
N 5.0160739580 -0.6655741213 2.8954593920
N 4.4662378544 0.3461524889 0.8872730400
C 3.6016011611 0.4074704276 -0.1384718030
C 2.4988697842 -0.4092269642 -0.2898594777
C 1.5694228972 -0.3106234904 -1.4654229222
C 0.1473863537 0.0848166793 -1.1030875976
C -0.9266742961 -0.5556641960 -1.7206965256
C -2.2368768534 -0.1779108537 -1.4049798079
O -3.3526407932 -0.7419028829 -1.9421292026
C -3.1648543767 -1.7842812927 -2.9078036556
C -0.0738476848 1.0936393407 -0.1656561849
C -1.3805988378 1.4717069177 0.1506581107
O -1.7068970780 2.4373982926 1.0517121897
C -0.6284314490 3.0970565767 1.7277311481
C -2.4691704502 0.8445460617 -0.4751885138
O -3.7538679195 1.2460061115 -0.1955225265
C -4.3396939598 0.5240751422 0.9071377338
H 1.0851116441 -2.7613115858 1.5483182182
H 0.4762479998 -2.0244894621 0.1295636382
H 5.9234319467 -0.2385963786 2.7937195458
H 4.9870354150 -1.5196746537 3.4298598016
H 3.8097338079 1.1634311043 -0.8969058511
H 1.5394083405 -1.2657129065 -2.0061047219
H 1.9781049151 0.4277858023 -2.1669101108
H -0.7324018920 -1.3423078060 -2.4403073120
H -2.6129201731 -1.4167392729 -3.7806404075
H -2.6370515375 -2.6385929483 -2.4681194511
H -4.1675486191 -2.0883799961 -3.2092390342
H 0.7752548646 1.5666950119 0.3127038549
H -1.0993999683 3.8141970317 2.4004913753
H 0.0164793962 3.6264020215 1.0167539025
H -0.0320675650 2.3827700646 2.3074506323
H -4.3922548096 -0.5471691584 0.6796313384
H -5.3474136732 0.9228389493 1.0389366509
H -3.7567071170 0.6811690499 1.8221921003
