35
CONF13
C -4.5456334438 -1.5839911170 2.2337699289
C -3.2746345919 -1.8007908231 1.4522809428
O -2.7839144106 -0.4736212668 1.0448934559
P -1.4673087005 -0.3321103631 0.1607575300
S -1.2777467717 -1.4855203223 -1.3879075944
O -1.3697010912 1.2411773165 -0.0451853401
C -1.8252614816 1.8993363638 -1.2797183438
C -3.3320949602 1.9767564095 -1.3413913289
O -0.3383069543 -0.5597987954 1.3398908078
C 0.9792464421 -0.7099650430 1.0570378246
N 1.7047619698 -1.6598936281 1.6868156569
C 2.9073766192 -1.4455813470 1.1663090649
N 2.8983445664 -0.4334784514 0.2797021294
N 1.6315517636 0.0634113115 0.2050396714
C 3.9794064611 0.1299447064 -0.5506518212
C 4.1950903712 1.5966622089 -0.1947883962
C 3.6583756224 -0.0833746018 -2.0259915408
Cl 4.3094498680 -2.3435980505 1.5711294417
H -5.3001808542 -1.0882485483 1.6169828135
H -4.3582779237 -0.9807763426 3.1260020693
H -4.9376372476 -2.5559773090 2.5474989597
H -3.4456395563 -2.3913377140 0.5472197181
H -2.4989709483 -2.2797592129 2.0586619208
H -1.3684518342 2.8888781988 -1.2236990710
H -1.4045417754 1.3556105238 -2.1309948964
H -3.7795055902 0.9812449516 -1.4197430708
H -3.6185796752 2.5499141378 -2.2288443329
H -3.7334522786 2.4807751921 -0.4578916190
H 4.8693043885 -0.4463757478 -0.2819885535
H 4.4071792798 1.7142105557 0.8714193561
H 5.0461970895 1.9773450471 -0.7653299335
H 3.3125623696 2.1894306663 -0.4510146482
H 4.4995376052 0.2723100941 -2.6267047590
H 2.7653344842 0.4800247830 -2.3110978105
H 3.4961203847 -1.1428340844 -2.2424682156
