21
CONF3
C 1.3954597685 -0.0798995846 0.6786407914
C 0.0347217924 0.1961235328 0.0101115860
C -0.0763697372 1.7181608288 -0.1251932627
O -1.2927488440 2.0420367924 -0.8036516694
C -0.0219509288 -0.4297009882 -1.3963926313
O 0.2512706560 -1.8396046376 -1.4090280620
C -1.1274916505 -0.2979056920 0.8920465947
O -1.1917701882 -1.7227022754 1.0257789474
O 1.6217241165 -1.4554182079 0.9963494066
H 1.4514470703 0.4618163124 1.6312226279
H 2.2033231467 0.2994606058 0.0307285384
H -0.0568280007 2.1732486301 0.8790152277
H 0.7946621626 2.0957801535 -0.6858306778
H -1.3563784003 3.0000644518 -0.8677740874
H -0.9985507922 -0.2239689123 -1.8526956613
H 0.7470524677 0.0306896491 -2.0288858735
H -0.4506148994 -2.2414696924 -0.8725166970
H -1.0527639995 0.1766620501 1.8849765209
H -2.0768275248 0.0099839930 0.4451489904
H -0.3440888908 -1.9858552303 1.4183779310
H 1.5467229719 -1.9275014828 0.1495714600
