46
CONF10
C -4.1415774737 0.6267038346 -0.0411043487
C -3.1834951204 0.1087189802 -1.0879046983
C -3.8063803182 -0.0622151000 -2.4551631046
C -2.1117345157 -0.8581230015 -0.6311058783
C -1.6838152946 -1.9909207676 -1.4589166103
C -1.6598123266 -3.2629196957 -1.0616592067
Cl -1.1231159629 -4.5562976757 -2.1031543601
Cl -2.1540973122 -3.7956951198 0.5211982183
C -1.7208118242 0.5495844050 -1.0694187816
C -1.2114814562 1.4945787295 -0.0583651901
O -1.3382440653 1.4064173178 1.1474029684
O -0.5619580264 2.5195364033 -0.6692387179
C 0.0457681945 3.5016290224 0.1964215152
C 1.3531873572 3.0296278336 0.7820214756
C 1.9358436760 1.8292402920 0.3920401650
C 3.1413153594 1.4339691972 0.9672509350
O 3.7593394304 0.2570663008 0.5756677164
C 2.9940487947 -0.8948278026 0.4973496281
C 1.9498368606 -1.1537154105 1.3844253338
C 1.2714447952 -2.3655017423 1.2930659665
C 1.6313436267 -3.3114951719 0.3348904401
C 2.6794465945 -3.0376443551 -0.5414188871
C 3.3638313532 -1.8272228283 -0.4678527127
C 3.7974442590 2.2298165616 1.8964284797
C 3.2163978682 3.4422643642 2.2645934662
C 1.9981281456 3.8380290390 1.7240591819
H -3.6771336779 0.6961289299 0.9435593469
H -5.0013368418 -0.0484871332 0.0261207003
H -4.5117326341 1.6183959617 -0.3248284552
H -3.0792950536 -0.3610068724 -3.2131082983
H -4.5937265241 -0.8229673892 -2.4116283885
H -4.2630134470 0.8806988061 -2.7734679586
H -2.0843143951 -1.0116125276 0.4439059172
H -1.3622264901 -1.7969049950 -2.4780742502
H -1.2618614499 0.6452958901 -2.0479700606
H 0.2063185196 4.3714324536 -0.4467133297
H -0.6525028335 3.7763355994 0.9931300661
H 1.4627482901 1.1909340144 -0.3461730044
H 1.6766109022 -0.4219837963 2.1371038791
H 0.4592632124 -2.5713882634 1.9832709929
H 1.0982228262 -4.2542382394 0.2718328869
H 2.9663549809 -3.7667723076 -1.2929008228
H 4.1808768628 -1.5988227696 -1.1444168040
H 4.7376719725 1.8979710924 2.3235378750
H 3.7143924287 4.0738132747 2.9935402964
H 1.5438311401 4.7755166747 2.0317661899
