68
CONF147
C 2.2910430373 -4.4741848449 -2.3487783627
C 2.0412066537 -3.6974377674 -1.0578494074
C 1.4533573064 -2.2713912968 -1.2505815862
C 0.1117603142 -2.3215667817 -1.9874568074
C 1.3266076258 -1.7092047758 0.1648434825
O 0.0540046060 -1.6176867208 0.5840375908
C -0.1927363367 -1.1246057775 1.9421393018
C -0.3386397499 -2.3417201099 2.8386922577
C -0.6201571088 -1.9355240680 4.2845033278
C -1.7072091647 -0.9042787782 4.3192648955
C -2.1003970257 -0.1723689457 3.2604649754
C -3.1748933659 0.8028149880 3.3768038745
C -3.4536352475 1.6968770970 2.4154533377
C -2.6416492791 1.8346927813 1.1597570661
C -1.2654136903 1.1535351523 1.3317091918
C -1.4638166315 -0.2817136342 1.8860746213
C -0.4048208371 1.2173289050 0.0672569091
C -0.2019605545 2.6334131319 -0.4739477713
C 0.8497099205 2.6860438390 -1.5672431521
C 1.1051727463 4.0739456532 -2.1164345011
C 2.0965760966 3.9814353237 -3.2646465459
C 1.4945875248 3.1263699781 -4.3657130072
C 0.7893969707 1.8727326998 -3.9048580021
O 0.3885948022 1.7682240609 -2.6248471243
O 0.5061926963 0.9719865162 -4.6703227500
O 2.3880559044 5.2550219782 -3.8506314689
C -3.4443145362 1.3423923541 -0.0580598697
C -0.9778867624 -3.1542446847 5.1417328450
O 2.2847324953 -1.3960515054 0.8490593324
C 2.4326588316 -1.3645393861 -2.0146489825
H 2.9899693895 -3.9508164976 -3.0078610716
H 2.7276615421 -5.4493508717 -2.1121113181
H 1.3661415345 -4.6528609208 -2.9043885141
H 1.3509446087 -4.2674160315 -0.4212769383
H 2.9812078727 -3.6011122797 -0.5024440512
H -0.5884760900 -3.0101424815 -1.5066736506
H -0.3487583620 -1.3303026447 -2.0265725102
H 0.2712670675 -2.6536030454 -3.0169799721
H 0.6641614964 -0.5184120257 2.2562843805
H 0.5720815701 -2.9483928023 2.7796210443
H -1.1737417292 -2.9509212728 2.4667227732
H 0.2954792808 -1.4890219213 4.7065080040
H -2.2072024958 -0.7445208388 5.2749274469
H -3.7653275885 0.7819457615 4.2909759944
H -4.2963665360 2.3750585683 2.5372606623
H -2.4646051884 2.9095172132 1.0118089555
H -0.7349763354 1.7169669707 2.1158499086
H -2.1702245125 -0.8115781748 1.2289588085
H -0.8299571010 0.5790728192 -0.7130313963
H 0.5874310323 0.8122832744 0.2966980158
H -1.1340890211 3.0562035855 -0.8664618597
H 0.1389887369 3.2955600769 0.3329244851
H 1.7891495306 2.2532479397 -1.1947294983
H 1.5080216165 4.6952249558 -1.3086297278
H 0.1682884755 4.5262788609 -2.4668269720
H 3.0262177987 3.5164815753 -2.9004783467
H 0.7256432565 3.7197824829 -4.8809617417
H 2.2335051876 2.8394904465 -5.1180191289
H 2.8622191033 5.7798404932 -3.1930983518
H -3.6219435633 0.2637239281 -0.0074044503
H -2.9288526596 1.5624901636 -0.9977289304
H -4.4198020764 1.8383115583 -0.0860095026
H -1.1439434331 -2.8639314226 6.1839919342
H -0.1718373097 -3.8945710166 5.1153230421
H -1.8927710902 -3.6272026797 4.7680385867
H 3.4188902634 -1.3628867267 -1.5434282758
H 2.5341060057 -1.7080505618 -3.0473908475
H 2.0553726930 -0.3366804532 -2.0405997352
