50
CONF8
C 5.1031426563 1.1150415999 1.5570175656
C 3.9798080045 0.6885868524 0.6588050943
O 3.5552467818 1.2944061631 -0.2889699438
O 3.4733091604 -0.5169803250 1.0844676773
C 2.3074489782 -0.9698241344 0.4658967846
C 2.3350429216 -2.1219624166 -0.3193591522
C 1.1833032472 -2.6084814367 -0.9358897777
C -0.0500173031 -1.9712558074 -0.7363684302
C -0.0545656387 -0.8824177585 0.1061755449
C 1.0917154623 -0.3318523848 0.6439034823
O 0.8538538956 0.8427422683 1.2923290462
C -0.5111568983 1.2517035616 0.9290862050
C -1.2339693976 -0.0482787858 0.5080142393
C -1.9816509335 -0.6856799725 1.6931008516
C -2.5473673618 -2.0513197896 1.3213289089
N -3.3306474499 -1.9725753014 0.0869579068
C -2.5547343902 -1.4437857302 -1.0473779976
C -1.3250501779 -2.3003214489 -1.4722884013
C -2.1759335978 0.0168661984 -0.7044372803
C -1.5215301543 0.7607337935 -1.8275975420
C -0.7109515173 1.7885376047 -1.5869128895
C -0.4788059560 2.3184825146 -0.2043341896
O 0.7764140670 3.0271419599 -0.2455182991
C 1.0576960240 3.8127787207 0.8217093860
O 0.3012495958 3.9738634736 1.7523401806
C 2.4066801692 4.4489889800 0.6590861817
C -3.9867366277 -3.2389848764 -0.2039725063
H 5.6693858056 1.9124979018 1.0773083339
H 5.7512833611 0.2710263199 1.8018461282
H 4.6765325513 1.4864070038 2.4947714906
H 3.2904669096 -2.6139456178 -0.4691294451
H 1.2536338963 -3.4743424065 -1.5874631852
H -0.9255479881 1.7005757626 1.8321459887
H -2.7993437699 -0.0163469208 1.9898002305
H -1.3005906200 -0.7877506102 2.5459441656
H -1.7250643490 -2.7900711420 1.2438055830
H -3.2100957935 -2.4024910909 2.1216711218
H -3.2450052117 -1.4170457323 -1.9016373234
H -1.1423785635 -2.1381361870 -2.5431867594
H -1.5746865197 -3.3636096525 -1.3753956577
H -3.1137899318 0.5168041200 -0.4187936858
H -1.7167563054 0.4458946978 -2.8504733027
H -0.2327877784 2.3390965370 -2.3915025883
H -1.2679470457 3.0455557088 0.0428864385
H 2.3654465947 5.1799199951 -0.1546623113
H 3.1404688233 3.6889595568 0.3781933148
H 2.6854518185 4.9498407411 1.5853146852
H -3.2944048325 -4.0979810969 -0.2950080839
H -4.5530683303 -3.1577489262 -1.1380855427
H -4.6929959575 -3.4732619865 0.6003215705
