36
CONF41
C 2.2018236512 -0.7257309641 -4.2149922761
C 0.7247482495 -1.0455465529 -4.1557504471
O 0.1304662630 -0.4717683578 -2.9435493781
C 0.2823206408 -1.1697528202 -1.8148785472
O 0.7722842238 -2.2754250204 -1.7295427422
C -0.2132490762 -0.3368490937 -0.6381679380
S -0.5231060594 -1.5213227311 0.7594099730
P -1.4456555349 -0.1874845456 2.1250060382
S -2.8081751882 0.9909763993 1.3945538042
O -1.8838990741 -1.2312865373 3.2714467915
C -3.0605574312 -2.0686888825 3.0983120913
O -0.3019760648 0.6476196066 2.8749349112
C 0.8007650902 -0.0146193958 3.5592987398
C 0.8081329878 0.7265377486 -0.3054100668
C 2.0966601862 0.3749273957 0.1056860951
C 3.0294896560 1.3630503217 0.3980425585
C 2.6834847326 2.7092644825 0.2822972454
C 1.4031397573 3.0618255020 -0.1351336171
C 0.4674425833 2.0735100052 -0.4315916991
H 2.6149070280 -1.1107175064 -5.1524083969
H 2.3642835829 0.3552661365 -4.1834678770
H 2.7391712944 -1.1924045633 -3.3850002329
H 0.1717549186 -0.5687321219 -4.9665980524
H -3.1665847863 -2.6197707046 4.0323425595
H -2.9123787054 -2.7620639932 2.2660119743
H -3.9396280258 -1.4436002268 2.9223977654
H 1.5025218097 0.7793403379 3.8138936987
H 1.2792715032 -0.7386163543 2.8940497500
H 0.4333437629 -0.5067288414 4.4624042089
H 2.3638737012 -0.6732486263 0.2074127877
H 4.0278179167 1.0831206929 0.7193523001
H 3.4110454653 3.4797692879 0.5170533387
H 1.1276825509 4.1077169232 -0.2270343426
H 0.5326436334 -2.1210149020 -4.1621350271
H -1.1656759352 0.1304474000 -0.9050192548
H -0.5330487077 2.3460607963 -0.7528425410
