53
CONF2
C 1.9977424626 0.8803892314 -0.5799243111
C 0.5040716018 1.1414810693 -0.4845016175
N -0.2363611590 -0.1271654965 -0.4526589052
C 0.2026740099 -0.8846308855 0.7287234818
C 1.6968793221 -1.1518666857 0.6505060237
N 2.4543184717 0.1051459637 0.5773145034
C 3.9025618592 -0.1405083953 0.5501273700
C 4.4920287408 -0.2634036508 1.9469829243
O 4.5477897905 1.0302976721 2.5409232825
C 4.0557129093 1.1513012825 3.8779835633
C 2.6564067081 1.7435355465 3.8767929055
O 1.7165415378 0.8986502104 3.2341896074
C -1.6852788085 0.1187560242 -0.4272147749
C -2.4716525693 -1.1742557324 -0.2732392326
C -2.2437376352 -2.2567775677 -1.1259617804
C -2.9872708639 -3.4231078395 -0.9972668548
C -3.9764645446 -3.5211631722 -0.0203266970
C -4.2099083308 -2.4470894543 0.8307930127
C -3.4573110693 -1.2817900957 0.7054744251
C -2.1502787602 0.8261787161 -1.6903132605
C -1.5864738574 0.5429598152 -2.9354320235
C -2.0652336759 1.1473298247 -4.0915236165
C -3.1244955251 2.0424762169 -3.9968482246
C -3.7031660653 2.3453500979 -2.7713880187
C -3.2061305636 1.7336107011 -1.6255374307
Cl -3.7352627672 2.8106025649 -5.4523124909
H 2.5315500020 1.8376425367 -0.5905664259
H 2.2155189868 0.3541910845 -1.5298336023
H 0.2985901116 1.7437667030 0.4232649879
H 0.1877879773 1.7269771213 -1.3531610662
H -0.3237597679 -1.8428729744 0.7581154001
H -0.0280334090 -0.3427874149 1.6657874476
H 1.9079092800 -1.7857838368 -0.2322871627
H 2.0048499533 -1.7027269735 1.5465542375
H 4.1453437169 -1.0451927535 -0.0384809815
H 4.3951548953 0.7063463594 0.0588268156
H 5.5116093403 -0.6744723432 1.8722513697
H 3.8966175618 -0.9521545779 2.5616542203
H 4.7429166146 1.8155050618 4.4200614147
H 4.0524721801 0.1737307631 4.3807333030
H 2.6919796382 2.7376549005 3.4008982032
H 2.3214965205 1.8802054604 4.9133723533
H 2.0000771477 0.7964612499 2.2956675971
H -1.9520642681 0.7659575365 0.4329289008
H -1.4706689734 -2.1832145587 -1.8839451082
H -2.7977714416 -4.2593154819 -1.6630548175
H -4.5592016077 -4.4314407356 0.0766371493
H -4.9741357929 -2.5156918333 1.5984630363
H -3.6340344559 -0.4482013229 1.3798723136
H -0.7505874587 -0.1466824765 -2.9941326182
H -1.6218514014 0.9297864745 -5.0564245476
H -4.5242520538 3.0503523955 -2.7146601616
H -3.6552139112 1.9656535845 -0.6636315282
