63
CONF32
C 2.6461043435 -0.4013766512 1.0985050543
C 2.6305419215 -1.0939496690 -0.2613218737
N 1.4414301764 -0.7055345066 -1.0271452082
C 1.4668297416 0.7402421216 -1.2785467824
C 1.4263167216 1.5230938361 0.0294961953
C 2.6066316594 1.1155866509 0.9110843145
N 2.6102886295 1.8272289334 2.1927843108
C 3.6278802598 2.6534639057 2.6583254707
C 4.8386750140 3.0386273167 2.1001464703
C 5.6488112518 3.9003446115 2.8463586615
C 5.2590214921 4.3585497960 4.1069225236
C 4.0403287014 3.9712040985 4.6712786220
C 3.2390556384 3.1175953252 3.9309844549
N 2.0036437012 2.5562176387 4.1930405957
C 1.5930015856 1.7527771724 3.1411855108
O 0.5453919620 1.1114902866 3.0713070498
C 1.3417658653 -1.4628626907 -2.2836184482
C -0.0812827583 -1.4714448289 -2.8416725414
C -1.0471541145 -2.2593701503 -1.9529546814
C -2.5234061405 -1.9075825578 -2.1947658608
C -3.4280203364 -2.8633509316 -1.4341652371
C -4.1606118379 -3.8393455765 -2.1126888837
C -4.9689277783 -4.7449552821 -1.4265963102
C -5.0251080801 -4.6526810392 -0.0480375409
C -4.3154634358 -3.7020085650 0.6674329611
C -3.5180839421 -2.8074104491 -0.0394722927
F -5.8121253680 -5.5285811187 0.6354708925
C -2.8739066839 -0.4641617737 -1.8648906676
C -3.9662246615 0.1302186857 -2.5059694149
C -4.3635181532 1.4308907177 -2.2115273043
C -3.6428817885 2.1319283014 -1.2591083732
C -2.5533589127 1.5899506446 -0.6022955351
C -2.1753987239 0.2850413662 -0.9143977977
F -4.0176080150 3.4069638172 -0.9639784579
H 3.5503372145 -0.6845607481 1.6489092554
H 1.7752778308 -0.7200588850 1.6807708186
H 2.6151933863 -2.1801468062 -0.1176743656
H 3.5617766301 -0.8479180355 -0.8137698654
H 2.3752951917 1.0212100275 -1.8517202238
H 0.6007765531 1.0172255031 -1.8879209641
H 0.4887865303 1.3169285966 0.5554678154
H 1.4713483119 2.5976596767 -0.1804872241
H 3.5283308038 1.4181831477 0.4000718959
H 5.1544894143 2.6903528436 1.1232211144
H 6.6007108983 4.2165201580 2.4323585418
H 5.9110795001 5.0264846013 4.6602075023
H 3.7309140124 4.3223687101 5.6499454785
H 1.4510890903 2.6866139431 5.0257525522
H 1.6441265917 -2.4978973923 -2.0775707844
H 2.0453373778 -1.0688507882 -3.0420334149
H -0.4384818972 -0.4426114540 -2.9654954779
H -0.0641812771 -1.9099133993 -3.8468933284
H -0.9177483138 -3.3334814743 -2.1327337574
H -0.7974964339 -2.0927774367 -0.8986309197
H -2.7323973052 -2.0512766346 -3.2627441746
H -4.1022121817 -3.8967704179 -3.1959859672
H -5.5428278471 -5.5033396821 -1.9483735958
H -4.3917941004 -3.6639554611 1.7488788113
H -2.9634218477 -2.0504635914 0.5076351620
H -4.5198155990 -0.4358237844 -3.2507004685
H -5.2081225061 1.8948709770 -2.7096263749
H -2.0095649470 2.1758873915 0.1314748169
H -1.3094396078 -0.1362215110 -0.4135018403
