41
CONF11
C -0.0246829514 0.4859842337 -2.4605792895
C 0.2400483290 -0.8877359143 -1.9165437516
C 0.5164939207 -1.9543322041 -2.7750085534
C 0.7851581737 -3.2232875034 -2.2730592577
C 0.7836151871 -3.4487234697 -0.9009898471
C 0.5112555778 -2.4101905060 -0.0077156515
C 0.2429921763 -1.1375399603 -0.5355481679
N -0.0400483018 -0.0595509550 0.3734674182
C -1.3725747088 0.0786066993 0.9915813082
C -2.4448189541 -0.7308425281 0.2634846407
C -1.7986245223 1.5450158580 0.9742766139
O -1.6566682182 2.3054249715 0.0402585069
O -2.4584724914 1.8484131137 2.1021653754
C -3.0097752537 3.1884989524 2.1626708741
C 0.9561892937 0.6930054704 0.9187766909
O 0.7292869734 1.5157374817 1.8076343754
C 2.3755717359 0.4464920099 0.3920656827
O 3.2550874010 1.4931653361 0.7349488840
C 3.0441637703 2.6536280804 -0.0759083074
C 0.4854222662 -2.6626103030 1.4736702777
H -0.9362055596 0.9185142245 -2.0392789651
H 0.7898065891 1.1753543598 -2.2045257822
H -0.1105128015 0.4540349893 -3.5486978958
H 0.5191935595 -1.7815222601 -3.8472641695
H 0.9980557584 -4.0407631598 -2.9551903423
H 0.9949866371 -4.4400947859 -0.5109464283
H -1.3177241435 -0.2404522503 2.0393974831
H -2.5350327707 -0.4190334956 -0.7802741309
H -2.2198267944 -1.7988956795 0.2969692772
H -3.4036894889 -0.5673727349 0.7623072730
H -3.7171740832 3.3421738828 1.3444480112
H -2.2053972849 3.9255267271 2.1031771392
H -3.5155168742 3.2490778408 3.1252509757
H 2.7554866461 -0.4674736249 0.8664631334
H 2.3636562254 0.2739678664 -0.6934252882
H 2.0233964536 3.0410198364 0.0389884526
H 3.2259920567 2.4224263981 -1.1352293145
H 3.7568498582 3.4095724171 0.2596446014
H -0.5428351560 -2.6672392960 1.8545133289
H 1.0284400150 -1.8938326426 2.0319913749
H 0.9284319289 -3.6341469835 1.7020335133
