47
CONF132
C -7.4983439639 -2.6195193010 1.0308981080
O -6.1815936883 -3.2524515120 1.0263923046
P -4.9549602509 -2.5580793934 0.2789499288
S -3.3387228581 -3.6208423131 0.3709462795
O -5.4655872437 -2.1371671862 -1.1845246653
C -5.5411579395 -3.1415670957 -2.2351088992
O -4.9371772977 -1.1003521799 0.9899838402
C -3.9202625881 -0.1769243935 0.7223730884
C -4.0271545581 0.6646690032 -0.3749960889
C -3.0240352441 1.6027023043 -0.6037197032
C -1.9445843931 1.7019958686 0.2753453811
C -1.8673139882 0.8608496617 1.3894459281
C -2.8518573011 -0.0928909269 1.6078406891
S -0.7280255281 2.9819149941 -0.0091380459
C 0.8200631597 2.1048765987 0.1746954056
C 0.9903702998 0.7948724471 -0.2815406339
C 2.2275580057 0.1748530399 -0.1630735353
C 3.2897637099 0.8804707600 0.3884211583
C 3.1429056978 2.1852849122 0.8367830768
C 1.8962124842 2.7950892843 0.7376591329
O 4.5175295879 0.2259973110 0.5503265328
P 5.7023841262 0.3831862522 -0.5448768657
S 5.2688831085 0.0139535103 -2.3959951423
O 6.7933055584 -0.6265540642 0.0356237968
C 7.2888189767 -0.4717256151 1.4010829078
O 6.1976667511 1.8711066332 -0.1971518341
C 7.2077529758 2.5060210415 -1.0303660859
H -7.4661981187 -1.6996440634 1.6189271186
H -8.1662101296 -3.3433759305 1.4965122151
H -7.8210864076 -2.4107560051 0.0079950522
H -5.9193998726 -2.6187483585 -3.1131459129
H -4.5468900266 -3.5499092429 -2.4326147430
H -6.2301492366 -3.9400817633 -1.9456266044
H -4.8733561909 0.5789409181 -1.0470079862
H -3.0828421036 2.2531069365 -1.4700807155
H -1.0365231706 0.9453897314 2.0820684658
H -2.8056595742 -0.7586806849 2.4625527992
H 0.1609105856 0.2553983355 -0.7259783417
H 2.3756777690 -0.8434643190 -0.5052039755
H 3.9844600317 2.7080150476 1.2767442828
H 1.7625329402 3.8066669799 1.1070714374
H 7.6949735585 0.5326747168 1.5433377089
H 6.4838824215 -0.6650680708 2.1136588808
H 8.0769669075 -1.2159593269 1.5095362100
H 7.3816504854 3.4850033340 -0.5845289945
H 8.1300830051 1.9181977570 -1.0214248300
H 6.8347384166 2.6125245468 -2.0520221456
