33
CONF68
C -1.9101088919 -3.5620022009 1.3553024331
C -1.3151269862 -2.1594017465 1.2289477438
C -2.3685184462 -1.1670170944 0.7623776056
S -1.7379056804 0.5781037506 0.6602465103
P -0.8048402475 0.4925956860 -1.2259356515
O -0.8785291058 -0.8289728563 -1.8828618364
O -1.3517805409 1.6872098077 -2.1225192750
C -1.3173479301 3.0738137466 -1.6577902334
C -0.2578905125 3.8404165912 -2.4149590041
O 0.7153071400 1.0628175782 -0.9394367322
C 1.5386591952 0.4020229007 -0.0545836422
C 1.9769619265 -0.8927064398 -0.3113675925
C 2.8312765961 -1.5341918895 0.5769935050
C 3.2450656652 -0.8593598319 1.7185057097
C 2.8322313314 0.4382738661 1.9912177626
C 1.9727540582 1.0637236436 1.0955504047
Cl 1.4365524279 2.6901630016 1.4151485606
Br 4.4169313061 -1.7289526225 2.9494546194
H -2.2992772296 -3.9102460551 0.3931167389
H -1.1516287232 -4.2760089560 1.6884475396
H -2.7309605334 -3.5834062398 2.0802630996
H -0.9005845020 -1.8312908797 2.1890714109
H -0.4920525719 -2.1671103730 0.5075049161
H -3.1994106343 -1.1012334875 1.4738050711
H -2.7701664321 -1.4390639141 -0.2168094963
H -2.3206572864 3.4644321226 -1.8484703962
H -1.1345881416 3.1035544304 -0.5773216618
H -0.2829304869 4.8915015732 -2.1095972838
H 0.7355479685 3.4398179925 -2.2012455360
H -0.4394877791 3.7868595244 -3.4914958194
H 1.6290324022 -1.3887502608 -1.2108906670
H 3.1705948464 -2.5434417778 0.3794634520
H 3.1628757926 0.9578506007 2.8812951196
