41
CONF38
C -0.9489386982 -2.7089939704 -1.2261703582
C 0.4779126326 -2.7769343836 -0.7362105064
O 0.5043630432 -2.2063624926 0.5976454058
C 1.7367785505 -2.1590986774 1.1646162386
O 2.7585124203 -2.5652810560 0.6405329685
N 1.6696784752 -1.6079954779 2.4116129038
C 2.8946298570 -1.2492207804 3.1088137140
C 3.6408163730 -0.0654692129 2.4980168179
O 2.8333064993 1.1182827647 2.5163558364
C 1.9718782618 1.3683029274 1.4797414121
C 0.9464017026 2.2750828026 1.7691488189
C 0.0192975430 2.6191565162 0.7974277365
C 0.1104068022 2.0507351356 -0.4683591055
C 1.1331113804 1.1657992723 -0.7705970573
C 2.0750014836 0.8257963402 0.1971958781
O -0.7979864227 2.4023425683 -1.4595599261
C -2.0459158721 1.8213124847 -1.4196403361
C -2.3972418604 0.8087817078 -0.5280290368
C -3.6820555680 0.2725759037 -0.5848613612
C -4.6086519619 0.7334552984 -1.5128118462
C -4.2409495482 1.7465492063 -2.3975058510
C -2.9661901902 2.2933215863 -2.3560674579
H -1.0120698089 -3.1529509190 -2.2240303634
H -1.2962711622 -1.6741935501 -1.2885848017
H -1.6173509372 -3.2628189934 -0.5608834259
H 1.1583556785 -2.2049233605 -1.3761463329
H 0.8489239092 -3.8059752485 -0.6850048888
H 0.8255381657 -1.1064129970 2.6387572320
H 3.5658848488 -2.1156803678 3.1141408038
H 2.6300365591 -1.0158657130 4.1449672050
H 4.5117235460 0.1680791463 3.1188297643
H 3.9969075254 -0.3046944140 1.4926119512
H 0.8954857834 2.7012207704 2.7653179450
H -0.7834938898 3.3157260223 1.0156491325
H 1.1914094315 0.7430588414 -1.7681301116
H 2.8565061317 0.1223848033 -0.0617515573
H -1.6781077663 0.4411624719 0.1949427412
H -3.9526360689 -0.5183305148 0.1079747534
H -5.6064961585 0.3102990170 -1.5481658432
H -4.9542451055 2.1165417828 -3.1272093956
H -2.6642645798 3.0812348649 -3.0374211759
