49
CONF36
C -4.7054867067 3.7094448223 -0.6133161323
C -4.4470186008 2.2919076427 -0.1837650519
C -3.8820072586 1.4133462690 -1.0285322020
C -3.5679896697 0.0026072679 -0.7501643302
C -2.3001906740 -0.6123648678 -1.3631647232
C -3.6973331810 -1.0952551754 -1.7706532260
C -4.1111492043 -0.7654772549 -3.1880352354
C -4.1925293074 -2.4432183458 -1.2989567983
C -1.4227936563 -1.4194131225 -0.5056829436
O -1.7265346522 -1.9692794629 0.5344801284
O -0.1693169806 -1.4837635769 -1.0537082307
C 0.8519471803 -2.1963105993 -0.3109731669
N 1.9199270940 -1.3060617021 0.0158290923
C 2.9926050440 -0.9946759930 -0.8372523661
O 3.1912484389 -1.5051136568 -1.9211577194
C 3.7937288973 0.0466115423 -0.1381316268
C 3.1956610142 0.3399400486 1.0290724832
C 1.9733400624 -0.4986366545 1.1647871142
O 1.1594618913 -0.5129786470 2.0656552603
C 3.6796614747 1.3469827349 2.0061871335
C 4.7512246321 2.2281732915 1.3451685418
C 5.7486836675 1.3918354446 0.5328545381
C 5.0575217686 0.6550215659 -0.6248541523
C -4.8740949172 1.9859989538 1.2225846527
H -4.3761922585 3.8906916443 -1.6396887783
H -5.7747478244 3.9465981582 -0.5424462590
H -4.1862861140 4.4138465755 0.0492279502
H -3.6206005370 1.7736409460 -2.0219062833
H -3.7348187780 -0.3399319579 0.2666221890
H -1.7855400076 -0.0204002924 -2.1125897498
H -3.8072724987 -1.5742285401 -3.8612245505
H -3.6658658455 0.1623080941 -3.5522559337
H -3.7876034487 -3.2434357675 -1.9292495964
H -3.9153694687 -2.6421731947 -0.2629859745
H -5.2849353061 -2.4726226213 -1.3787236173
H 0.4221704263 -2.6097303054 0.6030367230
H 1.2306825119 -2.9812164402 -0.9682344289
H 4.0879450901 0.8282286433 2.8852992598
H 2.8386219479 1.9466618625 2.3738593594
H 4.2587715693 2.9475936859 0.6786168847
H 5.2770464621 2.8051070187 2.1117074046
H 6.2212208735 0.6539952820 1.1937204942
H 6.5451515954 2.0301706122 0.1389849504
H 4.8300636823 1.3483428208 -1.4471123752
H 5.7063156544 -0.1185924442 -1.0519492412
H -4.6875804925 0.9547786831 1.5250967515
H -5.9461504927 2.1876885875 1.3415835975
H -5.2015674119 -0.6700206456 -3.2451935260
H -4.3550712135 2.6491081291 1.9261558195
