57
CONF1
C -2.4771953615 4.7662735006 0.3411389694
C -2.2060216548 3.3108153025 0.0766646016
C -1.5116472701 2.9074069522 -1.0641649669
C -1.2666847286 1.5603644289 -1.3356036125
C -1.7256479406 0.5924720593 -0.4243375144
C -2.4556434728 0.9715492513 0.7166503233
C -2.6745777851 2.3285940214 0.9516338677
C -2.9952245881 -0.0627558218 1.6645866337
C -1.4422381852 -0.8273913093 -0.6811684067
C -0.2856033932 -1.4999448530 -0.5910504818
C -0.4137058654 -2.9235701707 -1.0118275279
C -0.0797615534 -3.9736124798 0.0737049652
C 0.5924596636 -5.1540246618 -0.6721170537
C 0.3766174862 -4.8650162233 -2.1662638005
C 0.4200252258 -3.3366530342 -2.2306345912
O -1.8291935695 -3.0105752316 -1.3637233301
C -2.4311689499 -1.7967180606 -1.1813509583
O -3.6066928876 -1.6304072149 -1.4330370052
O 0.9471550870 -1.0332952555 -0.2380491750
C 1.1553990977 -0.6238068627 1.0829563703
O 0.3028531829 -0.7413783326 1.9235506694
C 2.5326611290 -0.0746507211 1.2683536571
C 2.6127478524 1.4800748246 1.1770775589
C 1.6602085202 2.1370695202 2.1816776138
C 2.2722224736 1.9471735340 -0.2404088662
C 4.0590673022 1.8652907974 1.5127999400
C -0.5501419223 1.1595622546 -2.5973019299
H -2.4549274317 4.9841693703 1.4126683365
H -3.4712663672 5.0456800386 -0.0281800719
H -1.7462064510 5.4035906716 -0.1631430210
H -1.1501896708 3.6587879776 -1.7621040413
H -3.2231892705 2.6264993057 1.8422236048
H -3.8159328235 -0.6212832139 1.1998053385
H -3.3771325511 0.4057457961 2.5745127263
H -2.2217698922 -0.7861454803 1.9365267295
H 0.5893026354 -3.5380039932 0.8210594067
H -1.0030827381 -4.2576275831 0.5839124444
H 1.6646143374 -5.1644387053 -0.4517487069
H 0.1810856789 -6.1193084946 -0.3669170320
H 1.1322320719 -5.3328924334 -2.8030431851
H -0.6075301667 -5.2215503047 -2.4901605858
H 0.0286533684 -2.8946253263 -3.1506285668
H 1.4461493568 -2.9819784793 -2.0761985403
H 2.8550840666 -0.3809357492 2.2683079178
H 3.2053464123 -0.5092989256 0.5240643289
H 1.8575416510 1.7871568816 3.2008190522
H 0.6129332980 1.9242191569 1.9420996271
H 1.7958467291 3.2235492146 2.1591073728
H 2.9188636941 1.4654772755 -0.9819886187
H 1.2312445839 1.7230576367 -0.4895711772
H 2.4072846536 3.0313904585 -0.3186979619
H 4.1780456178 2.9519733372 1.4493223668
H 4.3241971907 1.5493888024 2.5274692372
H 4.7611243401 1.4018840272 0.8112029545
H -1.1790453483 0.5039680527 -3.2104179088
H 0.3719237142 0.6078775910 -2.3865090119
H -0.2914683700 2.0408264786 -3.1884530646
