43
CONF1
C -4.5458229479 -0.0395708229 -2.3617334026
N -4.0453566429 0.0971937055 -0.9931296252
C -2.9762923611 -0.4799009278 -0.3960961150
C -2.9066305608 0.0093979688 0.9135514594
C -4.0090257012 0.8871098787 0.9791113868
N -4.6801786407 0.9437255183 -0.1659017239
Cl -4.5087493957 1.8800241110 2.2907417769
C -1.8481708175 -0.2642724672 1.8924145775
O -0.7092682101 -0.5724641153 1.6008460348
O -2.2847400302 -0.1099426492 3.1534458240
C -1.2805436788 -0.3053446639 4.1721010501
S -1.9796641296 -1.7615200196 -1.1513843110
O -1.7142846418 -2.7911675716 -0.1512536432
O -2.5825441751 -2.0849590478 -2.4380725221
N -0.4762370672 -1.0212373592 -1.4033566029
C -0.3969721271 0.2167163623 -2.0160145672
O -1.3062119062 0.7350782029 -2.6406354976
N 0.8338501824 0.8598271585 -1.8883196128
C 1.9456543241 0.5721063910 -1.1027803177
N 1.9499450117 -0.5555585710 -0.3941194470
C 3.0274904371 -0.7674145588 0.3714833343
C 4.0990527106 0.1161161106 0.4143046951
C 3.9751915189 1.2463794271 -0.3900970213
N 2.9067068450 1.4971655643 -1.1518136818
O 4.9926246352 2.1188210233 -0.3816914963
C 4.8683375899 3.2872219715 -1.2152346208
O 3.0887620342 -1.8697790563 1.1226717571
C 1.9602945094 -2.7737372475 1.0756809276
H -3.7278746027 0.1346570624 -3.0616403261
H -4.9535116289 -1.0400087684 -2.5175051433
H -5.3259083044 0.7123748314 -2.4740500204
H -0.9027453340 -1.3303998638 4.1373263684
H -0.4510669549 0.3912683586 4.0263551039
H -1.7886958014 -0.1122593905 5.1160523241
H 0.2533209846 -1.2250720997 -0.7019481473
H 0.8696723631 1.7491823418 -2.3655436066
H 4.9703376120 -0.0626699872 1.0279154098
H 5.7919982332 3.8437021493 -1.0568452487
H 4.7667453619 3.0039245285 -2.2662102944
H 4.0037378025 3.8860254375 -0.9168467239
H 1.8301914292 -3.1737797190 0.0657834846
H 2.2205670809 -3.5770481926 1.7643355609
H 1.0460158990 -2.2699106232 1.3999072444
