34
CONF80
C -1.4232038644 -1.2596545928 2.2158381537
C -1.2482456502 -0.5738556984 1.0222222851
C -0.0034629049 -0.0881917427 0.6087669803
C 1.0733568946 -0.3166391582 1.4691103056
C 0.9425043584 -1.0016326832 2.6735088294
C -0.3150674725 -1.4671263310 3.0269468162
Cl -0.5019223803 -2.3340802667 4.5423071430
Cl 2.6814384775 0.2885292138 1.0826112823
C 0.1253529933 0.6723148687 -0.6919758219
C -0.4573839604 2.0962569626 -0.5857369862
N 0.2708362562 2.9044388177 0.3803944673
C 1.3586609480 3.6730459226 0.1742892007
N 1.7834222542 4.1860442718 1.3228356152
C 0.8961745967 3.6766759471 2.2233113855
N -0.0389277642 2.8927189677 1.7006612664
C -0.5569904478 -0.0384947174 -1.8527826728
O 0.0700777603 -1.3527344395 -1.9559147908
C -0.6499611615 -2.3127025559 -2.5486948896
C 0.1651238503 -3.6139712832 -2.6523506103
F 1.2956370676 -3.3693896941 -3.3749566001
F 0.5408683371 -3.9981673680 -1.3984890154
F -1.8113444658 -2.6014406113 -1.8631934908
F -1.0580982105 -1.9615947845 -3.8157422605
H -2.4014521885 -1.6233162067 2.5070804604
H -2.1184547881 -0.4059489533 0.3957330927
H 1.7995095971 -1.1604673864 3.3161620086
H 1.1835066311 0.7689245593 -0.9509291802
H -1.5070430823 2.0675331266 -0.2801620301
H -0.3862406628 2.5984023521 -1.5551469899
H 1.7888589942 3.8271169072 -0.8070624777
H 0.9304681464 3.8917014138 3.2840281125
H -1.6335808401 -0.1516626001 -1.6974964756
H -0.3822523294 0.5017731345 -2.7876819995
H -0.4121646716 -4.4144055133 -3.1274907325
