44
CONF4
C -6.7907315499 -0.2006855468 -0.4769039105
N -5.5873401858 0.0853016775 0.3036498992
C -4.6887146061 -1.0728626209 0.3005438873
C -3.4494040990 -0.7807762013 1.1301347050
N -2.7737506767 0.4179089672 0.6129042280
C -3.6556261134 1.5870838795 0.5888129873
C -4.8861858578 1.2496944961 -0.2450851714
C -1.4067683854 0.5447457659 0.7085647246
C -0.7437970970 1.6289996455 1.3281094888
C 0.6150081396 1.7629366429 1.3412428951
C 1.4252560107 0.7770578398 0.7647483185
C 0.8353806465 -0.3630115179 0.1584701493
C -0.5655970311 -0.4158612406 0.1234837389
F -1.1963884563 -1.4043618445 -0.5524055063
N 1.6724190647 -1.3431281438 -0.3899099991
C 3.0066513999 -1.1730520637 -0.3647148658
C 3.6406839977 -0.0945777736 0.1991544789
C 2.8682081358 0.9466477037 0.8110368169
O 3.3964302671 1.9551116928 1.3542134051
C 5.1224284706 -0.0527163470 0.1626604937
O 5.6700656627 1.0221416216 0.7364524299
O 5.8085332972 -0.9246849460 -0.3463184998
C 1.1760191363 -2.5707696854 -1.0550054993
C 0.8039810516 -2.3293799050 -2.5007176748
F 1.9706884778 -2.0001569259 -3.2198586338
F -1.4909588897 2.5558058121 1.9665241790
H -7.4627674060 0.6634091794 -0.4490496045
H -6.5629427434 -0.4287025099 -1.5354647166
H -7.3133849126 -1.0609268017 -0.0456815926
H -5.2151566559 -1.9319750108 0.7325548642
H -4.3813153437 -1.3424277747 -0.7301336093
H -2.7727520503 -1.6355401270 1.1091280272
H -3.7422781662 -0.6023727391 2.1780831754
H -3.9676370326 1.8763019847 1.6039266755
H -3.1325574162 2.4279726125 0.1280134378
H -5.5652665130 2.1103334444 -0.2326228395
H -4.5767106443 1.0746572149 -1.2952534878
H 1.0792807852 2.6091926673 1.8338002845
H 3.5951854968 -1.9635807138 -0.8165490339
H 1.9867150239 -3.3012645285 -1.0113607649
H 0.3330555047 -2.9836690100 -0.5033140319
H 0.1018615271 -1.5013131337 -2.6266598556
H 0.3880522325 -3.2460514569 -2.9311383269
H 4.9050778266 1.5932446926 1.0854409214
