71
CONF296
C 6.7256993347 -2.2884496779 0.1119140636
C 6.9239267880 -1.1873369956 1.1127459576
C 5.8709866741 -0.7292113102 1.9198714954
C 6.0356756362 0.3396817436 2.8168671581
C 7.2912657559 0.9408808213 2.9088749617
C 8.3549615675 0.4867405098 2.1351873535
C 8.1687495969 -0.5654096309 1.2459854986
C 4.8852255329 0.8136989611 3.6597119431
N 4.5856935268 -1.3259552112 1.8228782991
C 4.2884023234 -2.6028477507 2.1681120626
O 5.1091434020 -3.4344451272 2.5548141779
C 2.7995646250 -2.9383831834 2.1029028517
N 2.0189558968 -1.9929323248 1.3161268710
C 2.1095191176 -2.2924571493 -0.1192297895
C 1.3610456559 -1.2426838390 -0.9223639325
N -0.0521676235 -1.2005678323 -0.5293294301
C -0.1361551737 -0.9045613599 0.9061062730
C 0.6084875940 -1.9530181789 1.7179148939
C -0.7686524766 -0.2006832443 -1.3314176035
C -2.2857687522 -0.2785081150 -1.1895591645
C -2.9790824394 0.7206268397 -2.1144274255
C -4.5127979347 0.6948242136 -1.9937435262
C -5.0367283328 1.0454840103 -0.6098162840
C -4.3989228345 1.9626499830 0.2302560573
C -4.9316244472 2.2957610457 1.4737919138
C -6.1148453431 1.6944167446 1.8636832677
C -6.7810147513 0.7778758983 1.0684829901
C -6.2283921637 0.4612034117 -0.1688252464
F -6.6399688906 2.0099065009 3.0781079191
C -5.1476825575 1.5825245166 -3.0529414001
C -5.0345649591 2.9751276997 -2.9903639253
C -5.5883879809 3.7880282000 -3.9740486128
C -6.2615633544 3.1824168386 -5.0222869559
C -6.4003144800 1.8105006610 -5.1253049334
C -5.8350208084 1.0166365717 -4.1286147882
F -6.8098129146 3.9704848903 -5.9860944848
H 6.6756835538 -3.2643925225 0.6056419194
H 5.7849030694 -2.1584757316 -0.4331689480
H 7.5487449194 -2.3032016666 -0.6059890979
H 7.4335575194 1.7656736630 3.6014954826
H 9.3287216007 0.9594263710 2.2202319911
H 8.9949658466 -0.9072177655 0.6288098141
H 4.4489205313 -0.0122417868 4.2321390838
H 4.0814008917 1.2339558245 3.0433689881
H 5.2134229706 1.5866970484 4.3577575341
H 3.7722878115 -0.7445782313 1.6365670584
H 2.7107786804 -3.9806147953 1.7504242139
H 2.4459036152 -2.9252146895 3.1424998454
H 3.1645218596 -2.2967233645 -0.4178531944
H 1.6906117138 -3.2935880831 -0.3360821729
H 1.4251281203 -1.4917402978 -1.9879886483
H 1.8508265588 -0.2581283119 -0.7758751844
H 0.2869031590 0.0964834536 1.1285320237
H -1.1846193550 -0.9024288263 1.2193225579
H 0.1219060271 -2.9373226351 1.5786100966
H 0.5506418485 -1.6940203396 2.7812345618
H -0.5048736010 -0.3737185933 -2.3831512549
H -0.4277624750 0.8254478135 -1.0819870111
H -2.6205921501 -1.2962366907 -1.4284756814
H -2.5851491183 -0.0780873970 -0.1553491474
H -2.6076836433 1.7353780152 -1.9219110209
H -2.7230665464 0.4960443491 -3.1575133982
H -4.8386894582 -0.3314366702 -2.2035874847
H -3.4654125966 2.4259503340 -0.0723109188
H -4.4374211733 3.0036424919 2.1305556676
H -7.7034973566 0.3231418306 1.4133599559
H -6.7373673179 -0.2561883406 -0.8071394252
H -4.5122824886 3.4399487447 -2.1595338421
H -5.5056627501 4.8687725566 -3.9314575251
H -6.9370661408 1.3764106289 -5.9620216371
H -5.9325191470 -0.0634352943 -4.1936652035
