33
CONF6
C -3.6182244110 -0.4008985310 2.8242853927
C -2.5391828824 0.2301130442 2.0320034232
N -1.3567172468 -0.2764455185 1.8617513543
N -0.6767302941 0.6312910517 1.0613951507
C -1.4448958721 1.7219943763 0.7036916525
O -1.1692200835 2.6832580919 0.0123953334
N -2.6608232060 1.4434300497 1.3629715707
C -3.7806219012 2.3106828738 1.2801793539
F -4.8530607621 1.6592040200 0.7323073824
F -4.1734991451 2.7044772982 2.5305481270
C 0.6375084507 0.3833707911 0.6177223263
C 1.7027323741 0.2674617993 1.5178891051
C 2.9893476495 0.0359743974 1.0502464432
C 3.2064893096 -0.0701112983 -0.3159604829
C 2.1631981349 0.0766421343 -1.2427147085
C 0.8796928607 0.3075527228 -0.7478960094
N 2.3770006091 0.0122400677 -2.6358091031
S 1.6927502806 -1.3065630053 -3.5125332190
O 2.2457383847 -1.1752179021 -4.8628456873
O 0.2481581082 -1.2818588101 -3.2697662386
C 2.3652828120 -2.7919757312 -2.7358387442
Cl 4.8357070873 -0.3760154272 -0.8792231704
Cl 1.4512566492 0.4548694604 3.2285818712
H -4.5003463045 -0.5843256238 2.2038240503
H -3.2493471457 -1.3484764290 3.2181143603
H -3.9189701328 0.2434408286 3.6559287773
H -3.5267355167 3.1859034336 0.6738414195
H 3.8146977837 -0.0558413074 1.7450961345
H 0.0590917775 0.4314943443 -1.4434558864
H 3.3545832121 0.1042162328 -2.9033156470
H 1.9089715307 -3.6433628455 -3.2468402749
H 2.0871041066 -2.7858267213 -1.6791599485
H 3.4490650843 -2.7906971741 -2.8666929062
