65
CONF799
C -2.1648140591 3.4622701573 -3.2581763517
C -1.7361442215 2.5934545161 -2.0782042323
C -2.6946465147 2.6990222131 -0.8696134195
C -4.1097802229 2.2164523973 -1.1933871656
C -2.0606858648 1.9490420801 0.2811504666
O -1.3299348878 2.4580254170 1.1116223487
O -2.3475672521 0.6336474163 0.2436248606
C -1.7272457975 -0.2210343617 1.2536538475
C -2.6027438811 -0.2664046230 2.4943720616
C -1.9352297664 -1.1166389975 3.5861275018
C -1.3586681453 -2.3742578543 3.0071052309
C -1.1877406529 -2.6086994183 1.6918388931
C -1.5818651804 -1.5988315376 0.6296041610
C -0.5866883916 -1.6442050271 -0.5498143659
C -0.6372766864 -3.0592725405 -1.1616346186
C -0.3824712168 -4.0898872418 -0.0953104451
C -0.6220607555 -3.8580120163 1.2065130198
C 0.2864278154 -3.2377098331 -2.3697015532
C 0.8332249227 -1.2116956187 -0.1161009434
C 1.2150297891 0.1563219376 -0.6856368508
C 2.5102301748 0.7009567409 -0.1122841515
C 3.7371125385 -0.1215701594 -0.4469644642
C 4.9822002702 0.6163508697 -0.0045919387
C 5.0656962892 1.9288618656 -0.7731250569
C 3.7765298293 2.7141084016 -0.8378910501
O 3.7467600989 3.8920709844 -1.1360840723
O 2.6082303411 2.0818170000 -0.6258582715
O 6.1147871597 -0.2162543568 -0.2749180779
C -0.8629353754 -0.3322117873 4.3636572266
H -3.1166457789 3.1294514885 -3.6818236697
H -2.2750851633 4.5085273742 -2.9526740121
H -1.4142013913 3.4198699029 -4.0530608259
H -1.6765620899 1.5418096419 -2.3874263005
H -0.7308079450 2.8899162525 -1.7545237799
H -2.7246334661 3.7477367918 -0.5520931507
H -4.0908187084 1.2198798814 -1.6439949139
H -4.7262183879 2.1738467182 -0.2904824966
H -4.5900222216 2.9029497476 -1.8951640755
H -0.7481901215 0.2018875572 1.4971861775
H -2.7831862285 0.7488027226 2.8629308268
H -3.5702054490 -0.7038094044 2.2186490110
H -2.7096999644 -1.4032889533 4.3116567229
H -1.0479320749 -3.1405853627 3.7174318031
H -2.5692800226 -1.8892315723 0.2370470120
H -0.9457577887 -0.9445263436 -1.3153556519
H -1.6669974687 -3.2021641021 -1.5287831700
H 0.0167202838 -5.0536027516 -0.4071084106
H -0.4007788280 -4.6230975826 1.9484440906
H 0.1126848504 -4.2115603539 -2.8387887978
H 0.0974224319 -2.4597215869 -3.1168372658
H 1.3429599489 -3.1921075279 -2.0878039666
H 0.8978500950 -1.1809014143 0.9800969797
H 1.5677466436 -1.9575029724 -0.4317894575
H 1.3031139693 0.0958209871 -1.7783943236
H 0.4241744299 0.8830592825 -0.4679565573
H 2.4172261375 0.8038511536 0.9775679459
H 3.7824608701 -0.3179620613 -1.5265693992
H 3.6666707529 -1.0812259872 0.0742157360
H 4.9173633926 0.8206231749 1.0757165281
H 5.3277008030 1.7021408439 -1.8163399784
H 5.8401006639 2.5947409041 -0.3817124263
H 6.9037507061 0.2396650037 0.0451216954
H -1.3094254751 0.5339323581 4.8629325761
H -0.0720581041 0.0229196590 3.6945483034
H -0.3971705145 -0.9658610717 5.1251644627
