56
CONF37
C -0.5525858918 -1.4952795954 -1.5235800112
C -1.4752316790 -1.2650286041 -0.3388533731
N -1.5264400453 0.1656240273 -0.0023432460
C -0.1609067559 0.6039529212 0.3224519414
C 0.7697627868 0.3737603367 -0.8570821120
N 0.8102620904 -1.0477911379 -1.2155313145
C 1.6853645032 -1.2912104847 -2.3804062829
C 3.1214115188 -0.9535891858 -2.1190641034
C 4.0639154915 -1.8881316700 -1.9351656692
C 5.4898939724 -1.6734780777 -1.6784426595
C 6.3203433699 -2.7937830794 -1.5161298274
C 7.6816958221 -2.6512776903 -1.2667970000
C 8.2449211353 -1.3814181236 -1.1742563565
C 7.4324193171 -0.2572426066 -1.3331674484
C 6.0737607390 -0.3987880383 -1.5816921978
C -2.4376576506 0.4031481419 1.1286355605
C -3.8579894905 -0.0449134695 0.8158308904
C -4.6175446220 -0.6639420253 1.8094164086
C -5.9416834857 -1.0269145954 1.5711575147
C -6.5204596487 -0.7794156890 0.3292368646
C -5.7651203022 -0.1684086624 -0.6711184521
C -4.4450271186 0.1986763626 -0.4291119124
C -2.4684949184 1.8715089349 1.5276962827
C -2.3943185080 2.2252739167 2.8750325412
C -2.4710151730 3.5613694548 3.2650358149
C -2.6159206777 4.5603412152 2.3065738706
C -2.6845602780 4.2141779078 0.9569905520
C -2.6158008758 2.8796752935 0.5706884461
H -0.5288536440 -2.5659134512 -1.7594443713
H -0.9603411868 -0.9632408657 -2.4069808243
H -2.4794898690 -1.6141542841 -0.5971931602
H -1.1210674124 -1.8611038241 0.5256465867
H 0.2273253829 0.0607881911 1.2070687413
H -0.1696663534 1.6711564263 0.5631568197
H 0.4336552036 0.9937656402 -1.7133778165
H 1.7747506422 0.7061926203 -0.5760809064
H 1.3278319616 -0.7117361957 -3.2565095645
H 1.6024856999 -2.3544764017 -2.6352834603
H 3.3849750551 0.1015810932 -2.0937690519
H 3.7601627285 -2.9349220878 -1.9768610578
H 5.8854381009 -3.7871491077 -1.5876487205
H 8.3027163078 -3.5334811856 -1.1448018305
H 9.3064491411 -1.2651377975 -0.9800380188
H 7.8636609503 0.7367507027 -1.2619976481
H 5.4621809451 0.4897888289 -1.7006399980
H -2.1027844993 -0.1678466826 2.0167165260
H -4.1676895956 -0.8629683361 2.7788039277
H -6.5183402523 -1.5086135696 2.3550473954
H -7.5505264386 -1.0645007023 0.1390568970
H -6.2059815522 0.0210797761 -1.6453171119
H -3.8581380186 0.6627337180 -1.2152609819
H -2.2737162139 1.4475810176 3.6247176844
H -2.4109866658 3.8202697433 4.3178496752
H -2.6715187928 5.6021190538 2.6067106637
H -2.7921472191 4.9881478970 0.2028734350
H -2.6633773321 2.6163938049 -0.4810907518
