40
CONF76
C 3.6777357864 2.3793763236 -2.9373008601
C 2.4441310578 2.0308693238 -3.7372287101
O 1.7397701606 0.8736738281 -3.1781797460
P 0.8230772915 0.9843612806 -1.8776170049
S -0.1977293717 2.6170797691 -1.6302670006
O 1.8111592273 0.5385395112 -0.7072073793
C 1.6980930447 1.0013104254 0.6809049419
C 2.7072911871 2.0915240295 0.9476172123
O -0.0334904800 -0.3758637960 -2.2495614044
C -0.9909477503 -0.9242942558 -1.4459838317
N -1.1411853628 -0.4759592463 -0.2134952370
C -2.1185274672 -1.0546297910 0.5120686412
N -2.9084519731 -2.0426648004 0.0911098246
C -2.7220519940 -2.4979683499 -1.1670432795
C -3.6094133823 -3.6132953870 -1.6180036351
C -1.7559290777 -1.9482553719 -1.9963099670
C -2.3179720326 -0.5449536124 1.9186259766
C -2.5143126195 0.9745023268 1.9393998492
C -1.1373863306 -0.9645550274 2.8054505196
H 4.3358748987 1.5117040894 -2.8376945548
H 3.4176572728 2.7449774412 -1.9403439991
H 4.2234839462 3.1717969034 -3.4594029445
H 1.7417183155 2.8685401531 -3.7936991744
H 2.6984707458 1.7100673540 -4.7493500368
H 1.8923018448 0.1099481781 1.2820542743
H 0.6741810499 1.3353889058 0.8622267627
H 2.6660002539 2.3600566938 2.0082592428
H 2.4822089281 2.9836680994 0.3568033914
H 3.7210270483 1.7530948501 0.7152172607
H -3.4083735544 -3.8930512001 -2.6534180132
H -4.6585066349 -3.3168450442 -1.5200504471
H -3.4599314327 -4.4869071299 -0.9748523023
H -1.5988414298 -2.2860230092 -3.0131498737
H -1.6159620453 1.4863343206 1.5815451756
H -3.3549297565 1.2748928596 1.3058806696
H -2.7168681356 1.3075635728 2.9620093436
H -0.2118391972 -0.4995622429 2.4534000139
H -1.3139026023 -0.6423260262 3.8363741137
H -3.2255856359 -1.0283935817 2.2940215114
H -1.0034408612 -2.0508687690 2.8008112911
