56
CONF3
O 5.1599557940 1.5659471560 -2.7828874317
C 4.4340589168 2.5074383387 -2.0025164553
C 3.8998547951 1.8602292050 -0.7293101883
N 3.1313588745 0.6519607559 -1.0503587125
C 1.7979538724 0.9728909176 -1.5718366516
C 1.0497644141 -0.2983643962 -1.9392733645
N 0.9234152201 -1.1556332509 -0.7646590843
C 0.0725142349 -2.3168288881 -1.0021273270
C -0.4319224719 -2.9397567197 0.3048303596
C -0.8902519114 -1.8647960442 1.2951774016
N -1.8368144212 -0.9321302717 0.6797985590
C -3.0794379405 -1.4128976834 0.2340691309
C -3.6907625658 -2.5229151770 0.8291142595
C -4.9139148654 -2.9960549393 0.3656179096
C -5.5709018706 -2.3549016752 -0.6773317169
C -4.9877899977 -1.2362574181 -1.2646584808
C -3.7445834422 -0.7874674450 -0.8326403177
S -2.9364693221 0.5309770611 -1.7109349219
C -2.0446796486 1.2603029148 -0.3621881865
C -1.7573170200 2.6226523770 -0.3921889254
C -0.9442422508 3.1922334570 0.5770554104
C -0.4688600617 2.3880819612 1.6100040470
C -0.7959595966 1.0397155240 1.6783630060
C -1.5612905091 0.4403555675 0.6706560505
C 0.4123081925 3.0112137269 2.6502856343
F -0.2044104190 4.0370647977 3.2881234797
F 0.8086433683 2.1323464138 3.5982253361
F 1.5421174135 3.5304147453 2.0967093185
C 2.2486824000 -1.4976081316 -0.2593476297
C 3.0060215162 -0.2297963104 0.1106460334
H 4.6709190831 0.7340534508 -2.6836830261
H 3.6141250783 2.9531210061 -2.5895729104
H 5.1198801005 3.3192113280 -1.7360274289
H 4.7550911602 1.5580325369 -0.1127628023
H 3.3043376489 2.5896453644 -0.1468483813
H 1.9003202693 1.5981178792 -2.4653199866
H 1.2037778742 1.5379494526 -0.8261238165
H 0.0450245771 -0.0349836769 -2.2908106108
H 1.5800821627 -0.8093500590 -2.7688486544
H -0.7946591589 -1.9693124865 -1.5763153443
H 0.5735411330 -3.0933380466 -1.6133561051
H -1.2447239653 -3.6343849954 0.0661831872
H 0.3481598807 -3.5332327782 0.7966385696
H -0.0140385634 -1.2842134544 1.5800720097
H -1.2943043381 -2.3174357860 2.2111938186
H -3.2093740768 -3.0245492963 1.6598628760
H -5.3576243540 -3.8662611849 0.8376909190
H -6.5294400214 -2.7159398358 -1.0327558920
H -5.4837924393 -0.7195893214 -2.0801816908
H -2.1527563350 3.2293521551 -1.2003621236
H -0.6899538631 4.2452576891 0.5346233019
H -0.4444419120 0.4535659213 2.5166060099
H 2.8352732774 -2.0716487002 -1.0060069706
H 2.1509831539 -2.1237299686 0.6357054350
H 2.4759495458 0.2756170669 0.9443199516
H 4.0106026488 -0.4943703099 0.4610211334
