65
CONF638
C -2.3309812952 4.9928537958 0.9419057787
C -2.1433202411 4.5688793857 -0.5127745409
C -2.1777914591 3.0462016323 -0.7030826032
C -2.0196768889 2.6568272177 -2.1799004056
C -1.0567997577 2.4052347149 0.0857688554
O 0.1161627089 2.7100183451 -0.0239517091
O -1.5042734653 1.4319935208 0.9054549232
C -0.5010144657 0.7147950405 1.6918761889
C -0.2485348999 1.4553651970 2.9940382877
C 0.8620559804 0.7579827912 3.7939178461
C 0.6869787599 -0.7310873101 3.7659800911
C -0.1538973359 -1.3953271118 2.9496798575
C -1.0448375104 -0.6813920194 1.9475941585
C -1.2111442081 -1.5333027533 0.6698473616
C -1.8633674675 -2.8726812494 1.0712008736
C -1.0558054691 -3.5367024132 2.1528530009
C -0.2654626159 -2.8448639443 2.9907309734
C -2.1224836367 -3.8081679041 -0.1125229535
C 0.1273090554 -1.6961870401 -0.0875584347
C 0.1571082317 -0.8599051160 -1.3684451066
C 1.5337829015 -0.7760004317 -2.0004510230
C 2.0838792673 -2.0980948598 -2.4946874598
C 3.3688190449 -1.8554091168 -3.2684029932
C 3.0544257946 -0.9938023262 -4.4768127223
C 2.1542516888 0.1874967290 -4.2055181313
O 2.0451770381 1.1100693234 -4.9890538297
O 1.3933159446 0.2033877268 -3.0955898470
O 3.9495935683 -3.0651244083 -3.7678065715
C 2.2668913819 1.1525663439 3.3025175356
H -3.2811853026 4.6200288428 1.3395874044
H -1.5256422833 4.6038145146 1.5755647607
H -2.3290737055 6.0827622351 1.0364680255
H -2.9362013464 5.0003755392 -1.1349665943
H -1.1898669919 4.9486107160 -0.8989855161
H -3.1287784489 2.6561622327 -0.3243753210
H -2.8238177183 3.1096648338 -2.7672610140
H -1.0607304174 3.0136607140 -2.5682782745
H -2.0650720000 1.5714802674 -2.3134015734
H 0.4187987556 0.6680756171 1.1013778838
H 0.0312002215 2.4931017614 2.7849886921
H -1.1802625954 1.4660181149 3.5729120518
H 0.7846495979 1.0869266183 4.8399758801
H 1.3021564500 -1.3063318009 4.4582234190
H -2.0436752575 -0.5731319183 2.3992648214
H -1.9193419413 -1.0118492934 0.0133914444
H -2.8498614245 -2.6215249761 1.4947732376
H -1.1241827816 -4.6192953495 2.2450950793
H 0.3185997096 -3.3651123637 3.7476620250
H -2.6962245489 -3.2952390333 -0.8915183845
H -1.1922261984 -4.1750682375 -0.5569286888
H -2.6967301298 -4.6806783954 0.2154983717
H 0.9638477482 -1.4033118577 0.5613931991
H 0.3005265457 -2.7476311885 -0.3328559399
H -0.5498618226 -1.2709055072 -2.1009069970
H -0.1686408571 0.1627660975 -1.1502131391
H 2.2388556514 -0.3212403495 -1.2907172913
H 1.3500624363 -2.6019362182 -3.1379460932
H 2.2782200345 -2.7378550563 -1.6270301048
H 4.0897387621 -1.3347861811 -2.6184703682
H 2.5201618413 -1.6113187708 -5.2129555690
H 3.9574199768 -0.6210002669 -4.9667076714
H 4.2454674205 -3.5844460902 -3.0093392950
H 2.3988891282 0.8956468726 2.2462129676
H 3.0390683053 0.6281112795 3.8742902450
H 2.4233516476 2.2298318377 3.4193707410
