44
CONF27
C -5.0383636906 0.4427667883 1.7634490496
N -3.6940768489 0.1031187490 1.2803118722
C -3.1485276297 1.1529950207 0.3893999690
C -3.9035786242 0.9764107209 -0.9581491591
C -4.2869138778 -0.5263792227 -0.9711105915
C -3.7148000533 -1.0652334368 0.3698473237
C -2.2688615571 -1.5564343130 0.2162239908
C -1.4208859842 -0.4670945060 -0.4231888762
C -1.6441394309 0.8919149471 0.2320851122
O -0.0200335835 -0.8708770807 -0.2654808398
C 0.8710028174 -0.3570005401 -1.1287049173
O 0.5866143987 0.3502554845 -2.0744578738
C 2.2873131726 -0.7281030225 -0.7167664597
C 3.2003977606 -0.8421474182 -1.9293738867
O 2.7266539800 -1.9392588756 -2.7192949267
C 2.7877585612 0.3172512676 0.2650766907
C 3.1739297184 -0.0574051218 1.5539418995
C 3.6405102323 0.8949228679 2.4569556505
C 3.7239518261 2.2335528311 2.0810406133
C 3.3373598944 2.6148028687 0.7976729085
C 2.8703771050 1.6634324267 -0.1052534031
H -5.4210437853 -0.3838405880 2.3710810087
H -4.9772948583 1.3327862882 2.3984711451
H -5.7705503047 0.6453701371 0.9637494339
H -3.3053872852 2.1408752210 0.8339898631
H -4.7944298342 1.6096046522 -0.9852796513
H -3.2776316064 1.2611732696 -1.8092636856
H -3.8707748518 -1.0619117610 -1.8297664399
H -5.3720417902 -0.6549408036 -1.0037383154
H -4.3287198110 -1.8635971974 0.7985963824
H -2.2353349717 -2.4631966275 -0.3978028973
H -1.8692940814 -1.7962341668 1.2079476861
H -1.6227836939 -0.4078582870 -1.4963890221
H -1.1745563096 0.8941930388 1.2226223339
H -1.1818332427 1.6802351715 -0.3714643865
H 3.1803817427 0.0935308609 -2.5034154235
H 4.2270112613 -1.0208367807 -1.5803332330
H 3.1082970189 -1.1004419741 1.8504645521
H 3.9380099061 0.5896056575 3.4554410152
H 4.0866056935 2.9762863041 2.7846696825
H 3.3965875742 3.6566638604 0.4980672865
H 2.5612566014 1.9711344471 -1.0997267846
H 2.2538153906 -1.6957699626 -0.2069693031
H 3.2663234165 -1.9839794546 -3.5178727458
