39
CONF19
C 2.2647236033 0.9833354120 -1.9299770740
C 1.9766740680 1.4065060548 -0.4916190834
C 2.0586417443 0.2694772496 0.5418499028
C 3.4342090847 -0.3976769927 0.6024262149
C 3.5767523991 -1.3697232601 1.7719664118
N 1.0658183862 -0.7910270995 0.2513038523
C -0.2628588642 -0.6138711175 0.0373502465
C -1.0018275094 -1.3174682601 -0.9637432329
C -2.3553459232 -1.0537319766 -1.1953709284
C -3.0640309334 -0.1191542561 -0.4710426375
C -2.3979135190 0.5809533029 0.5645398824
C -1.0512437610 0.3082440640 0.7772406996
N -0.4335210096 0.9473343678 1.9517058018
O -0.3366019352 2.1690691649 1.9601541729
O -0.0831764770 0.2139718264 2.8694604629
C -3.1725038026 1.5435347595 1.4133072631
C -4.5180525073 0.1219848696 -0.7597735618
N -0.3850765347 -2.2896511856 -1.8266987557
O -0.9925633216 -2.6676852276 -2.8314391151
O 0.7433431554 -2.7310418307 -1.5352687699
H 1.5894550362 0.1833039647 -2.2534235340
H 2.1219244864 1.8297322284 -2.6080174536
H 3.2920840759 0.6282538772 -2.0522862016
H 0.9786857290 1.8587975511 -0.4371913760
H 2.6831045447 2.1831387897 -0.1745712669
H 1.8794999282 0.6930478231 1.5349330380
H 4.1780780080 0.4024208470 0.6876560396
H 3.6373369860 -0.9146698035 -0.3440084982
H 3.3961119709 -0.8602678734 2.7247027180
H 4.5839419397 -1.7956946142 1.8005248188
H 2.8652741542 -2.1976149786 1.6920494623
H 1.4388874153 -1.5427895915 -0.3182144468
H -2.8525187501 -1.6158734822 -1.9761291148
H -2.7132032223 1.7364257530 2.3820533191
H -4.1820757186 1.1634297949 1.5810156744
H -3.2689675368 2.5031161692 0.8908908572
H -5.1527098824 -0.2198067317 0.0658652244
H -4.8175832915 -0.4156037003 -1.6614167851
H -4.7227724168 1.1872738894 -0.9065426213
