82
CONF86
C -2.4699285601 2.8677696540 -1.8967639680
C -1.7521671272 2.6097414687 -0.6003519908
C -0.6072106130 3.2410598612 -0.3104919634
C -2.3973758854 1.6806471192 0.4005968014
C -3.6258704188 2.3239696970 1.0771380220
C -4.2404560310 1.1570118622 1.8439687617
C -4.0636821123 -0.0826525165 0.9303621523
C -2.9842778093 0.3408138575 -0.1247307044
C -2.0618040345 -0.8304496081 -0.5382863478
C -1.1119020396 -0.4406288831 -1.6733933801
C -0.0607210386 -1.5192516558 -1.8841238696
C 0.9150035775 -1.6301586902 -0.6907745086
C 2.2508320788 -0.8006328802 -0.9883256495
C 2.0400660045 0.5433278923 -1.7289597643
C 3.3574185934 1.2796667812 -2.0023468356
C 4.1578514684 1.5930676744 -0.7438261948
C 4.3351051284 0.3479181076 0.1677424799
C 2.9993502770 -0.4623622231 0.3307810947
C 2.0549043278 0.2690486880 1.3244267012
C 0.5516513733 0.0220609301 1.1574396335
C 0.2131247269 -1.3969270498 0.7022197800
C -1.3538515600 -1.6465190099 0.6140314542
C -2.0859882560 -1.3201108759 1.9399333475
C -3.6017319352 -1.3055806954 1.7454026782
C -1.5912388313 -3.1617208543 0.3571163326
C 0.8067322786 -2.3757844287 1.7392933024
C 5.4725019338 -0.5054330228 -0.4368668362
C 4.8614621295 0.7744317022 1.5526308660
O 3.4842470145 2.7036068286 -0.1090802033
C 3.0482070922 -1.7648714560 -1.8973353934
C -5.3837627370 -0.4664943049 0.2525090933
O -6.0831037456 0.6214151793 -0.3682364769
H -3.5201413109 3.1318083493 -1.7271276926
H -2.4714078666 1.9771675953 -2.5349244752
H -1.9938900537 3.6813891363 -2.4496512234
H -0.0838776658 3.0629725819 0.6258543165
H -0.1622581875 3.9528083349 -1.0011460241
H -1.6710214776 1.4788864325 1.1934707577
H -3.3432550963 3.1673463735 1.7156362256
H -4.3228360501 2.6913609583 0.3151714734
H -3.6808000986 1.0044268983 2.7750805508
H -5.2899736984 1.3188698358 2.1105905621
H -3.5133244541 0.6057951090 -1.0537497005
H -2.7639773838 -1.5492531132 -0.9849146560
H -1.6953494134 -0.2936199909 -2.5913830980
H -0.6265299532 0.5147986285 -1.4613912635
H 0.4942212860 -1.3322644441 -2.8075129018
H -0.5721258125 -2.4743887895 -2.0472397757
H 1.2609471152 -2.6710031085 -0.6635646323
H 1.3952615900 1.2037029758 -1.1403884724
H 1.5360593634 0.3843802116 -2.6875716987
H 3.9864551347 0.7045763362 -2.6879351884
H 3.1461171276 2.2274787925 -2.5113346729
H 5.1671739030 1.9299810924 -1.0346146864
H 3.2988329658 -1.4199370548 0.7787841717
H 2.3545929890 -0.0052665728 2.3415974012
H 2.2138711207 1.3456953725 1.2412256533
H 0.1422763152 0.7339315464 0.4401484793
H 0.0748805629 0.2453850725 2.1180085599
H -1.8201192237 -2.0600039291 2.7018435039
H -1.7820362920 -0.3454870318 2.3337530207
H -3.9179263155 -2.2310311217 1.2477668676
H -4.1123826412 -1.2907340117 2.7162276283
H -1.4388516115 -3.7416985860 1.2719489870
H -0.9213581328 -3.5692874333 -0.4030338123
H -2.6140717755 -3.3472424816 0.0184365660
H 0.3263910500 -2.2530035999 2.7157664611
H 1.8737560186 -2.2020669223 1.8820376484
H 0.6921083886 -3.4169136703 1.4287807092
H 6.4337761341 -0.0121145565 -0.2563655637
H 5.3854359373 -0.6559989484 -1.5120010728
H 5.5048373636 -1.4900004580 0.0410688743
H 5.8022950867 1.3262134614 1.4386900123
H 5.0687178677 -0.1154829317 2.1583262053
H 4.1667916179 1.3998545410 2.1162483649
H 4.0155668027 2.9805508749 0.6470878618
H 3.4888791196 -2.5715247699 -1.3015311110
H 3.8474346028 -1.2891107756 -2.4625887059
H 2.3770706854 -2.2231897986 -2.6312992239
H -5.1968635702 -1.2688849356 -0.4798893594
H -6.0735208556 -0.8579652144 1.0101443463
H -5.5392383031 0.9521148813 -1.0942337976
