52
CONF1133
C 3.7489504838 2.0650977155 2.2193569246
C 3.1893293024 2.0633913867 0.7970494525
C 1.6633971729 1.9237824972 0.7403433504
C 1.1068148907 0.6561185796 1.3992762678
C 1.6524115322 -0.6711071606 0.8506734460
C 0.9838950923 -1.8877239122 1.5111880301
C 1.1904301701 -1.9723706069 3.0226562958
C 1.5431075072 -0.7613207573 -0.6614327866
O 0.1343057577 -0.5722038735 -1.0370318136
P -0.5795840203 -1.4331850446 -2.1586798795
O -0.0147060413 -2.7692157412 -2.4504187644
O -2.1180062480 -1.3763152109 -1.6761854820
C -2.4303610990 -1.7710801915 -0.3628799499
C -2.7274992793 -0.7800415356 0.5618468203
C -3.0494754080 -1.1562227625 1.8630408694
C -3.0689491837 -2.5032615195 2.2214542620
C -2.7764578222 -3.4802886091 1.2723644754
C -2.4567915567 -3.1195457476 -0.0352449721
O -0.6507748440 -0.5431687279 -3.4959870716
C -1.0095497493 0.8163536191 -3.4420273308
C -0.0196768511 1.7638699998 -3.2208258937
C -0.3745458416 3.1105682352 -3.2136501458
C -1.6978591598 3.4904998401 -3.4295504112
C -2.6722117812 2.5206866981 -3.6571660882
C -2.3330335022 1.1695686119 -3.6641608786
H 4.8269995078 2.2547596751 2.2170421446
H 3.2702654551 2.8432785099 2.8251405224
H 3.5836041498 1.1051134054 2.7196957951
H 3.6624566582 1.2586067179 0.2199459811
H 3.4696840370 2.9988554983 0.2971990037
H 1.3347883869 1.9741927251 -0.3060819595
H 1.2136556077 2.7917670627 1.2406217060
H 1.3108172397 0.6940157057 2.4744540414
H 0.0135883988 0.6514026527 1.2983101871
H 2.7322697149 -0.7256134418 1.0588495073
H 1.3813847793 -2.7967994044 1.0408419425
H -0.0905468579 -1.8660708819 1.2901544425
H 0.8020864609 -2.9193603721 3.4107716644
H 2.2550380352 -1.9147428421 3.2780379773
H 0.6735605737 -1.1651917000 3.5501604648
H 1.8787252774 -1.7389646342 -1.0205470618
H 2.1100413408 0.0242087943 -1.1682132082
H -2.6915806810 0.2623441747 0.2633417033
H -3.2788224247 -0.3919808017 2.5987681042
H -3.3146597686 -2.7906975775 3.2385031403
H -2.7963865706 -4.5303794025 1.5458493982
H -2.2260790527 -3.8661789152 -0.7873960106
H 1.0056940150 1.4486021327 -3.0587300365
H 0.3887353906 3.8624666636 -3.0401775273
H -1.9688221818 4.5411753521 -3.4239013098
H -3.7030979713 2.8125479244 -3.8303734912
H -3.0765580418 0.3997569688 -3.8393793499
