50
CONF8
C 3.0617034816 0.1349299217 2.6613342968
Si 2.4063157924 0.2065927438 0.9224856318
O 1.0871307066 1.1861630911 0.9164112371
Si 0.1764422503 2.3166647695 0.1470890196
O -0.7883511396 1.5806800988 -0.9662050644
Si -2.2581929435 0.8270803570 -0.9982654540
O -2.3751023761 -0.2001342050 0.2825841094
Si -1.6903117015 -1.6152959353 0.7806078253
O -0.5243060545 -2.0561117247 -0.2936478380
Si 1.0781451056 -2.1046266495 -0.6505080299
O 1.9463377796 -1.3158711440 0.5047524104
C 1.3237064291 -1.2887525626 -2.3105457438
C 1.6306170537 -3.8816251845 -0.6412371879
C -0.9776757830 -1.3470447947 2.4798415391
C -3.0001806238 -2.9386561409 0.7529870780
C -2.3801535883 -0.1023933364 -2.6080306017
C -3.6185058900 2.0882252402 -0.8166393235
C -0.8533599127 3.1466143493 1.4609208621
C 1.2621289543 3.5177361126 -0.7762710552
C 3.6852485561 0.8290294198 -0.2877467019
H 3.9229529397 -0.5373188733 2.7304897481
H 2.2913010695 -0.2347785404 3.3459871179
H 3.3738270438 1.1256730889 3.0072543088
H 0.7801206835 -1.8270785443 -3.0944025271
H 2.3824928404 -1.2704174708 -2.5899289886
H 0.9502932900 -0.2582795346 -2.2948003134
H 2.6879786068 -3.9702010759 -0.9111116437
H 1.5014409734 -4.3171644780 0.3553000992
H 1.0464496847 -4.4787580818 -1.3487628649
H -1.7732971779 -1.1294630250 3.2005000307
H -0.4315074566 -2.2289789460 2.8305744624
H -0.2877126769 -0.4976728009 2.4688110513
H -3.8509121923 -2.6670591452 1.3861795717
H -2.6039354780 -3.8962067402 1.1066909152
H -3.3711691337 -3.0851045362 -0.2670937742
H -3.3659261129 -0.5679542337 -2.7127779475
H -2.2289966364 0.5663449086 -3.4618003177
H -1.6252717469 -0.8926880077 -2.6564852950
H -4.6012032090 1.6134211700 -0.9062145565
H -3.5728136917 2.5769078996 0.1615699044
H -3.5445573856 2.8614087204 -1.5884307861
H -1.4889974957 3.9338758460 1.0430024793
H -1.4980939081 2.4128814473 1.9578339679
H -0.2125375672 3.5984758432 2.2253901000
H 2.0004784675 3.9813424190 -0.1138784965
H 0.6569085424 4.3160165436 -1.2186433815
H 1.8001492328 3.0201025751 -1.5893729028
H 4.5524511575 0.1601845127 -0.3060129568
H 3.2812807659 0.8794827546 -1.3039152265
H 4.0371704591 1.8298020641 -0.0158687556
