45
CONF599
O -0.8174978048 -0.6850361395 -2.8257047056
C -1.9943022677 -1.4526719458 -2.5991100439
C -2.5758592593 -1.2672585856 -1.2139148105
O -1.6529471377 -1.8397060254 -0.2328731327
C -1.4893854373 -0.9721191956 0.8647082975
C -1.4821943512 -1.8055012789 2.1418694266
O -1.1992215761 -1.0032510173 3.2923907777
O -0.2940397225 -0.1817380527 0.7614927319
C 0.9193461160 -0.8499618510 0.4359469733
O 1.3494070501 -0.4904131485 -0.8680815733
C 1.6266465090 0.9224231266 -1.0355457033
C 2.0198645108 1.1456121685 -2.4877297306
O 3.2411914634 0.5014788050 -2.8573822117
C 2.7109476147 1.3546041976 -0.0499547190
O 2.9153923800 2.7559353392 -0.2382198559
C 2.2813406456 1.0299835917 1.3698027116
O 3.3578461485 1.3972385091 2.2363039959
C 1.9765820124 -0.4618529740 1.4726343305
O 1.5966673789 -0.8349986730 2.7895596764
C -2.6455547006 0.0396289345 0.7597003105
O -2.4492496294 1.2477109249 1.4702620859
C -2.7979498048 0.1700963806 -0.7576813723
O -4.0795643190 0.6079316662 -1.1852867625
H -0.1702065953 -0.8901847163 -2.1282649211
H -2.7392134695 -1.1244186355 -3.3323932804
H -1.8078887414 -2.5250190353 -2.7605901317
H -3.5273412334 -1.8146749448 -1.1506964586
H -0.7008591698 -2.5707694698 2.0907952854
H -2.4544526691 -2.3069874900 2.2316749400
H -1.8093310642 -0.2507798900 3.2972593180
H 0.7748858896 -1.9342282952 0.4081841063
H 0.7100672044 1.5004368657 -0.8418474865
H 2.0688560505 2.2263002092 -2.6674076454
H 1.2392852037 0.7286510672 -3.1300985436
H 3.9747149357 1.0484970858 -2.5512497125
H 3.6376960793 0.7971503631 -0.2644296325
H 3.5384495230 3.0445913873 0.4421236363
H 1.3783478311 1.6107342760 1.6178870322
H 3.0903420844 1.1654331072 3.1359986783
H 2.8910764610 -1.0226844078 1.2426081917
H 0.6653914492 -0.5768578362 2.9374297649
H -3.5559137232 -0.4191214196 1.1642830692
H -1.5873550442 1.6019344202 1.2042070427
H -2.0045096134 0.8228236268 -1.1498467412
H -4.1295061857 1.5610390547 -1.0388130070
