44
CONF26
C -4.4829266071 -0.8850260164 1.6705892915
N -4.4537452125 -0.1478226432 0.4140305272
C -3.7582141834 1.1514401183 0.4278435718
C -3.9293566772 1.5912097667 -1.0403807861
C -3.9769452325 0.2504173567 -1.8290536210
C -3.8320438267 -0.8279676920 -0.7358163655
C -2.3493493477 -1.1728659216 -0.4739709007
C -1.5622106292 0.1013779924 -0.1892606417
C -2.2689110367 1.0075123438 0.8082566622
O -0.2543170712 -0.2308487624 0.3969982322
C 0.7367693018 -0.5556141693 -0.4471143014
O 0.6233119616 -0.6122171301 -1.6558024262
C 2.0354326873 -0.7882813170 0.3089852311
C 2.8476946582 -1.9092013587 -0.3485453993
O 2.1332972531 -3.1468231250 -0.3620334856
C 2.8199739964 0.5100159927 0.3639141172
C 3.1535360833 1.0757491634 1.5969759848
C 3.8900892762 2.2562860594 1.6582131261
C 4.3011165137 2.8856304809 0.4856077830
C 3.9709101840 2.3279539000 -0.7480749554
C 3.2344737704 1.1481405135 -0.8100087533
H -3.4960665470 -1.1632749298 2.0750134799
H -4.9932780463 -0.2793672784 2.4279677684
H -5.0577038035 -1.8074404707 1.5309035414
H -4.2476204659 1.8336816187 1.1322031982
H -4.8663814993 2.1413062817 -1.1579523334
H -3.1146740527 2.2448477765 -1.3653760010
H -3.1860566667 0.1744568537 -2.5808904819
H -4.9360158513 0.1376150979 -2.3408379281
H -4.3813241918 -1.7461240675 -0.9735767750
H -1.9268888326 -1.6911897606 -1.3408508502
H -2.2705712259 -1.8480713632 0.3861472748
H -1.3649527438 0.6388738979 -1.1212325715
H -2.1815700539 0.5839202312 1.8152044599
H -1.7896384787 1.9927768998 0.8233759711
H 3.0499949553 -1.6593892091 -1.3934761635
H 3.8054879784 -2.0059095255 0.1802083163
H 2.8339879517 0.5872018880 2.5132451174
H 4.1418505357 2.6843206675 2.6237360473
H 4.8748173300 3.8060129663 0.5322265260
H 4.2860948247 2.8135960220 -1.6665988773
H 2.9739715812 0.7263136014 -1.7759333186
H 1.7863893392 -1.0842331604 1.3330981741
H 2.0638624667 -3.4586478388 0.5493451873
