47
CONF67
C -3.8021459028 0.1441989338 1.6376800722
C -2.6222648845 -0.5658911497 1.0131178672
C -2.8315561796 -1.8415832038 0.2324652157
C -2.5608776682 -0.5345010685 -0.5159275746
C -1.2763215307 -0.3835210315 -1.2134274998
O -0.2698383023 -1.0395669842 -1.0494343624
O -1.3522668746 0.6533180279 -2.1058904405
C -0.1022020999 0.9666297366 -2.7867406581
C -0.4910974755 1.5729971067 -4.0580195950
N -0.7711731934 2.0628298521 -5.0650846264
C 0.7502677311 1.8879117873 -1.9471772446
C 1.8511438318 1.3564302961 -1.2798064702
C 2.6034714088 2.1629397564 -0.4326268859
C 2.2461260572 3.5040971970 -0.2927170875
C 1.1639488544 4.0471869512 -0.9616716511
C 0.4040412686 3.2306139487 -1.7904431906
F 2.9872459926 4.2851393482 0.5186634859
O 3.7190207276 1.7295257164 0.2335498104
C 3.7293135028 0.4251859898 0.7221928637
C 4.9081862141 -0.2935744845 0.5710589993
C 4.9881929650 -1.5767632192 1.1068534124
C 3.8993716576 -2.1314925698 1.7756108826
C 2.7261550857 -1.3920782450 1.9183444279
C 2.6338240189 -0.1049515287 1.3976859234
C -4.1464553302 -2.4692113065 0.0853303828
C -4.3763616304 -3.7826850842 0.0884763874
Cl -3.1361117234 -4.9921476795 0.2736477189
Cl -5.9797739604 -4.4466447945 -0.0936681523
C -1.3486960429 -0.4501133948 1.8187632571
H -4.0557009983 -0.3278797025 2.5932400509
H -4.6883196280 0.1345795541 1.0001356184
H -3.5390714373 1.1885307200 1.8345059576
H -1.9801054817 -2.5150741209 0.2470595415
H -3.4051100377 -0.0551242343 -0.9995662891
H 0.4364722520 0.0362794903 -2.9983036803
H 2.1169107960 0.3121585185 -1.4003764604
H 0.9246653555 5.0956606194 -0.8215850163
H -0.4541132264 3.6424397630 -2.3118292328
H 5.7436908091 0.1527811142 0.0423613959
H 5.9058381338 -2.1450899819 0.9929277565
H 3.9642746056 -3.1336439607 2.1860194115
H 1.8760596121 -1.8132105242 2.4460690643
H 1.7262609343 0.4783941664 1.5126558921
H -5.0141736995 -1.8291078212 -0.0417091376
H -0.5272067330 -1.0169121436 1.3780165460
H -1.5278118873 -0.8292198247 2.8304442086
H -1.0457255797 0.6001595915 1.8987592178
