34
CONF91
C -1.5831019034 -2.3927946827 -0.2958581309
C -2.7225357698 -1.4385709710 -0.5696228296
O -2.4619870660 -0.1023813152 -0.0095679701
P -1.4464614362 0.9183107259 -0.6933885057
S -1.4150428788 1.0293721023 -2.6257826559
O -1.6693047020 2.2376392452 0.1628840234
C -2.6224976669 3.2816867683 -0.2516655954
C -4.0552194857 2.8368322381 -0.0804452083
O 0.0676308377 0.4630721503 -0.1850457017
N 0.1530316095 0.2536137147 1.1990522229
C 1.3081859876 -0.2242746212 1.5370677624
C 1.3699076445 -0.4758121219 2.9507999206
N 1.4570920955 -0.6768463389 4.0864840112
C 2.4963760360 -0.5594163340 0.7346986833
C 3.2769021896 -1.6558472090 1.1314457210
C 4.4025914952 -2.0119548067 0.4010757292
C 4.7765916522 -1.2628878607 -0.7121862905
C 4.0201693268 -0.1559779243 -1.0928708467
C 2.8805641124 0.1975550675 -0.3823488280
H -1.8751257266 -3.3911645010 -0.6363171896
H -0.6752907325 -2.1021631726 -0.8328725529
H -1.3644007925 -2.4419853245 0.7746030731
H -2.9198216082 -1.3271259527 -1.6403869389
H -3.6394697644 -1.7498360280 -0.0661973503
H -2.3957750533 3.5529595614 -1.2873782266
H -2.3761435411 4.1201872925 0.4016444070
H -4.2452095924 2.5173431180 0.9478149752
H -4.3048973274 2.0179540142 -0.7615831387
H -4.7116415266 3.6823331023 -0.3093721130
H 2.9927262787 -2.2387905052 2.0022176494
H 4.9910161813 -2.8707994611 0.7061445551
H 5.6613255600 -1.5362706269 -1.2780882553
H 4.3197602827 0.4390025542 -1.9493448197
H 2.3100550508 1.0670388118 -0.6796980058
