47
CONF3
C -1.6372399525 -0.3243953346 2.9800641224
C -2.6793915268 -0.2490502167 1.8669338675
C -3.3937445569 1.1020798047 1.8355910654
C -4.4453570530 1.2084246377 0.7482414241
O -3.8275149511 1.0746746853 -0.5742467712
C -3.3600421951 2.1871920715 -1.1425941464
O -3.4876991166 3.3133374813 -0.7051751964
C -2.6783920550 1.9047174198 -2.4829660044
C -3.7063102011 1.9600271197 -3.6027146437
O -2.0774472890 0.6072069313 -2.5324449743
C -1.0877311908 0.3258835869 -1.6274555951
C -0.6964003073 -1.0153409881 -1.5649116650
C 0.2808560512 -1.4139809088 -0.6653429644
C 0.8643472297 -0.4657762684 0.1658016199
C 0.4945642180 0.8654152355 0.1090433689
C -0.4874538188 1.2717378251 -0.7937786409
O 1.7787116887 -0.8732054147 1.1483701089
C 3.0796836148 -1.0426855701 0.7933478842
C 3.9407568263 -1.4914058342 1.8051049044
C 5.2670530463 -1.6694891933 1.4802189711
C 5.6871587984 -1.4006178429 0.1708143303
C 4.7521978345 -0.9575733819 -0.7524801301
N 3.4594364642 -0.7792158934 -0.4478222895
C 7.1244765681 -1.5669133562 -0.1936962089
F 7.6213579985 -2.7570928770 0.2351887874
F 7.9099381418 -0.6070478723 0.3719196080
F 7.3350410849 -1.5049277197 -1.5276066288
H -2.1000903030 -0.1812910077 3.9629977936
H -1.1291479948 -1.2940205935 2.9825476403
H -0.8745271643 0.4517084406 2.8506428952
H -2.1942678704 -0.4242418856 0.8999363883
H -3.4243854915 -1.0449715922 1.9977721013
H -3.9021809369 1.2761251065 2.7934289604
H -2.6625763651 1.9124663128 1.7154499548
H -4.9855365882 2.1568840162 0.7895139477
H -5.1533101641 0.3772199136 0.7939917203
H -1.9217392850 2.6850622309 -2.6310005235
H -3.2068209465 1.8054710606 -4.5621760144
H -4.1893226130 2.9401362513 -3.6113789027
H -4.4659585171 1.1862852282 -3.4622439437
H -1.1785760311 -1.7371055849 -2.2158003623
H 0.5849984422 -2.4535289947 -0.6006580433
H 0.9644012569 1.5865769996 0.7695272608
H -0.7657207482 2.3182449885 -0.8222655872
H 3.5607093805 -1.6873125416 2.8006216566
H 5.9725967637 -2.0160595877 2.2284544514
H 5.0405988454 -0.7368269872 -1.7767663059
