40
CONF23
C 6.0339907002 -1.7271973303 2.3424826967
O 5.0845467990 -0.6594098441 2.1379596825
C 3.8252200214 -0.9931082121 1.8274004269
C 3.3720515019 -2.3009748559 1.6878788560
C 2.0215318866 -2.4355848024 1.3636966808
N 1.2071942277 -1.3914718124 1.1965751913
C 1.7670556854 -0.1856148481 1.3551229332
N 3.0312346698 0.0775206560 1.6618617588
N 0.9671104937 0.9412872336 1.1809299117
C -0.3684993599 1.0669998141 0.8339853469
O -0.8627004394 2.1650175806 0.6114733007
N -1.0844169379 -0.1140596748 0.7729151097
S -2.6103432822 -0.1622691053 0.0336851681
O -2.8409068446 -1.5961245045 -0.1646106149
O -3.5584482706 0.6301043749 0.8200564738
C -2.3854769736 0.6176575966 -1.5145092227
C -1.5986365338 0.2002530615 -2.5858258343
N -1.6150079567 1.0543271221 -3.6092793315
C -2.4158942789 2.0623200431 -3.2097841775
N -2.9066893054 1.8462808495 -1.9161123138
C -3.7219973297 2.7507866697 -1.2912563513
C -4.0735008231 3.8883220163 -1.9634397303
C -3.6103612375 4.1309140571 -3.2728757596
C -2.7852342184 3.2242056265 -3.8955388946
Cl -0.6480652481 -1.2362840129 -2.6272159539
O 1.5432684182 -3.6733504150 1.2195728848
C 0.1415614657 -3.8196921270 0.8841574714
H 5.7236634887 -2.3613179300 3.1787197266
H 6.9752561782 -1.2328049773 2.5782030516
H 6.1415755973 -2.3238017211 1.4313777613
H 3.9925716752 -3.1756729091 1.8165109647
H 1.4493544244 1.8263501997 1.2712270729
H -0.5386567232 -0.9917996436 0.8105919360
H -4.0449781105 2.5092565332 -0.2897176780
H -4.7182589322 4.6010866699 -1.4641564699
H -3.9059621345 5.0380994503 -3.7875485296
H -2.4044109302 3.3750015593 -4.8986050281
H -0.4856462863 -3.3889261028 1.6693605963
H -0.0737268343 -3.3415749735 -0.0755043951
H -0.0193672479 -4.8947507931 0.8169403763
