13
CONF1
C -1.7025470760 0.3043093334 -0.6680673643
O -0.8569635173 -0.7949885755 -0.3319825158
C -0.1496724091 -0.5874474849 0.8670459276
O 0.7748300091 0.4721245868 0.8085188884
C 1.8371033277 0.2238193797 -0.1114476571
H -1.1229881738 1.2179688622 -0.8487671452
H -2.4304904162 0.4984210103 0.1340184442
H -2.2360283018 0.0236051575 -1.5783304786
H -0.8339885869 -0.3253265907 1.6881755531
H 0.3578126473 -1.5428895382 1.0691069958
H 2.5178870980 1.0745680307 -0.0424385144
H 1.4665691467 0.1324779433 -1.1399347240
H 2.3784762470 -0.6966424109 0.1541026909
