30
CONF3
O -2.3793687162 1.2937319027 -2.7704880754
C -2.5060371345 0.1689610171 -2.0342174068
O -2.2539725935 -0.9354303827 -2.4634371672
C -3.0550230979 0.4634339930 -0.6529082931
C -2.5120176381 -0.4620555607 0.4002783254
C -1.1412683935 -0.4375908721 0.7221305762
N -0.3121521073 0.4685369394 0.0283397616
C 1.0745959893 0.4938531418 0.1933276162
C 1.8978684915 -0.5560153057 -0.2530682865
Cl 1.1684144306 -1.9323188780 -1.0515583225
C 3.2782379002 -0.5284204695 -0.1119090055
C 3.8866852641 0.5873809799 0.4519049078
C 3.1184893557 1.6648390270 0.8765752540
C 1.7378171852 1.5991496761 0.7556005305
Cl 0.7796132437 2.9559221825 1.3289427281
C -0.6404766559 -1.3026511034 1.6980021032
C -1.4876593221 -2.1990334078 2.3406921574
C -2.8436739646 -2.2325274161 2.0303684499
C -3.3426983924 -1.3590934869 1.0665340348
H -2.0769307123 1.0385465348 -3.6590184645
H -2.8869767598 1.5195116631 -0.4131378491
H -4.1417631117 0.3364679838 -0.7276849550
H 3.8696758577 -1.3650936745 -0.4648667885
H 3.5813493151 2.5417844531 1.3136927379
H 0.4121576171 -1.2687918364 1.9593437170
H -1.0815869371 -2.8655321887 3.0952411477
H -3.5075636936 -2.9286882557 2.5318683172
H -4.3993857924 -1.3768652731 0.8145078599
H -0.7157957127 1.3907533768 -0.0739780513
H 4.9657789884 0.6207404027 0.5530295535
