74
CONF195
C -0.5692542141 -1.9485813128 -0.7015364349
C 0.0260357601 -3.2950475313 -1.0922426215
O -0.7932848771 -4.2634845726 -0.3529546304
C -1.3964839613 -3.6663912333 0.7109762630
O -2.0651985034 -4.3015780470 1.4915682476
C -1.0165685860 -2.2066598250 0.7291449595
C -2.0126970333 -1.1511926861 1.2155017958
C -3.4021672472 -1.3059103268 0.6051068420
C -3.7426845818 -0.6663818874 -0.5888865639
C -5.0057842094 -0.8490035058 -1.1548925476
O -5.4304635452 -0.2689136416 -2.3148720546
C -4.5020890178 0.5837730648 -2.9944058922
C -5.9413131076 -1.6731928113 -0.5206964452
O -7.1752656331 -1.8387358591 -1.0830169219
C -5.5975400642 -2.2996212883 0.6829532999
O -6.5998196663 -3.0674028418 1.2107744333
C -6.3066328598 -3.8038762862 2.4054070970
C -4.3381440622 -2.1172668287 1.2491489099
C -1.4283317422 0.2242560534 0.9109277105
C -2.0290354264 1.3205251240 1.5623189385
C -1.6146288586 2.5830320566 1.2169698680
C -0.6484338157 2.7950832429 0.2397835916
O -0.4355257388 4.1374432538 0.0717371887
C -1.3140167519 4.8032812814 1.0055533069
O -2.0537525052 3.7801955328 1.7101822188
C -0.0479020174 1.7495460661 -0.4137830536
C -0.4330551440 0.4365605369 -0.0568146996
C 0.2931656198 -0.7058763744 -0.7394726274
O 1.5337801162 -1.0684736869 -0.0539059759
C 2.4509691727 -0.0508793013 0.1723230987
O 2.9667740341 0.3917239689 -1.0886743120
C 3.8960713284 1.4520195681 -0.8769108472
C 4.3641505018 2.0023435972 -2.2133649796
O 5.3686679719 2.9943429482 -1.9618198006
C 6.4708127417 2.4551656080 -1.2393960794
C 7.4814748693 3.5501422355 -1.0302880216
O 6.0590262980 1.9745360904 0.0394786582
C 5.1084526780 0.9192829773 -0.1128467141
C 4.6875755196 0.3879951418 1.2488400067
O 5.7783728614 -0.1540592626 1.9870867989
C 3.5649131528 -0.6357289611 1.0483868740
O 3.0500323935 -0.9768842699 2.3306954851
H -1.4532725906 -1.7618449349 -1.3230767733
H -0.0667630017 -3.5387115171 -2.1512808997
H 1.0618874904 -3.4112368576 -0.7621182039
H -0.1289680611 -2.1587752687 1.3813404920
H -2.1194661630 -1.2498640481 2.3018485733
H -3.0286516602 -0.0048502401 -1.0626082233
H -5.0243322219 0.9375276144 -3.8838690410
H -4.2197706299 1.4389493604 -2.3684186105
H -3.6023262969 0.0308758717 -3.2905682639
H -7.6772419446 -2.4396671134 -0.5123693402
H -7.2092886252 -4.3715185251 2.6319408995
H -5.4666184607 -4.4886927091 2.2426357862
H -6.0779833264 -3.1255601317 3.2353228450
H -4.0718270427 -2.6085201722 2.1759287357
H -2.8136757313 1.1644750574 2.2956843866
H -0.7143470397 5.3735450002 1.7229389953
H -2.0149287393 5.4386010322 0.4540531172
H 0.7029645244 1.9164227681 -1.1797663077
H 0.5482846567 -0.4220281649 -1.7671409607
H 1.9895364808 0.8069688319 0.6929269687
H 3.4292169751 2.2633176353 -0.2932722320
H 3.5519961316 2.4955762963 -2.7532728165
H 4.7720723723 1.1866623111 -2.8313929857
H 6.8837941687 1.6048062479 -1.8131128683
H 7.8210120765 3.9291765003 -1.9966939734
H 8.3402320502 3.1592646639 -0.4801669429
H 7.0305702776 4.3674789596 -0.4606834808
H 5.5574162828 0.0976879962 -0.7013898960
H 4.3040573966 1.2183369367 1.8560183793
H 6.1453801568 -0.8926171759 1.4818004330
H 3.9724269629 -1.5228498667 0.5345330587
H 2.3784109896 -1.6590412748 2.1976175922
