40
CONF40
C 5.5071305922 0.3276785036 1.7758689352
C 4.4956385860 0.6142794515 0.6925925719
O 3.2779172316 -0.1165335665 1.0341520466
P 1.9988010249 0.0499284897 0.0886671547
S 2.2181906023 -0.3095777081 -1.8013576018
O 1.4568846273 1.4933187561 0.5116101623
C 0.7629879160 2.3915556810 -0.4102849751
C 1.7020151303 3.4959376114 -0.8347929613
O 1.1015594528 -1.0341921194 0.9489727767
C -0.2169062549 -1.2558005267 0.6779927233
C -0.8094135274 -2.3764319839 1.2527144481
C -2.1537522126 -2.5637649795 0.9665718169
N -2.8317984997 -1.7078960812 0.1729827119
C -2.1628971195 -0.6696141702 -0.3205996398
N -0.8624723474 -0.4003111591 -0.0906835987
C -2.8652607468 0.2845300450 -1.2574292390
C -2.4161700006 -0.0245564250 -2.6968610051
C -4.3848688029 0.2526193653 -1.1303180795
C -2.9245023618 -3.7241891632 1.5117230359
H 6.4380747650 0.8553223927 1.5480877073
H 5.7192399826 -0.7432559571 1.8317477615
H 5.1427392048 0.6679166307 2.7486967998
H 4.8407151329 0.2719188856 -0.2889584107
H 4.2588272676 1.6835662723 0.6358621655
H 0.3958122712 1.8161579201 -1.2636945686
H -0.0921580724 2.7699122254 0.1557629169
H 2.0843974937 4.0408866943 0.0330321215
H 1.1660411587 4.2009284295 -1.4784627699
H 2.5447249028 3.0857332958 -1.3990737887
H -0.2436552747 -3.0531601467 1.8806899765
H -2.4985844991 1.2872782128 -1.0028596775
H -2.8615313348 0.6945897835 -3.3912825586
H -2.7419823133 -1.0293103706 -2.9872548038
H -1.3274136780 0.0269786791 -2.7897348998
H -4.7044463567 0.4457583855 -0.1022346457
H -4.8234897543 1.0165736653 -1.7796806740
H -4.7814400806 -0.7220655658 -1.4266762509
H -3.7880778947 -3.3614236683 2.0778468044
H -3.3136916288 -4.3293574697 0.6866234563
H -2.3071857832 -4.3519283150 2.1567470695
