47
CONF31
C -3.2180032038 0.0637636575 0.8228206047
C -2.0740555531 0.9579073605 1.2453909756
C -2.2504663428 2.4569278534 1.2603431436
C -1.4512858108 1.7992078606 0.1299166295
C -0.0044113228 2.0479852549 0.0693623112
O 0.7172400788 2.4417617756 0.9596136140
O 0.4613231755 1.7616810724 -1.1882254812
C 1.8849342444 1.9523710741 -1.3599379152
C 2.0871703289 2.0696579062 -2.8051228537
N 2.2871311291 2.1491309711 -3.9395694605
C 2.7015599381 0.8049911561 -0.7981026482
C 2.2768309535 -0.5046576568 -1.0082412471
C 3.0529124803 -1.5485400477 -0.5126049061
C 4.2452841520 -1.2985570176 0.1639107910
C 4.6557701815 0.0153693210 0.3561510622
C 3.8846593054 1.0751143857 -0.1148684711
O 2.7225142307 -2.8695807632 -0.7289043539
C 1.3770266165 -3.2168101783 -0.7442705228
C 0.5393861327 -2.8626032022 0.3100908684
C -0.7836032305 -3.2923723591 0.2923453982
C -1.2607137726 -4.0685543223 -0.7635126001
C -0.4048988352 -4.4195993287 -1.8049415110
C 0.9215528652 -3.9928529698 -1.8026949693
C -3.5196684732 3.1070114288 0.9292764371
C -3.9880098945 4.2168567483 1.5011497758
Cl -5.5173889137 4.9224814231 1.0450992974
Cl -3.1594755491 5.0952281910 2.7566444190
C -1.1956707504 0.3558624673 2.3167382436
H -2.8244117770 -0.9071193693 0.5046789613
H -3.7953895925 0.4794483469 -0.0050117471
H -3.8926549041 -0.1032922930 1.6696542777
H -1.6252355171 2.9688985731 1.9853105998
H -1.9393393077 1.7145155087 -0.8349053067
H 2.1933022237 2.8933271385 -0.8894142332
H 1.3584190783 -0.7097770692 -1.5483255748
H 4.8312726153 -2.1328550253 0.5343582830
H 5.5779861997 0.2145113815 0.8919742905
H 4.1967858045 2.1013197491 0.0500385748
H 0.9255484545 -2.2677182489 1.1316757827
H -1.4408293523 -3.0283563203 1.1151045802
H -2.2931447756 -4.4020362913 -0.7703641863
H -0.7686895349 -5.0253978468 -2.6288511269
H 1.6015409402 -4.2531591437 -2.6069731304
H -4.1407366694 2.6654561102 0.1561680806
H -0.3996242658 1.0325484807 2.6305379255
H -0.7421721416 -0.5726739429 1.9535241268
H -1.8102701459 0.1131788931 3.1900098969
