48
CONF39
C -4.4208359581 0.8555955091 0.3908876721
C -4.3160943249 -0.6314143298 0.0246373178
C -4.5437457659 -0.8146053315 -1.4826516998
C -5.4139445691 -1.4013657741 0.7781539507
C -2.9590479107 -1.2137525522 0.5158800400
C -1.7072796958 -0.3962325282 0.1477588658
N -1.4423845918 -0.3386236005 -1.2859806769
C -1.2826341245 0.7415189598 -2.0814554649
N -1.0773154090 0.3608006754 -3.3336093258
C -1.1158949199 -0.9989955228 -3.2479089174
N -1.3308067150 -1.4713548620 -2.0282761569
O -0.6191502246 -1.0227836688 0.8143033092
C 0.6250624602 -0.4297510300 0.7599511724
C 0.8437121138 0.9376416436 0.6010810078
C 2.1473695919 1.4242902606 0.6055918085
C 3.2480672527 0.5759714722 0.7707709509
C 2.9984937748 -0.7949161317 0.9344635273
C 1.7061003764 -1.2959965382 0.9228756517
C 4.6264385310 1.1066446822 0.7754715052
C 4.9925922764 2.1675380166 -0.0656552889
C 6.2902942097 2.6683872481 -0.0571629782
C 7.2506891142 2.1184784705 0.7894937295
C 6.9003074674 1.0630416923 1.6290731730
C 5.6023772435 0.5629670112 1.6234168083
O -2.8037184892 -2.5881903544 0.1851798416
H -4.1735606088 1.0235087194 1.4459139506
H -5.4472268995 1.1996452782 0.2275384315
H -3.7657350274 1.4808444171 -0.2250569595
H -4.4272760354 -1.8616855176 -1.7792418785
H -5.5673193890 -0.5118387187 -1.7267757459
H -3.8702838807 -0.2020060236 -2.0884526481
H -5.3621491956 -2.4713902278 0.5592337237
H -5.3142415795 -1.2639369471 1.8608284769
H -6.3998914832 -1.0338618371 0.4763187566
H -2.9815541624 -1.1710628875 1.6135104215
H -1.8410741952 0.6381067873 0.4796018108
H -1.3322266402 1.7568478637 -1.7098720367
H -0.9800182174 -1.6562215184 -4.0973098356
H 0.0232168265 1.6378238186 0.4998214288
H 2.3033427951 2.4938272582 0.5051105816
H 3.8295683950 -1.4850723259 1.0405790101
H 1.5173397210 -2.3590626429 1.0308061895
H 4.2602861445 2.5880255856 -0.7482256556
H 6.5547565774 3.4850840178 -0.7220171471
H 8.2634367689 2.5088735478 0.7947330371
H 7.6384943926 0.6327920428 2.2990681718
H 5.3357358023 -0.2429124130 2.3003968695
H -2.4622698225 -2.6391243846 -0.7227991728
