48
CONF61
C -2.7732351846 1.9627972002 -2.6383124057
C -1.2709902843 1.8688621847 -2.8887687612
C -0.4658605042 1.6596414608 -1.6041458190
C 1.0400189705 1.6265899806 -1.8689461324
O 1.5612358559 2.0129085308 -2.8935147902
O 1.7060750664 1.1942452302 -0.7939840711
C 3.1601898958 1.1251751712 -0.9073193772
C 3.6747535925 0.5373787258 0.3870924740
C 3.2076123794 -0.9078821747 0.6139473800
C 3.7268608910 -1.4661774354 1.9016641615
C 2.9650103836 -1.8684825227 2.9179221376
N -0.9019006314 0.4929172647 -0.8177152136
C -1.6701912716 0.7780936970 0.4126738159
C -0.8369009582 1.4222826865 1.4594209212
C -0.7787043944 2.6947572385 1.9412610673
C 0.2694440969 2.7186609204 2.9140287040
C 0.7809537673 1.4606235824 2.9567466567
O 0.1164926634 0.6521950991 2.0763576705
C -0.5729499515 -0.7204626712 -1.3076316574
O 0.0259233913 -0.8839506431 -2.3650317426
N -0.9707414481 -1.8790173890 -0.5506069133
C -1.4891178984 -3.0148805751 -1.1533018763
C -1.5635350026 -3.9535674315 -0.1650238486
N -1.0746161832 -3.4446842607 1.0258229494
C -0.7266701951 -2.2047517271 0.7660768045
H -3.2994883490 2.1570476301 -3.5769076264
H -3.1697085670 1.0301450058 -2.2233628255
H -3.0105817569 2.7755050254 -1.9430734650
H -1.0470884846 1.0596811894 -3.5890834850
H -0.9068221170 2.7959926148 -3.3417290973
H -0.6176459344 2.5295209278 -0.9494909648
H 3.5422107664 2.1361406524 -1.0790926574
H 3.4087822485 0.4968760241 -1.7695783496
H 4.7704655590 0.5748012518 0.3559034177
H 3.3545842332 1.1692427737 1.2246668509
H 3.5643775592 -1.5215911935 -0.2256610884
H 2.1132470287 -0.9497225389 0.6086760567
H 4.8128590044 -1.5193601330 1.9953377292
H 3.3984208669 -2.2555830238 3.8355100058
H 1.8792637080 -1.8224169148 2.8595152531
H -2.4785817925 1.4698603531 0.1584436387
H -2.1319654959 -0.1445387187 0.7692609915
H -1.4101800492 3.5160371548 1.6344163375
H 0.5974994016 3.5624872724 3.5026817696
H 1.5698032798 0.9900466918 3.5232778047
H -1.7573944398 -3.0251450506 -2.1980552107
H -1.9426249808 -4.9632420559 -0.2388739853
H -0.2730660057 -1.5088935175 1.4576739427
