42
CONF131
C 2.7279511245 1.4660707543 0.9513900079
C 2.5446435723 1.4300865025 -0.5653191395
C 3.4360514301 2.4629403717 -1.2589746144
C 2.8686444643 0.0567365816 -1.1372296076
O 2.0771024155 -0.9991894045 -0.5127079128
C 0.8355501771 -1.1860551221 -0.9803766565
O 0.3255809975 -0.5267090319 -1.8697018148
C 0.1549145596 -2.3300642689 -0.3165815636
C 0.8918715676 -3.3838742433 0.2310193510
C 0.2449024322 -4.5057294235 0.7368026157
C -1.1441644304 -4.5874595868 0.6935406991
C -1.8875942725 -3.5435059592 0.1504067237
C -1.2461791672 -2.4111807571 -0.3466353853
C -2.1040478092 -1.3017261701 -0.8664685868
O -2.8771138358 -1.4258007582 -1.7964860744
O -1.9754467905 -0.2006036315 -0.1200450153
C -2.7570954252 0.9610692938 -0.5389143984
C -2.5412425034 2.0656958037 0.4804847213
C -1.0795117451 2.5138229396 0.5317922244
C -3.0565096190 1.6654815329 1.8649254369
H 3.7695143538 1.2493990674 1.2180527507
H 2.0867767513 0.7340369644 1.4514680703
H 2.4766077515 2.4577096603 1.3411876523
H 1.4985120607 1.6562703844 -0.8030496962
H 3.2085687483 3.4678912328 -0.8910852261
H 4.4938529743 2.2596578287 -1.0540300096
H 3.2892762102 2.4549601747 -2.3440418939
H 3.9025315087 -0.2219474292 -0.9125032048
H 2.7045401426 0.0257588384 -2.2182342737
H 1.9742413634 -3.3308706280 0.2357528773
H 0.8266684172 -5.3207090155 1.1544147867
H -1.6522819239 -5.4632294532 1.0837419847
H -2.9713482192 -3.5964442757 0.1250326603
H -3.8099476868 0.6665304381 -0.5953337933
H -2.4123238730 1.2566570161 -1.5361351296
H -3.1485431453 2.9050908127 0.1136328304
H -0.7211013256 2.8087809441 -0.4601297457
H -0.4385734419 1.7055306880 0.8996205964
H -0.9634854683 3.3680186106 1.2061308914
H -2.9804201002 2.5079526718 2.5591678274
H -2.4668716944 0.8382717561 2.2734810044
H -4.1045001595 1.3506790994 1.8219379031
