61
CONF5
C -2.3534106952 -1.4076476764 -3.2881545013
C -1.2368726491 -1.8200160936 -2.3175284869
C -1.6307683547 -1.5804029773 -0.8833475533
C -2.4459875129 -2.5126656871 -0.2390242566
C -2.8796302536 -2.3328302468 1.0712832383
C -2.4741724004 -1.1814569218 1.7462120710
C -1.6563700551 -0.2281702187 1.1438756205
C -1.2275412371 -0.4307128875 -0.1830943229
C -0.3243152929 0.5475776127 -0.8132248313
C -0.6594096111 1.5625764388 -1.8066915163
O -1.7270580176 1.8707879497 -2.3285199890
N 0.5585565959 2.1835297932 -2.1087228566
N 1.6085006521 1.6470227012 -1.3526369610
C 0.9996535409 0.6966596634 -0.5590711104
O 1.7531788485 0.0474086527 0.3722083625
C 1.9902620541 -1.3203580594 0.1356065886
O 1.8087693559 -1.8156687169 -0.9372386345
C 2.4535986481 -2.0046629984 1.4063151015
C 2.9127704868 -3.4204586402 1.0504882909
C 1.2400034563 -2.0625740398 2.3563473233
C 3.5987012706 -1.2154907659 2.0600455429
C 2.5674504198 2.5955660912 -0.7648771773
C 1.9182629115 3.8288671797 -0.1311576153
O 1.6725951824 4.8717038263 -1.0649521107
C 0.5439527479 4.6539253524 -1.9062453468
C 0.6774090374 3.4367152697 -2.8205419594
C -1.2911468512 1.0219643826 1.9053171059
C -2.1413508342 2.2257058556 1.4760291553
C -3.7843327576 -3.3357385409 1.7334157838
H -2.5821846784 -0.3442301660 -3.1773432414
H -2.0504696825 -1.5934714280 -4.3236664549
H -3.2673290817 -1.9780833685 -3.0922328349
H -1.0085093446 -2.8843520438 -2.4483180373
H -0.3197671574 -1.2717616985 -2.5487720502
H -2.7465331131 -3.4065970866 -0.7818565827
H -2.8008440808 -1.0221138593 2.7717889747
H 2.1021168040 -3.9896440820 0.5899451729
H 3.2331145271 -3.9372614145 1.9600201333
H 3.7506508879 -3.3988696415 0.3480593274
H 0.3953270544 -2.5787924295 1.8893861873
H 0.9102579346 -1.0600274563 2.6399003259
H 1.5241698969 -2.6073627630 3.2625747279
H 4.4509241592 -1.1171959214 1.3797247756
H 3.9370643853 -1.7535978881 2.9508706995
H 3.2755892014 -0.2174451796 2.3639114372
H 3.2764702959 2.9183047741 -1.5351346239
H 3.1269418734 2.0277642453 -0.0154085325
H 0.9919264877 3.5412413280 0.3965297467
H 2.6142637823 4.2517533402 0.6008722817
H -0.3717096419 4.5446505865 -1.3025793207
H 0.4561470118 5.5589382833 -2.5158979379
H -0.1527552638 3.4399063881 -3.5356391265
H 1.6187099239 3.4657918915 -3.3811118056
H -0.2303734954 1.2559658803 1.7618805705
H -1.4323202342 0.8389092438 2.9765713117
H -2.0352749482 2.4188696867 0.4043463477
H -1.8503627660 3.1269112563 2.0260170740
H -3.2009874802 2.0327865646 1.6691876438
H -3.6554819899 -4.3326436704 1.3034358606
H -3.5942713323 -3.3957054404 2.8088784890
H -4.8357993140 -3.0537940659 1.6019438977
