57
CONF33
C -0.3686957489 -2.1088696665 -1.4548168633
Si -2.0559848129 -1.8115315400 -0.6973948326
C -2.0434151159 -2.2311380430 1.1253432644
C -3.3623934529 -2.8184929109 -1.5881376634
O -2.4514707453 -0.2006150644 -0.8207600310
Si -2.2937046319 1.0206044159 -1.9125745047
C -3.0311166794 0.5239444549 -3.5510143897
C -3.1213245365 2.5205009902 -1.1795444134
O -0.6966358881 1.3290083253 -2.1928643547
Si 0.6543812460 1.8647159909 -1.4154608671
C 0.4900897204 3.6865199746 -1.0469499880
C 2.1059983711 1.4820505228 -2.5142579687
O 0.8431056105 1.0194735383 -0.0182144370
Si 0.7750007680 1.0799205770 1.6258100234
C 2.0640716884 2.2755490578 2.2539893323
C -0.9389257963 1.5439340811 2.1848396633
O 1.0945854947 -0.4380716026 2.1761433958
Si 2.3766360061 -1.4987497310 2.1487152851
C 1.6573353486 -3.2250328733 2.1181474380
C 3.3919464089 -1.2298796051 3.6997128970
C 3.4278494379 -1.1978158571 0.6259471124
H -0.3634228705 -1.8729102818 -2.5251927613
H 0.3782629117 -1.4754752011 -0.9640118412
H -0.0678305022 -3.1562198381 -1.3362377206
H -1.8605411857 -3.3016434378 1.2733166519
H -1.2544051981 -1.6786381346 1.6472207382
H -3.0043557046 -1.9832723886 1.5902712063
H -4.3582009852 -2.6192035123 -1.1762817057
H -3.1619593779 -3.8910704215 -1.4839111119
H -3.3830686666 -2.5816966940 -2.6576912971
H -2.4948528811 -0.3333481629 -3.9735182125
H -2.9717895969 1.3473251597 -4.2712389484
H -4.0841936202 0.2444572020 -3.4383167008
H -4.1952093309 2.3463947058 -1.0505550974
H -2.6969046397 2.7566922090 -0.1977274629
H -2.9923229480 3.3948127417 -1.8266566424
H 1.4048014747 4.0738013212 -0.5847955958
H -0.3440792930 3.8760890177 -0.3621513287
H 0.3080860951 4.2533944089 -1.9665829611
H 3.0426952860 1.8084074863 -2.0494855104
H 2.1729613280 0.4028499377 -2.6925790560
H 2.0127238052 1.9827879036 -3.4837983788
H 1.8429899396 3.2962423199 1.9226796833
H 3.0604877242 2.0083367461 1.8844243420
H 2.0955996244 2.2739715084 3.3492039437
H -1.0293944203 1.4684444538 3.2739390685
H -1.6853566640 0.8861855587 1.7270257687
H -1.1714867108 2.5750753213 1.8960284139
H 2.4525920503 -3.9782772521 2.1503941921
H 1.0726662471 -3.3870497291 1.2058464596
H 0.9981547276 -3.3902392079 2.9777490326
H 2.7802529792 -1.3732595519 4.5974593627
H 4.2315254209 -1.9328095232 3.7458545565
H 3.8007935499 -0.2133912252 3.7260928458
H 4.2763157052 -1.8916253586 0.6043201620
H 2.8445200944 -1.3439901204 -0.2896856976
H 3.8266144319 -0.1771731754 0.6126191064
