48
CONF14
C -2.5962950852 1.3568995223 -1.4612859150
C -2.9123736209 0.6973234401 -0.1186071003
C -3.3380972320 1.7238887101 0.9647249656
C -4.5263770431 1.0446470124 1.6692072435
N -5.2396275915 0.2934655664 0.6169991599
C -4.1573235435 -0.2750157410 -0.1866949835
N -3.6778964933 -1.5215442191 0.4056996672
C -2.3094706547 -1.5062097956 0.5641729539
C -1.7981688625 -0.2193074096 0.3298832658
C -0.4562256796 0.0504336476 0.4965434900
C 0.3832269893 -0.9989316629 0.8744433072
C -0.1025093220 -2.2788106946 1.0825569758
C -1.4639901292 -2.5519411320 0.9322492029
O 1.7460773475 -0.7800879098 1.1227539046
C 2.5102907056 -0.2830350515 0.0891403189
O 2.1000916298 -0.0201355465 -1.0162698940
N 3.7910270395 -0.1472250354 0.5561423916
C 4.9205598825 0.3226006437 -0.1314727628
C 6.1322165615 0.3375218948 0.5718435332
C 7.2925041647 0.7909314004 -0.0385075572
C 7.2656757677 1.2356369100 -1.3573258558
C 6.0607518147 1.2183919827 -2.0518789876
C 4.8868730737 0.7678984451 -1.4571353116
C -4.4522312371 -2.7303828557 0.2714390914
C -6.1417797632 1.1431742371 -0.1636997475
H -2.3202116148 0.6065698342 -2.2079897350
H -3.4603277478 1.9192140728 -1.8317232007
H -1.7564564572 2.0524067339 -1.3618368147
H -2.5186500481 1.9580888337 1.6495323898
H -3.6539930247 2.6589222011 0.4883404432
H -5.2025398996 1.7441553021 2.1693641410
H -4.5134050684 -0.4377028741 -1.2173264817
H -0.0479229301 1.0390455063 0.3161782703
H 0.5891057298 -3.0657010504 1.3632639870
H -1.8387030486 -3.5560794976 1.0953217593
H 3.9313096068 -0.4328898986 1.5128588587
H 6.1616982132 -0.0092735965 1.6015714740
H 8.2217253190 0.7948143578 0.5221892946
H 8.1721172229 1.5899210552 -1.8358472346
H 6.0248533286 1.5615256567 -3.0810422417
H 3.9558093837 0.7556390748 -2.0052377912
H -5.5129516048 -2.4708775509 0.3294038564
H -4.2599005554 -3.2575110209 -0.6791599385
H -4.2344095333 -3.4177056085 1.0960697269
H -6.9545074506 1.4891321683 0.4827927860
H -6.5877936485 0.5528978932 -0.9708237048
H -5.6670639771 2.0321280270 -0.6161409749
H -4.1610444302 0.3300491290 2.4167092977
