49
CONF8
C -4.7205261795 0.7935398820 -0.7411308766
C -3.4879227371 1.1237319087 -1.5545973953
C -2.5546302329 0.0356048771 -1.9971743012
C -2.1615847770 0.9293151028 -0.8260259863
C -0.9706491871 1.7769876031 -1.0164913940
O -0.5747647910 2.2564745098 -2.0537865068
O -0.3187400550 1.9208528669 0.1785233654
C 1.0142642295 2.4961697761 0.0703488224
C 1.3086209334 3.0785770461 1.3770755633
N 1.5789474199 3.5378151505 2.4012972344
C 2.0071349002 1.4226746137 -0.3154242918
C 2.2511781269 0.3771967334 0.5786612343
C 3.1134735335 -0.6474183301 0.1997705483
C 3.7272333274 -0.6294665222 -1.0561261786
C 3.4684025511 0.4134746527 -1.9295163610
C 2.6057162224 1.4481919843 -1.5684406314
O 3.3986881863 -1.7327894114 0.9874439641
C 2.8954292050 -1.7619941815 2.2847142423
C 1.8752240798 -2.6581476916 2.5719382432
C 1.4034001053 -2.7443590899 3.8791500246
C 1.9447681748 -1.9379227104 4.8757634465
C 2.9679005243 -1.0440036204 4.5679047872
C 3.4534025638 -0.9532928006 3.2678448923
C -2.7836108534 -1.4226266054 -1.7525545402
C -1.5558973404 -2.3111548853 -2.0155440034
Br -0.0767280802 -1.6659819853 -0.8641027277
Br -0.9587112091 -2.2327562983 -3.8802496239
Br -1.9361368474 -4.1759442678 -1.5202213946
Br -4.3156561928 -2.0262144943 -2.8800047294
C -3.6756472062 2.2912962775 -2.4963256363
H -5.5594463451 0.5637452934 -1.4043315435
H -4.9951718797 1.6560205439 -0.1253203680
H -4.5744787376 -0.0600113414 -0.0744595765
H -2.0177072037 0.2565930130 -2.9164739475
H -2.2390466815 0.4932909493 0.1641626796
H 1.0039208795 3.2903332660 -0.6842795083
H 1.7735481723 0.3677741917 1.5525306757
H 4.3906695678 -1.4437386087 -1.3252054267
H 3.9382772133 0.4198524017 -2.9072978825
H 2.3829274665 2.2514092005 -2.2616010571
H 1.4694731252 -3.2753634911 1.7775904293
H 0.6091017827 -3.4446870546 4.1160490458
H 1.5720884326 -2.0061136641 5.8921438983
H 3.3935399191 -0.4149030169 5.3426098463
H 4.2499319814 -0.2636235348 3.0089303807
H -3.1086752348 -1.6261387102 -0.7305205815
H -4.4681044954 2.0509540973 -3.2127437477
H -3.9804436510 3.1830538408 -1.9383208230
H -2.7629835843 2.5233842284 -3.0461818913
