119
CONF401
C -4.6374689923 2.6755938237 -1.0772912953
C -5.6942362947 3.7441532605 -1.3531038606
C -5.0531756394 5.0612686353 -1.7891845472
C -6.6222244207 3.9917251519 -0.1271870436
C -7.3193335626 2.6930316323 0.2779367584
O -6.8560700268 1.9925890983 1.1909877676
N -8.4006247614 2.3225284251 -0.4351492427
C -9.1299803207 3.1408561859 -1.4237009900
C -10.1454700873 2.1618458184 -1.9670076802
C -9.9895251189 1.5983055340 -3.3500782852
C -11.1238636417 2.5439012824 -3.0298000830
C -10.4882850772 1.2622801506 -0.7979812716
C -9.1346624353 1.0641319884 -0.1051219177
C -8.3981579956 -0.1454612730 -0.6012311277
N -8.8225074672 -1.0271354259 -1.4905210621
C -7.8103319534 -1.9434936216 -1.6044653657
C -6.7498727397 -1.6188282144 -0.7751517191
N -7.1561250485 -0.4627881315 -0.1415042482
C -5.4487699408 -2.2248128784 -0.5699892771
C -4.3846843373 -1.4949834597 -0.0024682583
C -3.1626843792 -2.1093912590 0.1429170856
C -2.9340218806 -3.4334703544 -0.2573381555
C -3.9794846526 -4.1632578819 -0.8134669275
C -5.2219222732 -3.5571658285 -0.9579043299
C -1.5355541423 -3.7780197703 0.0147711800
C -0.8916482641 -2.6637734494 0.5735514876
C -1.8815177348 -1.5294657910 0.6958998107
F -1.4799535711 -0.4137937639 -0.0113808365
F -2.0258720535 -1.1013649695 1.9972495886
C 0.4357999675 -2.6871143728 0.9358666055
C 1.1788599762 -3.8658750342 0.7338598262
C 0.5307441888 -4.9783243418 0.1735931070
C -0.8144955917 -4.9485898929 -0.1847367361
C 2.6086193498 -3.9232615509 1.0904323466
C 3.4216821846 -2.8030760703 0.8903675163
C 4.7601739118 -2.9184290559 1.2350677464
C 5.3201109992 -4.1055520810 1.7631061443
C 4.4998828774 -5.2152076660 1.9713887907
C 3.1609807366 -5.1081857510 1.6323585594
N 6.6737968644 -3.9337096334 1.9879196250
C 6.9202886094 -2.6964462996 1.6110900323
N 5.8109120170 -2.0291688568 1.1606917904
C 8.2948296467 -2.0856963234 1.6564900022
C 8.9607093509 -2.2926171588 3.0356588737
C 10.4229578598 -1.8011245319 2.9485851620
C 10.2862421114 -0.2462379507 2.8953419682
C 8.7583997589 -0.0654441522 2.8754676970
C 8.2880543339 -1.1623266431 3.8330933808
N 8.2902294493 -0.6064077559 1.5741326404
C 8.3367251122 0.1688326038 0.4582462597
O 8.5461108625 1.3775767929 0.5067803696
C 8.1159498138 -0.5309312739 -0.8959851205
C 9.4703832627 -0.9568438322 -1.5132387760
C 9.2513316066 -1.9397825683 -2.6647377351
C 10.3378831029 0.2282203478 -1.9472386805
N 7.3927631001 0.3539410654 -1.7961480146
C 6.1453590284 0.7642177491 -1.4271541883
O 5.4601040399 0.2427040901 -0.5566880312
O 5.7347031925 1.8057495846 -2.1794904525
C 4.4130447399 2.2910132628 -1.8658518256
N -5.8930324207 4.4851609029 1.0235437705
C -6.0335261983 5.7758673322 1.4364129835
O -6.5861674881 6.6658805771 0.8167757199
O -5.4360748665 5.9431775239 2.6495009026
C -5.4948581786 7.2894180950 3.1524176147
H -5.0886635265 1.7016830444 -0.8676315929
H -3.9848693911 2.5595861082 -1.9475417039
H -4.0098665785 2.9550621813 -0.2246187947
H -6.3365514540 3.3834805592 -2.1681692221
H -4.3931457737 5.4446103939 -1.0047338694
H -4.4526560570 4.9087273955 -2.6912892911
H -5.8057494504 5.8283262561 -1.9947058945
H -7.3542249390 4.7585151090 -0.4041931526
H -9.6214221495 3.9896331045 -0.9237401581
H -8.4683190373 3.5299751259 -2.2027160221
H -9.1760682522 1.9749127537 -3.9625547893
H -10.2120851898 0.5455304181 -3.4813240330
H -12.1261275071 2.1329447203 -2.9617240373
H -11.0747901067 3.5522609539 -3.4299074862
H -11.1769837182 1.7738472475 -0.1152427050
H -10.9232608593 0.3105549107 -1.1054841513
H -9.2240064600 1.0058543626 0.9865725031
H -7.8798216065 -2.7731209666 -2.2935900667
H -6.6773615233 0.0849671098 0.5649649113
H -4.5077361769 -0.4585493866 0.2971910857
H -3.8392176178 -5.1933721179 -1.1251168154
H -6.0462082465 -4.1283034288 -1.3719727219
H 0.8985761079 -1.8195696423 1.3953120289
H 1.1071301618 -5.8787383351 -0.0121379534
H -1.2794428080 -5.8254764055 -0.6242344628
H 3.0289247944 -1.8945515759 0.4463697367
H 4.9038762097 -6.1287320937 2.3939822305
H 2.5009986357 -5.9496487322 1.8157127981
H 5.7788613289 -1.1081047535 0.7237258635
H 8.9097697046 -2.5337838572 0.8644095552
H 8.8248475590 -3.3102661293 3.3995932911
H 10.9807969769 -2.1226645511 3.8324274961
H 10.9370677723 -2.2094142005 2.0725057724
H 10.7181864769 0.2309002721 3.7806902053
H 10.7480751742 0.2028586523 2.0126141464
H 8.3942443953 0.9496410890 3.0267627481
H 8.7057755372 -1.0413114028 4.8357483829
H 7.2002029393 -1.2565695168 3.8923241542
H 7.5103784380 -1.4336248367 -0.7642937322
H 10.0085610880 -1.4825366231 -0.7121990208
H 8.7129172776 -2.8323253269 -2.3299421708
H 8.6687379168 -1.4744083850 -3.4661079713
H 10.2106761619 -2.2575600210 -3.0845398651
H 10.3987520098 0.9957674344 -1.1712693832
H 9.9553184819 0.6891838811 -2.8655652301
H 11.3496757110 -0.1203152944 -2.1741426409
H 7.9429911384 1.0671504534 -2.2523489889
H 4.3659366105 2.6216183604 -0.8254215561
H 4.2486183794 3.1287864733 -2.5428822262
H 3.6684966300 1.5088519324 -2.0341242538
H -5.6062209458 3.7915722491 1.7010164379
H -4.9840303230 7.2599231695 4.1151748067
H -4.9884159815 7.9781313062 2.4705899385
H -6.5325937427 7.6097946134 3.2785702388
