44
CONF16
C 3.3288415187 -0.5998368808 -1.2406884103
C 2.5379904357 0.6394477486 -1.4865996723
N 1.6260011778 0.9683767748 -0.5679569401
C 0.9073700779 2.0778359554 -0.8124037979
N 1.0748858095 2.8632961705 -1.8791320221
C 2.0319286736 2.4517533513 -2.7145742077
N 2.7877169048 1.3542012845 -2.5893184760
O 2.2023626398 3.2491936630 -3.7648305808
C 3.2163970455 2.8825399296 -4.7345311033
N -0.0880742779 2.4573507625 0.0789712009
C -0.8156966287 3.7055899239 -0.2184513639
C -0.5623341460 1.7073082007 1.1851129983
O -1.5707132934 2.0408968895 1.7869587096
N 0.1946279739 0.6114745263 1.5348692192
S -0.3602001760 -0.5299322634 2.6590153371
O 0.6116795424 -1.6270332586 2.5441361093
O -0.5662491020 0.1299855234 3.9502420931
C -1.9549668650 -1.1136883207 2.0662886726
C -3.0922355989 -0.6663894792 2.7279419749
C -4.3349119305 -1.1798931040 2.3695496322
C -4.4269877699 -2.1479826943 1.3755432403
C -3.2811479849 -2.6028464452 0.7293185432
C -2.0295667772 -2.0809237425 1.0562825307
C -0.8464437256 -2.5138503358 0.2492686457
O -0.1636910960 -1.7559251429 -0.4085973967
O -0.6905093471 -3.8402397032 0.2916236392
C 0.4007630236 -4.3630247348 -0.5141135939
H 3.9927722308 -0.4397976027 -0.3837701456
H 2.6553698423 -1.4210665909 -0.9789621747
H 3.9254960835 -0.8597421572 -2.1145403352
H 2.9852614899 1.9105752751 -5.1753266872
H 4.2006892956 2.8556585667 -4.2624077125
H 3.1726787568 3.6672589351 -5.4884818209
H -1.4545431741 3.9317770091 0.6308989174
H -1.4253165970 3.5877251176 -1.1180815322
H -0.0990500390 4.5121742169 -0.3755149793
H 0.9168184833 0.3120251109 0.8425097683
H -3.0003384272 0.0665731845 3.5200015954
H -5.2258874665 -0.8284893835 2.8784406851
H -5.3935028488 -2.5580232957 1.1022674754
H -3.3528071692 -3.3580964868 -0.0460049309
H 1.3471831363 -3.9364792689 -0.1740430124
H 0.3815654077 -5.4399607454 -0.3562799971
H 0.2367747958 -4.1197958910 -1.5661528937
