44
CONF16
C 5.7657268881 -0.8203170633 -0.9702670614
C 4.4256086111 -0.4952004856 -0.4037006055
N 3.6023198108 -1.5056890288 -0.1159850856
C 2.4249499953 -1.1318744627 0.4176305860
N 2.0457597895 0.1203015421 0.6668610095
C 2.9524536299 1.0467829131 0.3242631527
N 4.1475019777 0.8077834658 -0.2076597319
O 2.5556245638 2.2901187653 0.5634142940
C 3.4663967318 3.3654295776 0.2179089298
N 1.5668830638 -2.1700594624 0.7104963892
C 0.2612161032 -2.1714816821 1.2135543709
O -0.3695854336 -3.2135764713 1.2826716820
N -0.2139310936 -0.9451911913 1.6167423057
S -1.8500979261 -0.6834563641 2.0265719204
O -2.1903578763 -1.5201278028 3.1794434457
O -1.9276094232 0.7796810860 2.1435966964
C -2.7897019623 -1.2492740813 0.6037670192
C -3.6147912934 -2.3529935704 0.8166499299
C -4.3988498004 -2.8309486873 -0.2244876575
C -4.3405643509 -2.2091333116 -1.4681096428
C -3.5034499433 -1.1173857486 -1.6657440979
C -2.7054102039 -0.6018466018 -0.6395183388
C -1.8510489987 0.6039542626 -0.9403189155
C -2.6480541214 1.9055931577 -0.7660685609
C -1.8047629908 3.1172166557 -1.0500741551
F -2.5046300167 4.2682904383 -0.8840182626
F -0.7212650138 3.1967166305 -0.2328606099
F -1.3274228704 3.1313599182 -2.3235573574
H 5.9915533221 -0.1549022234 -1.8072754798
H 6.5275419811 -0.6433848258 -0.2019287624
H 5.8149544543 -1.8623277072 -1.2850578064
H 2.9345223241 4.2750413276 0.4927261000
H 4.3936293443 3.2719497953 0.7869405542
H 3.6790196710 3.3500075194 -0.8529667304
H 1.9081767605 -3.0919591256 0.4689238471
H 0.3702737573 -0.1171903572 1.4247263912
H -3.6347170971 -2.8296158431 1.7890609006
H -5.0432702499 -3.6882936912 -0.0635247946
H -4.9436730623 -2.5788551388 -2.2910090013
H -3.4576910270 -0.6434718140 -2.6422616636
H -1.5118848206 0.5267767679 -1.9776966486
H -0.9603185597 0.6388728020 -0.3119713194
H -3.5027856106 1.9344972023 -1.4490095324
H -3.0182400232 1.9981829142 0.2580661258
