53
CONF3
C 0.6458300809 -0.3789529013 -0.3841130401
C -0.2190783469 -0.1135355945 -1.6225833471
C -1.6178205879 0.3727695654 -1.3257001757
C -2.1467048287 0.3827110419 -0.0244703339
C -3.4544431110 0.8347110635 0.1678178155
C -4.2366275853 1.2549480244 -0.9006663025
O -5.5104937858 1.6757790045 -0.6177377164
C -3.7205835106 1.2376237004 -2.1947102098
C -2.4189505839 0.7984205262 -2.3868644269
C -1.2790855561 0.0098842198 1.1768562577
C -2.0744773386 -0.6126165783 2.3365289666
C -2.6988149423 -1.9563622062 1.9591938611
C -1.6204096845 -2.9397019409 1.4981413878
C -0.7993558539 -2.3458619132 0.3509590563
C -0.1776371603 -1.0074910949 0.7487029267
O 0.7070745990 -1.2764488405 1.8430258700
C -0.5723517236 1.2972164599 1.6577446100
C 0.4017001807 1.8430887753 0.6200591989
N 1.3392775359 0.7970110318 0.1846452827
C 2.3931505656 1.3558938957 -0.6644213122
C 3.4644517915 0.3522054052 -1.0408172170
C 4.2203983475 -0.3797626456 0.0966961801
C 5.5180883789 -0.2409781287 -0.7393486055
C 4.8313371117 0.8995574300 -1.5332203991
H 1.4239052493 -1.1048355794 -0.6473754350
H 0.2903301005 0.6019071941 -2.2809776382
H -0.2844048966 -1.0458761355 -2.1998961016
H -3.8960644592 0.8671769668 1.1566869242
H -5.9423798042 1.9377298933 -1.4382177729
H -4.3243316662 1.5637752756 -3.0380024440
H -2.0084548015 0.7860995606 -3.3936934596
H -1.3688367907 -0.7658878987 3.1610055505
H -2.8324944492 0.0869947419 2.7059067971
H -3.2422277859 -2.3672630729 2.8180255055
H -3.4335320858 -1.8128755907 1.1556993350
H -2.0772779086 -3.8821640785 1.1749248958
H -0.9522335414 -3.1722627318 2.3351735536
H -1.4513573257 -2.1989013271 -0.5178221898
H 0.0072972413 -3.0282358656 0.0564489616
H 1.3808008665 -0.5767131952 1.7905605632
H -0.0341668242 1.0725929393 2.5860627721
H -1.3275083271 2.0579694519 1.8878387689
H 0.9896558885 2.6572321536 1.0610971446
H -0.1524574938 2.2749700111 -0.2341040002
H 1.9888557648 1.8314398438 -1.5817055025
H 2.8668726435 2.1624204509 -0.0871256343
H 3.0902524835 -0.3750107376 -1.7715116703
H 3.8866599520 -1.3823233131 0.3777738610
H 4.2526451559 0.2455534736 0.9955979423
H 6.4453894824 -0.0067976221 -0.2105399457
H 5.6823310085 -1.1203279774 -1.3689644677
H 5.0438692615 1.8774316383 -1.0872756198
H 5.0043893662 0.9560732308 -2.6113086293
