47
CONF23
C -5.2100947918 -2.7453591442 2.7527191399
O -5.1435798970 -1.9827605981 1.5139287533
P -4.4605298874 -2.6508456842 0.2217437380
S -2.6942279762 -3.4110478806 0.4404030807
O -5.5096723374 -3.7026809711 -0.3604861785
C -6.9005309516 -3.3144406712 -0.5821552747
O -4.6198422480 -1.4251827470 -0.8297861171
C -3.6888758479 -0.3987085079 -0.9662725088
C -3.2723669822 -0.1009074788 -2.2558930611
C -2.3687723366 0.9386364956 -2.4527419383
C -1.9008175868 1.6726673632 -1.3626150838
C -2.3442880179 1.3697183274 -0.0725407053
C -3.2360000573 0.3252277990 0.1330881928
S -0.7854313423 3.0421400629 -1.6417882797
C 0.6982685608 2.5223490045 -0.7868738314
C 0.9968745643 1.1822968936 -0.5311747470
C 2.1876876870 0.8431315908 0.1021252745
C 3.0783720268 1.8480476640 0.4548474587
C 2.8024031633 3.1836088840 0.1999915610
C 1.6023573193 3.5222155596 -0.4137841379
O 4.2610512708 1.5345404405 1.1358754315
P 5.5131544883 0.8398215192 0.3753510399
S 5.8840615750 1.4797245870 -1.4206044462
O 5.1468552419 -0.7065286528 0.5464750177
C 5.9370298690 -1.7236790793 -0.1318675102
O 6.6616860739 1.0174489051 1.4734774457
C 7.3780927572 2.2791891357 1.5806237102
H -4.2008590842 -2.9806643452 3.1002092101
H -5.7849093206 -3.6633349116 2.6004631606
H -5.7172590273 -2.0985745920 3.4679538110
H -6.9571362206 -2.5904802358 -1.3980845861
H -7.4182618906 -4.2333977647 -0.8545978114
H -7.3279383666 -2.8962160971 0.3324646313
H -3.6425220861 -0.6870749021 -3.0897690623
H -2.0207081214 1.1690570540 -3.4538631373
H -1.9906711450 1.9489805086 0.7740548982
H -3.5865068121 0.0888680594 1.1315425690
H 0.3053630210 0.3981841120 -0.8190546166
H 2.4234415365 -0.1941230701 0.3139495866
H 3.5148549167 3.9477875292 0.4913806974
H 1.3716799679 4.5662703965 -0.6013552036
H 5.9152788050 -1.5548408694 -1.2113623923
H 6.9658002392 -1.7081703914 0.2374922551
H 5.4624787113 -2.6730791416 0.1139875745
H 8.0944394637 2.1408856657 2.3898596489
H 7.8977787548 2.4945194207 0.6437030471
H 6.6827912365 3.0867809588 1.8260056868
