61
CONF322
C -4.2777316152 2.2091088105 -2.9377480033
C -4.6786915063 1.0273051232 -2.0556240180
C -3.6027500225 -0.0571791410 -2.0313386223
C -3.9487919058 -1.2786292147 -1.1724409711
C -2.8822287770 -2.3912233592 -1.2830451544
C -1.9126488986 -2.1408083800 -0.0910454375
N -2.4977133409 -1.0212304709 0.6565559433
C -3.9285128070 -0.9906523032 0.3301828470
C -2.2084387712 -1.0633343126 2.0859674325
C -0.5001539720 -1.8372349316 -0.5748354952
O 0.2606694576 -2.7544195173 -0.9399685605
N -0.1698600717 -0.5422751905 -0.5862694737
C 1.0830361964 -0.0062225185 -1.0803474821
C 2.0868526330 0.2987153019 0.0537316286
C 3.0121047418 -0.8776899743 0.3758065457
C 3.9341151345 -0.5085857282 1.5431234344
C 3.1162226407 0.0301953439 2.7283351404
C 2.1349283403 1.1304633253 2.2960633251
O 1.3333083442 0.7044351082 1.2057631051
S 2.9702175438 2.7654637483 2.0033044193
C 1.5497123306 3.8530550080 2.4106024274
O 2.3872333880 -1.0266225414 3.3548750499
O 4.8425125151 0.4738332211 1.0461691232
O 2.3173391059 -2.0590253876 0.7768679078
C 0.8374656890 1.2222744940 -1.9702901920
C 0.1726101241 2.3985737222 -1.2714019197
O 0.0513705616 0.7554247429 -3.0771397015
H -3.3502825334 2.6665355777 -2.5738745243
H -4.1056593692 1.8856608132 -3.9704268802
H -5.0520514624 2.9825636293 -2.9509380186
H -4.8740482745 1.3860483275 -1.0374915116
H -5.6203987626 0.5940561380 -2.4187578671
H -2.6559789563 0.3763143352 -1.6843847066
H -3.4240323917 -0.3981310252 -3.0603509255
H -4.9302523062 -1.6602026411 -1.4771632356
H -3.3403444919 -3.3772584619 -1.1733373811
H -2.3644490918 -2.3700628215 -2.2464500541
H -1.8330952987 -3.0525245038 0.5238388451
H -4.4850949131 -1.7767475413 0.8752865467
H -4.3582308698 -0.0210188067 0.6042333694
H -1.1241829375 -1.0580067365 2.2479586809
H -2.6277174052 -1.9628411768 2.5724613786
H -2.6280687499 -0.1771427949 2.5732316862
H -0.8621220109 0.0703308121 -0.1659565428
H 1.5283400735 -0.7741788478 -1.7244535133
H 2.7329188899 1.1309659128 -0.2658324715
H 3.6339305808 -1.0706772030 -0.5122019661
H 4.4661307885 -1.4135806675 1.8698483484
H 3.7950789202 0.4381023621 3.4862485655
H 1.4346626346 1.2984700987 3.1201175527
H 0.6885153802 3.6114700504 1.7828274623
H 1.2833266639 3.7599615609 3.4664809708
H 1.8632323455 4.8794265068 2.2054690497
H 2.0009440205 -1.5590844730 2.6370872725
H 5.4598690547 0.6967438674 1.7544970032
H 1.7092634911 -2.3484839412 0.0621099094
H 1.8293873140 1.5364652414 -2.3314280087
H 0.0553887694 3.2260193578 -1.9792428599
H -0.8209786593 2.1357279221 -0.8932082447
H 0.7874911493 2.7501566205 -0.4381073809
H -0.1632476859 1.5191085910 -3.6272112757
