64
CONF409
C 10.1377950021 -0.5640559571 1.9102786775
C 8.9389342910 -0.9699827671 2.7496463871
O 8.9103290401 -2.0508202768 3.3268213945
N 7.9089832542 -0.0669853502 2.8463481240
C 7.7768623986 1.1674121019 2.0865120300
C 6.5750136992 1.0846855704 1.1487797127
N 5.3569005958 0.7717401941 1.9067305090
C 5.5052963983 -0.4940655659 2.6220393625
C 6.6947761197 -0.4174343668 3.5748003645
C 4.1527085269 0.9479978731 1.1757430059
C 3.8279024197 2.2314527536 0.7060834734
C 2.6612663543 2.4615811560 0.0023609158
C 1.7668458058 1.4145603868 -0.2378645308
C 2.0564219812 0.1389362340 0.2350991548
C 3.2487176621 -0.0860505043 0.9275175726
O 0.6340180140 1.7454961983 -0.9401561073
C -0.2846883557 0.6897784164 -1.2052303093
C -1.4634809519 1.3199523954 -1.9268762918
C -2.3494525670 2.1522308055 -1.0067669218
O -3.2325506178 1.1605391829 -0.4647201473
C -3.5143100234 0.2859585723 -1.5345052985
O -2.3475271102 0.2661249092 -2.3581909078
C -3.7472886989 -1.1382704520 -0.9958765433
N -2.6282735811 -1.6221118424 -0.2181391564
C -2.3653926134 -1.3427884468 1.1075010814
C -1.1486717636 -1.9168781136 1.3699088719
N -0.6509093957 -2.5350048196 0.2430828021
C -1.5576208072 -2.3337994093 -0.6882972158
C -4.7178564548 0.7565118451 -2.3590797095
C -5.9543886093 1.0969206256 -1.7966676415
C -7.0261502190 1.5172862580 -2.5780598180
C -6.8638723086 1.5897920502 -3.9544724771
C -5.6594662121 1.2514600623 -4.5556423889
C -4.6073891788 0.8394364019 -3.7494586543
Cl -8.2088982010 2.1156807784 -4.9392593088
Cl -6.2481712605 1.0244283551 -0.0674329723
H 10.5634894252 0.3898402599 2.2367855529
H 10.8874950841 -1.3464699269 2.0197747088
H 9.8750456415 -0.4743001918 0.8510828671
H 7.6309708130 2.0060927991 2.7837957970
H 8.6805034788 1.3605967199 1.5075926552
H 6.4499066351 2.0419812683 0.6360380958
H 6.7669319121 0.3123276179 0.3776637439
H 4.5946941784 -0.6800566948 3.2015737748
H 5.6560644821 -1.3481151064 1.9334591004
H 6.8588266837 -1.3795985683 4.0632965410
H 6.5006449476 0.3497602839 4.3375765687
H 4.4907155275 3.0632662084 0.9223082065
H 2.4130658518 3.4557513738 -0.3542340459
H 1.3835876416 -0.6965395248 0.0746419246
H 3.4562661629 -1.0950641584 1.2631512668
H 0.1743517157 -0.0811395889 -1.8392107015
H -0.6273619184 0.2235658713 -0.2710595122
H -1.1231054564 1.8805072621 -2.8047741570
H -1.8024456590 2.6114098962 -0.1816646432
H -2.9162234209 2.9136185983 -1.5606153160
H -4.6557439880 -1.1576394928 -0.3894420826
H -3.8940778028 -1.7947942631 -1.8586685712
H -0.6057115943 -1.9208112890 2.3043552067
H -7.9688610973 1.7816034523 -2.1161071792
H -5.5459539080 1.3104715415 -5.6312798424
H -3.6581368869 0.5768867130 -4.2005091324
H -3.0504771225 -0.7679685424 1.7103726037
H -1.5078320930 -2.6729466074 -1.7149411843
