37
CONF128
C -1.2201594191 0.2063390365 -3.1909945696
C -2.1127636286 -0.8065879694 -2.5095080535
O -1.3609666515 -1.6353466534 -1.5624503132
P -0.9923245381 -1.0513854490 -0.1341689574
O -1.8903313857 -0.0217820917 0.4402282556
O -0.7897781083 -2.4167074193 0.6476038690
C -0.3739242193 -2.3714569032 2.0583381121
C -1.5819563599 -2.3355209005 2.9658831368
O 0.5338122514 -0.4952899884 -0.3377716532
P 1.1531971255 0.8492615471 0.3556420336
O 1.1718967786 0.7934402443 1.8358376760
O 2.5575233726 0.9414803068 -0.3851782913
C 3.7320973304 0.2987658864 0.2096573765
C 3.6811493482 -1.2083572287 0.0876892494
O 0.3654844694 2.0405414703 -0.3353075934
C -0.5216461958 2.9084719160 0.4529087471
C -1.6211635856 3.3821238578 -0.4637408043
H -0.8360456343 0.9423892886 -2.4791506628
H -1.8011357624 0.7382921056 -3.9514974218
H -0.3757520564 -0.2866934884 -3.6805143570
H -2.9378775153 -0.3273979456 -1.9731524444
H -2.5201842241 -1.5282685047 -3.2205344617
H 0.2794221433 -1.5063874919 2.2185251634
H 0.2097560872 -3.2848442506 2.1938114295
H -2.2305213568 -3.1962516949 2.7813895176
H -1.2469734017 -2.3684267880 4.0076798551
H -2.1539927992 -1.4170708734 2.8135995355
H 3.8083609871 0.6184350413 1.2537913358
H 4.5686108921 0.7169015392 -0.3540724827
H 2.8739508642 -1.6319531831 0.6923170045
H 3.5374091368 -1.5108137742 -0.9531532871
H 4.6283040566 -1.6250752918 0.4451100318
H -0.9187042999 2.3388676036 1.2958355686
H 0.0887194688 3.7365635066 0.8266441172
H -2.2703091614 4.0732861610 0.0828610731
H -1.2106416206 3.9059031257 -1.3317104248
H -2.2225415786 2.5345549412 -0.8024469078
