40
CONF17
C 6.2384028334 1.0415206524 -1.5296404123
O 5.7116676018 -0.0023261924 -0.6705303496
C 4.3803369175 -0.1623845404 -0.7035863750
O 3.6328105936 0.4723824098 -1.4221207150
C 3.9172307845 -1.1932505617 0.2896805531
S 3.7443996814 -0.4019631010 1.9542039516
C 2.4673781130 0.7912314347 1.5894083226
C 1.1571692143 0.3452362658 1.3984731284
C 0.1089307636 1.2176602881 1.0859865218
C 0.4267426226 2.5830039589 1.0366672924
C 1.7030646886 3.0677028837 1.2323044406
C 2.7281539624 2.1623708055 1.4947904935
Cl 4.3470411703 2.8002927732 1.6834476507
F -0.5583916562 3.4636369868 0.7685065347
N -1.2066543540 0.8150676446 0.9049429541
C -1.4851102353 -0.1432500374 0.0985727801
N -2.7460766979 -0.6760425624 -0.0039963148
N -2.9382936293 -1.4288947647 -1.1782937162
C -1.8052396848 -1.7755665098 -1.8452181207
O -1.7199648037 -2.5499580949 -2.7794354580
S -0.3930142440 -0.9154818132 -1.0972089780
C -4.1267681694 -2.2998654918 -1.1882593151
C -5.3635618248 -1.4787181102 -0.8565963828
C -5.1570003502 -0.7434577837 0.4645414234
C -3.9164345554 0.1347911222 0.3980624024
H 6.0074251557 0.8203822227 -2.5741382251
H 7.3145309549 1.0351858271 -1.3631420933
H 5.8091431071 2.0062766577 -1.2483176830
H 4.6555503799 -1.9876487650 0.4237769319
H 2.9575587572 -1.6084447867 -0.0230990157
H 0.9428162479 -0.7123819556 1.5149840829
H 1.8931134967 4.1322106280 1.1602130855
H -4.1788358195 -2.7372586348 -2.1863046289
H -3.9807691981 -3.1018690266 -0.4510949714
H -5.5554034377 -0.7609129922 -1.6630205653
H -6.2217318913 -2.1544043938 -0.7962290254
H -6.0145562976 -0.1033067460 0.6917975322
H -5.0522106034 -1.4652677373 1.2834491624
H -3.6761331543 0.5633206456 1.3710436422
H -4.0473176406 0.9503812997 -0.3279155582
