37
CONF132
C -6.4599193536 0.1541338633 2.4461559532
C -4.9829213463 0.2024260789 2.0802884288
N -4.8288147113 0.3815455668 0.6256435251
S -3.6710118264 -0.3864987133 -0.2705824504
O -3.9408061062 -0.0824227831 -1.6709968095
O -3.4873873305 -1.7311317563 0.2667474357
C -2.0634632131 0.5594396618 0.1769596703
C -0.7727311128 -0.1338693130 -0.3543159647
C 0.4827866702 0.8095962409 -0.3593302728
C 1.8403225318 0.0243482189 -0.4553284243
C 3.0425220434 0.9179347751 -0.9059591715
C 4.4889719885 0.3391081757 -0.6575015196
C 4.8048443152 -1.0625197367 -1.2658713429
C 6.3278734158 -1.4216733821 -1.2993218208
F 6.8874836557 -1.2247216902 -0.0981725852
F 6.9733954024 -0.6870208352 -2.2105574822
F 6.4513134484 -2.7148393559 -1.6275752888
F 4.3498999851 -1.1196222834 -2.5376397048
F 4.1792701169 -2.0051250279 -0.5259796352
F 5.3395009304 1.2405370402 -1.2093871062
F 4.7131232155 0.2966547205 0.6720546340
F 2.9211560344 1.1942799354 -2.2197879923
F 2.9930263245 2.0792397275 -0.2070187880
F 2.1147736046 -0.4985796877 0.7595375016
F 1.7003443365 -0.9783755662 -1.3535397144
F 0.3842460987 1.6533493359 -1.4096571975
F 0.4846884608 1.5300567576 0.7864727216
F -0.5119675417 -1.2011271253 0.4324084531
F -1.0017627061 -0.5531098075 -1.6168057638
F -2.1720521926 1.8041695511 -0.3378627583
F -2.0122218775 0.6494985725 1.5246541590
H -6.9703742997 1.0803668546 2.1637240659
H -6.9552983838 -0.6807535212 1.9445126270
H -6.5681412098 0.0291818524 3.5275129204
H -4.4722028944 1.0082820966 2.6220365162
H -4.4932423051 -0.7394745491 2.3414037202
H -5.1152244696 1.2667160184 0.2230797733
