45
CONF60
C 4.4892795860 -2.4781201327 0.6480067442
C 3.8604547284 -1.2064969460 1.2192290092
C 2.3925019923 -1.0161878133 0.8289269945
C 2.1907774878 -0.8528133075 -0.6811666817
N 0.8177646576 -0.5142089727 -1.0467686620
C 0.2531209457 0.6966355963 -0.7614860644
C -1.1527436785 0.8476709648 -0.8125814713
C -1.7446875852 2.0919172132 -0.6274613963
C -0.9915299038 3.2263238671 -0.3633328216
C 0.3936618865 3.0810606968 -0.2657819799
C 1.0069124086 1.8428366043 -0.4550390503
C 1.1884419217 4.2966727247 0.0411254749
O 0.7136629301 5.4064579111 0.1880595008
O 2.5110916387 4.0479123964 0.1497585587
S -3.5420284352 2.2305605658 -0.6873679830
O -4.1081576974 1.2711328782 0.2716788539
O -3.8665726126 3.6594919299 -0.5826688720
N -4.0561449066 1.7399175842 -2.2084426667
O -1.9388135297 -0.2342000893 -1.1482413908
C -2.1190123387 -1.2414378956 -0.1995756231
C -2.7092085821 -2.4099738854 -0.6698365219
C -2.9294688652 -3.4569546801 0.2185660943
C -2.5577010019 -3.3385763351 1.5571913296
C -1.9687499639 -2.1592808227 2.0053421298
C -1.7470764588 -1.0966713386 1.1317807799
H 3.8995833576 -3.3601330688 0.9227083399
H 4.5536942167 -2.4453698894 -0.4441888505
H 5.5042451013 -2.6191929796 1.0321580675
H 4.4353304836 -0.3298510331 0.8916015286
H 3.9289346241 -1.2292478978 2.3131628538
H 1.9931541934 -0.1292928528 1.3367866016
H 1.7988294050 -1.8735330395 1.1735279624
H 2.4336992215 -1.7814861589 -1.2051809556
H 2.8709158498 -0.0866580794 -1.0746535231
H 0.1829924230 -1.2955884624 -1.1074555019
H -1.4617143693 4.1900775879 -0.2196308112
H 2.0835637333 1.7704932787 -0.3822763191
H 2.9541799730 4.8897767341 0.3478460216
H -3.6695915756 2.3417553010 -2.9337228604
H -3.8044557794 0.7675211095 -2.3793692662
H -2.9879894077 -2.4851842242 -1.7156871590
H -3.3919188081 -4.3706383323 -0.1411483337
H -2.7283510575 -4.1592278531 2.2457979376
H -1.6805924120 -2.0548869731 3.0466081570
H -1.3002834999 -0.1730016741 1.4840628310
