59
CONF216
C 4.7010841280 0.4763439305 4.6947107263
C 3.2426408789 0.1816220869 4.3339577985
C 3.2580561975 0.2059809493 2.7994804565
C 4.3257387111 1.2791253801 2.4072672342
C 5.0505351354 1.6200267287 3.7373379685
C 3.6789344964 2.5153275994 1.7889962055
C 3.0352041882 2.2532088301 0.4522458940
O 2.0796572474 2.9055984844 0.0535956633
N 3.5729154747 1.2337772647 -0.3401763111
C 4.6390532152 0.4164532277 0.0512814572
O 5.0132846440 -0.4987143550 -0.6691436566
C 5.3017545312 0.7351069218 1.3644134345
C 2.9124341173 0.9385311208 -1.6258642099
C 1.7856306097 -0.0765416997 -1.4585964748
C 1.0690490051 -0.3262079808 -2.7833698419
C -0.0148292054 -1.3992902224 -2.6931015576
N -0.9969337919 -1.1634095163 -1.6270381022
C -1.9087024955 -2.3087009528 -1.5240413152
C -2.9063364875 -2.1050376966 -0.3879992684
N -3.6591020135 -0.8679277797 -0.6003293265
C -2.7659049499 0.2847587807 -0.7210409955
C -1.7667612278 0.0648195810 -1.8535763064
C -4.9051847031 -0.8722525952 -1.1618472883
N -5.5549965740 -2.0601942417 -1.2371608966
C -6.7898035653 -2.0301779436 -1.7347939158
C -7.4089453672 -0.8636424880 -2.1688113096
C -6.6529020108 0.2974120379 -2.0551599336
N -5.4152512690 0.3180533425 -1.5644814388
H 5.3215608565 -0.4035698000 4.4814080257
H 4.8461582078 0.7438197130 5.7458038763
H 2.8722213205 -0.7656727929 4.7370942754
H 2.6014175503 0.9849253668 4.7184288186
H 2.2742080314 0.4248187447 2.3701112877
H 3.5658121935 -0.7762641008 2.4207386300
H 4.6487748984 2.5592464381 4.1372834306
H 6.1265892432 1.7579879383 3.5917046125
H 2.9049905428 2.9340530885 2.4388967898
H 4.4358671953 3.2989247384 1.6361278491
H 6.0794834192 1.4846532926 1.1575018592
H 5.8013476531 -0.1745478111 1.7078968027
H 3.6765352982 0.5608673279 -2.3082611305
H 2.5224803526 1.8806177425 -2.0166488057
H 2.1960165570 -1.0183240952 -1.0727784833
H 1.0746865229 0.2946338253 -0.7124310352
H 1.7943163132 -0.6583082964 -3.5371052438
H 0.6507632849 0.6155970041 -3.1598509844
H 0.4618878324 -2.3659555822 -2.4833740869
H -0.5140594842 -1.4917694937 -3.6784570733
H -2.4694988671 -2.4656118683 -2.4684364297
H -1.3193027892 -3.2127004618 -1.3302092905
H -2.3661369188 -2.0115174747 0.5627665282
H -3.5900696901 -2.9500070344 -0.3236467728
H -2.2222573159 0.3898167551 0.2267206986
H -2.3109897958 0.0284324104 -2.8198508091
H -1.0869381084 0.9226107563 -1.8840193043
H -7.3067805071 -2.9878070199 -1.7917744123
H -8.4128525416 -0.8604614710 -2.5741046585
H -7.0571870249 1.2571466500 -2.3762182076
H -3.3471152979 1.1886325111 -0.8958029374
