46
CONF7
C 3.5781383514 -3.5100827725 2.4963364848
O 2.6785287373 -2.9371140165 1.5310088866
C 2.9656362753 -1.6855314545 1.1117520838
C 4.0174103867 -0.8860237745 1.5060340951
N 4.2223033895 0.3776775167 1.0258553533
C 3.4001024950 0.8742007998 0.1528223403
N 2.3300844094 0.1415204515 -0.2949646161
C 2.0730843562 -1.1354714969 0.1609959566
N 0.9629263487 -1.5968595333 -0.4173507413
C 0.6037995473 -0.5615599711 -1.2208217271
N 1.3899645950 0.5169351816 -1.2051903787
N -0.5409520823 -0.6303590984 -2.0124743855
S -1.6126822881 0.7223603974 -2.0026752910
O -2.9093151211 0.1849890713 -2.4229713965
O -0.9609629585 1.7645178945 -2.7875963383
C -1.6495453718 1.2060956549 -0.2495949229
C -1.3379809551 2.4906674732 0.2338028544
C -1.1918092328 2.6859168378 1.6047060450
C -1.3557647287 1.6287565187 2.4910870073
C -1.7254200179 0.3749258521 2.0382979021
C -1.9003652615 0.1641889398 0.6702539020
O -2.3074805356 -1.0170676738 0.1521936564
C -2.3771548537 -2.1629954934 1.0070159870
C -2.8337804603 -3.2983159568 0.1183375885
F -1.8981478476 -3.5306744547 -0.8666022716
F -2.9032329828 -4.4319739383 0.8863704848
C -1.2038198787 3.7262288923 -0.6394497998
F -0.0165240900 3.8023888974 -1.2771328404
F -2.1924317037 3.8131083384 -1.5556620898
F -1.2938622876 4.8536240917 0.1106013615
O 3.4896899335 2.0867535017 -0.3820766725
C 4.6092186697 2.8956236217 0.0616990354
H 3.1883599061 -4.5058956910 2.7041450921
H 3.5893179816 -2.9130671700 3.4153205697
H 4.5907633056 -3.5831374321 2.0838782504
H 4.7443416468 -1.2312173307 2.2323889393
H -1.0586247146 -1.4904190364 -1.8433310920
H -0.9552266533 3.6702427446 1.9852156795
H -1.2170482892 1.7941381511 3.5537997706
H -1.8816934984 -0.4306070046 2.7443165002
H -1.3930427094 -2.3960649345 1.4319584755
H -3.1191179176 -2.0212543772 1.8011739107
H -3.8011307378 -3.1315972088 -0.3667503369
H 4.5467994736 3.0636769279 1.1391832262
H 5.5509616146 2.4022487342 -0.1890042328
H 4.5056503954 3.8325541968 -0.4829634352
