47
CONF46
C -0.4887286301 0.8549997685 3.0277680491
C -0.0793750531 1.7540169922 1.8838259597
C 1.0053578827 2.7890939219 2.0793101613
C 1.3185143283 1.5076871996 1.3092476341
C 1.5417874858 1.5945805788 -0.1400748346
O 1.2911717492 2.5289926639 -0.8703155317
O 2.0685152611 0.4160634955 -0.6005276258
C 2.1545481908 0.3249434598 -2.0467533422
C 3.1110148180 -0.7500944412 -2.3102162806
N 3.8506489529 -1.6019402229 -2.5559872991
C 0.8028923950 0.0290665973 -2.6576290682
C 0.0714180467 -1.0597915261 -2.1798286546
C -1.1931038641 -1.3192035324 -2.6926659103
C -1.6890321237 -0.4822725145 -3.6984237286
C -0.9671075170 0.5872259127 -4.1866665239
C 0.2933318462 0.8522351826 -3.6554680751
F -2.9159301649 -0.7438866874 -4.1973311558
O -1.9856166161 -2.3685961347 -2.3198128663
C -1.7031663118 -3.0112521616 -1.1123858373
C -1.3808721436 -4.3599546463 -1.1597535058
C -1.1677297915 -5.0415993768 0.0372353381
C -1.2712663124 -4.3733614114 1.2546851140
C -1.5965905929 -3.0174545233 1.2787419313
C -1.8190097831 -2.3253003216 0.0918899906
C 1.6588578409 3.0037182051 3.3720520178
C 2.0238583452 4.1885535509 3.8622223439
Cl 1.7830776128 5.7051271511 3.0379249379
Cl 2.7965656007 4.3543012438 5.4187233707
C -1.2186723724 2.1133383571 0.9579059078
H -1.1966196503 1.3811110312 3.6777742026
H 0.3582541968 0.5242075199 3.6319472289
H -0.9901109041 -0.0340790847 2.6311607644
H 0.9021517316 3.6630098695 1.4437266633
H 1.8957460850 0.7438325823 1.8192900691
H 2.5598649612 1.2567987052 -2.4576707604
H 0.4794954378 -1.6991232605 -1.4041829572
H -1.3989906361 1.2099097931 -4.9625992661
H 0.8646862870 1.7025552100 -4.0111436852
H -1.3015494425 -4.8602541353 -2.1190987531
H -0.9168557436 -6.0972651473 0.0133431674
H -1.1024827468 -4.9072518189 2.1840531204
H -1.6871312870 -2.4953430564 2.2259553096
H -2.0793299195 -1.2715130982 0.0950605662
H 1.8727030905 2.1386048057 3.9921638001
H -1.6142769711 1.2105534739 0.4783918738
H -0.9154411147 2.8171703871 0.1815538957
H -2.0254721734 2.5678395377 1.5422123410
