35
CONF591
C -2.0564371041 2.0704414705 0.8660982134
C -1.9125548366 3.5455859055 0.5644115049
C -0.5210417615 4.1077847615 0.7259906866
Br -0.0162014901 4.0673426881 2.6484794444
Br -2.4266447085 3.8987114456 -1.3304976538
O -1.1472532719 1.3109475549 0.0438446109
P -0.0999764852 0.2913358467 0.7061172217
O -0.5496115358 -0.3833667175 1.9443528290
O 1.2366946827 1.1607764919 0.8215402321
C 2.1635446322 1.0035101601 1.9174613526
C 3.5432423068 0.7022924724 1.3787076806
C 3.6433955386 -0.5221881497 0.5018154816
Br 3.3093946794 -2.1379310027 1.6075273821
Br 4.1771280757 2.2343382463 0.2663534659
O 0.2582303091 -0.6306615264 -0.5533950891
C -0.7837284362 -1.4193971086 -1.1920389310
C -1.1805569031 -2.5989873801 -0.3177916621
C -0.0465927722 -3.4843715741 0.1278292090
Br 1.0755231993 -4.1536326856 -1.3477078386
Br -2.5525272128 -3.5992439728 -1.3385143667
H -3.0720598421 1.7334423726 0.6427039728
H -1.8508928490 1.8983807384 1.9298355214
H -2.6402890763 4.1047723965 1.1561710935
H 0.2288652916 3.5178446205 0.2001216588
H -0.4702311277 5.1548790555 0.4369421147
H 1.8411651687 0.1845980867 2.5716904383
H 2.1653826148 1.9391483308 2.4812179146
H 4.2495551487 0.6557283550 2.2101158086
H 2.8953923189 -0.5292607794 -0.2904243529
H 4.6435621800 -0.6516334432 0.0948944750
H -1.6498079952 -0.7866678265 -1.4061848234
H -0.3438852875 -1.7698229994 -2.1271099380
H -0.4116623998 -4.3642936148 0.6548119343
H 0.6261435872 -2.9116177352 0.7702041869
H -1.6970462688 -2.2556233555 0.5836611512
