40
CONF159
C 0.6029567206 3.2226182878 -1.7787841717
C 0.9625267063 2.4205819622 -0.5529739730
O 1.5291380209 1.1514436385 -1.0238155000
P 1.8177852118 -0.0836883406 -0.0546120095
S 1.7573565053 0.2452950465 1.8570731437
O 3.1623262194 -0.7038780958 -0.6552218975
C 4.4277455602 -0.0008393075 -0.4169613272
C 5.4978884357 -0.7371549905 -1.1840353989
O 0.8829424406 -1.3108884549 -0.6253419159
C -0.4760627413 -1.3546892542 -0.4850199525
N -1.1248792186 -0.2608846670 -0.1318502694
C -2.4621627140 -0.3801854180 -0.0121308041
N -3.1595952805 -1.4933980578 -0.2401981307
C -2.4735307258 -2.5950397488 -0.6146332890
C -3.2722219381 -3.8316752834 -0.8734941875
C -1.0928384298 -2.5733189628 -0.7462727856
C -3.2215316228 0.8543556673 0.4075932521
C -3.1458598688 1.9275913274 -0.6864697364
C -2.7040997336 1.3895153530 1.7475781361
H -0.1404143493 2.6954569961 -2.3836686943
H 1.4868428846 3.4187238488 -2.3918864015
H 0.1781258465 4.1807909910 -1.4642619251
H 1.7201302373 2.9203960540 0.0575894171
H 0.0873870575 2.2005707693 0.0632762563
H 4.6228862025 -0.0038589298 0.6602459187
H 4.3230981573 1.0339234067 -0.7621886598
H 5.5770425068 -1.7724023618 -0.8414445768
H 6.4591200423 -0.2419481049 -1.0178592098
H 5.2840518263 -0.7305439076 -2.2561386862
H -3.9756249378 -3.6511759040 -1.6931980448
H -3.8657392432 -4.0835251347 0.0109541750
H -2.6314966961 -4.6762339887 -1.1319246233
H -0.5196252271 -3.4463874289 -1.0323359123
H -2.1121897903 2.2556278161 -0.8306625162
H -3.5244836295 1.5493818147 -1.6412792731
H -3.7445017510 2.7966866495 -0.3965754639
H -3.3040621594 2.2498281534 2.0599855222
H -2.7630063196 0.6253452171 2.5290374216
H -4.2653963794 0.5467974020 0.5257220924
H -1.6614249042 1.7096395437 1.6598046099
