44
CONF33
C -5.5857056714 -0.5601466411 2.8300669306
C -4.0981582964 -0.7567715469 2.6132667588
C -3.7479027430 -1.4525064253 1.2999764256
O -3.6503090542 -0.3477732613 0.3827772405
C -3.0194218992 0.6860483306 1.1155216324
O -3.4460850187 0.5366572092 2.4664326127
C -3.5703888428 2.0224602118 0.5870104700
N -3.1151695850 2.2929872915 -0.7645509418
C -3.5836939051 1.7933246635 -1.9265356771
N -2.8290945820 2.2014681823 -2.9392964687
C -1.8822355752 2.9612875349 -2.3190862570
N -2.0107139220 3.0450131076 -1.0013538852
C -1.4968346683 0.5892021097 0.9905414489
C -0.5968508059 1.3215139024 1.7707766688
C 0.7776784606 1.2304468722 1.5985554747
C 1.2793998754 0.4008296556 0.6014656482
C 0.4201846885 -0.3257684219 -0.2168023682
C -0.9475102591 -0.2189157537 -0.0089185726
O 2.6464108153 0.4101508513 0.4366523004
C 3.2739680574 -0.7312952287 -0.0352446222
C 4.2412609089 -0.5642916810 -1.0187713460
C 4.9616964544 -1.6666106271 -1.4679325201
C 4.6895155512 -2.9162148399 -0.9251093903
C 3.7237231194 -3.0893532814 0.0605717024
C 3.0124476853 -1.9841927398 0.5130413557
Cl 5.5921608535 -4.3159286982 -1.4950350297
Cl -1.1464045925 2.4356304491 3.0194246872
H -6.0437313620 -0.1056119081 1.9457739085
H -6.0651211231 -1.5259314741 3.0200645848
H -5.7617552502 0.0886774326 3.6923065004
H -3.6370470578 -1.2597421604 3.4698119055
H -2.7894643684 -1.9843099173 1.3626393062
H -4.5292454477 -2.1220357659 0.9365159959
H -4.6618260867 1.9628425875 0.5960811339
H -3.2422646072 2.8406998086 1.2286733788
H -4.4603933336 1.1618188914 -1.9810868959
H -1.0848778252 3.4699859756 -2.8460500973
H 1.4583315716 1.8005167895 2.2197045876
H 0.8075920858 -0.9568990698 -1.0083123044
H -1.6234185613 -0.7731753290 -0.6499923537
H 4.4290430235 0.4229844232 -1.4265085486
H 5.7190598166 -1.5505275687 -2.2345810152
H 3.5333768940 -4.0706612056 0.4798515215
H 2.2631204086 -2.0986437076 1.2890491732
