44
CONF14
C -3.5924919158 -0.7347783755 -0.8998765242
C -3.1498309664 -0.0155876870 0.3837306156
C -3.4991721151 -0.8873127687 1.5916906625
C -3.8550884247 1.3506449184 0.4794905971
C -3.1032999774 2.2725971101 -0.4920519906
C -1.6872043232 1.6565101406 -0.6637619953
C -0.5844345525 2.7097190985 -0.4581375681
C 0.8130591091 2.2320064110 -0.7503676455
C 1.1970389810 1.9271854687 -2.0607030016
C 2.4701495332 1.4481800605 -2.3514158865
C 3.3730785774 1.2799635830 -1.3080817953
Cl 4.9905973051 0.6716492358 -1.6611567148
C 3.0342023195 1.5854334357 0.0031383633
C 1.7524209613 2.0611755589 0.2692415061
C -1.6482267590 0.4377986663 0.3035516342
O -1.2132542899 0.9297979828 1.5769677411
C -0.6619500890 -0.6234868176 -0.2158222009
N -0.6219949805 -1.8334539559 0.6019267361
C -0.9071249831 -3.1033416666 0.2600210109
N -0.7758711663 -3.9068009030 1.3118653812
C -0.4005003891 -3.0502361647 2.2979072902
N -0.2870099991 -1.7823318892 1.9154680717
H -4.6764666955 -0.8878030672 -0.8689588474
H -3.3635160557 -0.1605853438 -1.8028200619
H -3.1274821948 -1.7208228312 -0.9952891285
H -4.5890180098 -0.9840833192 1.6549004446
H -3.1523726427 -0.4359719043 2.5256216896
H -3.7648913594 1.7255758930 1.5042750996
H -4.9221289073 1.2625109665 0.2500679326
H -3.0393162203 3.2942114963 -0.1048521721
H -3.6092091826 2.3285994313 -1.4608023901
H -1.5862326773 1.2662077149 -1.6828667818
H -0.6396881328 3.0946906038 0.5634136361
H -0.8182242477 3.5430385647 -1.1331245606
H 0.4883382044 2.0616529452 -2.8737246990
H 2.7560314597 1.2145743733 -3.3709337787
H 3.7534313965 1.4538245210 0.8038004585
H 1.4768345658 2.2907324967 1.2939863250
H -3.0880877151 -1.8986297879 1.5144771136
H 0.3450047336 -0.1974346216 -0.2381637771
H -0.9281528879 -0.9342126520 -1.2284481656
H -1.1924849253 -3.3905216833 -0.7435865011
H -0.1994854404 -3.3574328160 3.3164124503
H -0.9881018438 0.1618602355 2.1271821449
