43
CONF70
C 0.3313462810 0.6369147407 2.5145448051
C -0.5794657642 1.4552941382 1.6006021417
C -0.5382458807 2.9393070040 1.9637707245
C -0.1847232491 1.2890815224 0.1149231342
C -0.2877787826 -0.1270835402 -0.3801452931
C 0.8591660872 -0.8506265523 -0.7506236874
C 0.7158089531 -2.1964664870 -1.1106252683
N -0.4471920311 -2.8293835318 -1.1418885955
C -1.5424852805 -2.1481774941 -0.8188981807
C -1.5185455832 -0.8094392691 -0.4236468853
C -2.8013388684 -0.1726149626 0.0169932582
O -3.5316365773 -0.6760161062 0.8481500309
O -3.0443251055 0.9697638080 -0.6230582350
C -4.2470876609 1.6796650509 -0.2111617480
C -2.8298596492 -2.9438266398 -0.9159930372
F -2.8989970337 -3.8110296652 0.1545945074
F -2.8070600404 -3.7199398397 -2.0464945887
C 1.9198450449 -3.0719579036 -1.4421532139
F 2.8181157279 -2.4318395252 -2.2233532101
F 2.5665355022 -3.4471924630 -0.3107106608
F 1.5622769879 -4.1939605632 -2.0875834632
C 2.1877136538 -0.1889872987 -0.7531182404
N 3.0364263762 -0.3179698191 0.1817063463
C 4.2140683727 0.5325319563 -0.0276977557
C 4.3379088197 0.9045711382 -1.5147966561
S 2.6060707190 0.8668396825 -2.1451481802
H 0.2996841289 -0.4304484995 2.2704378075
H 1.3698000723 0.9745358847 2.4186195487
H 0.0281628807 0.7544012002 3.5595639483
H -1.6107051936 1.1037869879 1.7380041861
H -1.2151852728 3.5214372610 1.3297518832
H 0.4759884895 3.3358632596 1.8364184434
H -0.8312576502 3.0872902387 3.0078555998
H 0.8426841794 1.6430661316 -0.0014610061
H -0.8216204983 1.9322913109 -0.4993805940
H -4.1796213077 1.9268139333 0.8507584740
H -4.2666173750 2.5810498828 -0.8207907858
H -5.1256381746 1.0597746397 -0.4003106693
H -3.7412007129 -2.3431372141 -0.9330114652
H 4.0819253373 1.4298458798 0.5932516887
H 5.1148077708 0.0167561766 0.3184803012
H 4.9211419615 0.1693006855 -2.0755848137
H 4.7611103456 1.8999143638 -1.6607903047
