47
CONF92
C -4.4923225401 -3.2755844349 -0.7489189064
C -3.6759318018 -2.0128286131 -1.0154549763
C -3.8179229170 -0.9737691082 0.0968633851
C -2.9907072023 0.2849655394 -0.1650571360
C -3.0329102414 1.3201881941 0.9676200068
C -4.4035643465 2.0105222458 1.0621723629
C -4.6018226998 2.8785329069 2.3058756551
C -1.9409253442 2.3704373739 0.7816671096
O -0.6324697095 1.7595752807 0.8683896312
C 0.1049905025 1.6847117065 -0.2768378646
O -0.2553824930 2.1205384320 -1.3515433070
C 1.3750850212 1.0024270111 -0.0041748275
C 2.2629175547 0.8098681465 -0.9965538175
C 3.5562791546 0.1594325247 -0.9195100245
C 4.3413742772 0.0613583920 -2.0834451355
C 5.5805897202 -0.5475281407 -2.0724138858
C 6.0812286757 -1.0855333271 -0.8820415309
C 5.3216256995 -1.0018850817 0.2914495303
C 4.0794665854 -0.3865860467 0.2612350538
O 7.3067389040 -1.6653254515 -0.9665606784
C 7.8592160757 -2.2330812029 0.2194619952
H -4.3779076418 -4.0063602491 -1.5553124377
H -4.1778698232 -3.7546999714 0.1846613982
H -5.5585789913 -3.0412657215 -0.6579984921
H -2.6160049447 -2.2741714669 -1.1311373469
H -3.9859105865 -1.5651963772 -1.9686869068
H -3.5022016839 -1.4200592012 1.0507071596
H -4.8803311961 -0.7228091912 0.2110974083
H -3.3182388819 0.7624877655 -1.0993696782
H -1.9505062697 -0.0210874349 -0.3293145505
H -2.8387887658 0.8020032053 1.9193491714
H -4.5600363093 2.6120376235 0.1558581987
H -5.1805071445 1.2389951068 1.0510283880
H -5.6329369610 3.2398258430 2.3648250269
H -3.9515006328 3.7580372657 2.3115781782
H -4.3974878381 2.3059024504 3.2172147454
H -2.0431435773 2.8731168188 -0.1857738243
H -1.9649978334 3.1120034937 1.5845263439
H 1.5431175950 0.6732984434 1.0153714256
H 1.9760123941 1.1878037002 -1.9771941159
H 3.9599043611 0.4762518628 -3.0119323406
H 6.1824080872 -0.6211035284 -2.9714427445
H 5.6876662371 -1.4106181976 1.2249615576
H 3.5068454322 -0.3324060807 1.1810388751
H 8.8287981073 -2.6388896097 -0.0708714459
H 7.2259156448 -3.0419705443 0.6051776454
H 8.0007266440 -1.4715624736 0.9967939966
