44
CONF3
C 4.9211080921 0.8391061693 -2.5384987963
N 3.9714148483 0.9611043701 -1.4378347169
C 2.6963112073 1.5013895191 -1.9120113013
C 1.7278097543 1.6775193662 -0.7467067615
N 1.5517412020 0.4019422514 -0.0530770876
C 2.8089986456 -0.1936588793 0.3926463883
C 3.7610021204 -0.3352469745 -0.7901581001
C 0.4374660171 -0.3688958409 -0.1054361906
O 0.3264052818 -1.4938863592 0.3482981677
O -0.5962955768 0.2996234715 -0.7302045907
C -1.8710927139 -0.3354036648 -0.7047704701
N -2.4414831338 -0.4501109294 0.6410505993
C -2.8022776450 -1.7668300501 0.9897475992
O -3.3133017598 -2.1253587699 2.0262562299
C -2.4544595118 -2.5816902353 -0.2059931139
N -2.6245956564 -3.8868416954 -0.3563164043
C -2.1932030818 -4.3474514416 -1.5384727028
C -1.6290744450 -3.5216948325 -2.5156443853
N -1.4731970814 -2.1980631126 -2.3527433403
C -1.8910731430 -1.7647730870 -1.1754703334
C -2.7025047590 0.7026983657 1.3959175738
N -2.6860393729 1.8473590170 0.7078966587
C -2.9144075303 2.9869294976 1.3570288570
C -3.1744109992 3.0209417516 2.7211703375
Cl -3.4679496810 4.5504045027 3.5143918295
C -3.1917338417 1.8323343563 3.4415530187
C -2.9473770150 0.6435691090 2.7751526699
H 4.5708965375 0.1505872890 -3.3320619001
H 5.0925182136 1.8220368938 -2.9897629448
H 5.8786712658 0.4661595566 -2.1603353816
H 2.8794162540 2.4763500260 -2.3799089218
H 2.2291011505 0.8426116996 -2.6738502223
H 2.1472878634 2.3987602073 -0.0325498443
H 0.7641607147 2.0479343725 -1.0934072323
H 2.5958609073 -1.1648511262 0.8417181102
H 3.2568896232 0.4643717852 1.1487951439
H 4.7272564359 -0.7114509782 -0.4330072821
H 3.3477174829 -1.0841006065 -1.4978065735
H -2.4883508060 0.3152871206 -1.3310255831
H -2.3009410967 -5.4142758721 -1.7210166729
H -1.2979488725 -3.9423840000 -3.4624809212
H -2.8938920336 3.9046056987 0.7738911779
H -3.3858578958 1.8368015955 4.5080324699
H -2.9505658386 -0.3034598387 3.2954823353
