56
CONF180
O 5.3429165176 2.3295208714 -1.3305818311
C 4.1776442940 3.1616700537 -1.2647965003
C 3.0915233420 2.6376081542 -2.1947481735
N 2.8166553121 1.2214653710 -1.9239602958
C 2.0192748886 1.0435254329 -0.7044520043
C 1.7746564597 -0.4316006074 -0.4303367700
N 1.0746271238 -1.0510172790 -1.5577655929
C 0.7759279237 -2.4643143119 -1.3184690890
C -0.3150715347 -2.6844902047 -0.2669600132
C -1.5803517152 -1.8639513951 -0.5689082006
N -1.6298853404 -0.6219284797 0.2178166380
C -2.0116584206 0.5817622214 -0.4073388594
C -2.7033615112 0.6042284848 -1.6261447570
C -2.9996314296 1.8107703604 -2.2555101049
C -2.6571569008 3.0228279402 -1.6660921553
C -2.0238187245 3.0196978941 -0.4258891955
C -1.6940016497 1.8148978297 0.1869977842
S -0.7844635368 1.8393638149 1.7157184702
C -1.4398748623 0.3615499172 2.4424043088
C -1.5541831011 0.2713334472 3.8244634033
C -1.9283488976 -0.9266068730 4.4266124228
C -2.2184899959 -2.0154603631 3.6142020869
C -2.1469740727 -1.9257050863 2.2234449454
C -1.7500716414 -0.7332015455 1.6097548312
C -2.6012342985 -3.3363877160 4.2048701075
F -2.7719624799 -3.2842325177 5.5443843373
F -3.7603506335 -3.8176246852 3.6780700123
F -1.6584369135 -4.2923279336 3.9672344457
C 1.8792670024 -0.8836950154 -2.7708412202
C 2.1192612972 0.5911717125 -3.0495106447
H 4.9929759924 1.4261407902 -1.4062135223
H 4.4708747532 4.1691924455 -1.5770587806
H 3.8126247244 3.2258892497 -0.2289238851
H 2.1840959508 3.2643135504 -2.1000914792
H 3.4472995649 2.7175271932 -3.2292079759
H 1.0449474974 1.5630491232 -0.7934944743
H 2.5500077736 1.4778340978 0.1493829322
H 2.7430458934 -0.9355930415 -0.2349226331
H 1.1607455939 -0.5191039462 0.4720970964
H 0.4277786516 -2.8871151285 -2.2699694276
H 1.6835128727 -3.0290709658 -1.0277301981
H -0.5620671253 -3.7518131982 -0.2612914296
H 0.0574974188 -2.4539786243 0.7360283253
H -2.4950498638 -2.4537637774 -0.4221292320
H -1.5501097574 -1.5779110038 -1.6196148960
H -3.0185360480 -0.3208423227 -2.0926630808
H -3.5182572344 1.7934208258 -3.2087354414
H -2.8901648968 3.9632250386 -2.1537936699
H -1.7632055548 3.9537408741 0.0626037713
H -1.3198103694 1.1361561692 4.4367124931
H -1.9880747227 -0.9988485469 5.5054464237
H -2.3892219860 -2.7960550873 1.6263710145
H 1.3409274170 -1.3255400710 -3.6175965189
H 2.8560893768 -1.4016027917 -2.6844970586
H 2.7338130461 0.6959676753 -3.9509870064
H 1.1458338637 1.0859324776 -3.2420317333
