45
CONF1
C 1.9157716036 -2.9035056624 -3.1744457353
C 2.2458272545 -1.7970420369 -2.1847624609
C 0.9629177177 -1.0744831098 -1.7650491864
O 0.5047885591 -0.1559139709 -2.4434272445
N 0.3573408640 -1.5463978137 -0.6511868869
C -0.8321286669 -0.9521254758 -0.1273733131
C -0.8252309490 0.5317888811 0.3820198052
N -1.8970641183 0.8178155657 -0.5782415767
C -1.9450974379 -0.4719507775 -1.0909482929
O -2.6582316678 -0.9841926514 -1.9219407635
C -2.9824327841 1.6677499532 -0.1503967856
C -3.2258413433 1.3286815090 1.3678326217
S -1.5087809949 0.9611239759 2.0368712763
C -3.8274070513 2.4762846643 2.1720596224
C -4.1117093576 0.0865592647 1.4629645470
C -2.6231602024 3.1288280334 -0.3738333861
O -1.4966142353 3.5718920307 -0.3452262670
O -3.7219727328 3.8686527129 -0.5925658149
O 2.9137683745 -2.4144960377 -1.0752234939
C 3.5259462427 -1.6001195781 -0.1511488494
C 4.1795307918 -2.2680721590 0.8883733020
C 4.8248605068 -1.5395874501 1.8783825348
C 4.8246435340 -0.1440728683 1.8457721974
C 4.1699476572 0.5108630076 0.8087026425
C 3.5159243281 -0.2046181035 -0.1956761235
H 1.3855725092 -2.4810796876 -4.0314685345
H 2.8388499261 -3.3711357924 -3.5254268021
H 1.2837359938 -3.6613400995 -2.7026628649
H 2.8988430102 -1.0519527070 -2.6549020481
H 0.7957168856 -2.2988491954 -0.1386140728
H -1.2688810236 -1.6157906460 0.6239869259
H 0.1085457174 1.0732578967 0.2111095974
H -3.8863733192 1.4280142901 -0.7194567229
H -4.8173952329 2.7208963329 1.7742586890
H -3.2018422719 3.3724003265 2.1459644196
H -3.9488979533 2.1716068882 3.2152702527
H -4.1900476461 -0.2366731141 2.5040785682
H -5.1154483650 0.3250623213 1.0927955454
H -3.7151360153 -0.7469582508 0.8769363289
H -3.4567731489 4.8012401961 -0.6821394433
H 4.1720245708 -3.3532711538 0.9031675155
H 5.3311963572 -2.0665186519 2.6813325649
H 5.3286249198 0.4229913493 2.6212470572
H 4.1587041770 1.5958449361 0.7703500142
H 3.0133852073 0.3384670581 -0.9873601474
