50
CONF249
C -1.8376581527 -0.3166021040 -2.6245641652
C -2.3105397505 -1.7216716885 -2.3374031580
C -1.4691905089 -2.9107061992 -2.6989393583
C -1.6572795321 -2.5393319332 -1.2167241501
C -0.5211481177 -2.0053810641 -0.4578997262
O 0.4797389538 -1.4789739527 -0.8963779857
O -0.7378086448 -2.1772516087 0.8843596756
C 0.2921748858 -1.6075778280 1.7354793513
C 0.1688841883 -2.3086772802 3.0131644071
N 0.1024332161 -2.8443469937 4.0337527442
C 0.1122210776 -0.1144299646 1.9051942396
C 1.1424239347 0.7415454955 1.5336029472
C 0.9687037134 2.1162557936 1.6769761302
C -0.2229352444 2.6371869644 2.1776557279
C -1.2419123685 1.7632522278 2.5481746715
C -1.0832883340 0.3881644346 2.4213619341
O 2.0040095907 2.9074117549 1.2311890828
C 2.1802591095 4.1658147364 1.7941083654
C 2.2852468325 4.3263935445 3.1731989053
C 2.5379847435 5.5954038046 3.6847867228
C 2.6927601008 6.6855616710 2.8290209899
C 2.5938476129 6.5028581474 1.4518606061
C 2.3329280827 5.2394966391 0.9256197816
C -0.1631333936 -2.7467859462 -3.3633676215
C 0.7222568437 -3.7024246785 -3.6538160824
C 0.6752992998 -5.1547219833 -3.2742446276
F 0.6095289450 -5.9609092047 -4.3632336966
F -0.3850469787 -5.4460335826 -2.4955994062
F 1.7838177530 -5.5221743605 -2.5859877547
Cl 2.1780305851 -3.3209574702 -4.5600389193
C -3.8093392060 -1.8959461567 -2.4531454458
H -2.3720015891 0.3860162142 -1.9769820118
H -0.7688086051 -0.1779679313 -2.4607588076
H -2.0690947865 -0.0603731418 -3.6641699737
H -2.0174342554 -3.8089678727 -2.9613350036
H -2.3236977066 -3.1783748244 -0.6480525298
H 1.2805460017 -1.8273272986 1.3158141065
H 2.0715416498 0.3576586034 1.1255217991
H -0.3544249646 3.7091442619 2.2742254708
H -2.1704357101 2.1665904405 2.9389484740
H -1.8801099487 -0.2877306427 2.7152612557
H 2.1719997031 3.4705401359 3.8307600762
H 2.6234819733 5.7293816189 4.7585659662
H 2.8927478681 7.6716136302 3.2350761927
H 2.7150733818 7.3462323437 0.7794137611
H 2.2491247758 5.0780773952 -0.1439557571
H 0.0986750929 -1.7463375841 -3.6940304790
H -4.1344389053 -1.6365753474 -3.4665448944
H -4.1115857180 -2.9264594513 -2.2470975593
H -4.3244275999 -1.2345813853 -1.7488242555
