39
CONF4
C 5.7999774709 2.0712825700 -1.3197294345
N 5.7039243494 1.2303521742 -0.1303846218
C 6.7283878897 1.4391972281 0.8872337059
C 4.5641603366 0.5471577516 0.2119481590
O 4.4722402690 -0.1320535166 1.2404328434
N 3.5247620987 0.6497316971 -0.7048772500
C 2.2826498440 -0.0015491784 -0.5968049015
C 2.1460798924 -1.2917494337 -0.0718980374
C 0.8954196614 -1.8961838074 -0.0249990084
C -0.2234195592 -1.2352302306 -0.5224150324
C -0.0977590978 0.0376605185 -1.0733103229
C 1.1487523684 0.6501951539 -1.0969081760
O -1.4206061053 -1.9303074484 -0.5109032024
C -2.5993850905 -1.2167769235 -0.3379740680
C -3.6713520048 -1.5329504200 -1.1683904910
C -4.8948417460 -0.9064843831 -0.9813629004
C -5.0513410533 0.0481002781 0.0295019665
C -3.9715024953 0.3626915578 0.8595802772
C -2.7473551344 -0.2784597571 0.6754763239
O -6.2911491502 0.6130481506 0.1261101761
C -6.4898635493 1.5928450198 1.1513110720
H 5.2354557603 3.0105473947 -1.2185679450
H 6.8505729426 2.3257866345 -1.4751382412
H 5.4573978331 1.5356328505 -2.2104245557
H 6.5863175010 0.7234440439 1.6957417898
H 7.7192431002 1.2917194717 0.4456304128
H 6.6763482486 2.4578597503 1.2966701936
H 3.0129280425 -1.8185731050 0.3032866894
H 0.7837070391 -2.8936797622 0.3874322287
H -0.9653138151 0.5522636805 -1.4721271466
H -3.5410117772 -2.2709766469 -1.9531382511
H -5.7405814136 -1.1434527076 -1.6186776288
H -4.0662931186 1.0911457029 1.6553873488
H -1.9100790465 -0.0414228415 1.3240413723
H -7.5280579471 1.9128516995 1.0581152557
H -6.3258806399 1.1618192648 2.1462612148
H -5.8254708626 2.4536046429 1.0080924071
H 1.2447019726 1.6475586004 -1.5172175071
H 3.5332443345 1.4348732016 -1.3370933900
