44
CONF103
C 0.6108815712 2.3316487040 1.7374349846
C 1.0873086051 1.8411312542 0.4135889288
N 0.2361213472 1.0981032825 -0.3090710830
C 0.7130903562 0.5970026676 -1.4587778379
N 1.9391964863 0.8417002452 -1.9345023764
C 2.6819455390 1.6241377031 -1.1537319541
N 2.3279423875 2.1435269170 0.0325870245
O 3.9123325079 1.9467548329 -1.5366307108
C 4.3822676427 1.4274798254 -2.8074247847
N -0.0940957626 -0.2274653116 -2.2309681344
C 0.4033455058 -0.6215893450 -3.5619449298
C -1.2611418625 -0.9006937756 -1.7863273174
O -1.7420788648 -1.8135214759 -2.4362514342
N -1.8092558403 -0.4178904057 -0.6170468757
S -2.6864925241 -1.4455155950 0.4319544803
O -4.1092530016 -1.1010645984 0.3226080483
O -2.2823263524 -2.8486570172 0.2612712966
C -2.0572408815 -0.8417919065 2.0044036708
C -2.8270548493 0.0922718229 2.6887926700
C -2.4021161039 0.5377981269 3.9367850353
C -1.2353737399 0.0275441463 4.4961342945
C -0.4839589023 -0.9232434278 3.8123742723
C -0.8733928424 -1.3584567080 2.5458711010
C -0.0007673870 -2.3741295899 1.8730838063
O 0.2813820400 -3.4403344015 2.3762216087
O 0.4764987511 -1.9275656640 0.7060269847
C 1.3010393823 -2.8683881535 -0.0348368580
H 1.0717383678 3.2895241825 1.9832457472
H -0.4775623350 2.4077380277 1.7546629553
H 0.9107516243 1.6064585664 2.5045412377
H 3.7462989826 1.7850379456 -3.6201284991
H 4.3905468063 0.3355256844 -2.7889553013
H 5.3934525955 1.8187156490 -2.9088101226
H 0.8413674757 0.2487767437 -4.0484108881
H -0.4406962520 -0.9892586471 -4.1410713521
H 1.1585432059 -1.4091234264 -3.4790387091
H -3.7508964404 0.4566353933 2.2542499524
H -2.9927881555 1.2728491903 4.4724930176
H -0.9076833830 0.3656611770 5.4734027390
H 0.4226398912 -1.3263455149 4.2516802218
H 1.6223202294 -2.3298509560 -0.9255533267
H 2.1614741008 -3.1669470722 0.5670855527
H 0.7046477087 -3.7433345879 -0.3040727655
H -1.2048014706 0.3025140166 -0.1409286627
