42
CONF696
C -2.6740818795 -0.8759471202 1.1021647192
C -3.0596282642 0.5403646443 0.7603402609
O -1.8801451198 1.2779771072 0.4498767325
C -2.1744604979 2.6101476572 0.0333800330
C -0.8853306697 3.3049611195 -0.3188727341
O -0.3647957455 2.7217805937 -1.5181758623
C 0.9948950097 3.0750413872 -1.7933643638
C 1.9712379080 2.0330301404 -1.2942878981
O 1.9915406732 2.0588808413 0.1357025482
C 2.9155840143 1.1439021305 0.7284741924
C 2.4174961317 -0.2846411313 0.8187192284
O 2.5448402522 -0.9294509332 -0.4542831041
C 2.4026755440 -2.3506209605 -0.4129277031
C 0.9696194271 -2.8402855839 -0.4179314953
O 0.3675823557 -2.5849648437 0.8525190038
C -0.8614980219 -3.2799881161 1.0549627394
C -1.9675449372 -2.9116343164 0.0702703976
O -2.1843496805 -1.5110512613 -0.0794110180
H -3.5611738791 -1.4080016862 1.4814843296
H -1.9095269180 -0.8688857845 1.8928977816
H -3.5791004184 0.9897354155 1.6225324799
H -3.7497780334 0.5459614856 -0.0986008298
H -2.8495862822 2.5962925869 -0.8375718128
H -2.6726160796 3.1656106203 0.8447041028
H -0.1696347788 3.1979811930 0.5056977488
H -1.0857188309 4.3771591622 -0.4743246789
H 1.2316305983 4.0617756428 -1.3698524798
H 1.0946863012 3.1387158633 -2.8836460457
H 1.6726207354 1.0423474179 -1.6616300285
H 2.9758151867 2.2600509741 -1.6903190323
H 3.8796202967 1.1743923629 0.1966926435
H 3.0731441094 1.5071406020 1.7501375262
H 1.3738465701 -0.2936096175 1.1620577884
H 3.0278830573 -0.8200042900 1.5643945650
H 2.8862479591 -2.7262378164 -1.3218408828
H 2.9356784726 -2.7599427658 0.4593701737
H 0.4128189554 -2.3403190988 -1.2244773543
H 0.9742484643 -3.9243731699 -0.6225021211
H -0.7052998364 -4.3698339442 0.9834886093
H -1.1603710521 -3.0499255216 2.0822507403
H -2.8909580304 -3.4154379363 0.4027434348
H -1.7281133790 -3.2780932668 -0.9327903404
