40
CONF35
C 1.7979405127 3.4892595662 -1.3188234453
C 0.7989595858 2.3652036314 -1.1886992707
O 1.4656697347 1.0905722576 -1.4765227140
P 1.8753632767 0.0280049258 -0.3611186189
S 1.9441946536 0.6343665682 1.4829416257
O 3.1984016647 -0.6246461699 -0.9728727323
C 4.4428528890 0.1519320730 -0.9442927102
C 5.4817559350 -0.6415895240 -1.6970022128
O 0.9593591907 -1.3108712391 -0.6518464148
C -0.3912267510 -1.3289171649 -0.4422057417
N -1.0196997244 -0.1851095276 -0.2519740121
C -2.3521457962 -0.2617275540 -0.0601724486
N -3.0618901361 -1.3871816749 -0.0559639201
C -2.3973993319 -2.5458533986 -0.2596990526
C -3.2126327436 -3.7988013233 -0.2539173661
C -1.0245816278 -2.5668831175 -0.4614231989
C -3.0442278371 1.0531280590 0.2098684333
C -2.7394837609 1.4828683634 1.6562251431
C -4.5467995845 1.0147073314 -0.0508215913
H 2.5892031643 3.3903711922 -0.5696773534
H 1.2866514288 4.4439980454 -1.1591303629
H 2.2487451266 3.4999536500 -2.3151376153
H 0.3591124312 2.3202342671 -0.1895301721
H -0.0032659904 2.4348880911 -1.9270810466
H 4.7255841255 0.3056224267 0.1020919436
H 4.2576768853 1.1240485123 -1.4152056271
H 5.6416042019 -1.6154748162 -1.2264169746
H 6.4270019098 -0.0909880542 -1.6849955191
H 5.1801725431 -0.7919644127 -2.7369982952
H -2.5924658508 -4.6820740909 -0.4145592456
H -3.9758388874 -3.7469722302 -1.0373125950
H -3.7380895239 -3.8950191931 0.7016979601
H -0.4721538829 -3.4840360933 -0.6233303985
H -3.1656481642 0.7625804876 2.3632310466
H -1.6613445639 1.5457018673 1.8310688931
H -3.1822748629 2.4636960462 1.8548769239
H -4.7671755572 0.6781729053 -1.0680835050
H -5.0489373799 0.3380782112 0.6462576179
H -2.5788449236 1.7865174495 -0.4609680716
H -4.9655194518 2.0170572173 0.0811432381
