41
CONF56
C -2.6955196232 2.5655866315 -1.1396597316
C -2.4167321109 3.1719340114 0.2430058889
C -2.5535240793 4.6920535005 0.1948481123
N -1.0914069718 2.8412830149 0.7915130988
C -0.8809451387 1.4236189692 1.0715740100
C 0.5678339905 1.1962670163 1.4964052732
O 1.4749530830 1.6034951001 0.4646298296
C 0.8433167855 -0.2446701973 1.8946825978
O 0.5856442517 -1.0404362525 0.7288706487
C 1.1133046493 -2.2941895792 0.6454511852
C 1.6636429677 -2.9818572425 1.7268055618
C 2.1704622351 -4.2669362110 1.5361807186
C 2.1248475732 -4.8639062094 0.2826202616
C 1.5619687177 -4.1671837457 -0.7867721050
C 1.0504437353 -2.8826700545 -0.6308178439
C 0.4546925789 -2.1160606972 -1.7876188815
C 1.3093868186 -0.9632098385 -2.2404356427
C 0.8628561239 0.2701870761 -2.4744646967
H -2.6418419574 1.4729340594 -1.1291343623
H -3.6948172433 2.8441108210 -1.4908187069
H -1.9647475917 2.9391792979 -1.8678527702
H -3.1586684072 2.7769809968 0.9528659911
H -3.5417114740 4.9832527509 -0.1742812026
H -1.8030605876 5.1185908092 -0.4819482826
H -2.4041324376 5.1266663135 1.1870395457
H -0.3787456322 3.1387426201 0.1283053627
H -1.5453576301 1.1203065410 1.8935428973
H -1.0961965948 0.7583066268 0.2168256034
H 0.7913941179 1.8358641699 2.3591094014
H 1.3756833297 0.9700155181 -0.2662016909
H 0.1963296330 -0.5604851736 2.7253582489
H 1.8948076498 -0.3452542542 2.1913283690
H 1.6921820414 -2.5326942773 2.7124641332
H 2.5979533093 -4.7984054982 2.3806436241
H 2.5178755746 -5.8641412222 0.1350493575
H 1.5193873644 -4.6291896364 -1.7696929131
H 0.3393284888 -2.8127683941 -2.6280628607
H -0.5445765407 -1.7454620259 -1.5315615478
H 2.3631956466 -1.1929712940 -2.4004590879
H -0.1828177105 0.5310013507 -2.3227407217
H 1.5233115571 1.0527549947 -2.8365966619
