43
CONF68
C 4.4482541058 -2.4420033861 -0.1643107642
O 4.5955016610 -1.5119761537 0.9163693062
C 3.7538978214 -0.4391885056 0.9392055071
C 2.7802700984 -0.1981088242 -0.0278055698
C 2.0024391352 0.9424426500 0.1689167224
C 2.1661008567 1.8209186933 1.2645872157
C 3.1593612361 1.5573267388 2.2136754072
C 3.9401497259 0.4300594272 2.0409246229
N 1.2415266116 2.8560881059 1.1940074166
C 0.5520112630 2.5862643265 0.1136666727
N 0.9656342232 1.4734279828 -0.5631273667
S -0.8563679212 3.5304017990 -0.4999335453
O -1.0528673469 3.0160886592 -1.9251814295
C -2.1710742906 2.6980397555 0.5885506686
C -2.1012573864 1.2135399708 0.4895172376
N -1.3228835518 0.6193470059 1.4092733305
C -1.1171486618 -0.6946666933 1.3131319933
C -1.6343369024 -1.4934676587 0.2955710822
C -1.3410267211 -2.9598457647 0.2119498299
C -2.4625607248 -0.8578999559 -0.6349989061
O -3.0361846135 -1.6258122534 -1.6199661795
C -2.4048342954 -1.4695198490 -2.9105362787
C -2.7455523622 0.5114312012 -0.5450049834
C -3.7329819904 1.1600215026 -1.4747837299
H 3.4474258667 -2.8901957569 -0.1614121891
H 4.6327692203 -1.9549199447 -1.1291310633
H 5.1977804823 -3.2151603487 0.0059334784
H 2.6174211466 -0.8481061733 -0.8775378823
H 3.3087724148 2.2144417712 3.0641203670
H 4.7180840845 0.1818799001 2.7554048861
H 0.5400296535 1.1061742263 -1.4032859788
H -1.9478194474 3.0540010491 1.5979848476
H -3.1012660344 3.1413240661 0.2251493022
H -0.4900567847 -1.1469450154 2.0815503876
H -0.8971744388 -3.2196958083 -0.7542882123
H -2.2584558183 -3.5493520786 0.3111983190
H -0.6496138378 -3.2562720643 1.0040682018
H -2.4490390697 -0.4278969330 -3.2466368829
H -1.3591120554 -1.7946691685 -2.8611473397
H -2.9597177864 -2.1049418334 -3.6022300063
H -4.4092176240 1.8149337617 -0.9176439065
H -3.2325837297 1.7706348424 -2.2308244305
H -4.3342975137 0.4018573003 -1.9792428442
