21
CONF77
C 0.7058020687 -1.0657996026 -0.0860159758
C -0.1305723664 0.1984697995 0.1194855017
C 0.7590013297 1.4500782552 0.1929297047
O 1.5303726837 1.6974043536 -0.9914098061
C -1.1558453879 0.3737334642 -1.0172117181
O -1.9223694637 -0.8071563281 -1.2843785861
C -0.9082627525 0.0691121991 1.4428361198
O -0.0828515713 -0.1751378198 2.5903776078
O 1.2486992807 -1.0529244587 -1.4242333079
H 0.0771682046 -1.9572897776 0.0548311041
H 1.5195104302 -1.0962316196 0.6505606142
H 0.1257125123 2.3340670339 0.3420782627
H 1.4206809548 1.3580309589 1.0667947145
H 1.8128526351 0.8305668581 -1.3256813259
H -1.8747856940 1.1483769665 -0.7245446494
H -0.6466833464 0.7145348135 -1.9254019110
H -1.3590085006 -1.4075083855 -1.7887183129
H -1.4279306037 1.0149955334 1.6352490540
H -1.6644760161 -0.7197533039 1.3377545566
H 0.1017892876 -1.1206645092 2.6340411276
H 1.8711966167 -1.7869041451 -1.4993427638
