59
CONF9
C 7.0444288532 3.6565461250 -0.9757723543
C 5.5235857219 3.6300972527 -1.1175589889
C 4.9086133826 2.3205863520 -0.6246290806
C 3.3875326608 2.2854454370 -0.7635486355
C 2.7820613569 0.9764713641 -0.2613741343
C 1.2613101160 0.9053577381 -0.4199102652
O 0.6193975956 1.9684066131 0.3192018694
C 0.7314620840 -0.4538968059 -0.0641540428
C -0.1392613801 -0.7349250330 0.9052744209
C -0.6168760462 -2.1088648509 1.2569321572
C -0.1490012609 -2.5308461489 2.6943304782
O 0.5013844796 -3.8102124738 2.6905249781
C -1.4357464681 -2.5379191745 3.5293209570
C -2.4923670685 -3.0293924924 2.5535435714
O -2.2683111394 -4.4483540012 2.3837850560
C -2.1723588207 -2.2279130233 1.2790437916
C -2.7956339304 -2.8116401670 0.0039491470
C -2.6224089577 -1.9279196782 -1.1926232851
C -3.6186569362 -1.4125794859 -1.9162540382
C -3.4289066083 -0.5104145047 -3.0970324572
C -4.1262505641 0.8539103787 -2.9346723743
C -3.8172508907 1.5506649610 -1.6104969300
C -2.3487616367 1.7872460811 -1.3694319562
O -2.0594276692 1.9006003810 -0.0659669600
O -1.5079946660 1.8911666505 -2.2474342705
H 7.5038896301 2.8446342215 -1.5505890135
H 7.3406542042 3.5318523744 0.0718605893
H 7.4648543596 4.6017608527 -1.3337132491
H 5.2474980422 3.7838462918 -2.1692162012
H 5.0854206666 4.4665002617 -0.5569519025
H 5.3466885349 1.4813140215 -1.1832232214
H 5.1817824979 2.1671964847 0.4291180699
H 3.1127425625 2.4268830899 -1.8182420099
H 2.9531360765 3.1272944055 -0.2106807078
H 3.0292538407 0.8215453530 0.7990298986
H 3.2174045366 0.1318407678 -0.8108584794
H 1.0068913969 1.1185173032 -1.4670467029
H 0.8637080607 1.8800211820 1.2522620803
H 1.1229492714 -1.2631669610 -0.6819999292
H -0.5428144414 0.0697606734 1.5217703715
H -0.1928690737 -2.8295489411 0.5476135395
H 0.5959737044 -1.8325525016 3.0870538442
H -0.1797112135 -4.4524765287 2.4362289583
H -1.6854584941 -1.5136336504 3.8292900074
H -1.3493403321 -3.1536031642 4.4293435388
H -3.5219626004 -2.8587083168 2.8953106506
H -2.8961941648 -4.7814282703 1.7301696791
H -2.5936689971 -1.2249689906 1.4385198761
H -3.8659767231 -2.9928565467 0.1715222804
H -2.3232124584 -3.7847611874 -0.1955667758
H -1.5947889427 -1.6924830220 -1.4734227348
H -4.6500054879 -1.6369537922 -1.6326099493
H -3.8344460577 -0.9875999388 -3.9996696286
H -2.3574758207 -0.3602166428 -3.2666904355
H -5.2123970333 0.7172366824 -2.9911793424
H -3.8417824478 1.4995977452 -3.7721400247
H -4.3013751565 2.5365172811 -1.5822819509
H -4.2185959365 0.9867188578 -0.7632593189
H -1.0713336078 1.9902992215 0.0485420227
