39
CONF2
C -2.7827265085 2.0574694904 0.3013556773
C -2.1852959819 0.7342331847 0.7884854775
C -2.7219750990 -0.4514651313 -0.0351561557
C -1.8555847041 -0.4436282857 -1.3057386410
C -0.4485945271 -0.0098116333 -0.8349506296
C -0.6571940032 0.6202047018 0.5887881201
C 0.1291320088 1.9282975112 0.7340110985
C 1.6135226830 1.6846461462 0.7004031424
C 2.1561290497 0.4598559271 0.6831616548
C 1.2580307192 -0.7628104946 0.7251453595
C 0.0039115467 -0.4080855084 1.5275615731
C 0.6583510801 -1.1157026940 -0.6778353770
C 1.6747157789 -1.0331766629 -1.8188928858
C 0.1127877880 -2.5514915068 -0.6455991916
C 3.6371487904 0.2268735650 0.6598689867
H -2.5474600594 2.2419897416 -0.7525514837
H -2.4098808992 2.9079465440 0.8798628995
H -3.8731455341 2.0361028204 0.4020785090
H -2.4301729734 0.6161089865 1.8530205467
H -2.5742912596 -1.3878570241 0.5149912167
H -3.7931177450 -0.3633450767 -0.2482836605
H -2.2484205721 0.2969486534 -2.0105201725
H -1.8640839042 -1.4056228108 -1.8247821059
H -0.0552601650 0.7526140617 -1.5164857699
H -0.1467528493 2.6225750694 -0.0718189307
H -0.1426285910 2.4358201315 1.6738730084
H 2.2629392684 2.5600984551 0.6913897973
H 1.8165552460 -1.6139707877 1.1341967510
H -0.6357303869 -1.2824793657 1.6781592060
H 0.2341314067 0.0202673376 2.5096881528
H 2.1321618826 -0.0403810866 -1.8733114018
H 2.4708780608 -1.7768907270 -1.6958045111
H 1.1772322837 -1.2305863229 -2.7756653744
H 0.9221069859 -3.2420686043 -0.3834315724
H -0.2657549027 -2.8487633207 -1.6285561407
H -0.6954919318 -2.6875164974 0.0778427969
H 3.9236747622 -0.4134158492 -0.1831465997
H 3.9567540405 -0.2991967650 1.5690549667
H 4.1933992105 1.1662134410 0.5895918646
