20
CONF20
C -0.9734036565 0.2205224785 0.9772726220
C -1.7429202565 0.4094780621 -0.3180599971
I -3.5769291576 1.5302365021 0.0732669065
C 0.2444924705 -0.6747631944 0.8356379577
C 1.4031611874 -0.2111886045 -0.1045964595
C 1.9412562366 1.2295262890 0.1548109471
C 3.3083470017 1.5515336779 -0.5314365858
F 4.3085805243 0.9011643596 0.0732548732
F 3.2803795129 1.2086147572 -1.8262519294
F 3.5381217382 2.8690174721 -0.4380014838
F 2.0996019983 1.4281595117 1.4838970562
F 1.0283772704 2.1164387821 -0.3115855096
F 2.4336115208 -1.0852880708 0.0294477564
F 0.9620790726 -0.2701918874 -1.3870766056
F 0.7941413424 -0.8829197670 2.0707024514
F -0.1272426157 -1.9059022967 0.3564458368
H -1.5984872907 -0.2817046062 1.7232120400
H -0.6592808060 1.1779320429 1.4019784715
H -1.2198184724 1.0082806504 -1.0595226734
H -2.0788408842 -0.5314360452 -0.7499662242
