36
CONF5
C -3.8176609095 -1.9731493517 0.3881923116
C -2.6098454847 -2.0140819736 1.3065136235
C -2.0544255323 -3.4096091195 1.5007321253
O -1.5194292783 -1.2385960151 0.6979308890
C -1.5438304792 0.0990144892 0.8552915591
O -2.3728945349 0.6908895149 1.5360780912
C -0.4396614403 0.7488855557 0.1516067293
C 0.3091811364 -0.0453810624 -0.8630649860
O -0.2166508704 -0.6244646636 -1.7941890754
O 1.6303470339 -0.0276009568 -0.6278861742
C 2.5063973108 -0.7097501682 -1.6026363996
C 3.8483995997 -0.0168968504 -1.5006258587
C 2.5611066767 -2.1850624170 -1.2554978134
C -0.1472817057 2.0717484322 0.3658135654
S 1.2110161477 2.8662763304 -0.4290968656
C 0.6392752119 4.5779168775 -0.0849920884
C 0.0411006618 4.5669734983 1.3013149514
S -1.0952039697 3.1199614714 1.4135867733
H -4.1659350159 -0.9479796559 0.2389338596
H -4.6320376834 -2.5530226588 0.8329816755
H -3.5687260409 -2.4124123356 -0.5831649003
H -2.8436630120 -1.5528794857 2.2707987463
H -1.7808652900 -3.8515212566 0.5373319345
H -1.1735706795 -3.3930428170 2.1482068609
H -2.8170340965 -4.0400485304 1.9667007172
H 2.0645140516 -0.5617563028 -2.5924062747
H 4.2622733764 -0.1244274000 -0.4931182363
H 3.7589406168 1.0465310975 -1.7377328355
H 4.5432278820 -0.4743981908 -2.2107420433
H 2.9726144647 -2.3233798338 -0.2506097822
H 3.2101367120 -2.7005571272 -1.9698853828
H 1.5677410300 -2.6385005696 -1.3017742693
H -0.0903856199 4.8682359264 -0.8458852160
H 1.5165240805 5.2284493118 -0.1442062874
H 0.8078829803 4.4727602257 2.0754168819
H -0.5615779543 5.4608759163 1.4870065970
