45
CONF120
C 9.3614071317 -0.3031571070 4.3212904189
C 8.9629431160 -0.7962502802 3.1508137648
C 7.9643187919 -0.0751419106 2.3339230806
O 7.4324925853 0.9746626516 2.6177469377
O 7.7158002002 -0.7620838374 1.1833718279
C 6.7667215490 -0.1496148003 0.2849290115
C 5.3437305647 -0.4324621394 0.7626567675
C 4.3316254755 0.0021842740 -0.2732972986
C 2.8603100583 -0.1516966043 0.2191650344
C 1.7653484461 -0.0071096756 -0.8924911869
C 0.3329458941 0.2781470456 -0.3137702902
C -0.8173670340 -0.0362217618 -1.3358532186
C -2.1756553317 0.6600642242 -0.9568297583
C -3.4181264634 0.0014862810 -1.6416599435
C -4.7522649073 0.8440215914 -1.6552972530
C -5.2859207879 1.3459867082 -0.2775477222
C -6.7635612743 1.8601298908 -0.3052420501
F -6.9342317292 2.7541179786 -1.2881089386
F -7.0274281281 2.4512629923 0.8680230214
F -7.6215614773 0.8496684301 -0.4763279874
F -5.2248760177 0.3424046368 0.6265433045
F -4.5073522251 2.3695676909 0.1393842849
F -4.5833346325 1.9055448336 -2.4698915423
F -5.6891262561 0.0269766384 -2.1987802752
F -3.1165319624 -0.2203761592 -2.9448659294
F -3.6757938485 -1.1805529492 -1.0461636778
F -2.3476674771 0.5874287072 0.3844056883
F -2.1064888773 1.9568068010 -1.3275515499
F -0.4451741587 0.3959554980 -2.5608708400
F -1.0047822352 -1.3738894940 -1.3747420202
F 0.2611842000 1.5836848707 0.0313546727
F 0.1430777431 -0.4842378009 0.7867378239
F 2.0993498407 1.0088064510 -1.7169837979
F 1.7226434560 -1.1580259670 -1.6036434177
F 2.6436094228 0.7841068625 1.1783699039
F 2.7296557255 -1.3814887927 0.7797814707
F 4.4669492712 -0.7390258295 -1.4199771808
F 4.5313264449 1.3106664221 -0.6107400204
H 8.9545689051 0.6348839668 4.6869255282
H 10.0946803651 -0.8194265259 4.9308498900
H 9.3470724075 -1.7293951086 2.7517226536
H 6.9570981381 -0.6157727812 -0.6835903742
H 6.9553282799 0.9250832708 0.2285018813
H 5.1474308166 0.1067117514 1.6938398227
H 5.2180856095 -1.5036443761 0.9409183438
