24
CONF4
O 4.8059874889 -0.0019974297 -0.5490733540
S 3.4968013735 0.8769533242 -0.9972235573
O 3.6037480960 2.2045750370 -0.4082159089
O 3.2792568659 0.6120481508 -2.4051492028
C 2.1823716069 -0.1180380745 -0.0186673287
F 2.3962387780 -1.4190590156 -0.2508399328
F 2.3824888897 0.1471842672 1.2878982747
C 0.7334081887 0.2786128169 -0.4442535686
F 0.6831835094 1.6221428544 -0.5752349705
F 0.4740518779 -0.2976979228 -1.6362959671
C -0.3549415353 -0.1722177332 0.5928042906
F -0.3209371673 0.6730421408 1.6463144373
F -0.0495114340 -1.4207379341 1.0149866486
C -1.8063962870 -0.1857094077 -0.0026242067
F -1.9432284782 -1.2856047676 -0.7760719418
F -1.9751670849 0.9164015780 -0.7667592731
C -2.9218977167 -0.1995344549 1.0975395535
F -2.5678273432 -1.0549030828 2.0850111679
F -3.0464792387 1.0426640680 1.6092593266
C -4.3273393838 -0.6398411615 0.5719218461
F -5.2366954927 -0.4020139391 1.5260570554
F -4.3444830746 -1.9447884870 0.2827541158
F -4.6533788645 0.0598176881 -0.5237557011
H 5.2149603837 0.4377363061 0.2164895343
