51
CONF69
O 3.8306109213 0.9397107766 0.7341008802
C 2.8936277198 0.0577943116 0.0916402079
C 2.3349346438 0.6684306262 -1.1997209434
C 1.5480951133 1.9703884893 -1.0107271803
C 0.3699781319 1.8155756761 -0.0620733532
C -0.8000506450 0.8713931184 -0.5059559803
N -1.6920661137 2.0507624479 -0.3704550155
C -0.6789274615 2.9282543008 -0.0510771658
O -0.6706828035 4.1300455284 0.1379414732
C -3.0618400273 2.1797520908 -0.6025318634
C -3.7254320541 3.3786381592 -0.3066638216
C -5.0902910387 3.4893356634 -0.5423999627
C -5.7699147817 2.3996167489 -1.0615111058
F -7.1058799363 2.5094996692 -1.2865433861
C -5.1405692158 1.2034733393 -1.3587557301
C -3.7734575488 1.0953882120 -1.1288168045
C -1.1133675750 -0.3029023057 0.3698322042
C -1.5584078035 -0.1308533678 1.6828833791
C -1.7838270576 -1.2242914012 2.5094822398
C -1.5557018872 -2.5160610469 2.0271950630
O -1.7520293546 -3.6301294045 2.7912997609
C -1.1169753191 -2.7047514644 0.7162286709
C -0.9050075247 -1.6010077896 -0.1007908712
C 3.6057014967 -1.2375677641 -0.2057763723
C 4.9009802888 -1.2374708326 -0.7294857580
C 5.5386642830 -2.4315120533 -1.0529724766
C 4.8518398434 -3.6174157661 -0.8511613910
F 5.4691834792 -4.7877701405 -1.1645971063
C 3.5671432995 -3.6608742169 -0.3388637180
C 2.9512299890 -2.4547190653 -0.0125416103
H 3.3588385078 1.7393087998 0.9986056623
H 2.0630860996 -0.1648755443 0.7790250298
H 3.1723941368 0.8440117766 -1.8861068814
H 1.6892674134 -0.0841287958 -1.6706809970
H 2.2022294781 2.7697534146 -0.6410821188
H 1.1805572137 2.3017882272 -1.9895846485
H 0.6915410922 1.5874343277 0.9606693136
H -0.7043463034 0.5603873929 -1.5535245133
H -3.1738038026 4.2154541943 0.1031289246
H -5.6221742594 4.4085234372 -0.3224032030
H -5.7077320163 0.3732481040 -1.7649462902
H -3.2625817683 0.1665853129 -1.3575440390
H -1.7367440934 0.8702750608 2.0668288606
H -2.1352201168 -1.0800621571 3.5277723643
H -2.0477050940 -3.3702082918 3.6741868455
H -0.9504087605 -3.7124088606 0.3491229042
H -0.5659971144 -1.7530162336 -1.1224061039
H 5.4203573966 -0.2970677426 -0.8809768941
H 6.5464557606 -2.4478413396 -1.4537653559
H 3.0693073164 -4.6129765015 -0.1904699549
H 1.9451176459 -2.4649174219 0.3986749584
