39
CONF147
C -2.7164494777 -1.7949408128 -3.2810302754
C -1.9897785155 -0.5390534543 -2.8059026230
C -1.3765960958 -0.7527139475 -1.4229880649
N -0.6278643386 0.4331735914 -0.9628185686
C 0.6966309917 0.6486383795 -1.5680224563
C 1.7932995925 0.7328898374 -0.5307231391
O 1.8352908401 -0.5467058657 0.1629724880
C 2.7148119344 -0.5816690987 1.1971408867
C 4.0136061009 -1.0775679716 1.0271175044
C 4.9142527064 -1.1754974730 2.0799762498
C 4.4968987474 -0.7548091444 3.3356864033
C 3.2218668254 -0.2548185728 3.5647698655
C 2.3492010586 -0.1763496387 2.4872076447
Cl 0.7329253877 0.4310385903 2.7503055592
Cl 5.6160285472 -0.8646001730 4.6796511494
Cl 4.5068707505 -1.6015268645 -0.5632103790
C -1.1813359218 1.5023370185 -0.3526375745
O -0.6999534953 2.6291674050 -0.3301771329
N -2.4165578826 1.2578410038 0.3504840635
C -3.4859808151 2.1366650029 0.3600236886
C -4.3645103628 1.6344301378 1.2775724620
N -3.8545362786 0.4866021420 1.8607456737
C -2.6892363209 0.2874089143 1.2868619094
H -3.5141958430 -2.0724343782 -2.5836716156
H -3.1670604916 -1.6361034534 -4.2646209198
H -2.0256270506 -2.6413297913 -3.3583764491
H -2.6869350721 0.3067732259 -2.7517285138
H -1.2046587715 -0.2647230196 -3.5204375633
H -2.1615920759 -1.0007008986 -0.7089009822
H -0.6746277498 -1.5932221541 -1.4345743516
H 0.7067339681 1.5714000693 -2.1585017735
H 0.8944130294 -0.1901914405 -2.2393179302
H 1.6031032014 1.5324452699 0.1923617051
H 2.7552515038 0.9102963967 -1.0267216067
H 5.9111981860 -1.5670058956 1.9206499583
H 2.9107482647 0.0623231617 4.5523257475
H -3.5123645153 3.0010236047 -0.2850095592
H -5.3332111680 2.0286028629 1.5512917732
H -1.9900593936 -0.5070921579 1.5122267517
