33
CONF1
C 1.0167779518 0.5689458448 2.0634259063
N 1.0551993914 0.7223386761 0.5885731044
C 0.7091066937 -0.4696986759 -0.1261606854
C -0.6909178141 -0.7258942961 -0.4372391392
O -1.0515934746 -1.8246486676 -0.9146560553
N -1.5484275784 0.3015733178 -0.1737528345
C -2.9382976049 0.3685385541 -0.3307003878
C -3.7262151383 -0.6982170053 -0.7791477384
C -5.0930180741 -0.4822472059 -0.8752924337
C -5.6278655536 0.7559061652 -0.5346931212
C -4.7517448967 1.7444169892 -0.1021838111
N -3.4348609323 1.5653842619 0.0028146261
C 1.6620465259 -1.3944132075 -0.5015759434
O 1.3670611584 -2.5483346158 -1.0924139343
C 3.0569238581 -1.1142451465 -0.2954304493
C 3.5820753631 0.1284975121 -0.0139711426
C 4.9784327639 0.1615915617 0.1685981001
C 5.5062694384 -1.0930918717 0.0044049935
Cl 7.1627977233 -1.5289699354 0.1300319046
S 4.3175956403 -2.3120589906 -0.3681839417
S 2.4526129639 1.5071915716 -0.0109410085
O 2.1731233671 1.8829348559 -1.3932146314
O 2.8933576923 2.4839135282 0.9851432234
H 0.0132404741 0.2247961630 2.3281969313
H 1.7494339527 -0.1694113298 2.4169264321
H 1.2021328641 1.5342187289 2.5358417853
H 0.3577138120 -2.5623432466 -1.1355306413
H -1.1240381543 1.1736262609 0.1213636022
H -3.2764296338 -1.6443261175 -1.0416410624
H -5.7371333642 -1.2848533352 -1.2200535435
H -6.6916010280 0.9525727690 -0.6027577277
H -5.1198746885 2.7304608069 0.1748649780
H 5.5561159148 1.0458465828 0.4000761331
