55
CONF42
C 5.0533927936 -2.6515768138 -3.0972540557
O 4.7583863430 -3.2052594981 -1.8079867723
C 3.6453849686 -2.7526668340 -1.1673828580
C 3.3955133231 -3.3149406639 0.0896344701
C 2.2847011700 -2.9175469091 0.8154823184
C 1.3999156047 -1.9529245234 0.3184172118
C 1.6564047518 -1.4095021141 -0.9404387178
C 2.7671449865 -1.7964798608 -1.6855062085
C 0.2319216612 -1.5298054196 1.1707258661
S -1.3145053860 -1.5797006388 0.1350452774
C -2.4138696010 -0.4737989258 0.9988993632
C -3.6028100423 -0.9867363182 1.5241362743
C -4.5451698576 -0.1456334929 2.1047679944
C -4.2861544188 1.2193720449 2.1958455906
C -3.0987409014 1.7394664317 1.6961158390
C -2.1617271103 0.9096767112 1.0748353674
N -0.9782242324 1.4847954410 0.5394090286
C -1.0893380212 2.6133085052 -0.4037235002
C -1.1178015784 2.1447317610 -1.8548974532
N -2.2990823032 1.3451983395 -2.1799929552
C -2.0934135060 0.6311913470 -3.4407774137
C -3.5061677265 2.1672235611 -2.2630223765
C 0.2742295929 1.0126408350 0.8098442800
O 1.2880498607 1.4935617186 0.3106526054
C 0.3585779360 -0.1396261598 1.8164174711
O 1.6407105226 -0.1242497013 2.4647120339
C 1.8636097516 0.9300401739 3.2910295999
C 3.2201962055 0.8414320273 3.9154348877
O 1.0406455316 1.7992028009 3.4858249578
H 5.9722122918 -3.1390009774 -3.4240812447
H 5.2129177846 -1.5689341255 -3.0326184371
H 4.2488861194 -2.8657723494 -3.8104854143
H 4.0790116892 -4.0625463335 0.4789041504
H 2.1008779683 -3.3588451904 1.7910628266
H 0.9813204372 -0.6704792168 -1.3589725835
H 2.9312711245 -1.3511022245 -2.6589276849
H 0.1179242570 -2.2471360386 1.9897301760
H -3.7848565827 -2.0545805280 1.4636023516
H -5.4684166850 -0.5582622459 2.4977567458
H -5.0015845242 1.8825474605 2.6709943230
H -2.8893422462 2.7994815685 1.7941092337
H -0.2263621376 3.2663633335 -0.2546202571
H -1.9874105677 3.1811943241 -0.1562378673
H -1.0345539421 3.0393382913 -2.5057673097
H -0.2273335630 1.5310691643 -2.0327669980
H -1.9324289244 1.3154091519 -4.2966072552
H -2.9698601687 0.0128828307 -3.6609349615
H -1.2206806459 -0.0254668768 -3.3571878187
H -3.4286700984 2.9526209244 -3.0400199376
H -4.3635206320 1.5303812572 -2.5032973574
H -3.7131756065 2.6526619558 -1.3044205514
H -0.4200143570 -0.0259940252 2.5766917514
H 3.2325762991 0.0043583290 4.6212920494
H 3.9765163617 0.6412288620 3.1525252288
H 3.4429142419 1.7671901716 4.4440282973
