27
CONF219
C 2.9981216684 -0.7384227752 0.2215085414
C 4.0689118014 0.1907925250 -0.3503405338
C 5.4491968511 -0.4567915013 -0.3383615487
O 6.4743094988 0.4202599606 -0.8044052179
C 1.6200388916 -0.0734085266 0.2092915413
C 0.5427654070 -0.9772643107 0.7622425620
C -0.8680673471 -0.3286017757 0.9305538646
C -1.4659450563 0.3289484225 -0.3516977840
C -2.9961896451 0.6340540665 -0.2796840441
F -3.2888360131 1.3079990311 0.8406195915
F -3.7130596314 -0.4932703946 -0.3152324275
F -3.3348086515 1.3872589120 -1.3372776118
F -1.2630714846 -0.4749633941 -1.4223494535
F -0.8272032769 1.5067876914 -0.5700805653
F -0.7712669038 0.6360287171 1.8818972844
F -1.7306830671 -1.2782119670 1.3675145667
F 0.8807807187 -1.4099200602 2.0187663716
F 0.3975931912 -2.0949757331 -0.0120283040
H 2.9595578244 -1.6670913264 -0.3598699018
H 3.2605722587 -1.0151132337 1.2483849000
H 3.8063002485 0.4681744987 -1.3814169882
H 4.1133598693 1.1216449927 0.2284539656
H 5.4336422778 -1.3923745105 -0.9209022291
H 5.7303990949 -0.7170996288 0.6879369075
H 1.3411640338 0.1999822457 -0.8136613702
H 1.6293526305 0.8460938349 0.8047932934
H 6.3054023785 0.6099723096 -1.7336135756
