41
CONF5
C -4.2084516984 2.0474547698 -2.2336133082
C -4.0143705027 2.2220082948 -0.7290740440
N -3.5921922636 0.9781652483 -0.0705389061
C -4.6637951070 0.1358056400 0.4630929673
C -4.8900428398 0.3219424822 1.9556138723
O -5.3332297631 1.6659829593 2.1747185144
C -2.2925870313 0.5917828459 -0.0239839256
C -1.8927416579 -0.6080577592 0.6297690479
C -0.5705645888 -0.9801490294 0.6672592686
C 0.4363897911 -0.1976479888 0.0662068832
C 0.0492273375 0.9959651440 -0.5876598292
C -1.2660645523 1.3787129040 -0.6322912795
N 1.7226539208 -0.6751331482 0.1756425951
N 2.6335527644 0.0194355976 -0.3913062398
C 3.9264691607 -0.4887370138 -0.2285111045
C 4.2711938269 -1.5869971404 0.5868537653
C 5.5858689788 -1.9950465225 0.6799044054
C 6.5683623771 -1.3092588483 -0.0410566404
C 6.2545417564 -0.2174836323 -0.8509776706
C 4.9364604889 0.1879631813 -0.9365249737
N 7.9524956702 -1.7424014632 0.0599423047
O 8.2125069900 -2.7056484444 0.7848698666
O 8.8060550575 -1.1275132113 -0.5840846307
H -3.2785742206 1.7420092234 -2.7218685447
H -4.5380684230 2.9921112089 -2.6764880991
H -4.9699328154 1.2882772287 -2.4375990498
H -4.9526491757 2.5243835045 -0.2592519370
H -3.2908884580 3.0128067473 -0.5114623433
H -4.4606569617 -0.9194556881 0.2550307214
H -5.5835435587 0.3938082344 -0.0715795989
H -5.6499649392 -0.4039779896 2.2809488226
H -3.9622437395 0.1258198420 2.5103346446
H -5.3879191775 1.8085093837 3.1270883402
H -2.6214034520 -1.2404791175 1.1187579719
H -0.2783912162 -1.8954210734 1.1732840774
H 0.8034879350 1.6125712048 -1.0625360714
H -1.5188818276 2.2923849204 -1.1541068679
H 3.4998996498 -2.1046535786 1.1433449177
H 5.8635372022 -2.8349743134 1.3044937923
H 7.0346593365 0.2974342038 -1.3970152100
H 4.6597967476 1.0348596867 -1.5556270018
