33
CONF72
C 4.2461761084 1.2795125636 -1.8635452925
C 5.7732876681 1.3812890088 -1.7678047952
O 6.4335539233 0.1157694013 -1.8037418614
C 3.5920596459 0.9279834695 -0.5495170419
C 2.0595506978 0.6653108601 -0.6750472445
C 1.2740244201 0.6077528464 0.6806744422
C -0.1284334228 -0.0917699214 0.5525999285
C -1.1009208237 0.2490646208 1.7299216444
C -2.3528180987 -0.6931880927 1.9192782751
C -3.2951913322 -0.8740517230 0.6882855819
C -4.6773327865 -1.5293196907 1.0191713643
F -5.4394140114 -0.7048549368 1.7445529209
F -5.3076489667 -1.7906510034 -0.1342249809
F -4.5069597946 -2.6762949631 1.6888670768
F -2.6765776617 -1.6674616477 -0.2153995865
F -3.5423073390 0.3306258970 0.1264623354
F -1.9217964234 -1.9073968164 2.3193733872
F -3.0713850304 -0.1371247684 2.9263158180
F -1.5487541355 1.5126922990 1.5798975064
F -0.4086294568 0.1665443646 2.8930348418
F -0.7167782838 0.3019814758 -0.6021313933
F 0.0660685273 -1.4288055603 0.5174431278
F 1.0925012715 1.8729455258 1.1260820409
F 2.0009307264 -0.0751320422 1.5929790718
F 1.5163094114 1.6560992236 -1.4261152546
F 1.8893505181 -0.5132138560 -1.3294026063
F 4.1570566694 -0.1988178275 -0.0024422089
F 3.7645577953 1.9359197502 0.3661447936
H 3.8386696937 2.2431905194 -2.1840806658
H 3.9717443812 0.5297279731 -2.6125995301
H 6.0662491800 1.9584717084 -0.8805617760
H 6.1219356909 1.9258966036 -2.6490922811
H 6.3125097783 -0.3167162558 -0.9504122160
