48
CONF14
C 3.4098714449 0.3237593198 0.2972075558
C 2.0667997768 0.4597527938 0.4828311655
C 1.0339062788 -0.1916792788 -0.2714544509
C 1.4455781023 -1.1232266607 -1.3768854030
C -0.2726154801 0.0797766926 0.0504287914
C -1.4304522398 -0.5149367499 -0.5362001606
C -2.7553470415 -0.2393513817 -0.3387234950
C -3.2895289875 0.9161366527 0.3923076427
C -2.4459574990 2.1451855143 0.6456174624
C -4.5835031780 0.9488252539 0.7813494233
C -5.5589275459 -0.1627943761 0.6038244890
C -4.8832473403 -1.4346264362 0.1090056480
C -3.8178039431 -1.1507724444 -0.9707270250
C -4.4536467838 -0.4366639817 -2.1800024783
C -3.2751984148 -2.5032156441 -1.4459564501
C 4.3713897382 1.0100786452 1.0990009759
C 5.7349899834 0.9589503529 1.0116144925
C 6.5708482268 1.7651578822 1.9647757389
C 6.4221788798 0.1496332006 0.0266412045
C 7.7549649849 0.0510036161 -0.1099566982
H 3.7630787240 -0.3324722874 -0.4920221830
H 1.7306069651 1.1250166395 1.2786264612
H 2.0505671593 -0.5899963858 -2.1190815202
H 0.5955773913 -1.5595134051 -1.8999301195
H 2.0611660774 -1.9411221427 -0.9853177340
H -0.4151717678 0.7779129962 0.8660365005
H -1.2210301172 -1.3465180692 -1.1978986003
H -3.0926156358 3.0154898798 0.7836751798
H -1.7669665551 2.3461683024 -0.1876668884
H -1.8390435391 2.0497543262 1.5522241325
H -4.9585281767 1.8572883821 1.2502021007
H -6.0897381711 -0.3492659366 1.5470254222
H -6.3395591381 0.1568220216 -0.1048955662
H -5.6301685393 -2.1303766605 -0.2922325107
H -4.3896465386 -1.9385342690 0.9499977047
H -3.7078322120 -0.3018441503 -2.9697714221
H -4.8387838637 0.5505236759 -1.9129518795
H -5.2783037771 -1.0350328021 -2.5849611107
H -2.7634401748 -3.0373011841 -0.6385275968
H -4.1099776735 -3.1235817891 -1.7885734901
H -2.5852675278 -2.4023001711 -2.2894612360
H 3.9527884822 1.6509650018 1.8749971883
H 5.9438749618 2.3345637322 2.6538358579
H 7.2158720557 2.4695750974 1.4258219908
H 7.2294657132 1.1179241880 2.5564664026
H 5.8034851648 -0.4236232144 -0.6583750823
H 8.4465259613 0.5884969594 0.5301484769
H 8.1887662819 -0.5800114937 -0.8776496300
