49
CONF91
C -4.5508038319 -0.3981984058 -0.5345638564
C -3.7206709664 -1.1367260462 0.4943764710
C -2.5315074538 -0.4406769207 1.1790972866
C -2.3309782447 -1.5969681552 0.1662020363
C -1.7893982804 -2.8849261770 0.7544764520
C -1.7220437125 -1.3045977779 -1.1889340381
C -2.0994967038 0.9200791922 0.8716980129
O -2.2310289508 1.5573075149 -0.1526030482
O -1.4450299168 1.4494115442 1.9699432531
C -0.8378988640 2.7364606189 1.7301331137
C -0.5406671978 3.2815624083 3.0555342509
N -0.2779077011 3.7376332785 4.0833887826
C 0.4247269660 2.6212962427 0.8968799331
C 1.3301462386 1.5979231964 1.1698169597
C 2.4697508002 1.4799988161 0.3848600125
C 2.7263006458 2.3758984775 -0.6530001918
C 1.8145025510 3.3937792143 -0.9065601408
C 0.6588991865 3.5208165698 -0.1387349510
O 3.3668522474 0.4889482992 0.7308331358
C 3.9619853902 -0.2545978870 -0.2766983768
C 5.2838516393 -0.6387777577 -0.0759958701
C 5.9043608901 -1.4516479241 -1.0206629576
C 5.2133264398 -1.8697400786 -2.1560504865
C 3.8886896659 -1.4765788525 -2.3396984749
C 3.2515137821 -0.6703601360 -1.4007308666
C -4.5943860335 -1.9657734540 1.4180887739
H -5.1073302196 -1.1293717876 -1.1321708815
H -3.9640712428 0.2249964625 -1.2054255423
H -5.2803269663 0.2440144484 -0.0292393189
H -2.3654416936 -0.7209587541 2.2140590663
H -2.0951749185 -3.7337262408 0.1315386952
H -0.6945755837 -2.8539183675 0.7656759955
H -2.1315869738 -3.0674223006 1.7733708852
H -2.0311667316 -0.3500107235 -1.6103792626
H -2.0025518115 -2.1013535086 -1.8873601158
H -0.6289439987 -1.3002946297 -1.1090261138
H -1.5506788895 3.4056196430 1.2337247222
H 1.1535574657 0.8872828355 1.9705825395
H 3.6259809095 2.2725050572 -1.2501439772
H 2.0059852863 4.0928401596 -1.7141005720
H -0.0599991006 4.3055916291 -0.3510996769
H 5.8082737163 -0.3014003771 0.8118736397
H 6.9359351304 -1.7531794658 -0.8680683917
H 5.7021676015 -2.4997149372 -2.8917180846
H 3.3394038132 -1.8053022105 -3.2164624725
H 2.2175806960 -0.3704764123 -1.5363423125
H -5.0641155252 -2.7804032319 0.8548435660
H -4.0441670220 -2.3985429787 2.2543929108
H -5.3918415374 -1.3383191039 1.8300489703
