31
CONF10
C -1.5086292062 0.8494772422 1.7819865606
C -2.6677324279 0.1922430951 2.1683346809
C -3.5236122338 -0.3016453137 1.1908830801
C -3.2393373172 -0.1434684677 -0.1603785565
C -2.0714384867 0.5042395913 -0.5367789955
C -1.1835516972 1.0045916072 0.4261382800
C 0.0630603298 1.6834457952 0.0310604105
N 0.8819812379 1.3894763365 -0.9160566336
O 0.4864757398 0.3095732218 -1.6745159435
C 1.5991324837 -0.1988011922 -2.4252726960
C 2.3006306708 -1.3100245018 -1.6528576554
O 2.8310647319 -0.7811927296 -0.4478154437
C 2.3831810064 -1.6127929489 0.6297152083
C 1.1011214740 -2.2166472894 0.0785644336
O 1.4122068200 -2.3651917612 -1.3148037046
C 0.5418387908 2.8618015451 0.8635675764
F -0.5012406041 3.6408782620 1.2338632144
F 1.4260156105 3.6363053382 0.2276341038
F 1.1363994417 2.4312152042 2.0142176328
Cl -4.9873843947 -1.1306908362 1.6704386532
H -0.8474278765 1.2329416718 2.5499321427
H -2.9070259705 0.0670086808 3.2177010667
H -3.9248087328 -0.5219157584 -0.9094020000
H -1.8559803785 0.6324777073 -1.5888197996
H 2.2997219126 0.6116804963 -2.6527299839
H 1.1767511599 -0.6107558811 -3.3467779371
H 3.1013129037 -1.7375809842 -2.2813237881
H 3.1330253537 -2.3855450160 0.8520681018
H 2.2297758135 -0.9784746676 1.5072617671
H 0.2425988438 -1.5455105108 0.2158498637
H 0.8718758852 -3.2071177245 0.4792692692
