47
CONF24
C 5.5240348074 0.1783420971 2.0685662721
C 4.8961936817 0.3693276183 0.7460952031
C 3.5960756997 0.4312679751 0.3127367163
C 3.7025716269 0.6276855142 -1.1017474426
N 4.9610960826 0.6841243197 -1.4819877299
O 5.7191601423 0.5030549036 -0.3084764466
C 2.6377671775 0.8095324075 -2.1003133822
C 1.5821145003 1.6944319330 -1.8482242340
C 0.5809153903 1.8705425271 -2.7964399201
C 0.6244224236 1.1675136071 -3.9993096667
C 1.6763090464 0.2905248540 -4.2554401084
C 2.6817787538 0.1097595664 -3.3111869948
C 2.4166094761 0.2654812843 1.1828541218
O 2.4218394687 0.6298790855 2.3602545568
N 1.3435517916 -0.3449875341 0.6002719715
C 0.0777297306 -0.4584422133 1.2473551469
C -1.1714849980 0.2379640647 0.6029719072
N -1.7819267200 -1.0908386759 0.4692020091
C -0.7244312214 -1.7681119220 1.0606296363
O -0.5564999392 -2.9372247565 1.3187659814
C -3.1986668668 -1.2118402853 0.7226785928
C -3.5090347672 -0.2237425070 1.9089456330
S -2.3417110889 1.2234549101 1.6264007869
C -4.9418150371 0.2983554781 1.9175320036
C -3.1829641217 -0.9158718311 3.2324515480
C -3.9840219934 -0.8814568141 -0.5372773048
O -3.6128850840 -0.1115365655 -1.3950236598
O -5.1502563088 -1.5445630636 -0.5669428516
H 6.4826598944 -0.3342311931 1.9623064949
H 4.8605111433 -0.3958326795 2.7165795101
H 5.7001872703 1.1498993305 2.5437410280
H 1.5528672098 2.2492489003 -0.9151487855
H -0.2332170876 2.5600104680 -2.5966950368
H -0.1612587766 1.3033560905 -4.7357032250
H 1.7113740067 -0.2596243758 -5.1903208234
H 3.4951517872 -0.5832736999 -3.4992398803
H 1.4120257845 -0.6355212982 -0.3653037673
H 0.1835018950 -0.2155861092 2.3085154778
H -0.9749702614 0.7521951749 -0.3411053788
H -3.4317257342 -2.2334177152 1.0385451554
H -5.6338649072 -0.5387524742 2.0536262800
H -5.1952255066 0.8232236938 0.9927555251
H -5.0783225324 0.9886839810 2.7544390686
H -3.2803275059 -0.2056613465 4.0574915697
H -3.8853984642 -1.7412684381 3.3954005435
H -2.1654203530 -1.3159042086 3.2478273493
H -5.6450202242 -1.2701698823 -1.3596282181
