50
CONF14
C 6.9210122812 2.0001036753 0.5720588488
C 5.8604344352 1.9391359900 -0.5070465697
O 4.5626108514 1.5971854497 0.0535738793
C 4.3330781354 0.2735034587 0.2572763225
O 5.1099699488 -0.6091632224 -0.0898460622
N 3.1569448474 0.0548792418 0.9180534436
C 2.1213768272 1.0838719834 1.0493797675
C 1.0933722019 0.9511196187 -0.0900411953
C 0.5312343065 -0.4443715092 -0.1161253353
C -0.7811979182 -0.7402051789 -0.0440824375
C -1.8565881782 0.2724003464 0.1289544600
C -2.9573549928 0.3945782292 -0.7423914337
C -3.1978114220 -0.4242255930 -1.9977777735
C -2.1640559997 -1.4893920137 -2.3824336287
C -1.9751219196 -2.5111419350 -1.3010372738
C -1.2808571268 -2.1411429189 -0.1389414932
N -1.0749081834 -2.9709694492 0.8935096819
C -1.5571415355 -4.2185453116 0.7948463096
C -2.2572889420 -4.6814281880 -0.3126310803
C -2.4675255084 -3.8098899587 -1.3769677445
C -3.9366387393 1.3565230199 -0.4604889092
C -3.8338029448 2.1656529875 0.6570794377
C -2.7716577357 2.0472306703 1.5437071301
C -1.8027327326 1.0945753835 1.2669140477
Cl -5.0882161514 3.3648420298 0.9690357273
C 1.6079316515 -1.4904858910 -0.2192001244
C 2.6197980479 -1.3069918181 0.9285189261
H 6.6448118745 2.7223994150 1.3456938212
H 7.8713003578 2.3155571894 0.1294525003
H 7.0652360881 1.0197914440 1.0339473548
H 6.1147032724 1.2153329245 -1.2853969507
H 5.6999005605 2.9187911867 -0.9631061909
H 1.6209581706 0.9312499177 2.0139443301
H 2.5765877044 2.0730023114 1.0525520064
H 0.3174275666 1.7112224304 0.0198052157
H -3.3048494583 0.2731483522 -2.8377495479
H -4.1747289481 -0.9134957494 -1.8884474193
H -2.5067129216 -1.9781496001 -3.2996523779
H -1.2036931304 -1.0095184503 -2.6041552103
H -1.3735232162 -4.8742478090 1.6440902816
H -2.6260871029 -5.7012815425 -0.3401823258
H -3.0037895379 -4.1370428044 -2.2638858366
H -4.7827449350 1.4666032971 -1.1319530057
H -2.7068518551 2.6695539113 2.4286871567
H -0.9786303899 0.9662395113 1.9614820599
H 2.1482939838 -1.3645750867 -1.1683277198
H 2.1182647887 -1.4683608358 1.8904238268
H 3.4432614330 -2.0159475577 0.8386723621
H 1.6174160694 1.1390363550 -1.0383078328
H 1.2033547806 -2.5037347288 -0.1889000075
