74
CONF140
C -0.3301235558 -1.0581284076 0.1874557625
C 0.7134386283 -2.1451418807 0.3986933263
O 0.0205481672 -3.1274247724 1.2447686603
C -1.0008024249 -2.5349479544 1.9182977233
O -1.6571967573 -3.1442314009 2.7300611864
C -1.0728756995 -1.0824439716 1.5139170363
C -2.4268197418 -0.3747430853 1.4184581320
C -3.4688872697 -1.1561581146 0.6252091597
C -3.6192242902 -0.9698668638 -0.7506621645
C -4.5534106406 -1.7189708397 -1.4691625766
O -4.7744398267 -1.6088227886 -2.8115038286
C -3.9779935285 -0.6572281051 -3.5263943772
C -5.3487794665 -2.6599672871 -0.8070896482
O -6.2618754132 -3.3831542635 -1.5207171844
C -5.2022418348 -2.8305597460 0.5744946462
O -6.0449957365 -3.7688272532 1.1057581510
C -5.9287137560 -4.0406402485 2.5084519491
C -4.2722256343 -2.0828258487 1.2925892578
C -2.1832661133 1.0063465399 0.8233521309
C -3.2016987634 1.9644702648 1.0108422365
C -3.0327068088 3.2021697764 0.4441242642
C -1.9051072960 3.5154625305 -0.3103143268
O -2.0177112392 4.7903738778 -0.8059931251
C -3.1444287149 5.3644071485 -0.1115566794
O -3.8941408382 4.2682739830 0.4555459204
C -0.9060672473 2.6012214398 -0.5210933415
C -1.0476216486 1.3221329624 0.0634767101
C 0.1088794972 0.3576725739 -0.1290144847
O 1.1831049815 0.7509879114 0.7754088824
C 2.3736744906 1.1025710531 0.1548292717
O 2.9991985873 -0.0950272883 -0.3352568588
C 4.2251326305 0.2097482577 -0.9951825235
C 4.8059336209 -1.0531920215 -1.6086673357
O 6.0839826889 -0.7300330321 -2.1729449334
C 6.9755954797 -0.2033885260 -1.1968234125
C 8.2891926682 0.0950327147 -1.8676353663
O 6.4690563167 1.0109536751 -0.6418383039
C 5.2258901002 0.7672567496 0.0178402640
C 4.6702089514 2.0483779084 0.6065610241
O 5.5088646247 2.6428810212 1.5981827728
C 3.2756673760 1.7725781020 1.1893963274
O 2.6533282323 2.9870394219 1.5906954316
H -1.0183826799 -1.3791885080 -0.6050565929
H 1.0237253236 -2.6634172388 -0.5093002995
H 1.5852060725 -1.7825375685 0.9479450251
H -0.4633209524 -0.5506954551 2.2634524670
H -2.8196159324 -0.2440977005 2.4334073729
H -3.0195901049 -0.2221175735 -1.2540927120
H -4.2996466951 -0.7259896512 -4.5660139000
H -4.1492756177 0.3601367039 -3.1543966609
H -2.9112279638 -0.9014843449 -3.4535924404
H -6.7150747856 -3.9733760389 -0.9001906225
H -6.6571227795 -4.8237264969 2.7196127918
H -4.9205390700 -4.3940102411 2.7533587101
H -6.1630537245 -3.1476968621 3.0990266673
H -4.1557950505 -2.2210263720 2.3595886120
H -4.0931076915 1.7185378035 1.5790716138
H -2.7794672918 6.0087615380 0.6996468119
H -3.7731795611 5.9036007160 -0.8225328966
H -0.0354637086 2.8470498144 -1.1198580717
H 0.4799415011 0.4264620175 -1.1586130484
H 2.2023490468 1.7867195700 -0.6968777380
H 4.0617752832 0.9587827919 -1.7880317230
H 4.1817255128 -1.4310524493 -2.4221707890
H 4.9081698458 -1.8312201795 -0.8351445076
H 7.0787821469 -0.9408929021 -0.3795451093
H 8.9922633328 0.5019839598 -1.1375974444
H 8.1392369780 0.8237486527 -2.6690797046
H 8.7055274207 -0.8226134112 -2.2889371367
H 5.3708744373 0.0186274790 0.8187501515
H 4.5820210579 2.8008112482 -0.1879360227
H 5.6670604147 1.9861169338 2.2916514742
H 3.3763635390 1.0791979796 2.0424875645
H 3.3104981907 3.4803726839 2.1018811986
