46
CONF2
C 0.9844104491 2.4721688792 -1.8047158986
C -0.4783512501 2.6092142092 -1.3909907704
C -0.6776746841 3.6735047729 -0.3123234155
C -2.1208146770 3.8345888276 0.1294688636
O -2.6186338502 2.5983790581 0.7260011096
C -2.3701098777 2.4286598505 2.0313510943
O -1.8550070204 3.2398607955 2.7664295787
C -2.8788556255 1.0731309947 2.5302621774
C -4.3438937254 1.1838432974 2.9210397033
O -2.7923305924 0.0481205553 1.5395188477
C -1.5616864168 -0.2283938589 1.0166349816
C -1.5624876934 -1.0459663640 -0.1183326603
C -0.3713316464 -1.3662807131 -0.7477440052
C 0.8247034716 -0.8747615923 -0.2334959264
C 0.8418974483 -0.0791205383 0.8975304143
C -0.3554645736 0.2527774133 1.5298941735
O 2.0262840807 -1.1029103709 -0.9060355970
C 2.5170572346 -2.3702095981 -0.9340717427
C 3.5640961173 -2.6107712129 -1.8344486639
C 4.1627067545 -3.8447617016 -1.9420743509
C 3.7091625027 -4.8933498273 -1.1264316508
C 2.6674484413 -4.6692420765 -0.2193205419
C 2.0774854501 -3.4172938222 -0.1243642597
C 4.3106907977 -6.1777873284 -1.2254909030
N 4.7998027429 -7.2249132488 -1.3055795951
F 3.9850613628 -1.5982635293 -2.6095743125
H 1.1146634104 1.6867310414 -2.5548322243
H 1.3676508162 3.4087499894 -2.2245398065
H 1.6099398933 2.2107892490 -0.9447213779
H -1.0903454204 2.8642227103 -2.2665851602
H -0.8485497367 1.6465668235 -1.0225473495
H -0.0597023283 3.4463244753 0.5658021794
H -0.3392084958 4.6501766665 -0.6848883352
H -2.2339844287 4.6442660559 0.8550959379
H -2.7832714616 4.0020208940 -0.7241981431
H -2.2732851843 0.8128870080 3.4084319505
H -4.9462417075 1.4437716960 2.0470837222
H -4.6904592776 0.2279060432 3.3208014444
H -4.4650525952 1.9545433680 3.6861886832
H -2.5120778935 -1.3974731112 -0.5059461919
H -0.3633593929 -1.9810324213 -1.6418188959
H 1.7879138087 0.2930649817 1.2753472668
H -0.3234920376 0.8891786857 2.4059557972
H 4.9672558966 -3.9912025948 -2.6528326346
H 2.3250846225 -5.4801280761 0.4126747026
H 1.2723565991 -3.2415864564 0.5794144770
