44
CONF15
C 4.0257199159 1.0413691553 3.3228880976
N 3.4619676827 0.9384830508 1.9764143673
C 2.0273965306 1.2432201784 1.9993920780
C 1.4438700234 1.1749481490 0.5933090069
N 1.7059580827 -0.1445075677 0.0117369157
C 3.1225126409 -0.5127405694 0.0195324334
C 3.6712936914 -0.4094457610 1.4374979627
C 0.7772450779 -1.0343579053 -0.3797235011
O 0.9896385923 -2.1320733847 -0.8756151629
O -0.5054157943 -0.5724779914 -0.1215401065
C -1.5459177027 -1.1947137924 -0.8599399192
N -2.3171044427 -0.1720073018 -1.5875963171
C -3.6673538572 -0.1431758820 -1.2368523139
O -4.5384416456 0.5612358495 -1.7146062022
C -3.8115225418 -1.1750168220 -0.1772224536
N -4.9253415882 -1.4992081854 0.4717406550
C -4.7488115906 -2.4601569176 1.3874190780
C -3.5029991580 -3.0560578856 1.6315716416
N -2.3905876669 -2.7208461666 0.9598246448
C -2.5859979028 -1.7735110522 0.0535121454
C -1.6882891115 0.5944909989 -2.5829057541
N -0.4825449005 0.1507331466 -2.9485338372
C 0.1982699555 0.8260434834 -3.8741471282
C -0.3156095500 1.9713462379 -4.4686465276
Cl 0.6218805580 2.8135467297 -5.6829653035
C -1.5664328100 2.4426935308 -4.0891380895
C -2.2733729557 1.7472215768 -3.1215680179
H 5.0996677749 0.8305767014 3.2890601956
H 3.8824010450 2.0573119241 3.7054746631
H 3.5555323590 0.3341262090 4.0318723742
H 1.4762619914 0.5401008600 2.6562655842
H 1.8849258060 2.2557813730 2.3940440415
H 0.3733949412 1.3712743068 0.6141023266
H 1.9280682970 1.9282958340 -0.0428332516
H 3.6659591929 0.1744824301 -0.6424975752
H 3.2297994793 -1.5293131700 -0.3599751594
H 3.1820079512 -1.1767185424 2.0712172288
H 4.7462336399 -0.6228469048 1.4195025728
H -1.1253907422 -1.9405115416 -1.5426583966
H -5.6195346222 -2.7750030734 1.9565900892
H -3.4112982069 -3.8267979842 2.3923299376
H 1.1781563814 0.4436238770 -4.1497737304
H -1.9818863485 3.3404310069 -4.5329778670
H -3.2443083609 2.0901515119 -2.7951040121
