27
CONF230
C -2.4366000031 -0.4447280942 0.6824910906
C -3.9269767662 -0.3592559670 0.9751323567
O -4.2438014367 0.9622673884 1.4237093782
C -1.9824992547 0.4290093370 -0.4654339691
C -0.5845366374 0.0668829047 -1.0690277820
C 0.5996498785 0.0202537588 -0.0490816343
C 2.0164585852 0.0575266157 -0.7239877844
C 3.1613007496 -0.4534079195 0.2162134296
C 4.5976141837 -0.0388929884 -0.2460021474
F 4.7729843835 -0.3244404707 -1.5436750460
F 5.4960337921 -0.7248820204 0.4735378140
F 4.8042870274 1.2677284632 -0.0517439732
F 3.1189349458 -1.8020090540 0.2627921565
F 2.9765554512 0.0402573756 1.4628189448
F 2.0041525156 -0.7176705834 -1.8320497146
F 2.2896230702 1.3327230452 -1.0839472358
F 0.5070627289 1.0754191577 0.7919582639
F 0.4953059231 -1.1225979813 0.6742279784
F -0.6858516822 -1.1522442615 -1.6554264178
F -0.2843265810 0.9816736561 -2.0284834820
F -1.9416763338 1.7532740459 -0.1251380072
F -2.8480379366 0.3305140001 -1.5292694450
H -1.8592575026 -0.1707782643 1.5712988321
H -2.1998312195 -1.4842352910 0.4338460703
H -4.5034105510 -0.6183559371 0.0776695544
H -4.1518810723 -1.1019681645 1.7522734180
H -5.1912766651 0.9873136463 1.6052974626
