39
CONF8
C 4.6610975139 2.3818345784 -1.8781348428
C 3.3651242822 2.2048786092 -1.0904866550
C 2.6311345914 0.9175324717 -1.4685429723
C 1.3474359285 0.7399234701 -0.6857253089
C 1.5300043452 0.4673006207 0.8248986861
O 0.6940514215 -0.6712797240 1.0947956060
C -0.1248300940 -0.8583884206 -0.0580488463
C -0.3851602658 -2.3622646051 -0.2075668877
N -1.2543951670 -2.8506778382 0.8425861243
C -0.9671116624 -3.0955239002 2.1426410002
N -2.0694244141 -3.3965029646 2.8077859791
C -3.0292737061 -3.3049513883 1.8447044271
N -2.5892801142 -2.9723518174 0.6384313492
O 0.6701196993 -0.4447781313 -1.1428209886
C -1.4190295269 -0.0504220332 0.0777602785
C -2.3037616960 0.1820504189 -0.9802681661
Cl -1.9976057430 -0.4265555863 -2.5959781594
C -3.4872711988 0.8911978251 -0.8059762132
C -3.8011650973 1.3641103246 0.4603625573
Cl -5.2913994854 2.2526152480 0.6866184337
C -2.9636314233 1.1390328927 1.5435295997
C -1.7863886379 0.4345970213 1.3348078319
H 5.3492393380 1.5506913805 -1.6921079970
H 4.4624970229 2.4146126124 -2.9543993515
H 5.1714282721 3.3089017703 -1.6021489203
H 2.7049552335 3.0639035617 -1.2668378377
H 3.5889206812 2.2027865631 -0.0152215391
H 3.2735330161 0.0453847348 -1.2905285346
H 2.3892077869 0.9280785154 -2.5379589320
H 0.6849241634 1.6069461607 -0.8352281715
H 1.2211444480 1.3235032290 1.4372978047
H 2.5601452888 0.1898824347 1.0740514355
H -0.8657628303 -2.5610642508 -1.1664585984
H 0.5802470537 -2.8737313658 -0.1627262647
H 0.0381241327 -3.0406163165 2.5376060039
H -4.0782667332 -3.4936964752 2.0306453537
H -4.1535045815 1.0581809625 -1.6425421042
H -3.2288597393 1.4999996321 2.5296317765
H -1.1272119016 0.2348605682 2.1715529431
