48
CONF65
C -2.7819921080 2.0385517186 -2.7594816792
C -1.2736371646 1.9120673911 -2.9533047886
C -0.5279756816 1.7885863476 -1.6230231723
C 0.9918827098 1.8123734666 -1.8069692629
O 1.5444187136 2.2136297409 -2.8100964636
O 1.6255684843 1.4218750289 -0.6976643913
C 3.0836107787 1.3846460807 -0.7597865867
C 3.5680865131 0.6753974742 0.4843943646
C 3.0983362201 -0.7838426741 0.5537472623
C 3.6612594199 -1.5067807117 1.7372020022
C 2.9372889201 -2.1238868799 2.6699661437
N -0.9806455198 0.6249343652 -0.8410465551
C -1.6172806854 0.8931348517 0.4738141992
C -0.6382188828 1.2566234763 1.5276206581
C -0.0195022245 0.5298069262 2.4986232256
C 0.8610955278 1.4246547279 3.1810304506
C 0.7168091225 2.6358654855 2.5805363996
O -0.1996088208 2.5558549360 1.5691285653
C -0.5478254804 -0.5844474201 -1.2613942897
O 0.2640022985 -0.7546762456 -2.1629067994
N -1.1195740121 -1.7269806535 -0.6025775826
C -0.3965680693 -2.8323645751 -0.1863237909
C -1.3286563012 -3.7426230595 0.2251404408
N -2.6077844739 -3.2455027755 0.0432360466
C -2.4514062363 -2.0396439259 -0.4538487950
H -3.0289634034 2.9166728233 -2.1528290509
H -3.2816220583 2.1435516296 -3.7264720736
H -3.1965549581 1.1550792393 -2.2631447773
H -1.0346024612 1.0476214023 -3.5810024225
H -0.8816418242 2.7961250530 -3.4641307092
H -0.7568936785 2.6721875076 -1.0136368148
H 3.4522221094 2.4138265468 -0.8160396549
H 3.3767597335 0.8502383415 -1.6697227748
H 4.6643811312 0.7148604154 0.4776477900
H 3.2282631507 1.2190813892 1.3739181592
H 3.4159779684 -1.2926447324 -0.3687177483
H 2.0037882165 -0.8193228876 0.5859725424
H 4.7496159636 -1.5091436043 1.8194793976
H 3.4050913250 -2.6340682383 3.5069225099
H 1.8504747016 -2.1405298566 2.6195360112
H -2.3489182287 1.6933281974 0.3256803951
H -2.1573915397 0.0101774207 0.8092321030
H -0.1755740009 -0.5209709083 2.6958585999
H 1.5128599419 1.1963172248 4.0115329478
H 1.1571540143 3.6077141534 2.7418257848
H 0.6818932444 -2.8466558686 -0.2140574085
H -1.1546918045 -4.7245541102 0.6423330624
H -3.2377878456 -1.3599806982 -0.7570342558
