53
CONF10
C 3.6380473014 2.1858584609 -1.0316695251
C 2.6787442410 0.9907352332 -0.9914517343
C 3.4184030000 -0.2487836586 -1.5278812425
C 1.4913582852 1.2658063500 -1.9267678162
O 0.7526226002 2.3804728264 -1.4269888891
C -0.3548722215 2.7207583616 -2.2534743830
C -1.4759965041 1.7047909706 -2.2188047837
C -1.7801653631 1.0306395638 -1.0346640287
C -2.8379413671 0.1319834785 -1.0170125056
C -3.6142524813 -0.1102600038 -2.1438338523
C -3.3085636084 0.5669726095 -3.3209562523
C -2.2407814518 1.4606067754 -3.3608517668
O -3.1719354973 -0.5043501129 0.1766287818
C -2.4924637496 -1.6566684978 0.5069878948
C -2.7810530826 -2.1935568023 1.7628896868
C -2.1329610447 -3.3503467198 2.1767283775
C -1.2019327136 -3.9781563852 1.3476139300
C -0.9329656151 -3.4374282251 0.0937268597
C -1.5741595141 -2.2771883491 -0.3386264996
C 2.1373564656 0.7121401444 0.4107658674
C 2.4402673358 1.5204979162 1.5089250414
C 1.8983627904 1.2743673702 2.7700594943
C 1.0300689118 0.2069598838 2.9159713415
C 0.7231438933 -0.6378998984 1.8618302146
C 1.2818211332 -0.3779067001 0.6181282815
O 0.4551023517 -0.1087985604 4.1697606843
C -0.4278301290 0.7475578357 4.7083673276
F 0.1308938328 1.9185275246 5.0997917597
F -0.9483230455 0.1652109660 5.7954154790
Br -1.9356488257 1.2280086212 3.4731301981
H 3.1534068022 3.1100261249 -0.7070816229
H 3.9873274787 2.3301101835 -2.0588640585
H 4.5138330136 2.0075921326 -0.3996188087
H 4.2674177305 -0.4872715896 -0.8800600726
H 3.7994589626 -0.0514739577 -2.5354857409
H 2.7665021322 -1.1254428631 -1.5757173470
H 1.8664545348 1.4895286157 -2.9392619745
H 0.8441791380 0.3779819640 -1.9920147569
H -0.0292176688 2.8727975036 -3.2941301528
H -0.7205830325 3.6816157365 -1.8718537434
H -1.1927742561 1.1936241158 -0.1357863953
H -4.4323884008 -0.8209640182 -2.0914301188
H -3.8997517672 0.3874771117 -4.2133869244
H -1.9999316758 1.9749637551 -4.2870402220
H -3.5002630406 -1.6913582526 2.4009116706
H -2.3543912290 -3.7611520128 3.1569678918
H -0.6941500286 -4.8784535658 1.6769300629
H -0.2123833349 -3.9160754788 -0.5626022811
H -1.3523170186 -1.8593703334 -1.3142064398
H 3.1074802587 2.3665361446 1.3997003043
H 2.1513798056 1.9070447848 3.6123176490
H 0.0472904631 -1.4732265026 2.0120338872
H 1.0190748872 -1.0348164800 -0.2040580432
