65
CONF468
C -3.4473727675 -1.1060592134 -1.8149183631
C -4.1545684407 0.2313967526 -1.6126242411
C -3.4477017342 1.3979349258 -2.3167423353
C -4.2168645553 2.7155465290 -2.1379949880
C -2.0229275189 1.5800804392 -1.8344646850
O -1.0455219888 1.6224093340 -2.5600094492
O -1.9717668312 1.7239676922 -0.4976586178
C -0.6757928164 2.0213705272 0.1128667256
C -0.5046794297 3.5285760550 0.1969196408
C 0.8427128899 3.8879580779 0.8409559326
C 1.0853201065 3.0567489277 2.0661849026
C 0.4089641681 1.9334168566 2.3706108645
C -0.6924853589 1.3802227356 1.4901700869
C -0.5992588620 -0.1597343625 1.4458118013
C -0.8451836284 -0.6901550370 2.8731544363
C 0.0910212837 -0.0110580558 3.8384616636
C 0.6776555825 1.1711259110 3.5811511968
C -0.7610519606 -2.2156053126 2.9783535794
C 0.7489205968 -0.6401888920 0.8594548340
C 0.5721449359 -1.6532323213 -0.2711887432
C 1.8925604874 -2.0625726618 -0.8940957967
C 2.8333076902 -2.7990670892 0.0523185393
C 3.9300204828 -3.5716675328 -0.6954403357
C 3.9411955104 -3.1896939226 -2.1817191169
C 2.5731913837 -3.4299650020 -2.7547737189
O 2.3334391403 -4.0637198268 -3.7638000459
O 1.5490539040 -2.9255914273 -2.0367504423
O 3.6311241783 -4.9720048866 -0.5549370653
C 2.0164051725 3.7666412388 -0.1476065901
H -3.9913237424 -1.9169503127 -1.3213911945
H -3.3665499138 -1.3496461071 -2.8798108706
H -2.4342597933 -1.0856695441 -1.3981466227
H -5.1749408119 0.1771640940 -2.0108601318
H -4.2424757797 0.4578211523 -0.5437716162
H -3.3664009332 1.1717330196 -3.3856594176
H -5.2106724164 2.6224192462 -2.5858919367
H -4.3364461170 2.9502964889 -1.0761706895
H -3.6986849560 3.5489629188 -2.6224149524
H 0.0996618259 1.5781908188 -0.5173877378
H -0.5766516089 3.9703301542 -0.8031463938
H -1.3240593667 3.9328129931 0.8041583588
H 0.7940863811 4.9407476522 1.1526541408
H 1.8736177861 3.3925231104 2.7400857459
H -1.6548526177 1.6378929211 1.9600091179
H -1.4136820699 -0.5232813067 0.8057013958
H -1.8757163725 -0.4085244845 3.1449221790
H 0.3064588840 -0.5254301933 4.7736318694
H 1.3785776566 1.6004909656 4.2947529756
H 0.2453587783 -2.5820739825 2.7513963182
H -1.0125424918 -2.5408686855 3.9930576750
H -1.4625990585 -2.6886054755 2.2832944329
H 1.3237274951 0.2130723304 0.4770829222
H 1.3627680165 -1.0684648853 1.6582454014
H 0.0548721205 -2.5493994493 0.0946588918
H -0.0542980727 -1.2116581518 -1.0562943865
H 2.3905808626 -1.1759116142 -1.3083974271
H 2.2637739442 -3.5046150635 0.6669745837
H 3.2851523077 -2.0651258533 0.7252375348
H 4.9163921316 -3.3603409523 -0.2652003129
H 4.6714349890 -3.7774760255 -2.7415051538
H 4.2031929647 -2.1285369430 -2.2840415910
H 4.3463263155 -5.4698705757 -0.9731103399
H 2.9611926350 4.0262474563 0.3404900425
H 1.8713772536 4.4412739121 -0.9978522804
H 2.1057412647 2.7433889126 -0.5269903851
