42
CONF5
C 2.2789872822 -4.3558341157 -0.1424287897
C 0.8285912077 -3.8880999644 -0.2262190799
C 0.7042580667 -2.4366733307 -0.6738454420
C -0.7633816845 -2.0529652117 -0.9068154799
O -1.2744242460 -2.1959088596 -2.0186378879
N -1.4193318208 -1.6054452508 0.1835457809
C -2.7195209190 -0.9354647552 0.0923808031
C -2.5487788033 0.5307657347 -0.2397815301
C -2.0570249153 1.4135509954 0.7265611195
C -1.8412451095 2.7522095992 0.4171775813
C -2.1177518562 3.2255153378 -0.8649268495
C -2.6098036603 2.3533718837 -1.8321676164
C -2.8226510563 1.0110469429 -1.5209519780
O 1.3086117813 -1.6226307675 0.3501830229
C 1.3990497423 -0.2745757830 0.1220056845
C 1.7918394759 0.4880689233 1.2229530681
C 1.8895220313 1.8698303862 1.1126449659
C 1.5876347234 2.4714349459 -0.1068506074
C 1.2129751903 1.7295048703 -1.2063240718
C 1.1136183310 0.3455104782 -1.0962984775
F 1.6492111710 3.8196559199 -0.2116062713
C 2.2846219428 2.7151299861 2.2859979746
F 3.3723092722 3.4807064023 2.0174099756
F 2.5846601954 1.9727825546 3.3731751234
F 1.2911314247 3.5671755072 2.6519503766
H 2.3226296668 -5.4081097562 0.1521471178
H 2.7769112553 -4.2530213415 -1.1122834121
H 2.8402715362 -3.7740355624 0.5935711296
H 0.3263430991 -4.0001577606 0.7421028251
H 0.2744527340 -4.4953127284 -0.9507772911
H 1.2320031512 -2.2978927631 -1.6260194884
H -0.8745320565 -1.4479487037 1.0202848960
H -3.3109320069 -1.4379685391 -0.6761763427
H -3.2251372598 -1.0568293994 1.0550885459
H -1.8387618768 1.0468832910 1.7269229384
H -1.4557581301 3.4274110245 1.1751988383
H -1.9488071876 4.2702046222 -1.1074269055
H -2.8272527004 2.7165830044 -2.8321238604
H -3.2023817033 0.3298541796 -2.2771470983
H 2.0080874594 -0.0087528073 2.1612235774
H 0.9788539296 2.2311330639 -2.1384281469
H 0.8009021325 -0.2207028404 -1.9645964162
