12
CONF1
Br -3.3243992067 0.3239719145 0.0528023937
C -1.4444066233 0.1138216895 -0.0171615242
C -0.6164668107 1.2406482819 -0.1008591344
Br -1.3772663724 2.9733971995 -0.1429387582
C 0.7746200649 1.0851708100 -0.1528577739
Br 1.8941535038 2.6073981323 -0.2660821515
C 1.3377526374 -0.1971013707 -0.1215262579
Br 3.2177450089 -0.4072515125 -0.1914901321
C 0.5098124619 -1.3239277202 -0.0378286509
Br 1.2706123409 -3.0566768254 0.0042509763
C -0.8812744578 -1.1684506565 0.0141700015
Br -2.0008076408 -2.6906778071 0.1273944780
