71
CONF245
C 7.7378308508 -2.2253713585 0.8798095401
C 7.1896636602 -2.4026397045 2.2661647674
C 5.8181059754 -2.2775610669 2.5430350278
C 5.3156696384 -2.3819420662 3.8518005254
C 6.2130040286 -2.6366725668 4.8892337290
C 7.5722527085 -2.7908817026 4.6328561534
C 8.0516548717 -2.6719087966 3.3337853001
C 3.8449494965 -2.2343194131 4.1225033497
N 4.9039793556 -1.9953698645 1.4941151280
C 4.6561937260 -2.7965245994 0.4291952936
O 5.2026270768 -3.8821329788 0.2274078968
C 3.6618454834 -2.2119310172 -0.5712824670
N 2.7471532560 -1.2441592909 0.0214739497
C 1.6382301369 -1.9203658964 0.7080438817
C 0.7454912516 -0.8982506303 1.3894307167
N 0.2004635050 0.0429516928 0.4069537129
C 1.3060409429 0.7140695350 -0.2829914376
C 2.2079543574 -0.3023799577 -0.9663564457
C -0.6934624836 1.0014143668 1.0689201405
C -1.4379336055 1.9238026860 0.1056294791
C -2.1923352590 1.1706493188 -0.9870459849
C -3.0591418149 2.0917855601 -1.8639305859
C -3.6158159071 1.3174422583 -3.0484388382
C -3.0560316383 1.4761017138 -4.3182721990
C -3.5192306191 0.7441946165 -5.4103306049
C -4.5529468367 -0.1510418976 -5.2032860928
C -5.1384521202 -0.3423571573 -3.9629322454
C -4.6606514649 0.4019518254 -2.8883490254
F -5.0157267222 -0.8718746043 -6.2614733307
C -4.1665172859 2.8134769582 -1.1138010209
C -4.5762819200 4.0744554232 -1.5598335054
C -5.6167516316 4.7629992002 -0.9431768047
C -6.2429928095 4.1642146692 0.1364236612
C -5.8710061667 2.9220799177 0.6179377472
C -4.8265322809 2.2528483353 -0.0169148479
F -7.2592751245 4.8270172517 0.7532358226
H 7.2291895184 -1.4115581029 0.3533107157
H 8.8070184945 -2.0048117521 0.9199245261
H 7.5925080801 -3.1312127672 0.2820986966
H 5.8361622729 -2.7226494181 5.9044910947
H 9.1155064331 -2.7703853588 3.1364407683
H 3.6336540621 -2.3871957439 5.1829215169
H 3.2640863811 -2.9605580505 3.5437087816
H 3.4788898038 -1.2388977833 3.8439196249
H 4.2667436417 -1.7131391934 -1.3407303190
H 3.1483935246 -3.0567541613 -1.0607511312
H 1.0409373405 -2.5162568011 -0.0082297958
H 2.0461313000 -2.6074190665 1.4584467810
H 1.3303656948 -0.3725529694 2.1722512161
H -0.0850556037 -1.4153766318 1.8838973589
H 0.9056056232 1.3892056437 -1.0463810380
H 1.9076582761 1.3207828931 0.4242123770
H 3.0415330529 0.2196607991 -1.4491939251
H 1.6327537195 -0.8301504320 -1.7512155754
H -0.1380339727 1.6174051687 1.8047549959
H -1.4316594570 0.4161475534 1.6336116971
H -2.1400201239 2.5172855082 0.7036395330
H -0.7517654636 2.6443406217 -0.3569725689
H -1.4776853008 0.6611146254 -1.6425996930
H -2.8112710154 0.3787102079 -0.5453566570
H -2.3984620640 2.8661889897 -2.2738543078
H -2.2428053823 2.1822215255 -4.4615081661
H -3.0904829638 0.8657356054 -6.3993548847
H -5.9491266370 -1.0536181679 -3.8456538857
H -5.1155396642 0.2661285796 -1.9116978255
H -4.0722685784 4.5282603514 -2.4091246681
H -5.9332958790 5.7423360320 -1.2858939657
H -6.3834040950 2.4916778543 1.4717350068
H -4.5280445841 1.2820878850 0.3654080226
H 8.2591717370 -2.9939751747 5.4488213905
H 4.2771982345 -1.1981871195 1.5726239967
