47
CONF9
C 5.6352079895 -0.8267876766 0.0467740772
C 4.8108548523 -1.6137787973 -0.9822087133
C 3.7689702304 -0.7699765933 -1.6348528556
N 3.9583994127 -0.2081673089 -2.8372349309
N 2.8497990667 0.4976991666 -3.1112599448
C 2.7609364751 1.2313358004 -4.3694256312
C 1.9307564086 0.4318854723 -2.1094487236
C 0.5951557665 1.0668589189 -2.2168911946
O 0.0140062376 1.1462727344 -3.3050810500
N 0.0927200368 1.5336093518 -1.0533416886
C -1.2666955841 2.0408791157 -0.9147275066
C -2.1681705645 1.0801629797 -0.1711213688
C -3.0167712183 1.5370346547 0.8381145732
C -3.8670191149 0.6604815153 1.5035109969
C -3.9010761762 -0.7054585979 1.1921311633
C -3.0434760421 -1.1528461296 0.1810800390
C -2.1926613256 -0.2765765979 -0.4890982524
C -4.8427583087 -1.6378954554 1.9577787885
C -6.2944117849 -1.1510825792 1.7865076905
C -4.4708052557 -1.6153796639 3.4529502102
C -4.7597685385 -3.0864395006 1.4620017241
C 2.5131777569 -0.3855234397 -1.1412730854
Cl 1.8193858440 -0.9105076142 0.3584063439
H 4.9929265795 -0.4190590381 0.8333897104
H 6.3807614408 -1.4755144915 0.5157784876
H 6.1561411206 0.0064731246 -0.4343624200
H 5.4675616679 -2.0170330651 -1.7590028352
H 4.3242685338 -2.4640818368 -0.4915754897
H 3.7769573236 1.3481923582 -4.7477264904
H 2.3138984506 2.2111417084 -4.1963122618
H 2.1535897760 0.6819302334 -5.0931729070
H -1.2387229514 3.0031729869 -0.3931296373
H -1.6478566333 2.2189987260 -1.9251058189
H -3.0107926602 2.5897372818 1.1095604638
H -5.0336446929 -3.1676502311 0.4047917809
H -3.0283035277 -2.1995296728 -0.0995956556
H -1.5373473641 -0.6622118196 -1.2659586082
H -6.4282291708 -0.1363921895 2.1727677334
H -6.9754177834 -1.8136558523 2.3319562780
H -6.5808550819 -1.1564858624 0.7293517605
H -5.1359258427 -2.2822381406 4.0127482039
H -3.4396385014 -1.9547796626 3.5985534666
H -4.5640935725 -0.6103689880 3.8751130588
H -3.7556221959 -3.5027018256 1.5941962264
H -5.4565875482 -3.7032020011 2.0382295679
H -4.5082399074 1.0540790094 2.2863424018
H 0.6433440606 1.4394099184 -0.2123904530
