66
CONF15
C -5.1693245253 4.1179683769 0.9997485821
C -3.7339786697 4.2743359979 0.5369456431
O -3.0034628404 3.0333699630 0.6752548444
C -3.1336378935 2.1449913613 -0.3516324204
O -3.8301306188 2.3729683189 -1.3270659380
C -2.3476215478 0.9365367376 -0.1006831100
C -2.4560398084 -0.1199412251 -0.9541060205
N -1.8095112796 -1.2983491904 -0.6552151549
C -1.0957704640 -1.5299404239 0.4989140933
C -0.9619902492 -0.5297097162 1.4115756351
C -1.4337921070 0.8891760804 1.1205758231
C -0.2358181134 1.8463742789 1.0194921120
C -0.1814553409 2.9471674032 1.8742548728
C 0.9163516276 3.7968326399 1.9027969797
C 2.0072842437 3.5474249197 1.0732561374
C 1.9788930907 2.4551170440 0.2211974428
C 0.8679833814 1.5978281508 0.1745424230
C 0.8673862475 0.4709746204 -0.7523323858
C 1.9158738573 -0.3093615297 -1.0568863643
C 1.7369059977 -1.4424361725 -1.9802432784
O 0.6824728829 -1.7652896387 -2.5033913436
O 2.9113204133 -2.0913013916 -2.1425451759
C 3.0040548788 -3.3024045963 -2.9839448156
C 4.4738126953 -3.6846774360 -2.8493125419
C 2.1104663570 -4.4024011821 -2.4181107473
C 2.6659107721 -2.9623355875 -4.4316075976
C -0.2540930462 -0.7849070445 2.6664858923
O 0.3635999774 -1.7940747108 2.9639516194
O -0.3590804272 0.2841460610 3.5063513231
C 0.4655909419 0.2406480822 4.6939882722
C 1.8923207196 0.6373735172 4.3644564953
C -0.5264332717 -2.9109922152 0.6046747847
C -3.2421445450 -0.1590763549 -2.2295913473
H -5.2054438871 3.7566327695 2.0315410279
H -5.7040239034 3.4154426559 0.3563994110
H -5.6799777632 5.0853634257 0.9546541680
H -3.1849306601 4.9806876439 1.1662190274
H -3.6865677628 4.6015545393 -0.5056017083
H -1.7186912865 -1.9778410127 -1.3939687287
H -2.0113577775 1.2410117304 1.9804788964
H -1.0195887227 3.1238235272 2.5405878376
H 0.9250879442 4.6481354112 2.5765313820
H 2.8695550685 4.2062000882 1.0848123670
H 2.8091964348 2.2692125384 -0.4530465912
H -0.0676669368 0.2416386807 -1.2510857721
H 2.8909908781 -0.1846278115 -0.5974157588
H 5.1148830298 -2.8763587991 -3.2115273787
H 4.7233939688 -3.8862135786 -1.8039872482
H 4.6785348792 -4.5835114971 -3.4375049674
H 2.3211806132 -5.3389504960 -2.9438524154
H 1.0546375486 -4.1603906844 -2.5417324384
H 2.3229270598 -4.5528157043 -1.3550551508
H 3.2796009847 -2.1245036445 -4.7760897229
H 2.8870375306 -3.8292341837 -5.0623033449
H 1.6129386250 -2.7033924145 -4.5452977223
H 0.4176972095 -0.7607362756 5.1321034843
H -0.0025784100 0.9585458906 5.3727411644
H 2.4836695375 0.6971942068 5.2838756252
H 2.3526546956 -0.1028171203 3.7054879175
H 1.9117632647 1.6126501082 3.8689681554
H 0.5639945524 -2.8654297838 0.6641042552
H -0.8129082059 -3.5132103303 -0.2622124807
H -0.8613504868 -3.4060738719 1.5181865118
H -4.3055536479 -0.0011017252 -2.0347010718
H -2.9348923921 0.6446337571 -2.9007830158
H -3.1101566252 -1.1215512776 -2.7323194911
