42
CONF63
C -0.7175833998 2.1630115913 1.0076435910
C -2.2383813364 2.3005013736 0.9556418348
C -2.9153707361 0.9767097728 0.7075410404
O -4.3286475809 1.1251657979 0.6484341176
C -4.7907325847 -0.0508605649 -0.0303758547
C -3.5921498949 -0.4737821911 -0.9211597007
O -2.5554643292 0.4582798336 -0.5708032684
C -3.1833515910 -1.9136911774 -0.6583918493
O -2.0852536597 -2.3050525951 -1.4957814834
C -0.7975037511 -2.0687404715 -1.0922558261
C -0.4033489302 -1.7765729080 0.2168946566
C 0.9449600404 -1.5877649426 0.5044622854
C 1.8921053457 -1.6856869571 -0.5056124195
C 1.5125035639 -1.9866776547 -1.8070700194
C 0.1678398864 -2.1819514528 -2.0977676795
O 3.2470790717 -1.5353479361 -0.2123851926
C 3.7106437575 -0.2658043837 0.0630173772
C 2.9692031172 0.8908340421 -0.1763103085
C 3.5355629900 2.1308152021 0.1158948695
C 4.8233523829 2.2239866166 0.6365150046
C 5.5533957763 1.0569251111 0.8648735731
C 5.0036588272 -0.1880625887 0.5828484940
H -0.2528336793 3.1233092047 1.2472629290
H -0.3208588280 1.8240528690 0.0462597681
H -0.4143958898 1.4397898211 1.7725129401
H -2.5424002714 2.9940440173 0.1633084894
H -2.6180405535 2.6921151278 1.9059147686
H -2.6579337618 0.2366173806 1.4902696656
H -5.0381907463 -0.8404845546 0.6943658961
H -5.6805929039 0.2088516692 -0.6064758393
H -3.7958278604 -0.3410786161 -1.9884511825
H -4.0132761336 -2.5709552882 -0.9393769814
H -2.9675345483 -2.0812140811 0.4016575600
H -1.1218593931 -1.6793825924 1.0202939489
H 1.2580678790 -1.3519863231 1.5169341948
H 2.2646686481 -2.0602147160 -2.5858469201
H -0.1504253616 -2.4147337866 -3.1087393379
H 1.9670765042 0.8281727785 -0.5845681714
H 2.9569732322 3.0304257329 -0.0717266977
H 5.2551680598 3.1935300320 0.8612630383
H 6.5590983071 1.1136397804 1.2701273148
H 5.5606015208 -1.1026800629 0.7591614855
