47
CONF108
C -2.8871710957 3.5204616524 -0.1455445777
C -2.2397733621 2.4732548773 0.7316336583
C -2.2542026864 2.6269477663 2.2361356022
C -0.9681459879 2.9099518111 1.4636198259
C 0.1554643804 1.9724918791 1.6040924450
O 0.1381795039 0.8727541756 2.1125552897
O 1.2801407124 2.5061864357 1.0320049002
C 2.4094144858 1.5975347835 0.9796801182
C 3.5751746270 2.4419904371 0.7200901595
N 4.5174963911 3.0729940665 0.5031855613
C 2.2368297475 0.5563966226 -0.1075158758
C 2.4010926607 -0.7883066290 0.2043943775
C 2.2222132328 -1.7427918721 -0.7933444388
C 1.8808287318 -1.3662565609 -2.0910148535
C 1.7158697372 -0.0150239835 -2.3824239987
C 1.8951169022 0.9533881157 -1.4005648247
O 2.4596757529 -3.0519574493 -0.4353939800
C 1.7406098230 -4.0620111105 -1.0610657335
C 2.4504353019 -5.1805890316 -1.4811225546
C 1.7568030927 -6.2518935900 -2.0393127887
C 0.3720738910 -6.1982005966 -2.1807394832
C -0.3231854931 -5.0681424046 -1.7517743757
C 0.3550319884 -3.9937428130 -1.1842228703
C -2.9300720194 3.7413500830 2.9042845947
C -3.6005568143 3.6567339215 4.0538181838
Cl -4.3810308314 5.0388499308 4.7791707029
Cl -3.7888070794 2.1872051140 4.9706687299
C -2.3383816165 1.0705243104 0.1765584063
H -2.7328740447 4.5359049188 0.2244199862
H -3.9648509596 3.3346235225 -0.2121105862
H -2.4697875030 3.4616914745 -1.1560490789
H -2.2345840346 1.6860696594 2.7772255075
H -0.6864688759 3.9471451339 1.3156041494
H 2.5415686020 1.1127843497 1.9537411334
H 2.6513306674 -1.1057387305 1.2114603020
H 1.7482283515 -2.1178688368 -2.8614060007
H 1.4544595553 0.2820022558 -3.3928217460
H 1.7666506995 2.0053631707 -1.6341195504
H 3.5290089529 -5.2030797942 -1.3659304936
H 2.3053951268 -7.1286293832 -2.3687916614
H -0.1640794893 -7.0330438081 -2.6196789367
H -1.4033218142 -5.0233381848 -1.8497237703
H -0.1803185556 -3.1150963387 -0.8390775702
H -2.8901323408 4.7229041291 2.4418940987
H -1.8176351961 1.0087859614 -0.7859926479
H -3.3916657206 0.8226231226 0.0088825752
H -1.9120458788 0.3267981560 0.8516687795
