65
CONF154
C -1.8564428898 4.9130023040 -0.1452225811
C -1.8547602850 4.1201705718 -1.4501281881
C -2.0674592173 2.6161185856 -1.2382570538
C -2.1027899213 1.8562065330 -2.5725352261
C -0.9476054617 2.0449767960 -0.3942173777
O 0.2360299060 2.2065057404 -0.6280100055
O -1.4171833313 1.3037917047 0.6284039705
C -0.4298751901 0.6632014507 1.4992723674
C -0.0407523175 1.6197305996 2.6136020798
C 1.0491340865 0.9903986141 3.4942443469
C 0.7286691216 -0.4436727721 3.7932848553
C -0.2102270620 -1.1722073781 3.1592161523
C -1.0765522925 -0.5970195005 2.0516374853
C -1.3593788919 -1.6738386320 0.9803306392
C -2.1100195721 -2.8383072729 1.6577970009
C -1.3320828803 -3.3353954360 2.8455090313
C -0.4541922358 -2.5632827641 3.5075570092
C -2.4785629420 -3.9708944093 0.6958764985
C -0.0615017073 -2.0964239354 0.2550917307
C 0.0075470015 -1.5346211188 -1.1665491767
C 1.3725247377 -1.6448867625 -1.8175061634
C 1.3710370618 -1.1973390576 -3.2653171590
C 2.7906475780 -1.1087164190 -3.7799001691
C 3.5292862078 -0.0559984843 -2.9633912456
C 3.3395648632 -0.1612126356 -1.4683495975
O 4.0817247144 0.3897082401 -0.6786287196
O 2.2816599762 -0.8340639249 -0.9832077435
O 2.7428008021 -0.7519282510 -5.1654326422
C 2.4487729046 1.1150269512 2.8648899175
H -1.0388718363 4.5968216466 0.5127579730
H -1.7326859246 5.9831123190 -0.3359474640
H -2.7979091067 4.7724544389 0.3968651286
H -2.6547245383 4.4801508844 -2.1078788637
H -0.9092564451 4.2694459016 -1.9847865159
H -3.0109685211 2.4558304050 -0.7053398736
H -1.1553288454 1.9815688257 -3.1061658395
H -2.2762784049 0.7863990711 -2.4190776960
H -2.9090620404 2.2494337957 -3.1986544486
H 0.4450199178 0.4174400085 0.8903617735
H 0.3155693030 2.5636969064 2.1880600154
H -0.9329930789 1.8331414306 3.2148989987
H 1.0735354005 1.5378406921 4.4471830824
H 1.3199345020 -0.9236646730 4.5733460079
H -2.0436364684 -0.3096672580 2.4940242226
H -2.0433186526 -1.2373977063 0.2408214264
H -3.0598385000 -2.4192501134 2.0293376091
H -1.4952589587 -4.3634710367 3.1646189328
H 0.1070837561 -2.9686767290 4.3474330286
H -1.5944760001 -4.5084539234 0.3396126921
H -3.1265514356 -4.6971993229 1.1970823363
H -3.0148235679 -3.5776584840 -0.1742004428
H 0.8078603646 -1.7531815802 0.8268835375
H 0.0248274502 -3.1866097754 0.2092335254
H -0.7141218787 -2.0594929687 -1.8056189853
H -0.2795415460 -0.4764992248 -1.1770245022
H 1.7538938145 -2.6720279515 -1.7413478403
H 0.8825118892 -0.2179710149 -3.3583442695
H 0.7956618665 -1.9251094385 -3.8464859630
H 3.2837427609 -2.0865065866 -3.6621051481
H 3.1410982223 0.9336649680 -3.2430512800
H 4.6049782342 -0.0508942296 -3.1614562536
H 3.6490821369 -0.7229497202 -5.4981145442
H 3.2040092812 0.6451442322 3.5030255933
H 2.7169118656 2.1683950769 2.7324368868
H 2.4839113581 0.6231108022 1.8875569069
