76
CONF21
C -0.5497387443 -2.0428868361 -0.9772322164
C -1.8098089186 -1.3048611630 -0.5512990132
C -3.0426538523 -1.9740163953 -1.0961279091
C -4.2931727137 -1.8076448489 -0.6430441507
C -5.4111579809 -2.6137567661 -1.2434041954
O -6.2791957588 -1.7291016178 -1.9848074124
C -4.7424151028 -0.8309422095 0.4195099301
C -3.8410217674 0.3815838208 0.6852341846
O -2.9130087778 0.1685963932 1.7685466115
C -4.6396524365 1.6405658849 1.1028043344
O -5.4998881842 1.6456468760 1.9742271177
C -4.1522140856 2.7843877317 0.3313983529
C -4.6456068845 4.1713142590 0.5570397981
C -3.2619560084 2.3395105317 -0.5781957996
C -3.0868113949 0.8502090708 -0.5697900357
C -1.7034009178 0.2256876197 -0.8545391489
O -1.5081116658 0.4828685842 -2.2487396624
C -0.5095697295 0.7728463225 -0.0225381124
C -0.3320357003 2.2911771992 -0.0665991047
C 0.8098160126 0.1330581927 -0.5000632321
O 1.7915764853 0.3226660650 0.5605382653
C 3.0183730027 0.7929395893 0.2216821752
O 3.3082767110 1.0968654478 -0.9337713103
C 3.9178567989 0.8902223967 1.3730608587
C 3.4734126648 0.5001529436 2.6495426910
C 4.2905063604 0.5695472045 3.7617883318
C 5.5990534761 1.0437898512 3.6074649662
C 6.0757313468 1.4371598403 2.3725298719
C 5.2587186640 1.3756525620 1.2160159867
N 5.7463045991 1.7656183847 0.0153170031
C 7.0943879512 2.2601682043 -0.1921703949
C 0.7724173504 -1.3231172327 -0.8883027952
O 1.8025061560 -1.6411702789 -1.8469023650
C 1.6597578652 -1.2311263092 -3.1191030241
C 2.8490112238 -1.5951607603 -3.9477670638
O 0.6876201276 -0.6198958368 -3.5317679480
C 0.4930181533 -2.4732522524 0.0443160633
C 0.2936083547 -2.2405440201 1.5259227275
C 1.2098267351 -3.7806991806 -0.2358175953
H -0.6523513829 -2.7052753056 -1.8337937120
H -1.8836983449 -1.3582916742 0.5379924596
H -2.8943851665 -2.6837615661 -1.9092353587
H -5.0037279296 -3.3911775435 -1.9032266928
H -5.9832069240 -3.1037243088 -0.4412076963
H -7.1365399645 -2.1635106709 -2.0699613387
H -5.7231873157 -0.4541282323 0.1009793556
H -4.9279685554 -1.3589739552 1.3659126152
H -3.4412180949 0.0065593652 2.5638346194
H -4.4360394751 4.4911034113 1.5838871068
H -4.1748074860 4.8744090792 -0.1334167850
H -5.7320588098 4.2206786795 0.4244500518
H -2.7808658502 2.9685305418 -1.3199387264
H -3.6723800275 0.4872478732 -1.4272240026
H -0.7118181497 0.0142821830 -2.5679936265
H -0.6836314751 0.4806662101 1.0148905290
H -1.1229264794 2.8025185831 0.4863804233
H -0.3276961917 2.6552128619 -1.0988641496
H 0.6203606081 2.5682308999 0.3967688599
H 1.1575225068 0.6932342302 -1.3729410095
H 2.4591261226 0.1338190686 2.7514588308
H 3.9234129425 0.2622651210 4.7346153235
H 6.2575627415 1.1060425263 4.4691389459
H 7.0931526190 1.7987451645 2.2859602773
H 5.1172232205 1.6961881966 -0.7715646155
H 7.8506526047 1.5126505565 0.0812939599
H 7.2109659950 2.4948277135 -1.2514859760
H 7.2890838769 3.1723700703 0.3870062794
H 3.2255296678 -2.5837454611 -3.6782370308
H 2.5897768586 -1.5508199605 -5.0050810948
H 3.6426385811 -0.8669897480 -3.7446609523
H -0.3642253554 -3.0168518212 1.9328723278
H -0.1361790661 -1.2702229087 1.7714796085
H 1.2587952919 -2.3114177918 2.0380206995
H 1.2611461611 -4.0070018044 -1.3021094981
H 2.2301562536 -3.7543484234 0.1622253342
H 0.6714470910 -4.5933999995 0.2632842594
