24
CONF2
C -0.2093992967 -0.9170739039 -0.5167045616
C -0.4184734482 0.6190415496 -0.7691468528
C -1.4907213296 1.0477006492 0.2375233199
C -2.2902162178 -0.2389829803 0.4420051935
C -1.1763908916 -1.2712703004 0.6171825959
Cl -1.7813648463 -2.9720084160 0.5257708963
Cl -3.4059348728 -0.1589045164 1.8544843296
Cl -2.5102748848 2.4173120604 -0.3557512973
C 1.0132313753 1.1988036435 -0.5883769132
C 1.4252595249 1.0236283222 0.8673959725
C 1.6027697548 -0.2872663112 1.0846369907
C 1.3146824084 -1.0153702153 -0.2216005983
C 1.8765851367 0.0537567559 -1.2221043712
Cl 1.4989025258 -0.2805869748 -2.9354641625
Cl 3.6378635928 0.3169139276 -1.0811395300
Cl 1.9986944113 -2.6408940992 -0.3645937071
Cl 2.0095359761 -1.0599245964 2.5482583490
Cl 1.5536730785 2.2974295030 1.9922898388
Cl 1.2540575388 2.8145450354 -1.2681165682
H -0.4496523321 -1.4882176504 -1.4151208217
H -0.7628864799 0.7949157451 -1.7896317102
H -1.0671138015 1.3746882509 1.1904914722
H -2.8994570062 -0.4656988222 -0.4381637819
H -0.7233699210 -1.1625371485 1.6058761134
