42
CONF100
C -6.6397023642 1.3239227859 1.4008893610
C -5.5623836316 1.1698336944 2.4689278569
C -4.1781112541 0.9118647968 1.9018574883
O -4.1327401268 -0.2385665616 1.0539896414
C -3.8916496046 0.2070282752 -0.2839926762
C -3.1560782702 1.5241525279 -0.0749618248
O -3.7643809207 2.0325173446 1.1121160000
C -1.6595545485 1.3461427703 0.1460956572
O -1.1134026333 0.9322050312 -1.1051070420
C 0.2302811786 0.6877028730 -1.1700704290
C 1.1086188384 0.8224452003 -0.0927061150
C 2.4633956166 0.5524452355 -0.2712051098
C 2.9325761945 0.1421615537 -1.5110800581
C 2.0604719305 0.0056854932 -2.5860204520
C 0.7125787727 0.2825436072 -2.4170092185
O 4.2866020652 -0.0624110652 -1.7322484457
C 4.9321394690 -1.0468599869 -1.0152282087
C 6.3221717246 -0.9542238601 -0.9656760935
C 7.0486772631 -1.9333451619 -0.3009660827
C 6.3998317300 -2.9995278976 0.3184685826
C 5.0123531061 -3.0800202799 0.2594606551
C 4.2678757999 -2.1100429071 -0.4062121526
H -7.6089982819 1.5376978971 1.8595882181
H -6.7404827912 0.4041512478 0.8176004068
H -6.3983424706 2.1449510377 0.7202031327
H -5.8008273856 0.3359825262 3.1395436210
H -5.4968518106 2.0712069686 3.0906043111
H -3.4537232210 0.7414521788 2.7157638623
H -3.2886904930 -0.5454710912 -0.7992445971
H -4.8350879310 0.3643336851 -0.8251027126
H -3.3314177523 2.2404755595 -0.8845408517
H -1.4807489477 0.5833932661 0.9191275569
H -1.2195446858 2.2994269388 0.4697453653
H 0.7596469177 1.1441534541 0.8805667019
H 3.1568360046 0.6592006357 0.5565005424
H 2.4492803078 -0.3115293600 -3.5474628498
H 0.0148419328 0.1874326879 -3.2417298927
H 6.8102273442 -0.1167952113 -1.4521010250
H 8.1308722681 -1.8587951395 -0.2632341419
H 6.9707110076 -3.7600928530 0.8397122989
H 4.4955270565 -3.9098625141 0.7312076974
H 3.1872038080 -2.1789134687 -0.4560688773
