31
CONF15
C 5.5663342755 -0.1312177727 -1.7006570177
C 4.3806697064 0.1397240744 -0.8254294290
N 3.4806175207 -0.8288564689 -0.7216621668
C 2.4219967195 -0.5992203358 0.0552883433
N 1.3820181585 -1.3862229494 0.3378350523
C 0.6562477759 -0.6169371023 1.1679357153
N 1.1089500211 0.6074573695 1.4584440950
N 2.2540945739 0.6196663599 0.7442584683
C 3.1641679810 1.6144479188 0.6515812266
C 4.2506157736 1.3822367482 -0.1459597362
S -0.9640897980 -1.1493176928 1.7620011788
O -0.9336745126 -2.5975717035 1.9023099470
O -1.3818330022 -0.2299620974 2.8101735647
N -1.9602018098 -0.8348112751 0.3865878638
C -2.1709657701 0.5258093990 0.0623432593
C -1.4098247254 1.2039298333 -0.8926471295
C -1.6196216941 2.5269918470 -1.2308163499
C -2.6252892401 3.2234233680 -0.5670070699
C -3.4095993204 2.5988819714 0.3962125812
C -3.1792205062 1.2650132039 0.6898610175
F -3.9586764942 0.6539409529 1.5863379150
F -0.4310448402 0.5110195555 -1.5184031704
H 6.1029610572 -1.0112243170 -1.3337367284
H 6.2514650356 0.7174309682 -1.7332036373
H 5.2322272482 -0.3620583096 -2.7165003189
H 2.9693748739 2.5203029093 1.2135856641
H 5.0072946684 2.1490142065 -0.2523353291
H -1.0001823348 2.9910062811 -1.9888929640
H -2.8035402813 4.2651676263 -0.8088897229
H -4.2035020377 3.1219393861 0.9155393665
H -1.6157634531 -1.3921426187 -0.3924660945
