44
CONF6
C -5.3504064061 -0.3490527374 -1.3494675078
N -3.8985940087 -0.3497877840 -1.1722747287
C -3.4495881107 -1.3889164297 -0.2233787578
C -3.7990074480 -0.8342868433 1.1882414466
C -3.7779441860 0.7037025178 0.9920415971
C -3.4135618648 0.8785686623 -0.5106097667
C -1.8959534104 0.9470271006 -0.7283714668
C -1.2279735988 -0.2497956391 -0.0677131035
C -1.9355385652 -1.5579361346 -0.4061746969
O 0.1533338486 -0.2799306458 -0.5430241790
C 1.0567680131 -0.8727873023 0.2515873268
O 0.7970023302 -1.3974069094 1.3175295776
C 2.4508552826 -0.7829832524 -0.3464873982
C 3.4175975768 -1.6988159546 0.4220697330
O 3.0104447361 -3.0578686014 0.4031591073
C 2.9399329351 0.6491726368 -0.3340568238
C 3.5038672272 1.2212044407 -1.4744817924
C 3.9948701458 2.5229120159 -1.4446453784
C 3.9254574925 3.2693893442 -0.2725459892
C 3.3636839907 2.7065015898 0.8701989707
C 2.8760181847 1.4047249360 0.8402919465
H -5.6572741115 -1.2945848385 -1.8084627597
H -5.9287193511 -0.2200050113 -0.4166952961
H -5.6290647428 0.4591585838 -2.0336700744
H -3.9534826918 -2.3368357944 -0.4387710746
H -4.7878502182 -1.1772589658 1.5042497622
H -3.0844647755 -1.1746910113 1.9436775521
H -3.0579109932 1.2050103731 1.6460992083
H -4.7577076687 1.1409119335 1.2029023673
H -3.8884565551 1.7580832213 -0.9575625462
H -1.4838801531 1.8757940720 -0.3179129384
H -1.6941425713 0.9272789619 -1.8042676793
H -1.1903191259 -0.1192967100 1.0184818877
H -1.7332906743 -1.8156387662 -1.4514255137
H -1.5549674512 -2.3604352881 0.2341122623
H 2.3828344374 -1.1295827880 -1.3839888220
H 4.3979831650 -1.6521091709 -0.0624704393
H 3.5285048231 -1.3245886889 1.4502065786
H 2.2239063034 -3.1108318697 0.9617086836
H 4.4294359340 2.9554258333 -2.3402756707
H 4.3061276553 4.2852861070 -0.2494864387
H 3.3041054541 3.2832122633 1.7878294911
H 2.4341992189 0.9715999008 1.7340957240
H 3.5550462590 0.6428681514 -2.3926343446
