38
CONF1078
F -0.6903217260 1.4571181648 0.8580963195
C -1.2503872791 0.3759447354 0.2752820397
F -1.9681237363 -0.2951360528 1.1982867475
C -0.1387159804 -0.5486756347 -0.3056384426
F -0.6743318869 -1.7678485031 -0.5404189309
F 0.2917679498 -0.0162428722 -1.4731312987
C 1.0960211927 -0.7166850475 0.6484345295
F 1.8467126181 0.4061334197 0.5846115582
F 0.6436809215 -0.8741134857 1.9136704177
C 1.9981872883 -1.9495074401 0.2858520453
F 1.4005114756 -3.0727044768 0.7431651422
F 2.1143354947 -2.0301240192 -1.0591875222
C 3.4375962276 -1.8588939663 0.8985380930
F 4.1699762663 -0.9945559727 0.1645187274
F 3.3575797130 -1.4055478713 2.1709935761
C 4.2031552152 -3.2231740385 0.9286770194
F 3.6863156974 -4.0431367961 1.8494802556
F 4.1443526639 -3.8163304616 -0.2718111373
F 5.4860109516 -2.9896242569 1.2352529151
S -2.4802937921 1.0077239109 -1.0740424587
O -2.7744025187 -0.1593403346 -1.9123410311
O -1.8455899689 2.2127968288 -1.6141844151
N -3.8376573700 1.4149826862 -0.2474966775
C -4.8513074513 0.3692113031 0.0163969585
C -5.9524809869 0.3922346291 -1.0455495134
O -6.9584576923 -0.5748276920 -0.7430686523
C -3.8083624508 2.6076292359 0.6384502132
C -5.0552197453 3.4611487257 0.4638836164
H -4.3890364732 -0.6228552273 0.0429236752
H -5.2728992320 0.5647836250 1.0079749909
H -6.4477284196 1.3672966519 -1.0543687944
H -5.5125224766 0.2198531034 -2.0367998871
H -6.5812561650 -1.4520387226 -0.8878666297
H -3.7102545059 2.2677770649 1.6774788041
H -2.9211603177 3.1930889983 0.3867228335
H -5.1556573983 3.7955977187 -0.5724190928
H -5.9607407544 2.9205080703 0.7528558039
H -4.9708452129 4.3403343715 1.1092529620
