42
CONF43
C 2.0319750012 1.5561829445 1.1767652628
C 2.3833829975 1.2825488023 -0.2851893817
C 3.4198220868 2.2809112060 -0.8062574363
C 2.9377745136 -0.1234117263 -0.4762681404
O 2.0367181639 -1.1478944673 0.0467602651
C 1.0001264314 -1.4948977343 -0.7267067926
O 0.7606498725 -1.0234962083 -1.8232470568
C 0.1886676639 -2.5805665617 -0.1074057371
C 0.8234345862 -3.6574991480 0.5131746951
C 0.0819762728 -4.7506058696 0.9513236551
C -1.2979082149 -4.7756195057 0.7701325741
C -1.9394144953 -3.7026256503 0.1586640274
C -1.2052225975 -2.5996356161 -0.2727052732
C -1.9547030767 -1.4447834400 -0.8468860064
O -2.8256344593 -1.5508556652 -1.6891002985
O -1.5918043051 -0.2930799562 -0.2683643822
C -2.2235656824 0.9178129409 -0.7816228835
C -1.6981615907 2.0957452719 0.0180865622
C -2.0567041836 1.9766068376 1.4993044659
C -2.2586442129 3.3855113437 -0.5856663470
H 2.9215544417 1.4568090894 1.8104448778
H 1.2702027602 0.8617974626 1.5442204989
H 1.6444389828 2.5737286783 1.2907861499
H 1.4759872147 1.3733536206 -0.8949307873
H 3.6605997102 2.0963514199 -1.8583955551
H 3.0396907381 3.3029056451 -0.7175761536
H 4.3469926804 2.2134235973 -0.2249039094
H 3.8540682280 -0.2590362847 0.1054467265
H 3.1349218222 -0.3343877347 -1.5313271421
H 1.9020568953 -3.6490237155 0.6242016032
H 0.5851706205 -5.5868797290 1.4252989779
H -1.8776950256 -5.6278193772 1.1090010097
H -3.0171544597 -3.7038359220 0.0322356781
H -3.3102071785 0.8173052374 -0.6754595519
H -1.9752224806 1.0065172400 -1.8449562769
H -0.6051629947 2.1076266125 -0.0843718724
H -1.6558813908 2.8278398954 2.0585784086
H -1.6528758646 1.0602051389 1.9391065921
H -3.1458893081 1.9681225561 1.6270927252
H -3.3527519550 3.3994084317 -0.5177815102
H -1.9789981568 3.4904062184 -1.6390393586
H -1.8766096386 4.2548349419 -0.0424630085
