46
CONF127
C -0.9177729114 -0.8629394718 -1.8035112853
C -2.3917324636 -0.7842501115 -1.4772550651
C -2.8362125915 -0.6235357714 -0.0322967012
C -2.9522515786 0.5441245456 -1.0135293149
C -2.0795057169 1.7486847569 -1.0156204400
O -1.9162970177 2.4412703406 -2.0024767915
O -1.5118206018 1.9964509685 0.1793798536
C -0.5553083972 3.1012180804 0.2422586660
C 0.8125447004 2.6375185825 -0.1723907377
C 1.4606892556 1.6582090826 0.5837866960
C 2.7321772330 1.2369922863 0.2104262847
C 3.3762009697 1.7838446405 -0.8962393183
C 2.7263584109 2.7635098166 -1.6400173026
C 1.4461784215 3.1858893638 -1.2883130787
O 3.4445594296 0.3291090942 0.9764042234
C 2.8031934486 -0.8221003227 1.4057281328
C 3.1116891195 -1.2837538108 2.6815930833
C 2.5572011392 -2.4834772095 3.1202997895
C 1.6959409080 -3.2074222104 2.2982375008
C 1.3956692728 -2.7290025076 1.0241058779
C 1.9515977942 -1.5374988693 0.5670775342
C -1.8689667631 -0.6466246113 1.0690114574
C -2.1697576847 -0.8432925834 2.3517128049
Cl -0.9466210244 -0.8708962092 3.5987916329
Cl -3.7909172361 -1.0708642040 2.9554330965
C -3.2681070911 -1.6310203083 -2.3707515478
H -0.7651231560 -0.6291301192 -2.8624211945
H -0.3130683565 -0.1612644734 -1.2225773461
H -0.5415785848 -1.8752308011 -1.6198364775
H -3.7987388298 -1.0693777807 0.2008255293
H -3.9577634401 0.7744375702 -1.3574194127
H -0.5710536890 3.3965734755 1.2935327846
H -0.9061666050 3.9249256999 -0.3820468759
H 0.9832317093 1.2352245929 1.4633786214
H 4.3713636773 1.4408451904 -1.1589086633
H 3.2204977142 3.1928926443 -2.5057082156
H 0.9385212646 3.9443405006 -1.8759248778
H 3.7802471752 -0.7066147715 3.3119299184
H 2.7947761779 -2.8471401113 4.1152469365
H 1.2592869888 -4.1368655085 2.6485121573
H 0.7299002883 -3.2878297675 0.3732569306
H 1.7390452409 -1.1700364287 -0.4309589176
H -0.8163042459 -0.5067448854 0.8482038839
H -2.9692457949 -2.6829906285 -2.3023888663
H -3.1653882669 -1.3148669756 -3.4146808615
H -4.3211670069 -1.5512907743 -2.0868364859
