29
CONF125
C 2.6822358671 1.1404924985 -1.0952606614
C 2.6338639677 -0.2644720111 -0.5643089321
C 1.6212129647 -0.7740250116 0.1517140143
C 0.3509649050 -0.0860032728 0.5579342874
C -0.8297533891 -0.5199829433 -0.3251434122
C -2.2073399279 0.0109537634 0.1150087603
C -2.2700559245 1.5287497720 0.0750684928
C -2.5859934932 -0.5826914102 1.4508164746
C -2.8522714301 0.0740875382 2.5768062441
O -3.1946253560 -0.4340124634 -0.8598092606
C 3.8397222816 -1.0961989647 -0.9065662551
H 3.5426958739 1.6782219055 -0.6769216038
H 1.7793845034 1.7148526769 -0.8818508367
H 2.8268994540 1.1235832821 -2.1827871473
H 1.6984003349 -1.8190638269 0.4563982119
H 0.4613802726 1.0011153933 0.5152361837
H 0.1220369913 -0.3390604471 1.6014153767
H -0.8792477207 -1.6180455988 -0.3452157574
H -0.6558281008 -0.1855099387 -1.3556835674
H -3.2856899483 1.8738146001 0.2883977858
H -1.9812720881 1.8795401027 -0.9200547860
H -1.5929505857 1.9730771728 0.8076176330
H -2.6377869881 -1.6737590196 1.4459328862
H -2.8060625502 1.1574668640 2.6393448856
H -3.1238036811 -0.4605513880 3.4823205241
H -3.1412765206 -1.3984217162 -0.9094088654
H 3.7670881343 -2.1067103805 -0.4956989153
H 4.7543655185 -0.6278792631 -0.5205805811
H 3.9637051377 -1.1695679295 -1.9946188651
