27
CONF105
C 3.1159693511 -0.0679326628 0.2682624134
C 3.9662628993 -1.1658472590 -0.3690777458
C 5.4396380393 -0.7846763088 -0.4676809667
O 5.6601361625 0.3877799396 -1.2551193982
C 1.6371731812 -0.4605220301 0.2999329777
C 0.7819200524 0.6034053717 0.9515818550
C -0.7545749417 0.3124152611 1.0184713778
C -1.5453624805 0.5687442751 -0.3055692894
C -2.9538695534 -0.1079351163 -0.3584421592
F -3.6589665371 0.1815959409 0.7426294129
F -2.8447678755 -1.4373527509 -0.4733033161
F -3.6151505902 0.3558642578 -1.4292142924
F -0.8412262352 0.0944977817 -1.3678411158
F -1.7246116639 1.8956960948 -0.4627729549
F -1.3127744776 1.0904196185 1.9724872808
F -0.9244365524 -0.9915354616 1.3794222003
F 0.9298174359 1.8132695070 0.3255469945
F 1.1809060634 0.7742804424 2.2508844777
H 3.4719084454 0.1231136706 1.2868430025
H 3.2439329543 0.8613977391 -0.2942482804
H 3.8854732777 -2.0935376577 0.2144295649
H 3.5851916426 -1.3993679926 -1.3743312339
H 6.0229517994 -1.6333085928 -0.8566539120
H 5.8318057414 -0.5430213516 0.5264662616
H 1.4940258676 -1.3865240193 0.8665822715
H 1.2701728428 -0.6372643913 -0.7142912170
H 5.4107927114 0.1868337671 -2.1639523903
