37
CONF7
C 3.7213255692 -3.4535877921 0.7588522021
C 4.2235965672 -2.1829318936 1.4182945124
C 4.1824456042 -2.2315383344 2.9306012545
O 3.3348404347 -1.0700462162 1.0342233757
C 3.5498286681 -0.4962000051 -0.1590400146
O 4.4714089215 -0.7664516853 -0.9024889861
C 2.4767591003 0.4925823364 -0.4712541814
C 2.7008936043 1.6648867382 -1.2058828847
C 1.6527716494 2.5135796966 -1.5368777068
C 0.3722335392 2.1720206467 -1.1420898439
C 0.0870631605 1.0255220482 -0.3985667028
C 1.1690012737 0.2097967151 -0.0694056367
C -1.2731068335 0.6805319826 0.0147921775
N -2.0961650685 1.5955410324 0.5520955126
N -3.2414238106 0.9680464093 0.8299066836
C -3.1902903711 -0.3484101204 0.4895788827
C -1.9271900882 -0.5640346126 -0.0426149552
Br -1.2866719377 -2.1726370342 -0.7756834246
C -4.2956053995 -1.3378610355 0.6396107373
F -3.8891786116 -2.4243712272 1.3380284475
F -4.7232985033 -1.7891890228 -0.5655761864
F -5.3673659385 -0.8282762535 1.2781848103
C -4.3313211516 1.7339277974 1.4367816022
F -0.6306466227 2.9857024929 -1.5140259096
Cl 4.3047545555 2.1637225976 -1.6851180892
H 3.7342843724 -3.3651760754 -0.3304518664
H 4.3666894841 -4.2896154652 1.0445512681
H 2.7011793075 -3.6731255474 1.0895898501
H 5.2280005515 -1.9337405123 1.0635475137
H 4.5259043842 -1.2874726848 3.3617207894
H 4.8378641808 -3.0331396608 3.2826879689
H 3.1660233526 -2.4352400386 3.2817994603
H 1.8194292637 3.4253208670 -2.0978083096
H 0.9924375188 -0.6825567436 0.5182585131
H -5.2194354594 1.6916775617 0.8034112472
H -3.9806665171 2.7621734239 1.5156850596
H -4.5626579462 1.3421561691 2.4292931647
