24
CONF85
C 2.6286481252 0.7908156922 0.8759924839
C 1.2889281931 0.0887202353 1.0082005387
C 0.4613128658 0.1587777998 -0.2900497721
C -0.8760963989 -0.5734298738 -0.1374591915
C -1.7514720656 -0.3949236542 -1.3967946924
C -3.1009413759 -1.0212795618 -1.1709000931
O -4.1280879196 -0.3836441509 -1.3131370785
O -1.8759638825 0.9680334173 -1.7379871751
O -0.6497984658 -1.9846587269 -0.0174948081
O 1.1960110003 -0.3809382182 -1.3887423446
O 0.5413144545 0.6343540216 2.1018742128
O 2.3611275842 2.1791256932 0.6171952703
H 3.1818663439 0.6725184762 1.8168279491
H 3.2075668599 0.3399879337 0.0600304806
H 1.4809686751 -0.9640350413 1.2536739155
H 0.2648154612 1.2085685480 -0.5275971951
H -1.4057769032 -0.1780510639 0.7376423553
H -1.2631140131 -0.9599325097 -2.2111994015
H -3.1095572427 -2.0823463601 -0.8664586782
H -2.8303603928 1.1568756844 -1.7551783685
H -0.6029526461 -2.2092621400 0.9198318257
H 1.2363633921 -1.3394602382 -1.2515729049
H 0.5780242451 1.5970504282 2.0040035307
H 3.1671736032 2.6771332969 0.7949921574
