47
CONF437
C 0.5163275606 1.8356318358 2.9823758386
C -0.9859221225 1.5981643463 2.8422282091
C -1.3694332363 1.2100616814 1.4141706373
C -2.8594284889 0.9581173156 1.2854606738
O -3.1802403033 0.5374123127 -0.0790557691
C -3.3680950741 1.5019570228 -0.9817536785
O -3.4138119533 2.6923536780 -0.7451202706
C -3.5894025157 0.9403195026 -2.3868872138
C -5.0745982610 0.7074078098 -2.6183392412
O -2.9339645363 -0.3161210056 -2.5877965636
C -1.5708043171 -0.3563623581 -2.4691628539
C -1.0061753838 -1.6361818017 -2.4774840393
C 0.3657209986 -1.7922732019 -2.3489606436
C 1.1657592493 -0.6643871858 -2.2074385292
C 0.6231842242 0.6088680320 -2.2093116506
C -0.7548100944 0.7704240524 -2.3443233021
O 2.5561879126 -0.8153056272 -2.1229621007
C 3.1098103874 -1.0167059399 -0.8955170856
C 2.3592032217 -1.0427474562 0.2876171473
C 3.0401828542 -1.2575192133 1.4696256657
C 4.4252385165 -1.4352823344 1.4377348175
C 5.0732557979 -1.3859041111 0.2094030597
N 4.4278699259 -1.1812485635 -0.9418593123
C 5.1710768290 -1.6524384445 2.7116180950
F 4.6426641636 -2.6708264533 3.4417657282
F 5.1331113759 -0.5547451821 3.5175986439
F 6.4750956742 -1.9440094369 2.5090689784
H 1.0782613991 0.9330083790 2.7184111151
H 0.8474610050 2.6414381250 2.3181790217
H 0.7817284448 2.1112783189 4.0075205983
H -1.3019253968 0.8051513700 3.5321042187
H -1.5336139937 2.5040184902 3.1319025489
H -1.0751244557 2.0080142941 0.7212752321
H -0.8272151423 0.3035081261 1.1160083185
H -3.4477941688 1.8458988208 1.5328292260
H -3.1805026982 0.1194688962 1.9072374407
H -3.2122699451 1.6876315237 -3.0959312928
H -5.2322334359 0.3529954842 -3.6398143949
H -5.6191625168 1.6449385698 -2.4829624637
H -5.4581001213 -0.0360454616 -1.9144249177
H -1.6553899455 -2.4992493385 -2.5801727286
H 0.8152879857 -2.7799675581 -2.3487534065
H 1.2697459361 1.4737401443 -2.1024947369
H -1.1617945259 1.7742795016 -2.3460541154
H 1.2860360466 -0.9006807695 0.2806129910
H 2.4986895176 -1.2881278470 2.4100149693
H 6.1499126431 -1.5171584428 0.1418164318
