46
CONF149
C -4.3257429522 -1.6293420468 0.8480104895
C -3.0752157969 -2.0070229452 1.6072278609
C -1.7438409266 -2.1101735217 0.9078687379
C -2.0106937393 -0.9680535740 1.9253820659
C -2.0601604951 0.4249989594 1.4498582672
O -2.5129929985 0.8286150874 0.3956092295
O -1.4828033619 1.2455666653 2.3671753668
C -1.3043477989 2.6225763797 1.9440230694
C -0.2258730457 2.7422635235 0.8995070951
C 0.9170790299 1.9451054873 0.9826051090
C 1.9082646658 2.0676396604 0.0191230567
C 1.7958909770 2.9816278706 -1.0264383417
C 0.6551432011 3.7731601515 -1.0995517773
C -0.3559186785 3.6533767425 -0.1475161470
O 3.0533217307 1.3050698315 0.1879931562
C 3.5185679678 0.5519775280 -0.8743505542
C 4.8860020041 0.2856222461 -0.8895365526
C 5.4112495623 -0.5223070467 -1.8927308600
C 4.5815342258 -1.0555325100 -2.8779677439
C 3.2161396972 -0.7810049485 -2.8469168767
C 2.6725820805 0.0198873506 -1.8455932835
C -1.5917483347 -1.8276134493 -0.5193255001
C -0.5906056521 -2.2686069099 -1.2822247445
Cl -0.5137975585 -1.9310395466 -2.9936943881
Cl 0.7447402003 -3.2254746470 -0.7003368463
C -3.3220215862 -3.0171443623 2.7082737715
H -5.0801140098 -1.2617564308 1.5515206155
H -4.1586669258 -0.8548423543 0.1007616459
H -4.7307915548 -2.5186077806 0.3531000370
H -1.0640695644 -2.8570786675 1.3056496357
H -1.5004335753 -1.0907738597 2.8744680118
H -1.0218651509 3.1436651451 2.8629535456
H -2.2507538574 3.0266517232 1.5755698824
H 1.0390920903 1.2220808921 1.7824891559
H 2.5857046160 3.0643426742 -1.7656683559
H 0.5515487165 4.4865316966 -1.9110869043
H -1.2515590394 4.2624346791 -0.2252836073
H 5.5188642281 0.7104442580 -0.1172895477
H 6.4766784590 -0.7303265993 -1.9052433804
H 4.9950041523 -1.6819729760 -3.6612933780
H 2.5586936282 -1.2004545698 -3.6018652127
H 1.6070516667 0.2218392501 -1.8169555892
H -2.3409651522 -1.2219028484 -1.0151797089
H -4.0308610262 -2.6143307266 3.4397123258
H -2.3969540311 -3.2782020521 3.2296634418
H -3.7503547803 -3.9319134238 2.2845273293
