30
CONF1
C 3.6870598734 -0.0856986379 -0.1089374849
C 2.2048633311 -0.1250269152 0.2556300285
C 1.5197966975 -1.3690551900 -0.3197892046
C 0.0250178302 -1.4002440929 0.0063841514
C -0.6865230048 -0.1405492553 -0.5023287470
C -0.0176428326 1.0987293602 0.1048333583
C 1.4778632560 1.1364075963 -0.2216192067
C -2.2172263288 -0.2016633027 -0.3055774927
C -2.6545780272 -0.1658915454 1.1617401310
C -2.9348114911 0.8974113743 -1.0947576888
H 3.8129711497 -0.0417000005 -1.1972613803
H 4.1800590392 0.7930089389 0.3203371855
H 4.2100803080 -0.9775753325 0.2522965065
H 2.1152810335 -0.1692284750 1.3525040654
H 2.0111827612 -2.2740709162 0.0593846106
H 1.6545241921 -1.3713658168 -1.4118126004
H -0.0991670670 -1.4788257298 1.0951914265
H -0.4391976970 -2.2937101476 -0.4305961293
H -0.5190691365 -0.0982802788 -1.5913227009
H -0.4979716063 2.0150998307 -0.2571118220
H -0.1432138225 1.0826001702 1.1961833749
H 1.9410300168 2.0244639258 0.2267116858
H 1.6103055539 1.2280909891 -1.3101366979
H -2.5371510673 -1.1677711082 -0.7241444321
H -3.7380790551 -0.3039477157 1.2387368074
H -2.1788716047 -0.9523004377 1.7550409704
H -2.4149617078 0.7985361833 1.6223870212
H -2.6305590698 0.8967273127 -2.1469304827
H -4.0200033148 0.7565041292 -1.0570854126
H -2.7210078095 1.8893249876 -0.6822914408
