52
CONF6
C 3.8717337450 -0.9177150817 -1.5264624562
C 2.9502442964 0.2446845972 -1.8133175258
C 3.6442703532 1.4189061916 -2.5391639707
C 3.0792205009 2.7597775996 -2.0401926395
C 1.5854570030 2.6081390862 -1.8231785553
C 1.3707647592 1.6093257475 -0.6879658384
O 2.4089523191 0.6841493653 -0.5508740922
O 0.1112512474 0.9473500312 -0.9827427580
C -0.6557850546 0.6635937620 0.1106020036
C -0.8164470697 -0.6248727599 0.5480522047
O -1.6071210853 -0.8946890719 1.6260727641
C -2.2444239908 0.1022570907 2.3083724013
C -3.0074474059 -0.2828742528 3.3965955331
C -3.6780352755 0.7178064224 4.0974689226
C -3.5954147606 2.0647775406 3.7316174509
C -2.8241965308 2.4301221710 2.6368525083
C -2.1254493517 1.4381820815 1.8964319418
C -1.3140656191 1.7752927261 0.7587845618
O -1.1684819109 2.9610751927 0.3550976467
O -2.7399198477 3.7172754977 2.2852030287
O -4.4219599832 0.3147965605 5.1610308975
C -0.2021936589 -1.8254848597 -0.0035423431
C 0.1522448190 -1.9048773834 -1.3609776294
C 0.7793334002 -3.0340153719 -1.8476959568
C 1.0563452956 -4.1208895236 -1.0033398449
C 0.6810005759 -4.0564619778 0.3334831822
C 0.0558525992 -2.9229212314 0.8302801712
O 1.6829072706 -5.2267557492 -1.4750374108
O 1.1759240402 -3.1937903769 -3.1529042697
O 1.0347812699 3.8775832442 -1.5027640963
O 3.3768664997 3.7474133568 -3.0234863803
O 3.3939017335 1.2409129574 -3.9293278674
H 4.6629189849 -0.6092482118 -0.8363358532
H 3.3163677487 -1.7451906413 -1.0765844251
H 4.3316125254 -1.2597625659 -2.4583210675
H 2.1221617444 -0.0818216524 -2.4606980021
H 4.7286500532 1.3961678773 -2.3456020576
H 3.5564342624 3.0212881504 -1.0833062643
H 1.1308709918 2.2077921476 -2.7439296424
H 1.2903466325 2.1262028699 0.2744052992
H -3.0873582505 -1.3211133858 3.6905070204
H -4.1210017351 2.8357926338 4.2861407086
H -4.8411536476 1.0827753907 5.5666106554
H -0.0691301056 -1.0814624606 -2.0286970617
H 0.9001979268 -4.9026619015 0.9751260219
H -0.2156368063 -2.8773063497 1.8774163192
H 1.8744018979 -5.0887115150 -2.4132464476
H 1.0553640292 -2.3690585559 -3.6372227877
H 0.1682612148 3.7266121823 -1.0878901121
H 3.5337957765 2.1071178852 -4.3386278194
H -2.1415827842 3.7478846386 1.4888736899
H 2.7734894219 4.4859339452 -2.8675631878
