45
CONF69
C 4.6708898973 -3.5235538313 0.2270151460
C 4.2598624995 -2.0533103391 0.1873976168
C 2.7485619925 -1.8787827092 0.0464211895
C 2.3442456002 -0.4111636490 0.0108303842
N 0.8961367647 -0.2907228794 -0.1258441210
C 0.2752027080 0.9183025315 -0.2436734367
C -1.0980613987 0.9722889438 -0.5823065866
C -1.7493602820 2.1917035138 -0.7193285797
C -1.0950305773 3.3996518398 -0.5097532464
C 0.2515395882 3.3544718561 -0.1440126590
C 0.9270548842 2.1402666761 -0.0185288737
C 1.0247777830 4.5965003481 0.1080484315
O 2.1952828007 4.6214513125 0.4378581996
O 0.2910130881 5.7145156657 -0.0700880546
S -3.5000256455 2.2115238774 -1.1531174421
O -4.2263375465 1.3815018871 -0.1818528690
O -3.8773458995 3.6175588644 -1.3513884092
N -3.6752916020 1.4601167418 -2.6441434534
O -1.7651943553 -0.1941735492 -0.8868216751
C -2.1031815544 -1.0587020016 0.1556950486
C -2.5187929573 -2.3287302705 -0.2283007831
C -2.8927014232 -3.2394522436 0.7544677963
C -2.8449547759 -2.8846896706 2.1017901767
C -2.4248740125 -1.6066682972 2.4619620268
C -2.0530785851 -0.6793865140 1.4911783223
H 4.3616716947 -4.0397686164 -0.6884147281
H 5.7555397691 -3.6303347352 0.3240740391
H 4.2041906226 -4.0369745667 1.0746739971
H 4.7617954701 -1.5512823158 -0.6496429624
H 4.5977751814 -1.5491492577 1.1019039832
H 2.2382633516 -2.3737962435 0.8831005408
H 2.4083813592 -2.3716983124 -0.8749184404
H 2.8603123252 0.1005487040 -0.8184195136
H 2.6592610153 0.0786248228 0.9418447355
H 0.4319890558 -1.0699744728 -0.5704496082
H -1.6253688521 4.3350598478 -0.6209111905
H 1.9772638207 2.1585360680 0.2441401000
H 0.8637648869 6.4778476256 0.1126976509
H -3.3596670654 0.4924141346 -2.5980885364
H -3.1676952175 1.9669396218 -3.3674136531
H -2.5467500211 -2.5877200612 -1.2815997329
H -3.2203289669 -4.2321241971 0.4623200205
H -3.1348976910 -3.5989475411 2.8650415723
H -2.3885341933 -1.3191541808 3.5079818432
H -1.7373032242 0.3204357690 1.7694367292
