45
CONF49
C -3.9745657939 2.4734537600 -2.4010665200
C -3.7961624879 1.9520277816 -1.0116723910
C -3.5431946578 0.6747507748 -0.7036698155
C -3.4019820912 0.2045677351 0.6826413025
C -2.2957013529 -0.7973243785 1.1128939290
C -3.7752168677 -1.1774636455 1.1366429721
C -4.3299964847 -2.1872948810 0.1590392610
C -4.3671077297 -1.3005997553 2.5252476644
C -1.3454330753 -1.3302090083 0.1297141751
O -1.5583930951 -1.6194101216 -1.0320678671
O -0.1151022612 -1.4593147977 0.7168674627
C 0.9771470243 -1.9157211517 -0.1237343825
C 2.1042571420 -0.9397513764 0.0142767332
C 3.2672983022 -1.2269628180 0.7171588861
C 4.2909941607 -0.2951569910 0.8378401129
C 4.1987724439 0.9726759825 0.2783383134
C 3.0287472147 1.2601586477 -0.4196642735
C 2.0114685553 0.3307294293 -0.5483914527
F 0.8998801458 0.6649719165 -1.2290519071
F 2.8767472310 2.4700812657 -0.9869128597
C 5.3190428931 1.9840280344 0.3547202277
O 6.0034797772 2.1116092868 -0.8898445054
C 6.7709319091 0.9491400625 -1.2143439156
F 5.3950642287 -0.6485507900 1.5222352352
F 3.4255847509 -2.4323802159 1.2923753891
H -3.2394395987 3.2568479625 -2.6230668996
H -4.9633184494 2.9321181412 -2.5250014709
H -3.8670253699 1.6772227377 -3.1433175943
H -3.8843941209 2.6802183849 -0.2036893216
H -3.4464497376 -0.0542962028 -1.5034673960
H -3.5409443568 0.9861334504 1.4272217340
H -1.8527932603 -0.5924908203 2.0812720412
H -4.1593978728 -3.2012407887 0.5372295939
H -3.8832940781 -2.1150543629 -0.8313303196
H -5.4118798285 -2.0400346158 0.0673538018
H -5.4529534744 -1.1605760322 2.4801073540
H -3.9516810576 -0.5532334763 3.2070858718
H -4.1686881051 -2.2958616589 2.9382698703
H 1.2722668328 -2.9075685848 0.2213193506
H 0.6378662935 -1.9735319597 -1.1603257661
H 6.0158244554 1.7036153056 1.1544635259
H 4.9045156942 2.9704199118 0.5765225381
H 6.1277158289 0.0708265815 -1.3654023345
H 7.2965802062 1.1694407533 -2.1453921342
H 7.5009309271 0.7289902364 -0.4227571248
