38
CONF2
C -1.5131429634 2.4137084875 -2.0223843554
N -0.3611401077 1.8465780368 -1.3273195610
C -0.4780585198 1.1224638590 -0.2038417853
C 0.4657633846 0.3544473242 0.4571542309
C -0.2044372655 -0.2536057037 1.5746044740
O 0.2025898966 -1.0211828735 2.4313945702
C -1.6630177398 0.2743079802 1.5278025274
O -1.7021580464 1.1353435291 0.3610250044
C -2.6743739261 -0.8278669411 1.4307472583
C -3.2689326946 -1.1842473119 0.2213545313
C -4.1558022135 -2.2555580355 0.1698769758
C -4.4460582835 -2.9825902279 1.3195710431
C -3.8452629201 -2.6329401195 2.5261182856
C -2.9650467377 -1.5595086688 2.5845150143
C 1.8585164776 0.1540007530 0.0812512646
C 2.6210819077 1.1761127750 -0.4978305325
C 3.9408417639 0.9468669154 -0.8804274092
C 4.5405887283 -0.2888190195 -0.6675025762
C 3.7982818646 -1.2978457575 -0.0573762149
C 2.4784263075 -1.0873388255 0.3107923227
C 4.7046459712 2.0858076500 -1.4881122087
F 4.9408676127 3.0724981421 -0.5851393077
F 5.9005886052 1.7065632201 -1.9848646794
F 4.0125722085 2.6644645341 -2.5083096837
H -2.1179096971 2.9980250611 -1.3264320109
H -1.1476931285 3.0758346228 -2.8091215294
H -2.1476466884 1.6394793942 -2.4719698681
H 0.4857966494 1.6963608631 -1.8537664922
H -1.8440280052 0.9029744137 2.4072518619
H -3.0457551617 -0.6189601291 -0.6764688821
H -4.6208272940 -2.5221699254 -0.7739401457
H -5.1378509420 -3.8174663839 1.2767746672
H -4.0640055387 -3.1970789670 3.4269606894
H -2.4876809483 -1.2940514757 3.5222051956
H 2.2068859474 2.1739285662 -0.6082297197
H 5.5680004389 -0.4584917784 -0.9658315107
H 4.2573466736 -2.2637955392 0.1257510722
H 1.9080336803 -1.8762483335 0.7863064836
