45
CONF357
C 5.6737590893 1.9831318537 1.6336187111
C 6.3788584608 0.6663881981 1.3087608415
C 5.5101703850 -0.5745631861 1.5362616499
C 4.2617295288 -0.6362371096 0.6554200777
C 3.4851994792 -1.9416439521 0.8342769426
C 2.2813814245 -2.0905612729 -0.0995816268
C 1.1802261265 -1.0561923672 0.1291055255
C -0.0502332267 -1.3093850401 -0.7574567499
C -1.1405479150 -0.2893695264 -0.5637569452
C -2.0329911632 -0.4399997861 0.4931153576
N -2.9731916629 0.5307827245 0.6362858140
C -3.0474110250 1.6372705029 -0.2085536987
N -4.0762390024 2.3956979085 0.1909335399
C -4.5675154100 1.7138031230 1.2454886378
N -3.9507613430 0.5726970735 1.5773905412
N -2.1892176716 1.8093262030 -1.2137043259
C -1.2646711774 0.8675844198 -1.3812776898
C -0.3024951483 1.0707355667 -2.5313349869
C -0.4420675908 2.4104378054 -3.2426946017
N -2.0356662878 -1.4297646780 1.4258407310
H 6.3616760754 2.8296803022 1.5487085865
H 5.2795328093 1.9736808175 2.6560581780
H 4.8362754246 2.1730619046 0.9557247051
H 7.2818998504 0.5803207821 1.9253362401
H 6.7204676890 0.6805348006 0.2651691843
H 5.2079556855 -0.6162473552 2.5923386593
H 6.1162286409 -1.4721662038 1.3544867393
H 4.5548136546 -0.5291355800 -0.3995175610
H 3.6100140240 0.2147013639 0.8844638123
H 3.1480310958 -2.0222716239 1.8773045239
H 4.1680190820 -2.7850101300 0.6669895566
H 1.8548893813 -3.0954866874 0.0259403795
H 2.6212194085 -2.0313975429 -1.1433976369
H 0.8782797169 -1.0595668256 1.1851316644
H 1.5528870887 -0.0462685093 -0.0766878706
H 0.2610859750 -1.3245794628 -1.8058349275
H -0.4332424355 -2.3221420181 -0.5640344112
H -5.4231561371 2.0540838342 1.8158265319
H -0.4485792133 0.2518750506 -3.2502869166
H -1.4423176909 2.5310313628 -3.6630250629
H -1.5477722977 -2.2815764478 1.2102349596
H -2.8687593175 -1.5046565653 1.9913035657
H -0.2804451522 3.2403211210 -2.5506763176
H 0.7230048289 0.9499983953 -2.1582130934
H 0.2915004281 2.4798903055 -4.0512757152
