45
CONF22
C -3.0765702390 2.9831174203 1.0014287727
O -3.1523565764 1.6734258600 0.3855872032
C -2.0622430263 1.3284631496 -0.3220590849
O -1.0728817655 2.0302552162 -0.4756157926
N -2.1671285846 0.0630986159 -0.8399563547
C -1.2435369154 -0.5012716086 -1.7593827370
C -0.9305318785 0.1800722752 -2.9363376178
C -0.0387104286 -0.3793300135 -3.8421950135
C 0.5152093136 -1.6319245512 -3.5839872427
C 0.1836139155 -2.3146716176 -2.4185671157
C -0.6894125697 -1.7574437919 -1.4831077206
C -1.0223088495 -2.4971163300 -0.2129481634
O 0.1088056447 -3.2536322569 0.2760498278
C 1.1087294354 -2.5245248606 0.8109609735
N 1.0336906158 -1.2125999417 1.0007589782
N 2.2279795529 -0.8894692395 1.5777522766
C 3.0274692840 -1.9847118065 1.7338706363
C 2.3371388912 -3.0698208582 1.2483208404
C 2.5087552372 0.4528058543 1.9036619436
C 3.5449575598 0.7610248133 2.7892850252
C 3.8234088783 2.0866431559 3.0973893654
C 3.0510361304 3.0933352008 2.5304548372
C 2.0087075788 2.8003827161 1.6598899537
C 1.7406394331 1.4752980851 1.3408486458
Cl 3.3972959838 4.7726453259 2.9298423862
O -3.3241209891 -0.6897647043 -0.5881478334
C -4.2868929434 -0.5051528195 -1.6532141010
H -2.2270798321 3.0306682986 1.6868176633
H -2.9839669576 3.7570853597 0.2360982384
H -4.0138647448 3.0932360059 1.5451825271
H -1.3844115931 1.1466462368 -3.1270638177
H 0.2098680436 0.1537747594 -4.7540377552
H 1.2031376711 -2.0800683017 -4.2937489897
H 0.6221533333 -3.2864674956 -2.2152012954
H -1.7953862367 -3.2495691809 -0.3910573725
H -1.3701719624 -1.8109118347 0.5637463644
H 4.0210807835 -1.9171898604 2.1495904778
H 2.6621231541 -4.0973458204 1.2051006685
H 4.1320972999 -0.0205026425 3.2568098480
H 4.6262172805 2.3264841289 3.7850661041
H 1.4123974757 3.5938385751 1.2233670828
H 0.9350296634 1.2417409915 0.6561838964
H -3.8679491236 -0.8319005988 -2.6113816888
H -5.1313048986 -1.1402083681 -1.3789309204
H -4.6007119230 0.5424172628 -1.7071243268
