51
CONF27
C 3.3533001736 1.2148779170 0.6851350579
C 2.6843229614 0.0706623799 -0.0313894665
C 1.4621402702 0.2936614924 -0.6933683278
C 0.8536949420 -0.7247082004 -1.4230701865
C 1.4453166892 -1.9811504208 -1.5022162393
C 2.6402844315 -2.2207876630 -0.8402310136
C 3.2635911625 -1.2120499885 -0.0932752844
C 4.5182711612 -1.5516002430 0.6226099425
C 4.6374187764 -1.3616847945 2.0051981351
C 5.8019738317 -1.7244488182 2.6745556255
C 6.8697817664 -2.2814571400 1.9732462055
C 6.7615126960 -2.4786133872 0.5984424844
C 5.5943162748 -2.1201106992 -0.0701637076
C 0.8412981049 1.6681871046 -0.6172362738
O -0.5078348990 1.6940279590 -1.1366200671
C -1.4676612522 1.2149339385 -0.3069113474
O -1.2494879522 0.8381043648 0.8270624515
C -2.7749800500 1.2084197295 -0.9935519572
C -4.0333855632 1.0354963362 -0.1424277594
C -3.6031804321 -0.0675876260 -1.0914253775
C -3.1031118185 -1.3468393647 -0.4604958792
C -4.3430697026 -0.2835696790 -2.3924485726
C -5.1831980181 1.8938996741 -0.4240669274
C -6.0652084784 2.3379260526 0.4774124688
C -5.9866944679 2.0020453812 1.9488577551
F -7.0139221706 2.4897381551 2.6633561075
F -4.8462240767 2.4884023324 2.5062931655
F -5.9668728684 0.6576779324 2.1455351399
Cl -7.3939743572 3.3726485372 0.0056463369
H 3.3262386195 2.1254744429 0.0783360004
H 4.3965142002 0.9896923319 0.9081152392
H 2.8517386127 1.4438994546 1.6336614983
H -0.0841956655 -0.5376255169 -1.9352309309
H 0.9681722659 -2.7725325435 -2.0717560916
H 3.0956416710 -3.2059093865 -0.8764843146
H 3.8039561843 -0.9407244954 2.5597547303
H 5.8735393878 -1.5765522209 3.7478257243
H 7.7789949432 -2.5621428636 2.4955968446
H 7.5887283378 -2.9105082418 0.0433895430
H 5.5162386314 -2.2695730790 -1.1432351973
H 1.3871887988 2.3808557238 -1.2437700823
H 0.8351548420 2.0406558009 0.4112618421
H -2.8451843237 1.8672741914 -1.8527181204
H -3.8136267031 0.8203189624 0.8973415741
H -3.9507455857 -2.0168943789 -0.2825111721
H -2.4074914764 -1.8531909333 -1.1391598331
H -2.5952889908 -1.1684941843 0.4883088668
H -5.2470689039 -0.8761369891 -2.2143614400
H -3.7043030364 -0.8408961405 -3.0854555628
H -4.6302414236 0.6506299882 -2.8789258410
H -5.3323769330 2.2028249335 -1.4544354640
