29
CONF18
C -1.0439683500 -1.3352405651 -3.0688405225
C 0.1506725163 -0.5346436034 -2.6146678067
O -0.3253792779 0.4349384439 -1.6194899047
P 0.5746044500 0.9344543429 -0.4109557935
S 2.4812216306 0.6281852984 -0.4440842784
O 0.0325821340 2.4265518794 -0.2923095343
C 0.5394007996 3.3073487468 0.7636992217
C -0.0731179398 4.6680364178 0.5404471315
O -0.1809548368 0.3253122802 0.9502708615
C -0.1051829258 -0.9775847056 1.2984818758
N 0.1378891614 -1.8847826125 0.3682937523
C 0.1899949957 -3.1633914118 0.6843634205
C -0.0145547930 -3.6207824715 1.9866721611
C -0.2739129533 -2.6760087525 2.9757554890
C -0.3176278723 -1.3346813737 2.6360950657
Cl -0.6263642363 -0.1235189989 3.8417857757
Cl 0.0457931269 -5.3050698647 2.4001861835
Cl 0.5229429704 -4.2769299493 -0.6166806768
H -1.4698964444 -1.8956347622 -2.2322494471
H -1.8143988363 -0.6871889348 -3.4951773095
H -0.7247633174 -2.0472993560 -3.8362099182
H 0.5995287011 0.0404435445 -3.4298321154
H 0.9126238940 -1.1702256751 -2.1577851479
H 1.6319309573 3.3341635346 0.6945317531
H 0.2489903697 2.8842080918 1.7314450039
H 0.2162088812 5.0670976158 -0.4351479073
H -1.1636756830 4.6177856450 0.5946906179
H 0.2827188629 5.3527894202 1.3159239068
H -0.4333056934 -2.9883325156 4.0008906623
