59
CONF186
C 7.4132841963 -1.7440297294 -1.4153683385
C 6.4337280524 -0.7335294979 -2.0180890807
C 5.2570416788 -0.7717574071 -1.0338284562
C 5.8949324245 -1.0179017592 0.3718477946
C 7.3730599069 -1.3915625124 0.0751283490
C 5.1734515036 -2.1394304845 1.1179882978
C 3.7423478739 -1.8012641287 1.4401906131
O 2.8573786545 -2.6442060807 1.4692885445
N 3.4563452796 -0.4638727810 1.7379981365
C 4.3887015120 0.5762471581 1.6527334562
O 4.0539692600 1.7266031835 1.8978063193
C 5.7994346565 0.2215644494 1.2576580661
C 2.0617370019 -0.1144616860 2.0657656205
C 1.2583844736 0.2212103993 0.8124658224
C -0.1818444795 0.5972428280 1.1575977315
C -0.9965338625 0.8633445083 -0.1053313399
N -2.3204489803 1.4440439866 0.1545055061
C -3.1959002783 0.5038624448 0.8671492300
C -4.5651945533 1.1300723966 1.1182489095
N -5.1741717033 1.5413544174 -0.1465075697
C -4.3110281229 2.4710586227 -0.8754289297
C -2.9469953637 1.8325086939 -1.1166763970
C -6.0896522467 0.7566797466 -0.7907461421
N -6.6496583851 -0.2581962899 -0.0871599565
C -7.5834201993 -0.9694587448 -0.7151464277
C -7.9827423848 -0.7181841389 -2.0228361557
C -7.3376674860 0.3373508001 -2.6570066605
N -6.3984929997 1.0772115759 -2.0714045497
H 8.4205767869 -1.6832595147 -1.8383011165
H 7.0404832533 -2.7635555757 -1.5773192823
H 6.8918174772 0.2636912794 -2.0227577580
H 6.1337228305 -0.9693062241 -3.0435188611
H 4.5960747163 -1.6089539981 -1.2891325018
H 4.6508567393 0.1401979577 -1.0612007137
H 7.7293249846 -2.1963344119 0.7259698221
H 8.0094146700 -0.5164108863 0.2548566135
H 5.1670799711 -3.0722830530 0.5479018739
H 5.6799553264 -2.3379700574 2.0738462408
H 6.3667406458 0.0632829546 2.1866603534
H 6.2224125495 1.1030795437 0.7669073396
H 2.0883069268 0.7396237441 2.7453425710
H 1.6234480717 -0.9693125864 2.5845633930
H 1.7446582862 1.0508231024 0.2846114442
H 1.2680532466 -0.6449481340 0.1389449407
H -0.1913494906 1.4949214049 1.7896076581
H -0.6296931980 -0.2154760788 1.7417240790
H -1.0817473604 -0.0753286236 -0.6900259532
H -0.4475118298 1.5783990398 -0.7322173231
H -3.3261931551 -0.4374807614 0.2943489074
H -2.7484880711 0.2498095606 1.8331304215
H -4.4472555109 2.0254349558 1.7419203728
H -5.2173540846 0.4256963261 1.6323615607
H -4.7768066934 2.7475696887 -1.8199698177
H -4.1906966922 3.3722086527 -0.2606917580
H -3.0751552005 0.9583434721 -1.7873246677
H -2.2947909573 2.5527160765 -1.6247051201
H -8.0304107949 -1.7829380735 -0.1441042101
H -8.7419607934 -1.3107085618 -2.5174483363
H -7.5821467054 0.6004966537 -3.6858895342
