53
CONF151
C -1.2069254142 4.1430628167 -1.4445215758
C -0.6325290045 4.0513287563 -0.0449620357
O -0.5880538688 2.6686433534 0.3956690309
C 0.4747291739 1.9274709542 0.0006570696
O 1.4309403165 2.4044224526 -0.6019322564
C 0.3100701198 0.5300831964 0.3798571343
C 1.3258289960 -0.3528759149 0.1696090584
N 1.1780738048 -1.6647569763 0.5276366808
C 0.1219354045 -2.1496549254 1.2619575279
C -0.9403078764 -1.3326867346 1.5209331035
C -1.0435879784 0.0585239625 0.9007758148
C -2.0650105671 0.0689019555 -0.2381291700
C -1.8290845762 -0.7612157574 -1.3411191536
C -2.6875873977 -0.8094965619 -2.4308981205
C -3.8272150236 -0.0090710638 -2.4436066768
C -4.0946618357 0.8258939046 -1.3657620819
C -3.2186462456 0.8559345033 -0.2823823116
Cl -3.6481229238 1.9473199526 1.0373076061
C -2.0352376415 -1.8075540200 2.3610706111
O -2.1278794728 -2.8989152899 2.9093872296
O -2.9993305976 -0.8591018083 2.4854344773
C -4.1347087655 -1.2239880320 3.2947624838
C 0.2927527554 -3.5671060414 1.7157776042
C 2.6703577092 -0.0189489221 -0.4361105613
O 3.5062816486 -1.1692498845 -0.3652130199
C 4.6495042126 -1.0960041899 -1.2298762233
C 5.6753514729 -0.0579921052 -0.7814027616
N 6.1799073150 -0.2344179767 0.5868224233
H -0.5615027553 3.6340434607 -2.1655413573
H -1.2902946125 5.1945504940 -1.7368264876
H -2.2034571801 3.6927868889 -1.4799205524
H -1.2803817553 4.5438667272 0.6838335584
H 0.3708764992 4.4815398509 0.0118592613
H 1.9769769094 -2.2622039062 0.3587689792
H -1.3883742962 0.7574265427 1.6635874806
H -0.9392616143 -1.3846419308 -1.3329585696
H -2.4684540951 -1.4664327545 -3.2663055123
H -4.5105917154 -0.0305628614 -3.2863136378
H -4.9783360470 1.4543966001 -1.3602959062
H -4.7913016870 -0.3540980043 3.2786921783
H -4.6426698280 -2.0942777208 2.8706467825
H -3.8212095115 -1.4481449177 4.3178946186
H 1.1985868027 -3.9995821182 1.2839286979
H 0.3635712279 -3.6165282962 2.8053593073
H -0.5681473577 -4.1736341597 1.4297614443
H 2.5321731642 0.2958659128 -1.4809134833
H 3.1073548310 0.8311808767 0.1010416882
H 5.0922347000 -2.0973720233 -1.1982536728
H 4.3211577040 -0.8866875733 -2.2605285047
H 6.5167299364 -0.1055330149 -1.4845475081
H 5.2543629214 0.9510552790 -0.8719197762
H 6.5809425590 -1.1643704990 0.6738346448
H 5.3921713548 -0.2211908421 1.2285625247
