44
CONF34
C 3.7269651744 -0.0068796687 -0.3941529602
C 2.6385805539 0.6539106103 -1.1680990962
N 1.4736077808 0.0100440131 -1.2679293776
C 0.5090374654 0.6318552219 -1.9708354605
N 0.6604358440 1.8083399717 -2.5802214737
C 1.8762641529 2.3452511293 -2.4363816483
N 2.8977223840 1.8359579801 -1.7411661370
O 2.0208596321 3.5086997813 -3.0629751525
C 3.3048105486 4.1766053298 -2.9613333677
N -0.7415544876 0.0362247978 -2.0840610595
C -1.7415028921 0.7196355017 -2.9268591738
C -1.2089277002 -1.0844034375 -1.3561908761
O -2.3896666993 -1.3970149307 -1.3703516054
N -0.2526082675 -1.7944416086 -0.6640733351
S -0.6797238828 -2.9822070846 0.4675392640
O -1.4092665699 -4.0530712689 -0.2173593242
O 0.5888185487 -3.2845177351 1.1472126257
C -1.7919229493 -2.2101569491 1.6507867495
C -3.1403666688 -2.5395414644 1.5819953685
C -4.0111925384 -2.0491382342 2.5503751263
C -3.5256696426 -1.2586053025 3.5863349674
C -2.1707427312 -0.9477558929 3.6576183699
C -1.2866010514 -1.4084677585 2.6821005433
C 0.1358591404 -0.9472425260 2.7378064112
O 0.6689499814 -0.2988795152 1.8603575560
O 0.7090719136 -1.2819897798 3.8963488004
C 2.0780518277 -0.8214991721 4.0702329556
H 4.3836614969 0.7392616711 0.0559394427
H 3.3109539585 -0.6675771534 0.3682552551
H 4.3285705795 -0.6143314229 -1.0814660945
H 3.1864410949 5.0904115541 -3.5418266260
H 4.0922026545 3.5497907374 -3.3850033259
H 3.5290666897 4.4084859559 -1.9181084974
H -1.2852958965 0.9806730189 -3.8812711293
H -2.1004893676 1.6294980520 -2.4378083905
H -2.5723931462 0.0369216827 -3.0834257040
H -3.4990174004 -3.1805876476 0.7861812188
H -5.0654855410 -2.2979099731 2.4969192367
H -4.2009220374 -0.8842653484 4.3483538467
H -1.7918030941 -0.3310007350 4.4655642742
H 2.1107725860 0.2693939821 4.0316999509
H 2.3786000258 -1.1851584940 5.0511984331
H 2.7115256082 -1.2442214463 3.2871948683
H 0.6824791079 -1.3367279064 -0.5730997257
