41
CONF81
O 8.8945801553 0.2824591771 0.1241453572
N 8.1294783876 -0.0061247449 -0.8002898896
O 8.5175131140 -0.2768137980 -1.9402121436
C 6.7023384390 -0.0271982078 -0.5339972769
C 6.2447537099 0.2723949205 0.7500717650
C 4.8851237577 0.2452803456 0.9931963960
C 3.9750934913 -0.0695900816 -0.0329930010
C 4.4641557596 -0.3728736527 -1.3213786672
C 5.8207789912 -0.3517893780 -1.5703137557
N 2.6269389897 -0.0714123749 0.3368163649
N 1.8166932049 -0.2439203823 -0.6375476612
C 0.4791181335 -0.2868254628 -0.3186821159
C -0.4122660741 -0.4489868167 -1.3995245369
C -1.7718620980 -0.5048833751 -1.2112143077
C -2.3295742908 -0.4128270517 0.0952346363
C -1.4206637959 -0.2384525398 1.1845511714
C -0.0661982061 -0.1808987157 0.9828444792
N -3.6695600394 -0.5029297405 0.3020015139
C -4.2427279966 -0.3910922162 1.6436637855
C -4.3913619840 1.0636999344 2.1117207706
O -4.8458092031 1.1131736874 3.4648656013
C -4.6060522167 -0.6200179271 -0.8262012223
C -4.8772267954 0.7035314143 -1.5402412455
H 6.9471940983 0.5191684351 1.5359426555
H 4.4985113638 0.4709523860 1.9814936401
H 3.7705087840 -0.6286267956 -2.1125136606
H 6.2075451385 -0.5858008313 -2.5543940782
H -0.0001405434 -0.5267510672 -2.4011791751
H -2.4100921673 -0.6218692846 -2.0764041587
H -1.7922066818 -0.1438693613 2.1965640567
H 0.5956961763 -0.0499135115 1.8309265158
H -5.2280459463 -0.8663103260 1.6281497397
H -3.6326389221 -0.9448571820 2.3645624270
H -5.0728484808 1.6070362418 1.4444654197
H -3.4204352765 1.5685513302 2.0900069680
H -5.7652177148 0.8180861566 3.4806351442
H -4.2225400290 -1.3656525068 -1.5302619390
H -5.5395540266 -1.0220743586 -0.4256763141
H -5.3663835697 1.4174412554 -0.8724795070
H -5.5387755909 0.5246306580 -2.3933696188
H -3.9538397434 1.1559549441 -1.9123441384
