32
CONF2
C -3.6877930890 -0.6200484003 0.3845098007
C -3.6940912317 0.6959807253 0.0260938935
C -2.4932131849 1.4048993027 -0.2267104230
C -1.2610032002 0.7100031964 -0.1036034701
C -1.2550374954 -0.6807852435 0.2572894539
C -2.4805533034 -1.3512703390 0.5133579976
N -2.5737890051 -2.6518047902 0.9143104141
C 0.0035505955 -1.4127218311 0.3284868535
O 0.0067136646 -2.6470279568 0.6126841667
C 1.2585519940 -0.7180877910 0.0682401883
C 2.4862443855 -1.4299912165 0.1163951244
C 3.6892556355 -0.7128547388 -0.1008180815
C 3.6897616434 0.6287712361 -0.3464926107
C 2.4866836665 1.3756417856 -0.4064226083
C 1.2578825991 0.6923763537 -0.2060978767
C -0.0027081437 1.4166133603 -0.3109211135
O -0.0049791933 2.6537729803 -0.5825334458
N 2.5917596702 2.7190962538 -0.6176164856
N 2.5855453609 -2.7752251962 0.3210073900
N -2.6030724632 2.7089136968 -0.6137093166
H -4.6264388473 -1.1321728369 0.5781412729
H -4.6380452694 1.2255030836 -0.0704472745
H -3.4773363831 -3.0947043999 0.8658889484
H -1.7345867869 -3.2108031905 0.8392860120
H 4.6296547689 -1.2561671935 -0.0671255517
H 4.6308019075 1.1493121846 -0.5018031462
H 1.7353393607 3.2143945556 -0.8263328503
H 3.4721075409 3.0742027581 -0.9547307104
H 3.4928466531 -3.1490133655 0.5490910480
H 1.7520666807 -3.2476953501 0.6440823309
H -3.4863268088 3.1694798066 -0.4627827915
H -1.7497917479 3.2514125603 -0.6207173396
