48
CONF45
C 5.6901569656 0.2944198586 0.0812407273
C 4.4811028866 0.2161351898 -0.8464564102
C 3.3767671564 -0.6798326623 -0.2899504046
C 2.2776952652 -0.8658800328 -1.3392925098
O 2.3993585127 -1.6987729980 -2.2338545339
N 1.2242294114 -0.0185360434 -1.2232209745
C 0.0824892617 -0.0849826882 -2.0748918072
C -1.3062998710 -0.4841431854 -1.4765485636
N -1.8671576273 0.7463003796 -2.0767218333
C -0.6143784810 1.2615130794 -2.3865474107
O -0.2576337682 2.3729876650 -2.6942784730
C -2.8779490076 1.4647092491 -1.3139917823
C -3.1641769543 0.6249241037 -0.0110076946
S -1.5271353188 -0.2303430876 0.3247931183
C -3.5039468491 1.5277391793 1.1671963438
C -4.2526184873 -0.4280247790 -0.2265237905
C -4.1703391825 1.7440710851 -2.0628772776
O -4.9558581118 2.5941613543 -1.7008747213
O -4.3549543165 0.9509821180 -3.1267861657
O 2.8900345412 -0.0565138849 0.9065810956
C 2.0774061802 -0.7857101687 1.7427879470
C 1.6577029093 -0.1148456560 2.8948761295
C 0.8211155959 -0.7548719728 3.7991228091
C 0.3970566248 -2.0646936015 3.5681459727
C 0.8207621029 -2.7231204295 2.4193068560
C 1.6583172606 -2.0942319590 1.4965599751
H 6.4681030330 0.9225865224 -0.3617261893
H 5.4191260448 0.7224514223 1.0500268686
H 6.1123680965 -0.7014049255 0.2521057559
H 4.0611299739 1.2131328256 -1.0263355015
H 4.7736625834 -0.1946327555 -1.8187110662
H 3.7851386620 -1.6733422913 -0.0642009856
H 1.2021317492 0.6080330122 -0.4292437813
H 0.3253285406 -0.6653784141 -2.9692316709
H -1.7500142961 -1.4184150285 -1.8269297271
H -2.4745972449 2.4424007947 -1.0244553744
H -2.7182163828 2.2674498660 1.3429930234
H -3.6416722839 0.9292783503 2.0722370130
H -4.4428819312 2.0518847646 0.9625979054
H -5.2174672234 0.0593443242 -0.4101464539
H -4.0308074532 -1.0843043697 -1.0721472824
H -4.3502232143 -1.0391024469 0.6735360688
H -5.2151243178 1.1725212152 -3.5257936947
H 1.9925793160 0.9039276177 3.0619364959
H 0.4982101787 -0.2261677920 4.6907454242
H -0.2575099399 -2.5623861745 4.2758013306
H 0.4961281825 -3.7404306778 2.2230729033
H 1.9628622066 -2.6327870538 0.6070825177
