54
CONF5
C -1.8439688482 1.6097794386 0.0600161329
C -1.6823536647 0.1010802131 -0.1756705615
C -1.0503430467 -0.1633485415 -1.5351416373
C 0.3990600626 0.3515071098 -1.6131004267
C 1.2833905561 -0.1249514849 -0.4476062857
C 0.6035617345 0.0044678843 0.9409900041
C -0.8000316158 -0.5825136491 0.8885043843
C -1.6503683329 -0.5470135181 2.1637542520
C -3.1135617261 -0.6452748127 1.6537949444
C -3.0420279434 -0.6380029617 0.1083449060
C -4.2283974931 0.0457766840 -0.5517926542
O -4.8033607564 1.0065279737 -0.0616254955
C -4.6922304445 -0.4827528365 -1.8917457226
O -5.6857535625 0.3497140452 -2.4566771874
O -2.9171052846 -1.9650321960 -0.4213631716
C 1.4470778491 -0.6924984034 2.0079930052
C 2.8754816359 -0.1297769467 2.0532290204
C 3.4817187404 -0.1714865430 0.6877625298
C 4.5961681828 -0.8907397557 0.4411047088
C 5.1917701020 -1.0060659301 -0.8828844045
O 6.2132301241 -1.6861890634 -1.0846162808
C 4.5395669751 -0.2588752764 -1.9529013650
C 3.4187309128 0.4450975532 -1.7316926858
C 2.7286555359 0.5478402181 -0.4075941910
C 2.6513007797 2.0664263279 -0.0974285338
O 0.9750322629 -0.1633342065 -2.8301009703
H -2.4513684599 2.0549979459 -0.7334069937
H -0.8746740601 2.1119938680 0.0467211118
H -2.3224155456 1.8343177087 1.0161060527
H -1.0249520233 -1.2406910515 -1.7252623372
H -1.6169070517 0.3110219307 -2.3474535681
H 0.3977472348 1.4494453600 -1.6531944652
H 1.4545017407 -1.1992960204 -0.6196455063
H 0.5213316198 1.0621682799 1.2174617035
H -0.7014893659 -1.6319486675 0.5780346830
H -1.4006543358 -1.3632587035 2.8458756551
H -1.4919017734 0.3919910397 2.7060206820
H -3.6142602228 -1.5593793509 1.9877629608
H -3.7160213439 0.1980762285 1.9979058194
H -3.8245580602 -0.5683068816 -2.5618938505
H -5.0728044566 -1.5048862689 -1.7431928899
H -5.8840201435 1.0184064252 -1.7778670980
H -3.5864383116 -2.5166355750 0.0043018742
H 1.4868340623 -1.7684209527 1.7887817260
H 0.9797640080 -0.5742780525 2.9910812446
H 2.8344827902 0.9061844926 2.4134364454
H 3.4936377883 -0.6978355017 2.7542278825
H 5.0959658487 -1.4227193467 1.2476827319
H 5.0125557410 -0.2762652080 -2.9312016859
H 2.9854111378 1.0300787023 -2.5347834444
H 3.6640155045 2.4764422814 -0.0378147457
H 2.1445641058 2.2734990216 0.8454675060
H 2.1209455482 2.5887912791 -0.8978797849
H 0.4954649086 0.2361455896 -3.5676736563
