45
CONF95
C 0.3773409694 -3.2024163729 -0.7983798695
C 1.1882802736 -2.5876410734 0.3499184738
C 1.7846116494 -1.2154627159 0.0299517358
C 2.7088605181 -0.6998044763 1.1357217734
C 3.4708828026 0.5816033935 0.7686878350
C 2.5871161621 1.7802752925 0.4084714995
C 1.7738941370 2.3227092881 1.5870366515
C 0.6926978961 3.2934624603 1.1598793386
O -0.2711263721 2.5071825858 0.3999200111
C -1.3528781084 3.1307672943 -0.0888013382
O -1.5757514166 4.3172833785 0.0720737053
C -2.2176947045 2.1826670973 -0.8829692023
C -2.3170612083 0.7711446466 -0.2987033798
C -3.0490862261 -0.1962942524 -1.2253261714
C -3.2143525494 -1.5959648335 -0.6189132594
C -1.9110099496 -2.2500651977 -0.1416803340
C -0.8556738696 -2.4031409995 -1.2374240997
H 0.0548205201 -4.2101949995 -0.5027866981
H 1.0424178484 -3.3303039123 -1.6633312153
H 0.5672256149 -2.5114287090 1.2525163021
H 2.0057595414 -3.2768773309 0.6011742290
H 2.3466499426 -1.2766823961 -0.9141596417
H 0.9749275994 -0.4946907347 -0.1389185226
H 2.1238077977 -0.5483110958 2.0525945512
H 3.4447327040 -1.4797079429 1.3734549420
H 4.1309669718 0.8587069059 1.6020615174
H 4.1247450279 0.3607606738 -0.0853542104
H 3.2166832475 2.5891347889 0.0161678543
H 1.9070122832 1.4994045246 -0.4037075999
H 2.4367061216 2.8362379568 2.2944606060
H 1.2960039492 1.5049574576 2.1398040155
H 0.1786780777 3.7445061866 2.0143663780
H 1.0806567200 4.0911556841 0.5160800516
H -3.2027303722 2.6447843672 -0.9932694652
H -1.7731395839 2.1315351111 -1.8878337648
H -2.8252711618 0.8132000705 0.6741360509
H -1.3072415694 0.3981678139 -0.1093046229
H -4.0414766104 0.2049304440 -1.4694904672
H -2.5012716611 -0.2598021791 -2.1750210159
H -3.9078059748 -1.5329948301 0.2303539190
H -3.6902683073 -2.2486955308 -1.3627995467
H -1.4977459007 -1.6746911460 0.6956884339
H -2.1468690828 -3.2440902921 0.2628104014
H -1.3128730619 -2.9101479743 -2.0986671006
H -0.5441508855 -1.4151684056 -1.5996279570
