44
CONF70
C -3.8792366149 -1.8021372641 0.5963756611
C -3.4704584886 -0.5873567516 1.4270863006
C -3.4194524019 0.7354848308 0.6090963829
N -2.1972874460 0.6902664132 -0.1776122192
C -1.0153734448 0.1804329988 0.5339447782
S -1.6732391816 -0.7686579305 1.9740015750
C -0.6058413770 -0.5660092258 -0.7798074465
C -1.9271217161 -0.0038521577 -1.3538549392
O -2.5307919315 -0.1115350129 -2.3937591233
N 0.6114216857 -0.2010879348 -1.4418352133
C 1.6784633556 -1.0214459067 -1.4996320311
O 1.6648998106 -2.1692918281 -1.0276609600
C 2.9241495711 -0.4236533555 -2.1433277900
C 3.6730489324 0.4064094166 -1.1034296984
C 3.9770912671 1.7411646041 -1.3728345824
C 4.6697830822 2.5032675431 -0.4352551575
C 5.0615345309 1.9373497833 0.7750328618
C 4.7588619409 0.6043848045 1.0457017027
C 4.0678931704 -0.1606409669 0.1112422091
C 3.9000874621 -1.4501399545 -2.7402059229
O 4.7132831060 -1.1164721382 -3.5747889054
O 3.8488031815 -2.6898789340 -2.2607329738
C -4.6519852924 1.0728698802 -0.2191737256
O -5.7413256956 0.5693167617 -0.0737218803
O -4.3950243141 2.0825491586 -1.0662520598
C -4.3399138135 -0.4485667388 2.6718340074
H -4.9307563212 -1.7224933589 0.3076529526
H -3.2751488572 -1.9071370656 -0.3086465212
H -3.7471710799 -2.7090500752 1.1916109952
H -3.3252288816 1.5703082137 1.3207878749
H -0.3124224496 0.9448681233 0.8752653368
H -0.6556059609 -1.6522223043 -0.6693639068
H 0.6971603204 0.7355963918 -1.8137427390
H 2.6326952626 0.2349211725 -2.9656129444
H 3.6732930677 2.1830759162 -2.3170330695
H 4.9024899115 3.5408314722 -0.6532344761
H 5.6012156041 2.5320170495 1.5051253075
H 5.0618695828 0.1565517838 1.9868146895
H 3.8360811996 -1.1987747070 0.3308609711
H 3.0507097185 -2.7466281674 -1.6534159781
H -5.2180129277 2.2989830219 -1.5389261641
H -5.3862741238 -0.3519952173 2.3675955898
H -4.0566713719 0.4273138567 3.2618060033
H -4.2504913841 -1.3389351898 3.3005027471
