36
CONF27
C -0.2466359391 -1.7487259116 -0.7085551527
C -0.4747780999 -0.6503528651 0.3082801212
C -1.1540813684 -1.1359005636 1.6155849107
C -1.7230854812 0.1635809621 2.2560565821
C -1.2829327076 1.2506149601 1.2550898664
C -1.4161574173 0.5297093895 -0.1129757329
C -2.8493706008 0.0931127576 -0.4393110624
C -0.9251223235 1.3573886164 -1.3063326792
C 0.2418348681 1.4024797228 1.4051342944
C 0.8041148118 0.0866297829 0.8054597211
O 1.7628291288 0.3979909763 -0.2205649627
C 2.8541072780 -0.5206669933 -0.3086178915
C 3.6285391893 -0.1579303143 -1.5551210332
O 2.8327507087 -0.3126106652 -2.7379934408
H -1.2046341311 -2.1673343834 -1.0363859485
H 0.2832073081 -1.3743338466 -1.5900958947
H 0.3428169354 -2.5676206289 -0.2804882151
H -1.9466877004 -1.8540333794 1.3854389399
H -0.4354778571 -1.6479892324 2.2645700932
H -2.8117523615 0.1198351668 2.3527119969
H -1.3139656203 0.3534800094 3.2532445656
H -1.8328084867 2.1930974241 1.3408717693
H -3.2960293504 -0.5566952795 0.3150933206
H -3.4888727296 0.9775132021 -0.5416295962
H -2.8743628398 -0.4401234319 -1.3961695614
H 0.0830822435 1.7505165417 -1.1827296780
H -0.9320228263 0.7461042338 -2.2163527180
H -1.6071830231 2.1999961889 -1.4711564688
H 0.5409794935 1.5439013679 2.4481387883
H 0.6256055255 2.2506661061 0.8321840010
H 1.3126862975 -0.5234850595 1.5645666909
H 2.4945298151 -1.5565479560 -0.3763359206
H 3.5050247137 -0.4329543506 0.5766421730
H 4.4888324312 -0.8262028503 -1.6595805027
H 3.9984340292 0.8752666709 -1.4722879375
H 2.0165868703 0.1816238439 -2.5794601404
