44
CONF45
C 3.6907697343 -2.5298044746 -1.9535988932
C 3.9554737599 -2.1103468744 -0.5123147919
N 2.8049811344 -1.3916919090 0.0753906420
C 2.9420707026 0.0556711090 0.3572630435
C 3.9377273540 0.3027296020 1.4973317509
C 4.0084207334 1.8001454194 1.8136024647
C 4.3718749506 2.6117254823 0.5688700067
C 3.3828262293 2.3428914833 -0.5670835455
C 3.3101221461 0.8487574974 -0.8979734232
C 1.7824630438 -2.1638671009 0.4713443497
O 1.7484813892 -3.3849345957 0.4804461737
N 0.5881338217 -1.4407831216 0.9034854161
C -0.2068064326 -0.5712284252 0.1571090217
O 0.0102113011 -0.0364771278 -0.9138277690
N -1.3244898942 -0.4790069172 0.9797208724
N -1.1868092688 -1.2668533131 2.0865030762
N -0.0643665490 -1.8521294839 2.0286144261
C -2.4798889929 0.3019894320 0.7376969378
C -2.3681686341 1.6901832848 0.7502648613
C -3.4831512132 2.4773306389 0.4937576384
C -4.7115048594 1.8746681148 0.2352881751
C -4.8317841378 0.4886213411 0.2165130779
C -3.7110170595 -0.2972539730 0.4559729383
Cl -3.8479466469 -2.0366572201 0.3806663282
H 4.5607329684 -3.0676553726 -2.3422372338
H 2.8232783105 -3.1921520679 -2.0139201387
H 3.5111602564 -1.6569911369 -2.5873098621
H 4.1733805980 -2.9837222086 0.1094324849
H 4.8178263454 -1.4441255646 -0.4619447097
H 1.9695324641 0.4166670378 0.6987458871
H 4.9348161007 -0.0545714075 1.2106938766
H 3.6235956328 -0.2659886807 2.3803923813
H 4.7376435574 1.9727910435 2.6128458475
H 3.0327508742 2.1346009968 2.1929838857
H 4.3927831154 3.6811502074 0.8076869253
H 5.3834326407 2.3356803850 0.2396240869
H 3.6676520818 2.9029707429 -1.4645243473
H 2.3846626124 2.6969425003 -0.2730893515
H 4.2858708975 0.5198360643 -1.2783777066
H 2.5653881884 0.6595621134 -1.6774094631
H -1.4026928590 2.1356279860 0.9659105752
H -3.3936343272 3.5578255983 0.5043440596
H -5.5884328456 2.4833059449 0.0418740928
H -5.7843978993 0.0161456696 0.0063022240
