22
CONF3
C 2.9155502565 0.1720033368 1.1181181026
C 1.5274869743 0.2164722250 1.1470966385
C 0.7841106348 -0.0080984236 -0.0110080258
C 1.4530042532 -0.2948387113 -1.2076536726
C 2.8500152235 -0.3372093701 -1.2309989180
C 3.5791336891 -0.1013660054 -0.0695398034
Cl 3.7073895758 -0.6913802170 -2.7027285679
Cl 0.5341019105 -0.6129822560 -2.6466917156
C -0.6976877707 0.0315341248 0.0532023094
C -1.3793870899 -1.0476597916 0.6053574726
C -2.7641848110 -1.0443488762 0.6958041006
C -3.5025249617 0.0488714273 0.2334770172
C -2.8241163784 1.1478367456 -0.3165023387
C -1.4270237532 1.1343634935 -0.4012518765
Cl -0.5806496554 2.4980671744 -1.0579807707
Cl -3.7164487923 2.5156621160 -0.8795597232
Cl -5.2257563355 0.0518744058 0.3418114626
Cl -3.5585253037 -2.4241830211 1.3902750960
H 3.4859617214 0.3534022646 2.0222211813
H 1.0004005234 0.4378826651 2.0689341276
H 4.6613335975 -0.1385775933 -0.1103319472
H -0.8221835187 -1.9073257029 0.9579500471
