42
CONF24
C 1.2195749089 2.3588428260 0.9882560469
C 2.1846057644 1.5787305883 0.0964921813
C 3.2979000632 2.4783900524 -0.4433438482
C 2.8192074176 0.4123573373 0.8447036131
O 1.8253032116 -0.4771749992 1.4201100111
C 1.2498670982 -1.3476785807 0.5627260932
O 1.5218621457 -1.4349098514 -0.6139434721
C 0.2779023690 -2.2351459991 1.2628757382
C 0.6015486686 -2.7629591386 2.5135784143
C -0.2126288944 -3.7225446526 3.1044115139
C -1.3560317790 -4.1653349777 2.4470243565
C -1.6914619778 -3.6364645888 1.2061680347
C -0.8899808027 -2.6628090352 0.6141073802
C -1.3610006635 -2.0854389917 -0.6793034445
O -1.8434247075 -2.7377690947 -1.5764230827
O -1.2565129210 -0.7413316135 -0.6802930402
C -1.6202688119 -0.0892377082 -1.9232634893
C -1.5422943988 1.4123334138 -1.7090719996
C -2.5142785340 1.8753068381 -0.6242504970
C -1.8150790563 2.1181583600 -3.0389255032
H 0.7566675169 3.1789244894 0.4299425615
H 1.7493135934 2.7935356075 1.8445799389
H 0.4213796474 1.7181481752 1.3732829217
H 1.6318561210 1.1582281244 -0.7520886594
H 3.8910233103 2.9003905255 0.3768743887
H 3.9742942613 1.9296250668 -1.1066439512
H 2.8752656424 3.3132838603 -1.0099680401
H 3.3888161865 0.7719024101 1.7079229911
H 3.4723779613 -0.1659801703 0.1834540811
H 1.5089621350 -2.4334674214 3.0065275311
H 0.0530766734 -4.1323388276 4.0732952549
H -1.9893313767 -4.9200531457 2.9015141380
H -2.5843145462 -3.9615312009 0.6828811930
H -2.6334205803 -0.4007762829 -2.2057203386
H -0.9255306776 -0.4265993256 -2.7010589906
H -0.5190547568 1.6496323332 -1.3888354325
H -2.3218651406 1.3685702933 0.3248818554
H -3.5486803246 1.6634295349 -0.9204714728
H -2.4261057955 2.9538807457 -0.4603797843
H -1.1043341958 1.8107445141 -3.8127787886
H -1.7392758516 3.2030654044 -2.9212360300
H -2.8259285065 1.8920659145 -3.3976104849
