47
CONF57
C -4.3219576944 -2.0035080132 0.0274202450
C -3.4201351273 -0.7966190596 0.1789187612
C -1.9734287418 -0.9899631702 0.5615999887
C -2.3464329008 -0.6565569255 -0.8976331133
C -1.8807433832 0.5883425101 -1.5248734845
O -1.6049546810 0.6997040125 -2.7016649262
O -1.7508077060 1.6231230214 -0.6411178926
C -1.0942437775 2.7967929896 -1.1779287770
C -1.4430180559 3.8875847342 -0.2670351044
N -1.6836715794 4.7702464265 0.4371612784
C 0.4021370284 2.5846854222 -1.2479246787
C 1.0613960394 2.0430023989 -0.1443908433
C 2.4191526972 1.7804356843 -0.2187921236
C 3.1071645903 2.0811420005 -1.3941565614
C 2.4700631674 2.6357775713 -2.4887965279
C 1.1019392526 2.8819387445 -2.4137406688
F 4.4242015515 1.8066563174 -1.4534181348
O 3.0965845393 1.2721242056 0.8663156629
C 3.2787668954 -0.1034718379 0.9228878944
C 4.0561467364 -0.5637236111 1.9828256723
C 4.2602302884 -1.9307499452 2.1283427704
C 3.6972088203 -2.8322190439 1.2251974966
C 2.9265940215 -2.3525290777 0.1707792354
C 2.7104586233 -0.9851641202 0.0080442542
C -1.3947427480 -2.3025564445 0.8516233423
C -0.4710206125 -2.5462951543 1.7832468820
Cl 0.2172327463 -1.3305409543 2.8213883151
Cl 0.1446662869 -4.1514922928 2.0786700425
C -4.1396691901 0.4117048312 0.7360138417
H -4.6694238996 -2.3327059546 1.0126852138
H -3.8281623803 -2.8438943165 -0.4641963306
H -5.1990240248 -1.7322348509 -0.5689923765
H -1.5414203644 -0.1540943416 1.1018399797
H -2.3013180206 -1.4844526946 -1.5974652335
H -1.4917702217 3.0313891204 -2.1719163480
H 0.5291379409 1.7959542499 0.7693557209
H 3.0378201732 2.8529161305 -3.3867858538
H 0.5813946938 3.2935526789 -3.2721848341
H 4.4843319967 0.1497606627 2.6790143873
H 4.8635026142 -2.2921724131 2.9553224749
H 3.8555252790 -3.8985424619 1.3459113458
H 2.4786146502 -3.0440725909 -0.5360505021
H 2.0997565153 -0.6218852100 -0.8112299240
H -1.7343017587 -3.1579636640 0.2757469221
H -4.6402403976 0.1245711386 1.6667294435
H -4.9063503836 0.7543278465 0.0323786021
H -3.4671892183 1.2416755460 0.9505045786
