45
CONF9
C -3.4192151885 -0.2224321265 1.1757595212
C -3.0288607294 0.5663749428 -0.0395237752
N -3.7284656379 0.5956076004 -1.1181287536
O -4.8666973024 -0.2112162218 -1.0037723739
C -5.5882821009 -0.1582354995 -2.2359109366
C -1.8449765625 1.4570849288 -0.0380643641
C -0.6088104163 1.0517292269 0.5004048734
C 0.4442218909 1.9748051802 0.5440086890
C 0.2926430694 3.2656677305 0.0610021721
C -0.9275780220 3.6544566024 -0.4766580706
C -1.9880701565 2.7613628760 -0.5229000549
O 1.6669036885 1.6819562800 1.1231585522
C 2.4068727232 0.6402055817 0.6527560663
N 3.4436883410 0.3410477411 1.4197666328
C 4.1768405986 -0.6864990806 0.9857864878
C 3.8935323263 -1.3998425955 -0.1777827688
C 2.7874422480 -0.9509136807 -0.8882705014
N 2.0347723331 0.0800696929 -0.4897250765
O 2.4671186570 -1.5879868531 -2.0257074445
C 1.3386651265 -1.0743267981 -2.7654556745
O 5.2467941755 -1.0716444435 1.6976970348
C 5.5176165913 -0.3468007632 2.9136752855
C -0.3750666690 -0.3369509765 0.9846342178
O 0.1670412675 -0.6320626315 2.0249567944
O -0.8405621736 -1.2468906473 0.0975577975
C -0.6177560190 -2.6201385745 0.4801420400
H -3.5258901926 -1.2832814059 0.9319622327
H -4.3994812104 0.1219408009 1.5232252817
H -2.6994927529 -0.1012884773 1.9863438182
H -4.9800128205 -0.5439418612 -3.0617509556
H -6.4637541235 -0.7944611014 -2.0883993254
H -5.9042563852 0.8668579268 -2.4602174213
H 1.1371582535 3.9431087024 0.1141223131
H -1.0535504140 4.6651735751 -0.8505929572
H -2.9510835751 3.0627680731 -0.9169321143
H 4.4963058083 -2.2342277357 -0.5068734543
H 1.5293661640 -0.0485754874 -3.0929928372
H 0.4309753408 -1.0927832053 -2.1569162901
H 1.2444812399 -1.7378102135 -3.6254226386
H 6.4018141891 -0.8265122049 3.3339187328
H 4.6725630461 -0.4199131895 3.6030409302
H 5.7156166171 0.7068831802 2.7004385605
H -1.0974792552 -2.8333800199 1.4392600576
H 0.4552713491 -2.8155577505 0.5655741224
H -1.0583643590 -3.2185667269 -0.3171943091
