24
CONF527
C 2.5296742176 0.6448211952 0.9570876627
C 1.0538731014 0.3488748740 1.1882768361
C 0.2722374952 0.1697958151 -0.1182598863
C -1.1483241493 -0.3293262027 0.1363359561
C -2.0918154653 -0.1379069558 -1.0875561060
C -1.5371629059 -0.8196176871 -2.3194341646
O -1.9454731785 -1.9038214226 -2.6909720429
O -3.3901293680 -0.6103856143 -0.7768764838
O -1.1544247531 -1.6909265330 0.5535387014
O 0.9008416331 -0.8182878293 -0.9454862757
O 0.4279723697 1.4570270910 1.8573246281
O 2.7252690772 1.7825660502 0.1117722077
H 3.0131055422 0.7940469654 1.9347858582
H 3.0139528981 -0.2042574968 0.4659494472
H 0.9700721884 -0.5703340413 1.7875326928
H 0.2267155172 1.1395821055 -0.6322897174
H -1.5916396716 0.2468190653 0.9540449080
H -2.1646972382 0.9385758144 -1.2876435812
H -0.7428313232 -0.2815500231 -2.8680869705
H -3.3588190878 -1.5758536423 -0.8483831967
H -0.5540079690 -2.1785362841 -0.0297568632
H 1.5633929550 -0.3860267656 -1.4985671949
H 0.7459349565 1.4705039129 2.7692305754
H 2.2362826399 2.5142173286 0.5131260101
