36
CONF209
C 0.1615997589 -0.2351543193 -4.4427573484
C -1.0369753488 -0.6812680708 -3.6358970005
O -0.6984787713 -0.7306414539 -2.2094054975
C -0.7657298918 0.4184071741 -1.5320143685
O -1.1413806012 1.4796563444 -1.9808406012
C -0.2444926073 0.2788905285 -0.1070828216
S -0.7847806418 -1.3744945618 0.5962621717
P -0.7897493564 -0.9260528084 2.6524745154
S -1.3429209218 -2.5164383982 3.6282409262
O 0.6236034020 -0.2612310195 3.0256347046
C 1.8213618492 -1.0833760695 3.0187349970
O -1.6427903359 0.4228020077 2.8532099360
C -3.0811887001 0.3892025078 2.6480037301
C 1.2533862793 0.4744786024 -0.0873696659
C 1.7846076922 1.5881039409 0.5651711095
C 3.1611001340 1.7970006985 0.5891713407
C 4.0150086842 0.8963523723 -0.0415692045
C 3.4871974873 -0.2145453877 -0.6987164169
C 2.1131961420 -0.4259060499 -0.7229996330
H -0.0936890048 -0.2629369839 -5.5065561284
H 0.4521405478 0.7867867416 -4.1852516155
H 1.0114551585 -0.9024769213 -4.2741586953
H -1.8947014578 -0.0172413609 -3.7651387003
H 1.7374596140 -1.8733326617 3.7695964950
H 2.6387196060 -0.4065762080 3.2663261113
H 1.9791948910 -1.5125550391 2.0248664383
H -3.4310917661 1.3944723213 2.8803971593
H -3.5410330116 -0.3389664569 3.3212759413
H -3.3064913883 0.1419679956 1.6063783610
H 1.1190134940 2.2856135063 1.0649606852
H 3.5648531563 2.6620153839 1.1058851343
H 5.0882704973 1.0568248616 -0.0201101297
H 4.1484142565 -0.9207757893 -1.1909061526
H -1.3269408371 -1.7069487893 -3.8695944873
H -0.7308093817 1.0612321433 0.4791543250
H 1.7078019787 -1.2988284491 -1.2249914623
