22
CONF6
C -3.5517668262 0.2615394693 0.4402567443
N -3.3928689611 0.0984738749 -1.0155220007
S -2.1846416589 -0.8113825493 -1.6578157471
O -2.0410963543 -2.0413307406 -0.8760328737
O -2.3742108275 -0.8304924428 -3.1110138077
C -0.5137065067 0.1658851259 -1.4663215570
C 0.2857170745 -0.1860958029 -0.1797029309
C 1.4341808669 0.8303135217 0.1452860024
C 2.4925141290 0.2964564720 1.1657043915
F 3.2736567230 1.3152929059 1.5492320814
F 3.2616231302 -0.6444002206 0.6079097594
F 1.8855066284 -0.2146430373 2.2456948170
F 2.0907719280 1.1502011854 -0.9939621491
F 0.8875544761 1.9499622072 0.6664109688
F 0.8218687703 -1.4178128182 -0.3323137594
F -0.5657292091 -0.1979787885 0.8731115678
F 0.2299467897 -0.1193080825 -2.5487342761
F -0.8163539724 1.4825519035 -1.4705471404
H -3.3587488062 -0.6917643455 0.9339618186
H -4.5930245387 0.5406665494 0.6165268818
H -2.8940626017 1.0351367750 0.8481960475
H -3.5907855135 0.9226655689 -1.5783582475
