29
CONF6
C -4.9606444884 -0.1848395962 -0.2953236918
C -4.1694973697 -0.9584367464 -1.3245638532
O -2.8137061040 -1.2762096137 -0.8530087672
P -1.7133979754 -0.1369438768 -0.6937111550
S -1.6160111497 1.2342457610 -2.0610369175
O -1.8572716876 0.3229490339 0.8235502500
C -1.6206772957 1.6980109984 1.2904035713
C -1.1213438821 1.6120783282 2.7103494509
O -0.4566947476 -1.2192301408 -0.6644486016
C 0.8100612575 -0.8624625908 -0.3446699815
N 1.0564269286 0.3575516601 0.0953640753
C 2.2854220053 0.7098410445 0.4194005636
Cl 2.5010284271 2.3445904888 0.9930682416
C 3.3652364637 -0.1657854660 0.3177957031
Cl 4.9813007250 0.3012220589 0.7463337721
C 3.1192117126 -1.4555874102 -0.1458527841
C 1.8267955934 -1.8158612843 -0.4851663226
Cl 1.4743416460 -3.4130595475 -1.0678631389
H -4.5431733542 0.8138400258 -0.1344552931
H -5.9866738945 -0.0696008822 -0.6587082212
H -4.9875069469 -0.7181331924 0.6589379386
H -4.6063159656 -1.9400322174 -1.5157193888
H -0.8913112190 2.1751557407 0.6326091248
H -2.5766475213 2.2248758341 1.2185593877
H -0.1707965621 1.0726430645 2.7518675385
H -0.9631745887 2.6257117062 3.0914045317
H -1.8484712135 1.1094923035 3.3539913799
H 3.9309111186 -2.1673884455 -0.2407288581
H -4.0818833987 -0.4138821381 -2.2699235511
