27
CONF3
C -4.9048584821 0.5535460946 -0.6112217358
C -4.0311411769 0.0467302417 -1.5749350816
C -2.6741084432 -0.0626026810 -1.3139174371
C -2.1718419027 0.3403656972 -0.0672028709
C -3.0501858866 0.8479029496 0.8973170403
C -4.4079814814 0.9535787949 0.6261163626
N -0.8148112685 0.2768298557 0.3126885207
N -0.0345679105 -0.1845586055 -0.5817273781
C 1.3049023932 -0.2770437287 -0.2847870597
C 1.9654682453 0.0884279397 0.9412488815
N 3.2882810217 -0.0581326002 1.1110124466
C 4.0199794248 -0.5492794626 0.1099540030
C 3.4753090916 -0.9366419015 -1.1363283206
C 2.1216536273 -0.7929020797 -1.3060488874
N 5.3690845059 -0.6287206395 0.3309835080
N 1.2708649900 0.5928405487 1.9771945957
H -5.9653593651 0.6348742658 -0.8261878658
H -4.4174295520 -0.2656891559 -2.5405306076
H -1.9900462701 -0.4546293759 -2.0567597861
H -2.6459060446 1.1552351357 1.8568037470
H -5.0802086948 1.3486943296 1.3811374919
H 4.1105013829 -1.3247627657 -1.9246462271
H 1.6361880879 -1.0718745048 -2.2357767432
H 5.9159118805 -1.2309800795 -0.2594154985
H 5.6693349500 -0.5378924324 1.2879544736
H 0.2678997349 0.7031460468 1.8616047886
H 1.7730664386 0.8335381027 2.8148459422
