45
CONF8
C 3.1881516249 1.8713288030 2.8250040456
C 3.6172086910 0.4286881993 2.5665413297
C 3.4348717682 0.0182262997 1.1067339161
C 3.8028340244 -1.4414824546 0.8401206983
C 3.6975110857 -1.8562231286 -0.6345671877
C 2.3577366255 -1.5128101243 -1.2961495197
C 1.1492681634 -2.1652490413 -0.6231551299
C -0.1897719164 -1.5249478946 -1.0423686863
C -0.3107007662 -0.0915625253 -0.5847602913
C -0.5301619753 0.1537318840 0.7705405068
N -0.5641840313 1.4549454267 1.1569385752
C -0.3786152075 2.5117445510 0.2652056298
N -0.4609423588 3.6561065301 0.9569619585
C -0.6934136930 3.2369364291 2.2166752393
N -0.7702375583 1.9146972937 2.4182854216
N -0.1753737052 2.3014729615 -1.0336492868
C -0.1460493463 1.0305912207 -1.4404360027
C 0.0112970219 0.8550445785 -2.9297860995
C -1.3558370141 0.7199933138 -3.6155667773
N -0.6702943842 -0.7722762332 1.7559659430
H 3.3319481026 2.1520514264 3.8728620821
H 2.1284016364 2.0134156570 2.5857487950
H 3.7641535015 2.5691057416 2.2078374826
H 3.0327094057 -0.2489368291 3.2033975218
H 4.6681349629 0.2933457989 2.8549750500
H 4.0367328042 0.6741571698 0.4613545554
H 2.3877362186 0.1958800510 0.8261866359
H 3.1701756160 -2.0883048029 1.4623430954
H 4.8311655274 -1.6215903404 1.1797700985
H 3.8842734373 -2.9351728011 -0.7186286454
H 4.4963737958 -1.3596518129 -1.2001052776
H 2.3887775266 -1.8107621775 -2.3523861560
H 2.2306440279 -0.4238704012 -1.2899523529
H 1.1284947580 -3.2377482870 -0.8556862949
H 1.2521737774 -2.0852291676 0.4644311848
H -0.2984408085 -1.5833549071 -2.1278890289
H -1.0240083699 -2.1181801374 -0.6399913619
H -0.8153488551 3.9201392872 3.0483136693
H 0.6372232356 -0.0111187425 -3.1619301607
H -1.9652607620 1.6053020691 -3.4139065927
H -1.0185776426 -0.4298036850 2.6397635558
H -0.9220320829 -1.7088432466 1.4916566783
H -1.2375882065 0.6212147110 -4.6985862412
H 0.5227958968 1.7434895058 -3.3079926269
H -1.9021300514 -0.1556765828 -3.2499143983
