22
CONF3
C 1.5732630193 0.4816605276 0.8401748452
C 0.7728796751 -0.2162646206 -0.0636794876
C 1.3927874591 -1.1230407816 -0.9256160907
C 2.7648131366 -1.3277876731 -0.9061425034
C 3.5461717261 -0.6147595206 -0.0015552977
C 2.9498536486 0.2910274168 0.8759258646
Br 3.9599181891 1.2905206524 2.1377594563
Br 5.4203245694 -0.9272197732 -0.0111865519
Br 0.3483849974 -2.1277971264 -2.1662477129
C -0.6914436644 0.0117653415 -0.0590524529
C -1.4815584361 -0.6547781051 0.8769525633
C -2.8575549924 -0.4617527296 0.9221876415
C -3.4635290268 0.4146794849 0.0217613334
C -2.6923821040 1.0964203073 -0.9150885773
C -1.3208098313 0.8898908539 -0.9435444458
Br -0.2899218485 1.8529253832 -2.2277901656
Br -5.3375652210 0.7278807387 0.0229385546
Br -3.8540614790 -1.4184380904 2.2273120164
H 1.1092915388 1.1887423826 1.5185367262
H 3.2269934527 -2.0358623367 -1.5823280238
H -1.0102033976 -1.3390147849 1.5734335257
H -3.1620841009 1.7818954409 -1.6091443291
