44
CONF116
C 2.1782781002 -1.2708695695 -4.8864183417
C 2.0243110789 -1.1792440672 -3.4067889340
N 1.1137361992 -1.9677564587 -2.8274508595
C 1.0091723453 -1.8146237429 -1.4974243670
N 1.7394147886 -0.9892728609 -0.7487521383
C 2.6043364070 -0.2374280881 -1.4430825718
N 2.7929193092 -0.2838658133 -2.7599693525
O 3.3062609771 0.5968058216 -0.6888296496
C 4.2361240985 1.4890149575 -1.3565559435
N 0.0438783252 -2.5953439276 -0.8943580616
C -0.4550853529 -2.5841741647 0.4113082355
O -1.4564561886 -3.2217621142 0.6942591111
N 0.2681779228 -1.8304017977 1.3114930627
S -0.3623240595 -1.3853324863 2.8317616233
O -0.6101852448 -2.5986014692 3.6149154914
O 0.6147637087 -0.4024336229 3.3240091841
C -1.9363289929 -0.5852223654 2.4877051362
C -3.0406843733 -1.1418991273 3.1282409192
C -4.2895786348 -0.5526639782 2.9771752825
C -4.4141746910 0.5800341809 2.1830863721
C -3.3028822164 1.1178951774 1.5391085161
C -2.0295494380 0.5571365326 1.6663550792
C -0.8404764047 1.1229022030 0.9256270493
C -1.0668014349 2.4949437503 0.2941095025
C 0.1775419553 2.9876751160 -0.3938342328
F 1.2346976390 3.1016666626 0.4515770507
F 0.5754858246 2.1608900008 -1.3998294684
F -0.0100750560 4.2109976341 -0.9496436946
H 1.4930973028 -0.5525319099 -5.3537519414
H 3.1939983596 -1.0083184669 -5.1856292921
H 1.9133683291 -2.2675029809 -5.2420771400
H 5.0039179179 0.9136629257 -1.8776561144
H 3.7009819646 2.1298552439 -2.0605143873
H 4.6745339380 2.0800180469 -0.5538767331
H -0.4875186832 -3.1829533614 -1.5249803463
H 1.0340971515 -1.2507345054 0.9309249463
H -2.9190824977 -2.0266766728 3.7411376944
H -5.1520023104 -0.9796970511 3.4771531779
H -5.3824464372 1.0532981234 2.0562961148
H -3.4400953161 1.9988724333 0.9238139887
H -0.5636193259 0.4205701039 0.1302972018
H 0.0154696102 1.1781172419 1.6041206167
H -1.8503437813 2.4709704452 -0.4688767759
H -1.3388538140 3.2439840176 1.0447687702
