39
CONF86
C 3.4420644026 0.8655495057 -2.1272515476
C 2.2968872880 -0.1140789732 -2.3854823398
C 2.0002637008 -1.0405023801 -1.2035941753
C 1.5288632695 -0.3233656893 0.0518597338
C 1.0792305585 -1.2667130246 1.1683361967
O -0.3369247055 -1.3848795871 0.9402945660
C -0.7593485440 -0.1103608898 0.5034342033
C -1.9973099101 -0.3220358883 -0.3865203264
N -1.6925698040 -1.0951288205 -1.5737789517
C -1.5418492850 -2.4295218682 -1.6949750784
N -1.2008226230 -2.7419199720 -2.9397335299
C -1.1504222037 -1.5237278417 -3.5502919351
N -1.4392816270 -0.4953666128 -2.7643564385
O 0.3217054717 0.4387145191 -0.2332034390
C -1.1304856204 0.7878798888 1.6925151558
C -1.3381512080 2.1678689618 1.5950017932
Cl -1.2051317320 3.0240669713 0.0632579275
C -1.6784249223 2.9451080275 2.6978496844
C -1.8235478729 2.3184468477 3.9274495506
Cl -2.2489651832 3.2903316492 5.3253228370
C -1.6478240572 0.9498464407 4.0725282507
C -1.3095065755 0.2059054541 2.9498956462
H 4.3536072053 0.3341766206 -1.8307623647
H 3.6678082643 1.4460166280 -3.0271033395
H 3.1954800980 1.5760597664 -1.3316828139
H 2.5402412069 -0.7375981968 -3.2541718521
H 1.3864397238 0.4369658247 -2.6466841993
H 2.9079613451 -1.6002246709 -0.9386795967
H 1.2366725286 -1.7768078536 -1.4865674796
H 2.2853981957 0.3802194568 0.4148083613
H 1.2706810734 -0.8444149860 2.1631343543
H 1.5137386826 -2.2653889145 1.0952049292
H -2.7500307711 -0.8509493047 0.2052115888
H -2.4058270492 0.6383367601 -0.7023601182
H -1.6962016555 -3.1131035182 -0.8711813187
H -0.9015681723 -1.3885568047 -4.5954826311
H -1.8291054494 4.0125875893 2.5937394196
H -1.7724652811 0.4712637246 5.0365738131
H -1.1712785509 -0.8646980404 3.0474453476
