54
CONF428
C -4.0734488452 -2.5365504547 -1.4788691149
C -3.0711325985 -1.4639849577 -1.0294816476
C -2.2617707874 -1.9339033776 0.1414970516
C -1.0805221179 -2.6418031201 0.0141304467
C -0.3540633532 -2.9938063169 1.1724928394
N -0.8761805581 -2.7356713068 2.3819650528
C -2.0481545461 -2.1028403297 2.4020645610
N -2.7569389393 -1.6634566594 1.3693421018
N 0.8634417795 -3.5927672412 1.1035244727
C 1.7699113135 -3.6400535039 2.2448460238
C 2.1880162920 -2.2616250220 2.7651921453
O 2.7135491782 -1.4429194448 1.7138225932
C 1.8135740652 -0.6713962658 0.9980083885
C 1.9615494653 -0.6291713183 -0.3935162393
C 1.0844614359 0.1699913117 -1.1531925832
C 0.0539969284 0.8872504924 -0.5238036352
C -0.0448889465 0.8391989658 0.8670784317
C 0.8288772565 0.0835807154 1.6303227301
C -0.9322398901 1.7387207419 -1.2859017576
C -0.4201181886 3.1498633097 -1.5590006755
O -0.2941750233 3.8211232779 -0.3162186355
C 0.2782033994 5.1159960857 -0.4494589993
C 0.3644909001 5.7380392353 0.9281293453
C 1.2687906280 0.1963277003 -2.6484534890
C 3.0322315526 -1.4421237236 -1.0677926900
Cl -0.4451001424 -3.0834882090 -1.5672578197
H -3.5559799757 -3.4446901167 -1.8016293082
H -4.6764320536 -2.1707446366 -2.3148330654
H -4.7452425583 -2.7967475648 -0.6560879060
H -3.6073334378 -0.5657004043 -0.7110685029
H -2.4108873251 -1.1956700108 -1.8595499297
H -2.4660224162 -1.9117000938 3.3910114546
H 1.2959921958 -3.5796011602 0.1928404980
H 2.6540036463 -4.1974036300 1.9202039447
H 1.3017621044 -4.1933798637 3.0676843518
H 2.9967706272 -2.3852246777 3.4932409458
H 1.3419250168 -1.7830203139 3.2629439564
H -0.8200198492 1.4172870692 1.3598138611
H 0.7376464120 0.0820886578 2.7101349827
H -1.8563649564 1.8250575241 -0.7038847449
H -1.2073706196 1.2762149877 -2.2393223370
H 0.5578361097 3.1126564653 -2.0702523855
H -1.1246361368 3.6917303983 -2.2149326967
H -0.3422118396 5.7358845042 -1.1201542040
H 1.2802617149 5.0371482347 -0.9050088092
H 0.9814572853 5.1193821680 1.5855297035
H 0.8089966803 6.7358738034 0.8675278644
H -0.6314635053 5.8264616940 1.3707867417
H 0.6610972834 0.9606101530 -3.1313263811
H 1.0013955602 -0.7706328947 -3.0932091382
H 2.3133308472 0.3894132475 -2.9131781156
H 3.5107021575 -2.1201000359 -0.3602418766
H 2.6214373245 -2.0257150618 -1.8990475682
H 3.8169886616 -0.8008586283 -1.4874603330
