38
CONF75
C 3.0888224320 -1.2693381527 2.4048721525
C 3.5577735231 -0.7411219110 1.0452209667
C 5.0746829251 -0.8491138018 0.9162838147
N 3.1570065102 0.6608169976 0.8008859357
C 1.7276035761 0.8616391150 0.5313776276
C 1.4635924114 0.6628537748 -0.9641919162
O 2.3936077265 1.4399227339 -1.7216594739
C 0.0760627577 1.1256925125 -1.3715951878
O -0.8595070970 0.2478549719 -0.7335054504
C -2.1885713475 0.4763331161 -0.9421137933
C -2.7137943304 1.4877655297 -1.7385945641
C -4.1107170508 1.6277611432 -1.8820890965
C -5.0077178584 0.7827923125 -1.2496411376
C -4.4619658749 -0.2286514387 -0.4515778675
N -5.0798267961 -1.2056604815 0.2924381425
C -4.1292753698 -1.9810755281 0.9191669268
C -2.8768415128 -1.5209042649 0.5931790224
C -3.0654890050 -0.4038753756 -0.2799866666
H 2.0045532697 -1.1830693248 2.5235528001
H 3.3561207490 -2.3246756777 2.5229916571
H 3.5708323258 -0.7037998981 3.2115872564
H 3.0963997216 -1.3460559654 0.2530029624
H 5.4042651424 -1.8797010322 1.0807426421
H 5.5636554824 -0.2144351152 1.6652406133
H 5.4061269290 -0.5284331317 -0.0759180253
H 3.4367495151 1.2239176178 1.5976623848
H 1.0667159373 0.1998252113 1.1110761595
H 1.4718389773 1.8973034889 0.7884696399
H 1.5662736408 -0.4041579845 -1.2231282932
H 3.2011238069 1.4218216705 -1.1733360387
H -0.0884797768 2.1631774044 -1.0472164906
H -0.0324624309 1.0707228504 -2.4632459786
H -2.0627000984 2.1796758723 -2.2586609130
H -4.4858342604 2.4284937625 -2.5120318597
H -6.0799385524 0.8984535340 -1.3661749565
H -6.0759716202 -1.3356897296 0.3679704978
H -4.4254803353 -2.8053044299 1.5524590891
H -1.9392341376 -1.9317598838 0.9361563534
