36
CONF79
C 1.0936488017 -3.0316346505 2.5378105048
C 2.4761523419 -3.1376727040 2.4162258295
C 3.2227194162 -2.0299588185 2.0305000325
C 2.5729951789 -0.8313654024 1.7517724879
C 1.1829359389 -0.6932989747 1.8360429469
C 0.4676606994 -1.8233603180 2.2562159413
C 0.4514556057 0.5761747392 1.5025231202
C -0.0227692046 0.6508140919 0.0257907004
C -1.1118437811 -0.4102870636 -0.2270996263
N -1.7282328039 -0.3050178453 -1.5438476222
C -1.3544215968 -0.8499249937 -2.7431672627
S 0.0692424079 -1.7540758821 -2.9742612775
N -2.2985084416 -0.5242397778 -3.6806877967
C -3.2025487042 0.2068929952 -3.0450858761
N -2.8988166689 0.3599442457 -1.7555561994
C -0.5400011656 2.0671106615 -0.2739065115
C 0.4162260294 3.1746014428 -0.5653593923
C -0.4954866232 2.6470755909 -1.6524523064
Cl -1.9861380192 2.5142151494 0.7257788036
O 1.0978527321 0.4355409477 -0.8199992996
Cl 3.5900812593 0.5492333860 1.3291118443
H 0.5041474035 -3.8844045875 2.8579350080
H 2.9810623665 -4.0734604524 2.6326537621
H 4.3023711111 -2.0911306813 1.9517752724
H -0.6098986527 -1.7399642782 2.3678651693
H -0.4179617710 0.6736870093 2.1582340687
H 1.0920858935 1.4455952228 1.6710443844
H -1.9042753093 -0.3419309151 0.5222894420
H -0.6660099640 -1.4079579597 -0.1713601996
H -4.0925128201 0.6473739765 -3.4762931777
H -3.3604157434 0.8886385986 -1.0230939079
H 1.4662205345 2.9053039374 -0.6081938584
H 0.1916345241 4.1504649181 -0.1505174561
H -0.0534140782 2.0317346824 -2.4292552530
H -1.3289768913 3.2701296791 -1.9567296140
H 0.8937391850 -0.2648462344 -1.4767019720
