65
CONF97
C 3.8999707420 0.2724513498 4.7190494835
O 3.8827317855 0.2309145804 3.2969159051
C 3.5615733740 -0.9596343833 2.7069546485
C 3.5554626602 -0.9598505251 1.3091568472
C 3.2305771333 -2.1156780377 0.6184719355
C 2.9058248469 -3.3000334831 1.2903885185
C 2.9366938213 -3.2849809379 2.6828649697
C 3.2578838477 -2.1326257036 3.3997627904
C 2.4448448058 -4.5141169979 0.5325706814
C 0.9122067742 -4.5816582964 0.3767053952
N 0.3749749319 -3.3836575840 -0.2744350878
C -0.6183482878 -3.6728641797 -1.3066352560
C -0.9632292156 -2.4029411580 -2.0817173188
C -1.4743214794 -1.3155671974 -1.1418380759
C -0.4810914717 -1.1004875058 0.0020740968
C -0.1624089837 -2.4193451527 0.6910240229
N -1.7033895691 -0.0830287301 -1.9122003940
C -2.3661143977 0.9478686510 -1.2960185908
N -3.2082455155 0.8332566954 -0.2920104347
C -3.6471949480 2.1253057014 -0.0519350292
C -4.5412658685 2.5996948171 0.9039740171
C -4.7960521740 3.9685126430 0.9457086162
C -4.1777601449 4.8548571572 0.0567426386
C -3.2820725013 4.4001291889 -0.9123194478
C -3.0370412717 3.0361084292 -0.9471276261
N -2.2235828560 2.2509319733 -1.7568883023
C -1.2582068899 2.7034083630 -2.7383674228
C 0.1712302454 2.4076226159 -2.3261950789
C 1.0964216361 1.9497869022 -3.2641922124
C 2.4063996653 1.6579018169 -2.8939881306
C 2.7650986243 1.8289834439 -1.5684521160
C 1.8722342610 2.2756355628 -0.6065052688
C 0.5704409157 2.5644963290 -0.9966596133
F 4.0329784555 1.5413904393 -1.1982135269
H 2.9134106297 0.0337179108 5.1381703243
H 4.1678799464 1.2959020532 4.9852989907
H 4.6484756350 -0.4174681207 5.1309484646
H 3.8130862978 -0.0462754619 0.7846444343
H 3.2089575030 -2.0999669706 -0.4670389985
H 2.6932723573 -4.1912994147 3.2321007078
H 3.2687840770 -2.1667354654 4.4821693556
H 2.8896957008 -4.5112377621 -0.4685468517
H 2.7802299719 -5.4275553046 1.0400112280
H 0.4479001399 -4.7417163545 1.3658236000
H 0.6689415733 -5.4646215926 -0.2275594997
H -1.5486210232 -4.1040343050 -0.8778197832
H -0.2049368909 -4.4175972872 -1.9966727937
H -0.0534037510 -2.0463228907 -2.5857360371
H -1.7140302574 -2.6194202519 -2.8497763904
H -2.4424857954 -1.6162399937 -0.7242025038
H 0.4493629143 -0.6754218570 -0.4002892497
H -0.8982720162 -0.3895700475 0.7229318703
H 0.5777640731 -2.2550329562 1.4790827984
H -1.0792333002 -2.8167381078 1.1767216022
H -0.8664908269 0.2153828627 -2.3996260627
H -5.4891511166 4.3585364803 1.6840070320
H -4.3976348555 5.9153953376 0.1178859381
H -2.8097386210 5.0945262996 -1.6003463928
H -1.4677584019 2.2431947202 -3.7136405495
H -1.4020401667 3.7821142794 -2.8637396874
H 3.1361448276 1.2971145306 -3.6096939793
H 2.1960997844 2.3816071024 0.4228974916
H -0.1501591146 2.8991383109 -0.2560275461
H 0.7931181827 1.8120150930 -4.2988676229
H -5.0190173460 1.9123292996 1.5937870957
