65
CONF94
C 8.5170696420 -2.5226348367 -5.3067436488
O 7.6990764463 -3.4839449630 -4.6302273659
C 6.8340497876 -3.0158242273 -3.6817650668
C 6.6975436534 -1.6714019211 -3.3293733284
C 5.7806510162 -1.3138893234 -2.3397981318
C 4.9950630697 -2.2622306745 -1.6862200862
C 5.1480343198 -3.6039750802 -2.0584084994
C 6.0523454489 -3.9829959710 -3.0395528010
C 3.9733149368 -1.8543934024 -0.6576705133
C 2.6012880930 -1.6350154098 -1.3107228115
N 1.5846292801 -1.1380884079 -0.3770550384
C 0.4233849589 -0.6288693612 -1.1210774851
C -0.6109926903 -0.0312377292 -0.1741366110
C -1.0684626065 -1.0736825512 0.8483408353
C 0.1445502784 -1.6559108042 1.5638854203
C 1.1519583790 -2.1916853753 0.5516929587
N -1.9986341342 -0.5075378412 1.8350547525
C -3.2833733529 -0.2319988102 1.4670938781
N -3.9490176560 -0.8175629720 0.4835278558
C -5.2160343217 -0.2558437503 0.5345453199
C -6.3303492798 -0.4920030198 -0.2685154687
C -7.4947905562 0.2312829360 -0.0081314618
C -7.5541524204 1.1712013611 1.0288412559
C -6.4489854639 1.4193524506 1.8472017005
C -5.2976881118 0.6921416291 1.5826873524
N -4.0443931907 0.6788549648 2.1805519782
C -3.5403742976 1.5963074306 3.1920593703
C -2.5186603079 2.5623371478 2.6271801662
C -1.3603103490 2.8622923298 3.3445666353
C -0.4103973841 3.7439822481 2.8333189390
C -0.6468315086 4.3087677897 1.5928586385
C -1.7828278584 4.0340768338 0.8479429153
C -2.7195587330 3.1537495590 1.3773448868
F 0.2739325055 5.1643253544 1.0804802321
H 9.1227732555 -3.0924077094 -6.0121171390
H 9.1716707247 -1.9957214292 -4.6020754035
H 7.9029930353 -1.7962236365 -5.8524989620
H 7.2918723441 -0.9012847834 -3.8057624151
H 5.6827620290 -0.2646417649 -2.0720337220
H 4.5502848496 -4.3667171126 -1.5653781460
H 6.1704695216 -5.0253324982 -3.3189961043
H 3.9088557742 -2.6275244134 0.1150135274
H 4.2802896040 -0.9225320501 -0.1698662383
H 2.2761037712 -2.5747427943 -1.8016179998
H 2.7208568997 -0.8877283479 -2.1054034526
H -0.0513056911 -1.4349567712 -1.7183965302
H 0.7696132125 0.1362542190 -1.8250729740
H -0.1721492100 0.8221132925 0.3615717399
H -1.4699564735 0.3369509992 -0.7465483083
H -1.5982160747 -1.8804660584 0.3285475779
H 0.6211064188 -0.8732034569 2.1702145789
H -0.1647145279 -2.4619495623 2.2381860531
H 2.0234572900 -2.5816779501 1.0856274708
H 0.7012839138 -3.0404387785 -0.0039096238
H -1.5685275364 0.1935740497 2.4258700203
H -6.2862999051 -1.2173058495 -1.0751907522
H -8.3737633536 0.0638413798 -0.6228684551
H -6.5006531829 2.1495874769 2.6484988429
H -4.4005981023 2.1396260081 3.5954679125
H -3.1057952459 1.0299328863 4.0242722191
H -1.1883100447 2.3979508689 4.3117337956
H 0.4968821717 3.9806950577 3.3780736771
H -1.9238465207 4.4985163027 -0.1218632057
H -3.6114699321 2.9190270789 0.8033237880
H -8.4743276453 1.7197001289 1.2025109254
