50
CONF92
C 5.0667713584 -1.2248150424 0.6600147843
C 4.3413664700 -0.9569643209 1.9925519330
C 5.0839010631 0.1499891696 2.7654176370
C 4.3820035012 -2.2410411217 2.8293090893
C 2.9107414864 -0.4964548807 1.7038230665
C 1.7859850654 -1.1825728390 2.1706415437
C 0.4924855263 -0.7404219673 1.8916981958
C 0.3291658056 0.4053496481 1.1343246955
C 1.4159997051 1.1203514391 0.6535514352
C 2.6955477310 0.6626825170 0.9428095138
O -0.9743833486 0.8899136877 0.8880507380
P -1.7388267945 0.4138253828 -0.4389127127
O -0.9524213024 0.4051545261 -1.6916880526
O -3.0375643401 1.3557264280 -0.4155187993
C -2.9719673599 2.6397436451 -0.9945969101
C -3.3486666174 2.7896235163 -2.3210174292
C -3.3350169544 4.0674142277 -2.8748903067
C -2.9489534654 5.1635947444 -2.1055735660
C -2.5763243395 4.9852924848 -0.7749278344
C -2.5858303566 3.7134719617 -0.2055383260
O -2.3535339661 -0.9926617367 0.0287043801
C -2.8670445197 -1.8811939223 -0.9377473302
C -2.0248979266 -2.8511775204 -1.4607361481
C -2.5478389999 -3.7615215891 -2.3757028366
C -3.8881242186 -3.6901530224 -2.7514710625
C -4.7128363433 -2.7065429455 -2.2096852150
C -4.2051737274 -1.7890579919 -1.2919987531
H 4.5523004346 -2.0067542034 0.0913262648
H 6.0914958202 -1.5582944287 0.8568358611
H 5.1166911303 -0.3253840558 0.0393429957
H 6.1092088684 -0.1706536130 2.9800779383
H 5.1331448625 1.0791825678 2.1901466601
H 4.5818342215 0.3605921156 3.7157554522
H 3.8900368769 -3.0735792080 2.3155038916
H 3.9063771783 -2.1032965936 3.8059623615
H 5.4254766139 -2.5227424996 3.0014315012
H 1.8981832798 -2.0806239391 2.7657932651
H -0.3740347451 -1.2780832717 2.2616646509
H 1.2576409150 2.0172971121 0.0639405721
H 3.5407259005 1.2271248034 0.5622837775
H -3.6445591318 1.9211190197 -2.8998229649
H -3.6274391107 4.2032724496 -3.9111190590
H -2.9407708273 6.1567670423 -2.5423899246
H -2.2783873874 5.8370938404 -0.1721119042
H -2.3051147124 3.5540496436 0.8299189219
H -0.9849496069 -2.8857920970 -1.1535491350
H -1.9032608790 -4.5274623884 -2.7947640227
H -4.2899236176 -4.4021313024 -3.4648295775
H -5.7576122349 -2.6500960607 -2.4977165844
H -4.8316286001 -1.0191597129 -0.8545739783
