40
CONF6
C -3.0269116166 -1.4377841230 1.9627743943
C -1.9358099956 -0.7605602236 1.1157339181
C -0.5576593292 -1.1910473638 1.6430369058
C -2.1748599889 -1.1481288188 -0.3464344227
C -3.2391243994 -0.5641228105 -1.0436306961
C -3.5108211506 -0.9200508341 -2.3580179927
C -2.7211433156 -1.8675231130 -3.0058704330
C -1.6601208972 -2.4514928238 -2.3254606457
C -1.3891480583 -2.0958125516 -1.0051576596
N -2.1234983190 0.6978908186 1.2919349350
C -1.2364906181 1.6727856342 0.8372203466
O -1.0620814582 2.7143500811 1.4648222612
N -0.6398454817 1.4374743787 -0.3755336752
C 0.4890337020 2.2627480921 -0.7821087967
C 1.7617231452 1.8896710532 -0.0575326011
C 2.2324551559 2.6799032217 0.9937988947
C 3.3760717657 2.3340621696 1.7042102904
C 4.0753477936 1.1782230252 1.3734035176
C 3.6283947968 0.3659712100 0.3362407808
C 2.4818519455 0.7315996699 -0.3568974019
Cl 1.9227691299 -0.3312726642 -1.6523554865
H -2.8875326000 -1.2071993182 3.0255087219
H -2.9730004567 -2.5219043166 1.8367844551
H -0.4592122231 -2.2801522485 1.6667291468
H 0.2572030268 -0.7802703307 1.0396331140
H -0.4398587431 -0.8224314401 2.6661150949
H -4.3370966681 -0.4503737080 -2.8823215437
H -2.9287164421 -2.1416708333 -4.0350783891
H -1.0318551569 -3.1847966733 -2.8212286203
H -0.5470109153 -2.5558240340 -0.5016169685
H -0.7623038801 0.5463031295 -0.8327362397
H 0.2460770817 3.3057098973 -0.5660216532
H 0.6161230105 2.1535190769 -1.8629031188
H 1.6665831592 3.5666640819 1.2599734195
H 3.7181248913 2.9644136991 2.5180617295
H 4.9700222716 0.8996728631 1.9204687556
H 4.1600605415 -0.5389041113 0.0656001279
H -3.8379593468 0.1942090449 -0.5495990018
H -2.4323632338 0.9511816649 2.2206507264
H -4.0204264548 -1.1031157195 1.6523481512
