63
CONF333
C -11.1327016971 0.8928104569 0.8990245729
C -10.0549156662 0.2849249856 0.0039094711
C -8.6640594372 0.3369784696 0.6349194984
C -7.5770653508 -0.2740402470 -0.2474700970
C -6.1876884664 -0.2277534836 0.3869072454
C -5.1066098280 -0.8376715454 -0.5063093152
C -3.7257768925 -0.9295505632 0.1487989912
C -3.0963396109 0.4224701543 0.4850309551
C -1.6793262976 0.2950531836 1.0428589029
C -1.0343268810 1.6469403915 1.3443164452
C 0.3384593778 1.5497134089 2.0199401020
C 1.3842290576 0.7223288401 1.2625061385
C 1.6665602045 1.2235902992 -0.1540319373
C 2.6882763197 0.3779544297 -0.9207599815
C 4.0964020919 0.3863252018 -0.3248497245
C 5.1045675000 -0.3779959325 -1.1820350696
C 6.5129696341 -0.3898264833 -0.5906692337
C 7.5165410251 -1.1604479507 -1.4475642730
C 8.9248785729 -1.1766883689 -0.8535061718
C 9.9111021468 -1.9451991406 -1.7235189475
O 11.2216483601 -2.0177939775 -1.1560424202
H -10.9138797189 1.9438541027 1.1165654336
H -12.1199292667 0.8466319206 0.4293167721
H -11.1914143137 0.3623899679 1.8556196971
H -10.0340352896 0.8115435662 -0.9593644011
H -10.3088268346 -0.7587641664 -0.2236246109
H -8.6846698783 -0.1866194059 1.6012546277
H -8.4071012121 1.3817228644 0.8599757584
H -7.5535087562 0.2518016900 -1.2124571153
H -7.8377626363 -1.3172346631 -0.4751463437
H -6.2075578937 -0.7630794702 1.3472356780
H -5.9380991865 0.8149162119 0.6217007663
H -5.4253346626 -1.8454113561 -0.8046976883
H -5.0312968938 -0.2532272285 -1.4341902283
H -3.7994761615 -1.5327767540 1.0648232867
H -3.0487462971 -1.4745800428 -0.5225730698
H -3.7196221521 0.9574873548 1.2128957494
H -3.0758103269 1.0468236132 -0.4202077120
H -1.7004338680 -0.3122440847 1.9595794155
H -1.0626747286 -0.2605793802 0.3236883750
H -0.9544781145 2.2243514234 0.4138291965
H -1.7032334664 2.2237329103 1.9967444872
H 0.7303525380 2.5644015511 2.1717097422
H 0.2095530597 1.1172813151 3.0211522919
H 2.3120275420 0.7300824738 1.8467336487
H 1.0663833019 -0.3282276306 1.2149766203
H 0.7310679181 1.2374015237 -0.7266010825
H 2.0136218766 2.2660524880 -0.1084124627
H 2.3266540541 -0.6586349248 -0.9782274287
H 2.7434545935 0.7398522764 -1.9561662588
H 4.4332507708 1.4260888389 -0.2043311047
H 4.0827095229 -0.0513749902 0.6813225768
H 5.1357399293 0.0633725243 -2.1881446696
H 4.7569362914 -1.4124432650 -1.3131794084
H 6.4821093186 -0.8299437703 0.4156125724
H 6.8626972469 0.6440708906 -0.4622328161
H 7.1641893128 -2.1934404877 -1.5756987406
H 8.9088471562 -1.6290511744 0.1459228103
H 9.2801919151 -0.1431366793 -0.7282275674
H 9.9451845120 -1.5053577762 -2.7340293201
H 9.5835221592 -2.9850271925 -1.8325039006
H 11.5504526910 -1.1174290470 -1.0599387348
H 7.5467900095 -0.7198850640 -2.4539446291
