47
CONF9
C -4.0083476114 -1.9609527039 0.2345135790
C -3.1709223134 -0.7791854741 0.6669307654
C -1.8550679757 -1.0106449652 1.3763898753
C -1.8518720972 -0.5849549702 -0.0882350972
C -1.3898482647 0.7659438428 -0.4335546418
O -1.2111181103 1.7032217825 0.3117833972
O -1.2024072981 0.8563044566 -1.7920249989
C -0.7164767992 2.1196058307 -2.2880379489
C -1.6667163582 3.1972684501 -1.9911832888
N -2.4246914924 4.0508181377 -1.8186970989
C 0.7016193380 2.4305512105 -1.8383280939
C 1.5681249608 1.3657287011 -1.6106617798
C 2.8839420146 1.6098491353 -1.2352787119
C 3.3235154421 2.9287027554 -1.1332970206
C 2.4784314307 3.9933909733 -1.3804863986
C 1.1533620740 3.7432223558 -1.7257205667
F 4.6045794830 3.1585639911 -0.7770925913
O 3.7931058752 0.6076106203 -1.0132569779
C 3.3618737489 -0.5142685200 -0.3099449325
C 2.5671722160 -0.3951284014 0.8272700380
C 2.2248481472 -1.5468342264 1.5285892882
C 2.6708705988 -2.7968314162 1.1017397397
C 3.4711759751 -2.8922113335 -0.0342575546
C 3.8207202885 -1.7493099130 -0.7500129412
C -1.3861717618 -2.3572455962 1.7173728464
C -0.9443139197 -2.7310999674 2.9180006339
Cl -0.8434094612 -1.6648294662 4.2921531738
Cl -0.3936608289 -4.3529181102 3.2464672783
C -3.9821136810 0.4246287956 1.0844028184
H -3.4047048935 -2.7883681882 -0.1433609216
H -4.6990154195 -1.6533063657 -0.5572353039
H -4.6020423181 -2.3229474934 1.0811615004
H -1.5778915941 -0.2186087348 2.0658288187
H -1.6315184803 -1.3460370677 -0.8294023623
H -0.7307895479 1.9827611189 -3.3766461656
H 1.2299286694 0.3394018231 -1.7038294062
H 2.8542969603 5.0058780974 -1.2817831834
H 0.4829010860 4.5779818144 -1.8995623036
H 2.2274604029 0.5803202361 1.1599701612
H 1.6134677197 -1.4608372265 2.4207371603
H 2.3992303681 -3.6892070833 1.6556356661
H 3.8250936504 -3.8610006021 -0.3723874697
H 4.4411342909 -1.8046451631 -1.6382432697
H -1.3984139257 -3.1227352175 0.9473049360
H -4.6649311597 0.1338497195 1.8895943166
H -4.5846878990 0.7856436346 0.2434450172
H -3.3557212226 1.2428608080 1.4428601001
