40
CONF27
C 1.5627366212 3.8874483189 -1.1230053753
C 0.5073978154 2.8081696094 -1.0973028312
O 1.0823959475 1.5247703996 -1.5151165783
P 1.6830040788 0.4654727689 -0.4950278348
S 1.7507560131 0.8904744927 1.3977789560
O 3.0649118021 0.1480418113 -1.2259436178
C 3.9861412784 -0.8534585897 -0.6745020174
C 5.2237117421 -0.8435800794 -1.5367351731
O 0.8985533435 -0.9414206444 -0.8688218880
C -0.4078817594 -1.1815340764 -0.5450857213
N -1.1790906779 -0.1671846760 -0.2020342369
C -2.4569609708 -0.4678218418 0.0977484417
N -2.9907409207 -1.6894002829 0.0580398523
C -2.1841359965 -2.7099127425 -0.3070153443
C -2.7986811266 -4.0720690736 -0.3502846607
C -0.8489935477 -2.4981946158 -0.6203199103
C -3.3444811870 0.6840068017 0.5012768387
C -3.5313348001 1.6523429004 -0.6744584113
C -2.7747208826 1.4084567473 1.7267203497
H 2.3507666215 3.6804740406 -0.3930640753
H 1.0990993392 4.8459479555 -0.8682849874
H 2.0093866125 3.9714040958 -2.1175508435
H 0.0615654521 2.6887582765 -0.1060166782
H -0.2858303756 2.9935176873 -1.8246515416
H 3.4856622175 -1.8271565885 -0.6934333352
H 4.2092258747 -0.5806220051 0.3619407217
H 4.9809015286 -1.1017580952 -2.5709503969
H 5.9314890140 -1.5833386938 -1.1511936179
H 5.7028497665 0.1389244083 -1.5161827288
H -3.6331864876 -4.0789991794 -1.0591093664
H -3.2086517132 -4.3260904334 0.6325268878
H -2.0718547499 -4.8309869349 -0.6442956636
H -0.1824998149 -3.3024803705 -0.9059921975
H -4.2256976115 2.4497136357 -0.3920971827
H -2.5752267722 2.1089126780 -0.9481656027
H -3.9341285387 1.1383776370 -1.5529275138
H -2.6451102058 0.7219234413 2.5694139728
H -1.8021262705 1.8523836401 1.4922969524
H -4.3157990482 0.2507618366 0.7604792347
H -3.4548186739 2.2085793278 2.0349677070
