43
CONF35
C -3.3295779847 -2.2064102542 -1.5409413719
C -3.1016810696 -2.0127871584 -0.0323581569
C -2.3059196917 -3.2136411661 0.5063629495
C -4.4803479149 -2.0100058165 0.6547065454
C -2.3299676410 -0.6593235935 0.2160900701
C -0.8592134844 -0.7654957229 -0.2438541899
C -0.2145044659 0.5293481640 -0.7719340210
C 1.2229661278 0.2688705371 -1.1375989495
C 2.2471952038 0.4623231338 -0.2067082696
C 3.5734314978 0.1764147727 -0.5183342189
C 3.8696583736 -0.3149059331 -1.7833638532
C 2.8789609600 -0.5218720323 -2.7348465420
C 1.5603199378 -0.2271193040 -2.4001908411
Cl 5.5464240779 -0.6807913070 -2.1934398030
C -2.4225920574 -0.2839502473 1.7160537347
N -1.6256666629 0.8798365967 2.0759371567
C -1.9248002262 2.1827177997 1.9101859050
N -0.9121664725 2.9443303282 2.3126052761
C 0.0047025440 2.0252062658 2.7239200834
N -0.3811722173 0.7600797139 2.6014921659
O -2.9224936293 0.4045548149 -0.5459561756
H -2.3985385468 -2.1492308339 -2.1118535074
H -4.0182406144 -1.4573103562 -1.9402104246
H -2.9068286369 -4.1208945962 0.3849307751
H -2.0741257068 -3.1148320775 1.5713661616
H -1.3690510751 -3.3622458828 -0.0367323585
H -5.0798538700 -1.1288573790 0.3962416441
H -5.0436995990 -2.8882836953 0.3239790434
H -4.3993932049 -2.0649506129 1.7443731827
H -0.7820151711 -1.5038203193 -1.0467572916
H -0.2599025718 -1.1528778636 0.5871722434
H -0.2622863696 1.3312902725 -0.0316573896
H -0.7635105523 0.8664976723 -1.6548501191
H 2.0067055610 0.8458586364 0.7810526202
H 4.3609364926 0.3351941233 0.2099245049
H 3.1302062855 -0.9016735251 -3.7189140148
H -2.0860284544 -1.1072137949 2.3495138491
H -3.4598266782 -0.0502828317 1.9693505298
H -2.8700148788 2.5197124546 1.5066075496
H 0.9733664934 2.2876193302 3.1307261650
H -3.8659040875 0.4390043675 -0.3393595686
H 0.7805924658 -0.3842071704 -3.1409206777
H -3.7658143450 -3.1959650008 -1.7119733753
