35
CONF47
C -2.6778796255 -1.8494896902 -0.9099906281
C -2.6386247339 -1.4232909534 -2.2333600072
C -1.6590038274 -0.5202589550 -2.6391098260
C -0.7412953570 -0.0786117385 -1.7054322829
C -0.7330950512 -0.4893693337 -0.3740982633
C -1.7372817486 -1.3820741038 0.0054880320
C 0.3146958978 0.0325731958 0.6135062253
C 1.7474621400 -0.3614038191 0.1706523266
N 1.9123938437 -1.8034014015 0.1000431106
C 2.3373757215 -2.6483641162 1.0640208026
N 2.3068411969 -3.9004094710 0.6233120970
C 1.8422397309 -3.7578453168 -0.6499137017
N 1.5881140457 -2.5070404117 -1.0137930857
C 0.1666834712 1.5465152644 0.7614779910
C -1.0513832263 2.0247788570 1.2556983174
C -1.2691396583 3.3845951363 1.4355243533
C -0.2460004347 4.2579250844 1.1026325941
C 0.9696287634 3.8279646822 0.6054888628
C 1.1702950742 2.4583308105 0.4378350367
F -0.4487465718 5.5899897633 1.2695644628
O 0.0857599107 -0.4879571205 1.9256404627
F 0.2035883583 0.8078079165 -2.1237642601
H -3.4431966573 -2.5450837146 -0.5825982761
H -3.3675444252 -1.7833723788 -2.9516956693
H -1.5996408738 -0.1589679771 -3.6601707278
H -1.7953184557 -1.7116647574 1.0366613961
H 2.4544802093 0.0134308251 0.9151900345
H 1.9948064756 0.0521278406 -0.8074971826
H 2.6653598874 -2.3073306002 2.0378967841
H 1.6928472560 -4.5884942637 -1.3282314122
H -1.8409782478 1.3227313034 1.5035494257
H -2.2093524962 3.7639805021 1.8205682044
H 1.7431657101 4.5452620072 0.3544443672
H 2.1252037200 2.1312343498 0.0440655541
H 0.1375410150 -1.4548183310 1.8963948820
