27
CONF60
C 3.0886715187 -0.9503910270 -0.6926766690
C 4.4803019393 -0.3281173823 -0.5419150792
C 4.9105725058 -0.1296064652 0.9080137736
O 6.2352494589 0.3909643487 1.0176100871
C 1.9832502172 -0.0560601854 -0.1212144273
C 0.6037293602 -0.5986057719 -0.4238664378
C -0.5404476773 0.3164688761 0.1062361067
C -1.9780697919 -0.2967263951 0.0587462870
C -3.1263260633 0.7557355164 0.1987074654
F -3.2272409147 1.5050866488 -0.9048612476
F -2.9060722040 1.5555341790 1.2526494247
F -4.2872839367 0.1110837795 0.3824546120
F -2.1083762541 -1.1788598610 1.0742828594
F -2.1682937698 -0.9439892251 -1.1132391455
F -0.5281224302 1.4646390408 -0.6221757054
F -0.2713225177 0.6330380649 1.4001867724
F 0.4354841853 -1.8371548141 0.1391567058
F 0.4303965374 -0.7387031956 -1.7728095210
H 2.8928059270 -1.1316023400 -1.7539267478
H 3.0614029492 -1.9255179561 -0.1926961348
H 5.2075724934 -0.9866026045 -1.0358746302
H 4.5250505551 0.6362956931 -1.0629179061
H 4.8091419190 -1.0775231020 1.4630363312
H 4.2754676976 0.6098879951 1.4064688860
H 2.0458340034 0.9523382516 -0.5467270286
H 2.0693289462 0.0367176035 0.9645576623
H 6.8396329116 -0.2478415998 0.6238355356
