44
CONF201
C -3.9684336411 -2.4448794560 -1.3266379940
S -2.7794204677 -1.9494455410 -2.5860938393
O -3.2900727738 -0.7647316308 -3.3104623325
O -2.4247562405 -3.1477513014 -3.3747539177
C -1.2907594769 -1.4765621527 -1.6396132874
C -1.2690152768 -0.3628219592 -0.7873126993
C -0.0689164017 -0.1281901904 -0.1041495067
C 1.0619883098 -0.9240202052 -0.2876053599
C 1.0040664238 -1.9934545286 -1.1767298395
C -0.1795274318 -2.2867684608 -1.8371484810
C 2.3281859127 -0.6800934511 0.4835203438
O 2.3868613083 -0.8494093028 1.6816093279
C 3.5326034474 -0.2327564199 -0.3482127066
C 4.7979682691 -0.3120662317 0.4980908665
O 5.5082530079 -1.2956307865 0.4233349000
C 5.1139763998 0.8584199761 1.3923889389
C 4.1239916464 2.0165408298 1.2737515862
C 3.8308468957 2.3339149795 -0.1936630791
C 3.2246932234 1.1696586719 -0.9261686832
O 2.5326102673 1.2739013467 -1.9158152811
Cl 0.0539364257 1.2486204522 0.9731023561
C -2.4484394126 0.5419014076 -0.5568617739
O -3.0051439196 0.1802727431 0.7254730501
C -3.7698410469 1.1940548097 1.3429456035
C -5.1935324267 1.2463046703 0.8114673959
F -5.9184503611 2.1586998131 1.5008539843
F -5.8222409230 0.0537053742 0.9268738045
F -5.2485302098 1.5937655841 -0.4986413904
H -4.1888096426 -1.5972150835 -0.6745957593
H -4.8619533664 -2.7623207246 -1.8719810041
H -3.5348508833 -3.2753087734 -0.7649549247
H 1.8800034421 -2.6139642739 -1.3353630385
H -0.2386098221 -3.1345722144 -2.5084030915
H 3.6105449912 -0.9184942498 -1.1995192882
H 5.1752002386 0.4771506286 2.4184918865
H 6.1277973353 1.1850752593 1.1247923323
H 4.5374411224 2.9029521921 1.7610231108
H 3.1908675315 1.7762671407 1.7939882819
H 4.7697495887 2.5704074401 -0.7191534952
H 3.1704259778 3.1966885446 -0.3190977924
H -2.1138786462 1.5865438330 -0.5400914600
H -3.1912748749 0.4403161518 -1.3488115376
H -3.8320339745 0.9548557747 2.4088178397
H -3.3235194444 2.1904398118 1.2197932667
