56
CONF3
C -3.0259019605 1.8147444214 -0.6857518303
C -2.6243536627 0.3754736557 -0.2671818633
C -3.3477378155 -0.6333030384 -1.1777447807
C -4.8562033413 -0.6644623853 -0.9510196667
C -5.1864715707 -0.9215153509 0.5007389601
O -6.2478675163 -1.4558116858 0.8361146338
C -4.2255567294 -0.4501949852 1.4846086493
C -3.0723385389 0.1846522407 1.1679045451
C -2.2573381440 0.8438080428 2.2383579901
C -0.7511929055 0.6296468083 2.0775499414
C -0.2961502176 1.0169856867 0.6676059862
C -1.0681342831 0.2489245664 -0.4249143735
C -0.5499692840 -1.1809101255 -0.6008675552
C 0.9653136585 -1.2091183969 -0.8322196861
C 1.8131482990 -0.4764826140 0.2248127674
C 1.2297440814 0.9330922014 0.4820386884
C 1.7369052711 1.8112051876 -0.6908916776
C 2.9381482691 1.0793551983 -1.3217069034
C 3.2118564812 -0.1390718155 -0.4165580349
C 4.2086787525 0.2455303564 0.6730105836
O 4.1491121778 1.3110840800 1.2695654118
C 5.3249145525 -0.7192225838 1.0091925535
O 6.0908572818 -0.2554161039 2.1015013086
O 3.6942226779 -1.2886633467 -1.1138540069
C 1.9790245518 -1.3407247512 1.4792458449
O -0.9730571251 -1.9802868481 0.5198413468
H -2.4925827641 2.5701599897 -0.1054887080
H -4.0962310112 1.9832600057 -0.5413815481
H -2.7878163400 1.9625786564 -1.7442610564
H -2.9703859601 -1.6371489182 -0.9634529225
H -3.1197661141 -0.4077819178 -2.2262010222
H -5.3360357185 -1.4358883497 -1.5609132500
H -5.3272026326 0.2899605881 -1.2236592154
H -4.5156144532 -0.5607058788 2.5276992101
H -2.4617575425 1.9244837032 2.1773447032
H -2.6043060315 0.5155964061 3.2230251687
H -0.2193481413 1.2474667564 2.8108440190
H -0.5145364265 -0.4130285556 2.2912207489
H -0.5395310821 2.0830076841 0.5497773735
H -0.8446404746 0.7304181952 -1.3877239152
H -0.9954945353 -1.5980650208 -1.5158594317
H 1.2905117510 -2.2524917331 -0.9138975885
H 1.1317823098 -0.7621815688 -1.8193552871
H 1.6825048869 1.3140233588 1.4042839147
H 2.0143705369 2.8020120114 -0.3217282070
H 0.9511811962 1.9589805517 -1.4389273756
H 3.8241712635 1.7141294649 -1.4105337130
H 2.6995672135 0.7055998787 -2.3216899326
H 5.9521466924 -0.8365212916 0.1106578732
H 4.8959879242 -1.7083316151 1.2201394000
H 5.7390060803 0.6280353956 2.3103592980
H 4.3968233255 -1.0073642315 -1.7138340846
H 2.4823282990 -0.7907380320 2.2826225444
H 1.0131540844 -1.6798268608 1.8513149485
H 2.5697805821 -2.2334608960 1.2441461574
H -0.6777186874 -2.8854958782 0.3579925703
