42
CONF2
C -1.6477664432 1.6438263175 -1.9358154659
C -1.9416217382 0.3403396976 -1.5446753099
C -1.3375888738 -0.2026529590 -0.4141423567
C -0.4295480127 0.5508950433 0.3361683533
C -0.1467756517 1.8611019606 -0.0588537163
C -0.7534670538 2.4055247026 -1.1856822150
C 0.2607461767 -0.0381897696 1.5562911180
C -0.5830233411 -0.0009143240 2.8111510685
C -1.7821054303 -0.7112105437 2.9157712716
C -2.5444107033 -0.6409750504 4.0773292181
C -2.1211057308 0.1415613623 5.1507027875
C -0.9276347308 0.8509267566 5.0551771258
C -0.1637742622 0.7773422407 3.8920620975
C 0.8017557400 -1.4260133070 1.2193841195
O 0.5448842174 -2.4261566579 1.8501887950
C 1.7138036238 -1.5293342285 -0.0118477729
C 2.3177113514 -0.2440778271 -0.5826493052
O 3.0034417868 0.5483339895 0.0361159757
C 1.9709486574 -0.1743593625 -2.0169130934
C 2.3056333689 0.8049431585 -2.9452340058
C 1.8559185868 0.6392248147 -4.2518063539
C 1.0932088316 -0.4786674378 -4.6185292555
C 0.7587097962 -1.4572035053 -3.6873032876
C 1.2074362735 -1.2864231250 -2.3827154036
C 0.9852445717 -2.1675285458 -1.2172283196
O 0.3631079876 -3.2075060661 -1.1993167910
H -2.1120634573 2.0645652266 -2.8221076691
H -2.6339549796 -0.2612815721 -2.1251449062
H -1.5656955293 -1.2261214220 -0.1307844734
H 0.5644873906 2.4496475875 0.5139375247
H -0.5203094815 3.4227741501 -1.4845651180
H 1.1577601840 0.5690469992 1.7357740289
H -2.1250868366 -1.3275705739 2.0919168606
H -3.4720793183 -1.2009504281 4.1454540748
H -2.7184399094 0.1959282242 6.0554727860
H -0.5875617113 1.4626970402 5.8851092552
H 0.7684165510 1.3315067041 3.8227559469
H 2.5270914607 -2.2077851582 0.2782466527
H 2.8932304984 1.6693126284 -2.6540372421
H 2.0962279443 1.3856186958 -5.0019863537
H 0.7587497127 -0.5776834839 -5.6460860001
H 0.1654997962 -2.3225122536 -3.9635326567
