44
CONF1
C -2.7176831161 -2.6040022042 0.2732270842
C -1.7376104562 -1.9136486863 -0.6779032132
C -2.5442297521 -1.3196611014 -1.8451135400
C -0.6732102382 -2.8819138446 -1.2174278323
C 0.3934185151 -1.9698312305 -1.8247292170
C 0.4504510722 -0.7329759457 -0.8957793548
C 0.6504622321 0.5672810758 -1.6929651460
C 1.1029749149 1.7528597566 -0.8801709812
C 0.2989250465 2.8847704208 -0.7243973888
C 0.7250844380 3.9821505458 0.0199705018
C 1.9798653345 3.9369247431 0.6112770655
Cl 2.5275991480 5.3093418489 1.5774489433
C 2.8144373022 2.8358643095 0.4679242328
C 2.3655828436 1.7522988626 -0.2787278317
C -0.8595939540 -0.7942420166 -0.0188934828
O -1.6124797968 0.4190155113 0.0016128584
C -0.5143453730 -1.1929633459 1.4322686563
N 0.3856497570 -0.2542108282 2.0929482070
C 1.6356544220 -0.4513394780 2.5523003304
N 2.0914734709 0.6501489235 3.1409829845
C 1.0530038660 1.5164604712 3.0018078014
N -0.0074343635 1.0137469686 2.3792804061
H -3.3437836965 -3.2992434893 -0.2964863505
H -2.2084675555 -3.1830688892 1.0496520556
H -3.3818154718 -1.8777162563 0.7555492969
H -1.9237294946 -0.7444178661 -2.5360850372
H -3.3345608322 -0.6610454083 -1.4771767767
H -3.0099598048 -2.1372736532 -2.4056685309
H -1.0983835146 -3.5886962610 -1.9375812758
H -0.2506954629 -3.4689128514 -0.3925127309
H 0.0960321267 -1.6628969089 -2.8338101013
H 1.3700030513 -2.4552390995 -1.9116704602
H 1.3142685303 -0.8409356786 -0.2296317546
H -0.2690337925 0.8170746013 -2.2296891151
H 1.4185236230 0.3577812717 -2.4489127641
H -0.6816988674 2.9125362986 -1.1903708782
H 0.0893920948 4.8526549935 0.1378671172
H 3.7932620002 2.8206025685 0.9341037535
H 3.0176542603 0.8906502942 -0.3957010968
H -1.1802097522 1.0327793157 0.6176266599
H -0.0196158148 -2.1672466169 1.4560015023
H -1.4292915909 -1.2447863389 2.0282698187
H 2.1553736051 -1.3949213685 2.4463130848
H 1.0687408398 2.5362460785 3.3649725839
