56
CONF2
C 2.6520574453 -1.2009789196 2.2901765971
C 2.4909300677 -1.2850528957 0.7714584300
C 1.2441823820 -0.5320886148 0.2503851118
C -0.0531959768 -0.9810029030 0.9189521681
C -1.2093304674 -0.1825046187 0.3372797821
C -2.5949456503 -0.7060908179 0.7438964424
C -3.7328689364 0.2468254442 0.3278202585
O -4.8990514257 -0.1517955217 0.4336587428
C -3.3894066212 1.5280212984 -0.2616632391
C -2.0955101715 2.0443050401 -0.1625364907
C -1.0890019122 1.2977640502 0.7110625585
C 0.3373954016 1.7946651890 0.5988517897
O 0.4659799484 3.0906092438 0.8366248957
C 1.4098251792 0.9644443001 0.3766966301
C 2.7189613884 1.5503251433 0.2549613270
C 3.8502379104 0.6875011020 -0.0431061423
C 3.7396980842 -0.7125353938 0.1146767133
C 4.8024965706 -1.5321750425 -0.2251987737
C 5.9794744230 -0.9709474403 -0.7325474721
C 6.1223965687 0.3966925884 -0.8732952975
C 5.0706883192 1.2431454668 -0.5089290464
O 5.2532758669 2.5643482056 -0.6337802999
O 2.8859824459 2.8121427650 0.3594741788
O -1.4864536463 1.4466043793 2.0892892481
O -1.7503804307 3.1449078633 -0.7411036260
C -4.3629047599 2.3645553263 -0.9644268611
O -3.9855693609 3.4390719551 -1.5275053928
N -5.6419260366 1.9831663408 -1.0116985744
N -2.7833268126 -2.0651066506 0.2354185540
C -3.1922363943 -2.1464041776 -1.1640352041
C -3.6137468837 -2.9221553968 1.0784751071
O 2.3500698275 -2.6798687703 0.4857850741
H 3.6019442520 -1.6575375457 2.5779233767
H 1.8419474849 -1.7411581907 2.7847737960
H 2.6472841100 -0.1592752129 2.6216806110
H 1.1794834714 -0.7881485647 -0.8235780780
H -0.0059384872 -0.7999926795 1.9987954963
H -0.2222753677 -2.0469289717 0.7530547767
H -1.1362245922 -0.2245383767 -0.7598469001
H -2.6266754476 -0.7542226617 1.8393436760
H 4.7235460605 -2.6018823746 -0.0717776816
H 6.8056459944 -1.6210555923 -1.0042738047
H 7.0384310861 0.8410216892 -1.2458668129
H 4.4404630875 2.9963457841 -0.2723830147
H 1.4573251463 3.2824673322 0.7188232810
H -1.3184625414 2.3657152469 2.3385220458
H -2.6944591198 3.4711490503 -1.2248285278
H -6.3033657781 2.5709721250 -1.4910881073
H -5.9010631021 1.1377739565 -0.5089221121
H -3.0336346992 -3.1696143474 -1.5221505328
H -4.2528381803 -1.8853322432 -1.3233260605
H -2.5803917083 -1.4811146370 -1.7826902304
H -3.2542188929 -2.8814821426 2.1120012654
H -4.6792068722 -2.6438379177 1.0661183470
H -3.5187804054 -3.9575390414 0.7299274773
H 2.2976684707 -2.7821725298 -0.4734492725
