38
CONF3
C 2.8123963906 -2.6234357790 0.4055693338
N 2.3769243911 -1.2314001956 0.3653642030
C 3.4944401407 -0.3423056173 0.6652645835
C 1.7742523026 -0.9251333182 -0.9357007128
C 1.0433866982 0.4143494862 -0.9684973647
C 0.0069570268 0.5444408462 0.1606615990
C -1.0213009963 -0.5719709627 0.0912349017
C -1.0021836424 -1.6073211392 1.0265403553
C -1.9095335410 -2.6602715452 0.9554940350
C -2.8462215647 -2.6693577805 -0.0692208942
Cl -3.9991680807 -3.9917011203 -0.1715011669
C -2.8899365556 -1.6528630833 -1.0163036733
C -1.9746014245 -0.6103604639 -0.9293942628
C -0.6666132844 1.9022983801 0.1646550033
C -0.9992447214 2.5171347525 1.3754783551
C -1.6416353722 3.7464513441 1.3581528553
C -1.9364006677 4.3306505701 0.1307541660
C -1.5690556744 3.6486186792 -1.0226975896
N -0.9481284150 2.4647323048 -1.0177438721
H 3.2277874172 -2.8544980153 1.3924364979
H 1.9551916135 -3.2831057420 0.2326924866
H 3.5857322670 -2.8555434073 -0.3537614153
H 3.9189171596 -0.6024495314 1.6405038206
H 3.1567412538 0.6972903477 0.7164870029
H 4.3034077814 -0.4035172920 -0.0903099929
H 1.0518320208 -1.7208980297 -1.1563584865
H 2.5324284228 -0.9449573489 -1.7456330391
H 0.5410408759 0.5155923976 -1.9352524537
H 1.7454980064 1.2540626330 -0.9047902539
H 0.5332027131 0.4302595753 1.1141344640
H -0.2502609517 -1.5998897775 1.8098485941
H -1.8892307891 -3.4626021572 1.6839968483
H -3.6306170531 -1.6778243061 -1.8072597788
H -2.0043253056 0.1908414939 -1.6614407584
H -0.7568239948 2.0279311349 2.3138854391
H -1.9077695778 4.2424309425 2.2864708488
H -2.4362701831 5.2910575901 0.0668023401
H -1.7808151940 4.0732644309 -2.0030269156
