28
CONF8
C -3.5827752282 -2.0075117580 -0.4068221265
C -3.6033569494 -1.2456768561 -1.5742980756
C -2.7838620727 -0.1267964925 -1.6926779122
C -1.9377078850 0.2498700140 -0.6463872794
C -1.9215302696 -0.5161003986 0.5190730416
C -2.7384872679 -1.6393602262 0.6377574004
C -1.0897700843 1.4994920046 -0.7999900806
N 0.0544171662 1.5707656366 0.0904401132
C 1.1526818048 0.8011852352 -0.0511838891
C 2.1991713390 0.8116031149 0.8943596438
C 3.2909216121 -0.0177097313 0.6257959486
N 4.1476203979 0.1755523565 1.6812151338
C 3.5515055883 1.0873678878 2.5154230626
N 2.3771290533 1.4976656203 2.0812261157
N 3.4411388464 -0.8189908018 -0.4399708374
C 2.3887638652 -0.7398996368 -1.2591017107
N 1.2768479624 0.0019751056 -1.1315449038
H -4.2167584745 -2.8838651435 -0.3146241872
H -4.2534456283 -1.5278169639 -2.3970622865
H -2.7967815264 0.4591442394 -2.6085778439
H -1.2640098555 -0.2387659126 1.3377098897
H -2.7128922522 -2.2280712852 1.5499408276
H -1.7071029649 2.3821271934 -0.5986317760
H -0.7497277284 1.5753295793 -1.8381150088
H -0.0320257085 2.0945375230 0.9474804175
H 5.0457142686 -0.2653346080 1.8200242328
H 4.0316683994 1.4117406908 3.4300734762
H 2.4326530893 -1.3624555613 -2.1526300683
