25
CONF12
C -1.3595051423 0.1631600092 1.4847109332
C -2.3979823984 -0.8512892776 1.9454689810
S -2.2912946464 -2.2204748640 0.7165269301
C -1.6409656523 -1.1001934575 -0.5010669082
N -1.4156451484 -1.3816167286 -1.7496433158
C -1.7457345399 -2.5644945714 -2.2342540179
N -1.9950557208 -3.5815189640 -2.7473164442
N -1.3846301159 0.1261555735 0.0245561229
C -0.6226687518 1.1289722263 -0.7287783221
C 0.8598488484 1.0330677788 -0.4714896065
C 1.5017800197 1.9450584911 0.3602483938
N 2.8047017898 1.8927207673 0.6613407815
C 3.5034854293 0.9137487799 0.1286022062
C 2.9855923557 -0.0621205774 -0.7242164766
C 1.6353790806 0.0070088643 -1.0227241314
Cl 5.2131729174 0.8478115683 0.5325822225
H -1.6081141975 1.1726165560 1.8310144342
H -0.3576152532 -0.0973505711 1.8591828638
H -3.4089378704 -0.4354848974 1.9221932880
H -2.1810513092 -1.2379104651 2.9424481581
H -0.9916576674 2.1180311760 -0.4341857947
H -0.8479335029 0.9789975600 -1.7873818825
H 0.9436168558 2.7679445423 0.8076169195
H 3.6217496750 -0.8366770266 -1.1344167886
H 1.1794647493 -0.7261621005 -1.6810184407
