47
CONF7
C -4.8632278224 -4.8102148370 -0.4946827055
O -4.5505672986 -3.5308682491 0.1265094611
P -5.4628524086 -2.2534473259 -0.1738137638
S -5.9243985627 -1.8884500839 -2.0239714281
O -6.6632701730 -2.4755911068 0.8580905388
C -7.8083388876 -1.5777401183 0.8468594087
O -4.6213989186 -1.0952920882 0.5895059762
C -3.6473083244 -0.3310868653 -0.0561910305
C -3.8552711955 1.0369382038 -0.1410116212
C -2.8709713389 1.8374493662 -0.7126134388
C -1.7058368522 1.2586937862 -1.2189839346
C -1.5219121607 -0.1249491168 -1.1423365078
C -2.4867596899 -0.9235891702 -0.5430309357
S -0.5195321822 2.3175170174 -2.0370360831
C 1.0461931261 1.7462555134 -1.3883549092
C 2.1473704404 1.7458760547 -2.2476700135
C 3.4041366030 1.3880658160 -1.7705998774
C 3.5394288829 1.0052046435 -0.4448439260
C 2.4520385192 0.9863142585 0.4213488765
C 1.2047591281 1.3750563360 -0.0503414040
O 4.7999787512 0.5813130091 -0.0164985600
P 5.6350531702 1.3685016662 1.1293189292
S 5.4539625251 3.3018272187 1.1382965783
O 7.0980915427 0.7656721507 0.9003821509
C 7.9482213433 1.2990054476 -0.1531713000
O 5.1699814906 0.5726123658 2.4350563946
C 5.5967181761 1.0247418086 3.7516833483
H -4.8420701264 -4.7114410002 -1.5828344154
H -5.8435381408 -5.1603915182 -0.1608538804
H -4.0844597815 -5.4944656194 -0.1598112978
H -8.4716830044 -1.9403403754 1.6313968986
H -7.4869784300 -0.5558156275 1.0666113766
H -8.3070196498 -1.6206372205 -0.1245673055
H -4.7693135009 1.4691324338 0.2514913521
H -3.0125910046 2.9119426001 -0.7631115711
H -0.6218605408 -0.5801749604 -1.5418922439
H -2.3461024384 -1.9962899273 -0.4653001098
H 2.0270174294 2.0248624720 -3.2894127332
H 4.2703801051 1.3888248251 -2.4233118205
H 2.5807716204 0.6831921766 1.4549112537
H 0.3558361960 1.3808355620 0.6248620557
H 8.8811062131 0.7400052136 -0.0874885281
H 7.4806662650 1.1402832107 -1.1289071914
H 8.1286078668 2.3636528312 0.0150519336
H 5.2567462930 2.0492401289 3.9226260491
H 5.1252504331 0.3446382493 4.4602632072
H 6.6849452115 0.9631310246 3.8354227540
