47
CONF219
C -5.7557822714 -2.4402268526 1.1533645046
O -5.4621343388 -1.0363419180 0.8990392923
P -5.1630567398 -0.5413425830 -0.5972041930
S -3.9066337081 -1.5917213370 -1.6352556100
O -6.5660523076 -0.3754366879 -1.3364513372
C -7.6688617879 0.3253679651 -0.6789116848
O -4.7769819723 1.0057633964 -0.3027020387
C -3.5471152294 1.3510599493 0.2694159811
C -2.5117769412 1.7447645716 -0.5710051703
C -1.3079043387 2.1526979701 -0.0130262608
C -1.1414825153 2.1380510450 1.3751763057
C -2.1914229324 1.7385000088 2.2032849133
C -3.4090735227 1.3519319509 1.6495592580
S 0.3720585136 2.7160821452 2.1334012116
C 1.6344713340 1.8231791017 1.2337575521
C 1.4545038205 0.5030844047 0.8124148889
C 2.4852675490 -0.1668301083 0.1650130496
C 3.6993509450 0.4819744398 -0.0296170894
C 3.8993950256 1.7874448272 0.3942652521
C 2.8565111868 2.4651495744 1.0169032299
O 4.7398476131 -0.1545238186 -0.7108716483
P 5.5592837522 -1.4004792284 -0.0487624402
S 5.8888169300 -1.2594797407 1.8567738697
O 6.8063323466 -1.4612606999 -1.0442676253
C 7.8076044886 -0.4038279909 -1.0192217501
O 4.7595005595 -2.7251262319 -0.4295958629
C 4.4032396686 -3.0040386049 -1.8208452258
H -4.8966463969 -3.0561123065 0.8764667829
H -6.6431862326 -2.7476048794 0.5931535535
H -5.9442483624 -2.5092885439 2.2242590502
H -7.4094515416 1.3766373807 -0.5362730189
H -8.5154138844 0.2328138636 -1.3580702182
H -7.8974092796 -0.1488949578 0.2783391412
H -2.6589557302 1.7458585564 -1.6453931901
H -0.4980898522 2.4776408430 -0.6578420607
H -2.0617989126 1.7250107143 3.2803466665
H -4.2351883665 1.0444883229 2.2803872298
H 0.5114375080 -0.0051975789 0.9822042010
H 2.3479855434 -1.1881151211 -0.1750578880
H 4.8556101482 2.2703622316 0.2237390312
H 2.9969758957 3.4939145156 1.3326648005
H 7.3468534902 0.5541090849 -1.2737949550
H 8.2729843627 -0.3564036800 -0.0313290891
H 8.5447050813 -0.6803892868 -1.7720767630
H 3.7486114323 -3.8738017524 -1.7825259453
H 3.8727721437 -2.1513795830 -2.2523190641
H 5.3045467255 -3.2280631546 -2.3944636349
