40
CONF51
C 2.9241387528 -0.5838286479 -1.5462456978
C 2.2803160218 0.7461107524 -1.2385923579
O 2.2021246441 0.8681030095 0.2185168310
P 1.0245523613 1.6475727698 0.9688267346
S 0.0393154648 2.9658531018 -0.0524609770
O 1.7363997487 2.1211607890 2.3170804622
C 2.6139915377 3.2924695158 2.2913769534
C 2.0498358757 4.3467692858 3.2134057943
O 0.1321749178 0.4902784830 1.7374314157
C -0.6517919481 -0.3920623154 1.0557734213
C -1.5823946927 -1.1230901615 1.7886435473
C -2.3528745296 -2.0209671635 1.0645077685
N -2.2026796925 -2.1645847255 -0.2693904798
C -1.2808356840 -1.4139409788 -0.8656849950
N -0.4820044417 -0.5232162150 -0.2454544942
C -1.1141425396 -1.4981916078 -2.3645725942
C -1.6592131627 -2.7904351334 -2.9639816451
C -1.7745709927 -0.2621715965 -3.0008274389
C -3.3964858569 -2.8719798736 1.7160102478
H 3.0281927075 -0.6914294626 -2.6305872109
H 2.3032576329 -1.4027962192 -1.1722078538
H 3.9170899158 -0.6559957585 -1.0941116463
H 1.2741049630 0.8118784533 -1.6580070118
H 2.8798157353 1.5879421811 -1.5988922139
H 3.5931524485 2.9356037491 2.6230398544
H 2.7036678110 3.6682686984 1.2662051756
H 2.7309754067 5.2030137293 3.2476488418
H 1.9359219196 3.9524826484 4.2268330324
H 1.0757223952 4.6884663055 2.8534908033
H -1.6903174680 -0.9868528824 2.8573694557
H -0.0348003302 -1.4352239006 -2.5562032417
H -2.7421511691 -2.8570365950 -2.8302692975
H -1.2091133434 -3.6698683589 -2.4946103425
H -1.4407366278 -2.8187795176 -4.0359667977
H -1.3644422573 0.6626907357 -2.5847756477
H -1.6091539077 -0.2637121980 -4.0826183172
H -2.8546145788 -0.2757542851 -2.8183750651
H -3.4389336055 -2.7043032806 2.7936448435
H -4.3762668982 -2.6538494095 1.2789984818
H -3.1872277505 -3.9285939052 1.5217366814
