52
CONF92
C -0.4113511788 -2.3670206449 -1.5679519152
C -0.9576681519 -2.0113958814 -0.2157912519
C -1.9325308721 -1.1121097203 0.0033290533
C -2.6888835632 -0.3992021796 -1.0405910029
C -2.6441658628 1.1537442578 -1.2008904375
C -3.9066141031 0.4260854533 -0.7516997144
C -4.4245485601 0.5819352970 0.6595816393
C -5.0101136249 0.3919350423 -1.7897481915
C -1.7901646993 1.9394664541 -0.3057447437
O -1.6125249157 1.7831291136 0.8872314922
O -1.1451717199 2.9086773807 -1.0258579523
C -0.1940414656 3.7131744308 -0.3062127451
C 1.1616311861 3.0593170512 -0.1966051408
C 1.3771413497 1.7323091061 -0.5615300806
C 2.6444945348 1.1825097157 -0.4175723620
C 3.7141785076 1.9220729202 0.0700855462
C 3.4917695943 3.2481138289 0.4320063290
C 2.2271668749 3.8136663391 0.3023423038
O 2.8302876121 -0.1295443340 -0.8388726290
C 3.0873972319 -1.0939978092 0.1136411264
C 2.9321029042 -0.8825664919 1.4828380454
C 3.1813276758 -1.9357221593 2.3612059588
C 3.5736505360 -3.1845035032 1.8878106661
C 3.7186773716 -3.3797817412 0.5141725896
C 3.4804273527 -2.3398809420 -0.3764378723
C -0.3261294966 -2.7580644019 0.9242186859
H -0.5940622445 -3.4263330989 -1.7901065102
H -0.8270800947 -1.7650961090 -2.3774343463
H 0.6782408337 -2.2349406273 -1.5699900609
H -2.2156908652 -0.9197880243 1.0342558012
H -2.6948332498 -0.8798855441 -2.0147990322
H -2.6404092333 1.5014410883 -2.2282888588
H -3.6296065558 0.6540003277 1.3999452876
H -5.0629139254 -0.2737097886 0.9068720663
H -5.0353629834 1.4886571951 0.7292232839
H -5.5966979019 1.3168128828 -1.7574469275
H -4.6077751270 0.2726511851 -2.7998544047
H -5.6851429973 -0.4471414187 -1.5871699345
H -0.1189014986 4.6429488327 -0.8765684394
H -0.5842617002 3.9420934543 0.6912910082
H 0.5809810692 1.1101737641 -0.9560361696
H 4.6935182361 1.4649458164 0.1657024502
H 4.3142090444 3.8454983088 0.8124990493
H 2.0657273084 4.8500342304 0.5859180904
H 2.6133340162 0.0823343905 1.8598604694
H 3.0560500241 -1.7721447414 3.4272005440
H 3.7623768942 -3.9982934046 2.5799132686
H 4.0224493160 -4.3487576181 0.1301886426
H 3.5891462126 -2.4781885459 -1.4472112507
H -0.7274821393 -2.4426184132 1.8910505166
H 0.7604023806 -2.6092651777 0.9300655896
H -0.4925574315 -3.8377747421 0.8132269755
