27
CONF67
C -2.9720646765 -0.0941964095 -0.2142669631
C -4.0961416237 0.1251247026 0.8059776569
O -5.3723364820 -0.0280520210 0.1931064163
C -1.6053120196 0.0682763768 0.4109327698
C -0.4423076826 -0.0499080954 -0.6209187854
C 0.9905126063 -0.1853425883 0.0018649436
C 2.1411535436 0.1644249313 -0.9968731668
C 3.5875566668 -0.3139065449 -0.6053567688
C 4.1460190461 0.1175763261 0.7851298190
F 5.4457995666 -0.2024621888 0.8423543127
F 3.5076769949 -0.5202207872 1.7739619233
F 4.0182617153 1.4392164194 0.9582166855
F 4.4144638927 0.2052200234 -1.5447313468
F 3.6456298398 -1.6606599942 -0.6762709106
F 1.8711492623 -0.4214251113 -2.1896165701
F 2.1810909696 1.5031163743 -1.1660481140
F 1.0987132645 0.6473411155 1.0635106476
F 1.1513273635 -1.4606445839 0.4228905470
F -0.6684051698 -1.1471174019 -1.3885546880
F -0.4813406607 1.0467403440 -1.4199314338
F -1.4018698234 -0.8871962474 1.3745748965
F -1.5046327183 1.2880527628 1.0193171229
H -3.0341010404 -1.1019951464 -0.6365535157
H -3.0745300593 0.6238245933 -1.0340109134
H -3.9746085860 -0.5544999327 1.6603792343
H -4.0651214127 1.1498749210 1.1835856255
H -5.5065831738 -0.9617854452 -0.0026693134
