44
CONF4
C -6.7435814764 -0.9570846092 0.1210880362
N -5.5159570115 -0.2552603303 0.4775678226
C -4.4575980048 -1.2013544186 0.8293218149
C -3.2001258004 -0.4551375723 1.2449733117
N -2.7772121711 0.4428344938 0.1629136952
C -3.8268847771 1.3883581778 -0.2157249693
C -5.0683128537 0.6014112643 -0.6194663883
C -1.4387716403 0.7627752887 0.0372422196
C -0.9137296288 2.0734356197 0.0744765070
C 0.4103091562 2.3477033119 -0.1248462314
C 1.3239239238 1.3047930687 -0.3101984586
C 0.8779388147 -0.0402070775 -0.3078175451
C -0.5030522416 -0.2548087909 -0.1962917646
F -1.0158283172 -1.4962066804 -0.3577186674
N 1.8215355080 -1.0653447868 -0.4713898374
C 3.1234294041 -0.7424627434 -0.6650949346
C 3.6153817690 0.5286747695 -0.7141806751
C 2.7320527432 1.6460670010 -0.5083918206
O 3.1230982452 2.8331110092 -0.5092889506
C 5.0824530001 0.6873713113 -0.9569356716
O 5.5180486824 1.9486384238 -0.9675487971
O 5.8177177019 -0.2628933071 -1.1266199707
C 1.5455189232 -2.4875653999 -0.1827811863
C 1.5861322683 -2.7906410172 1.3026652593
F 0.5406847453 -2.1431479658 1.9649224378
F -1.7566274084 3.0943221004 0.3390211814
H -7.5320586664 -0.2312347935 -0.1036624868
H -6.6206733273 -1.6173647351 -0.7596763436
H -7.0764206316 -1.5708123516 0.9646565837
H -4.8009745915 -1.8205833179 1.6668918164
H -4.2117818878 -1.8758507952 -0.0168507668
H -2.4020839678 -1.1634741588 1.4751620035
H -3.4086674848 0.1355197740 2.1532195463
H -4.0825985623 2.0677711142 0.6119218545
H -3.4854611746 1.9864269240 -1.0643224490
H -5.8696034470 1.3097661602 -0.8626139576
H -4.8462785858 0.0121568607 -1.5332251258
H 0.7813697985 3.3657144186 -0.0992415437
H 3.8163764210 -1.5701158336 -0.7863328053
H 0.5978132718 -2.7938058494 -0.6174622476
H 2.3366204053 -3.0707564222 -0.6644454178
H 2.5265377946 -2.4455050290 1.7494882952
H 1.4737901542 -3.8701434682 1.4616442504
H 4.7295726219 2.5434166074 -0.8014670120
