47
CONF88
C -4.8035000836 0.0517886549 0.1602669301
C -3.6515469625 -0.6748143639 -0.4967877505
C -3.8119450311 -2.1257693537 -0.8251166892
C -2.9742803387 -1.7336457382 0.3870048625
C -1.5222705373 -1.9549578873 0.3203626840
O -0.8578930955 -2.1177218401 -0.6794694492
O -0.9906614003 -1.9444852720 1.5822202106
C 0.4591239957 -2.0732500814 1.6323357745
C 0.7597065709 -2.7658397955 2.8823198021
N 1.0265351286 -3.3038309207 3.8682919797
C 1.1151790063 -0.7132317844 1.5513516494
C 1.6406241606 -0.2903595705 0.3333817782
C 2.2043348183 0.9782957896 0.2388098692
C 2.2390818878 1.8285548188 1.3424142453
C 1.7136627719 1.3888113619 2.5527069185
C 1.1539398121 0.1220746958 2.6676348207
O 2.6496661544 1.3602330874 -1.0064802457
C 3.7530472214 2.1916423235 -1.1030855570
C 3.7031598130 3.1972473893 -2.0612947442
C 4.8168816202 4.0087570017 -2.2523315275
C 5.9649552066 3.8219006866 -1.4880284149
C 5.9992882639 2.8081809022 -0.5335458496
C 4.8973541632 1.9832305789 -0.3371401497
C -5.0914118553 -2.8398118253 -0.6282748979
C -5.1679427127 -4.1159969376 -0.2517067318
Cl -6.6790866705 -4.9541708525 -0.0644870212
Cl -3.7630182064 -5.0738720731 0.0926443152
C -2.8134215144 0.1897632966 -1.4093044265
H -5.3613496090 -0.5950243407 0.8428372006
H -5.4974709997 0.4276435704 -0.6004000230
H -4.4325999453 0.9100029964 0.7293827381
H -3.1950872935 -2.4845577373 -1.6490344143
H -3.4165410918 -1.8749783275 1.3670641192
H 0.7836869472 -2.6977526185 0.7921466734
H 1.6033809083 -0.9256279543 -0.5444669175
H 2.6751459871 2.8172012730 1.2519175887
H 1.7422859249 2.0465056338 3.4152084290
H 0.7562441699 -0.2207828027 3.6172116841
H 2.7987666053 3.3259709904 -2.6455805109
H 4.7826858273 4.7939266331 -3.0006343201
H 6.8299254135 4.4588769797 -1.6373457043
H 6.8947753016 2.6484191654 0.0583682923
H 4.9209149364 1.1849118004 0.3968398068
H -6.0257953744 -2.3220185349 -0.8254858625
H -2.0056578922 -0.3736808273 -1.8780066599
H -2.3745521877 1.0233564376 -0.8502688252
H -3.4483183330 0.6088860761 -2.1973989686
