46
CONF4
C 1.6211172808 -0.6732190688 0.8089553322
C 2.2172996734 -0.6136199376 2.2129736642
C 3.6876429914 -1.0259308343 2.1678399962
C 4.4932200129 -0.0283406658 1.3361058360
C 3.8329580537 0.3128246483 0.0197282684
C 2.4798318410 0.0395547175 -0.2037353889
C 1.8798661229 0.4062145759 -1.4157652362
C 2.6261697534 1.0293560326 -2.4140165788
C 3.9710319867 1.2986790280 -2.1967132706
C 4.5632232675 0.9469136855 -0.9887400643
C 0.4348814524 0.1381601168 -1.6799579186
O -0.0344874106 0.2131524885 -2.8154033036
N -0.3418580518 -0.1855315760 -0.5940291594
C 0.2078260912 -0.1067326803 0.7594852311
C -1.7848691970 -0.3210272086 -0.8622171704
C -2.4792388212 1.0328966893 -1.2048705570
N -3.8842647215 1.0352620408 -0.7658698918
C -3.9300228371 1.1013821301 0.7019667004
C -3.0195800186 0.0182490369 1.3450997365
C -2.6207250360 -0.9844460474 0.2442960921
C -3.9224834223 -1.4442729265 -0.4397965882
C -4.5194572685 -0.2215773443 -1.1971552023
H 1.5559821301 -1.7314888742 0.5063992396
H 1.6484468354 -1.2649100973 2.8868530560
H 2.1362175278 0.4103009603 2.6047865625
H 4.1037440140 -1.0901662126 3.1787210236
H 3.7669589362 -2.0273468960 1.7246716509
H 4.6191544450 0.8997067572 1.9123219772
H 5.5036994286 -0.4102657490 1.1509317993
H 2.1330186007 1.2887409746 -3.3440693708
H 4.5605145190 1.7840069323 -2.9679517145
H 5.6148152067 1.1656795305 -0.8195689113
H 0.2159202975 0.9347286211 1.1260612187
H -0.4234864953 -0.6903485460 1.4326807464
H -1.8400013428 -0.9606645464 -1.7508005161
H -2.4269901775 1.2146314144 -2.2816483745
H -1.9577910062 1.8581856630 -0.7026086512
H -3.6216240095 2.1055851178 1.0150502082
H -4.9746940089 0.9731682018 1.0090745000
H -3.5452856758 -0.5135256202 2.1463546952
H -2.1422131184 0.4854989033 1.8000242437
H -2.0970062729 -1.8503442018 0.6644185555
H -3.7249049516 -2.2728487574 -1.1286093965
H -4.6175382029 -1.8129761334 0.3238158597
H -4.3654932967 -0.3184830849 -2.2779640799
H -5.5995249401 -0.1448110723 -1.0271246419
