47
CONF109
C 1.7297790539 2.0065894326 2.9600055142
C 0.5748108840 1.8971864163 1.9902033691
C -0.3433917620 3.0767763165 1.7658160407
C 0.7038799313 2.7278645539 0.7094350371
C 0.2490614313 2.1801942305 -0.5754235767
O -0.8480152631 1.7368328909 -0.8394674920
O 1.2776550232 2.2009482092 -1.4812213187
C 0.9922409210 1.5109600626 -2.7308010256
C 1.9374684949 2.0574894204 -3.7023640676
N 2.6793264260 2.4625831996 -4.4886936871
C 1.1498030558 0.0178563771 -2.5596214393
C 0.0213890497 -0.7977039320 -2.6121383214
C 0.1439425444 -2.1564920874 -2.3636511779
C 1.4005200107 -2.6828561183 -2.0703740082
C 2.5314566802 -1.8874533901 -2.0205141464
C 2.4011606692 -0.5258252404 -2.2671891253
F 1.5005053851 -4.0038188018 -1.8238436371
O -0.9554555678 -2.9806445617 -2.4515883192
C -1.4937424297 -3.4622281441 -1.2648979176
C -1.1608719962 -2.9424980190 -0.0172153898
C -1.7769192426 -3.4703984266 1.1166245126
C -2.7110059084 -4.4965451152 1.0072843018
C -3.0327157834 -4.9998956840 -0.2534507789
C -2.4265480912 -4.4881658712 -1.3952084853
C -0.2005302731 4.3347117695 2.5018501103
C -1.2091709659 5.0974762339 2.9241080162
Cl -2.8923373377 4.7248023614 2.6688187464
Cl -0.9476145693 6.5849869228 3.7994472739
C -0.0429384922 0.5188353478 1.9352370646
H 1.3729151531 1.8419193257 3.9827175107
H 2.2272591264 2.9773878778 2.9173452008
H 2.4729078513 1.2357126340 2.7317777953
H -1.3542536656 2.8026281449 1.4801450523
H 1.5896405046 3.3518137556 0.6564797432
H -0.0237239604 1.7529773197 -3.0628230268
H -0.9606022506 -0.3877260959 -2.8226239975
H 3.4924737370 -2.3355971996 -1.7932356681
H 3.2790852694 0.1112356077 -2.2239907381
H -0.4405681618 -2.1369864740 0.0758483972
H -1.5202711400 -3.0664021942 2.0911988835
H -3.1858596281 -4.9010163774 1.8948534124
H -3.7595851934 -5.8001613051 -0.3518373890
H -2.6649824911 -4.8708647341 -2.3820845274
H 0.7997865080 4.6915132834 2.7273538875
H -0.3716162217 0.2332879769 2.9400993955
H 0.6993215050 -0.2154609017 1.6012377226
H -0.9036685237 0.4741711036 1.2660023700
