27
CONF380
C 3.1428633308 -0.1354293364 -0.0465044770
C 3.8634939892 -0.0041013905 1.2949605524
C 5.3424567017 -0.3605367211 1.2182481380
O 5.5746023205 -1.7477001074 0.9168326324
C 1.6715995609 0.2680754362 0.0875350457
C 0.9302478662 0.1642010099 -1.2211087371
C -0.5870156442 0.5479530663 -1.1974897223
C -1.5515145266 -0.5433721076 -0.6284157383
C -2.9668989000 -0.0101353805 -0.2306135145
F -3.5026615770 0.7030510908 -1.2308239831
F -2.9028832081 0.7534793091 0.8665015443
F -3.7648291545 -1.0567629868 0.0280399783
F -1.0159863795 -1.1107856305 0.4798070677
F -1.7284598403 -1.5025766723 -1.5642831932
F -0.9951421758 0.8126852498 -2.4644256581
F -0.7316886543 1.6844920344 -0.4639961226
F 1.0037011729 -1.1044826179 -1.7468986097
F 1.5015799581 1.0016337114 -2.1485080356
H 3.6382463113 0.4992018149 -0.7905260820
H 3.2015430308 -1.1699009599 -0.4029104548
H 3.7837764444 1.0310809096 1.6531952856
H 3.3783956024 -0.6427819625 2.0444777050
H 5.8134794898 -0.1869486396 2.1909358519
H 5.8481287995 0.2789670496 0.4795981035
H 5.3710440301 -1.8892152897 -0.0151852122
H 1.5894488660 1.3049150981 0.4294291395
H 1.1741528156 -0.3637694318 0.8277364303
