65
CONF461
C 0.8592050324 3.5783034798 3.6567381255
C -0.0376482084 3.5007328264 2.4242066896
C 0.6618890853 2.8661410233 1.2129755989
C -0.2448408257 2.8556390915 -0.0241302931
C 1.1477234157 1.4652357113 1.5269525387
O 2.3163691739 1.1236283939 1.5145473825
O 0.1258418193 0.6307901942 1.7977901029
C 0.4436436795 -0.7942185705 1.9559193597
C 0.6426450173 -1.1386854947 3.4232650153
C -0.6182362342 -0.9866456750 4.2913808886
C -1.8577632221 -1.3529991408 3.5367161026
C -1.9205714613 -1.6156308565 2.2181039632
C -0.6961172464 -1.5912966483 1.3258033338
C -1.0696572073 -1.1288136279 -0.1000813152
C -2.1568654369 -2.0517189243 -0.6960503281
C -3.2941431448 -2.2140388753 0.2704770708
C -3.1761843356 -1.9881061321 1.5884367275
C -1.6426685882 -3.4296527895 -1.1502052519
C 0.1525689016 -0.9803415912 -1.0112420398
C -0.1979915708 -0.4608366782 -2.4064416260
C 1.0179695343 -0.0636467634 -3.2213755583
C 0.6708834296 0.5573467745 -4.5580127913
C 1.9246587131 0.7361293431 -5.4047739216
C 2.5540367487 -0.6233215108 -5.6394086310
C 2.6461362330 -1.5072380120 -4.4186599857
O 3.3875946201 -2.4701384874 -4.3725735059
O 1.8305574949 -1.2851360117 -3.3727745630
O 2.9114960927 1.5346660035 -4.7314612542
C -0.7635891588 0.4095008311 4.9211311587
H 1.7481208130 4.1855844268 3.4551907879
H 0.3265856627 4.0246718900 4.5019342690
H 1.1970612741 2.5831498455 3.9664975411
H -0.9488503500 2.9327133715 2.6472536810
H -0.3582504948 4.5076823354 2.1312434237
H 1.5687044049 3.4400221847 0.9920961420
H -0.4849865742 3.8838497135 -0.3110827605
H 0.2448337188 2.3675221419 -0.8733737635
H -1.1792475718 2.3267785082 0.1848824115
H 1.3751722434 -0.9797487580 1.4171843744
H 0.9717191220 -2.1849516160 3.4443706455
H 1.4632949072 -0.5385897805 3.8315531506
H -0.5223604630 -1.6935521213 5.1291321941
H -2.7803688980 -1.3945093866 4.1166994673
H -0.3169482167 -2.6228304263 1.2518363299
H -1.5313501835 -0.1361637824 -0.0026563432
H -2.5615362095 -1.5520665589 -1.5873041082
H -4.2492281934 -2.5396521048 -0.1377935241
H -4.0405589610 -2.1026940721 2.2405156729
H -1.1828497801 -3.9751436199 -0.3198890053
H -2.4751605820 -4.0348332025 -1.5232560889
H -0.9061772093 -3.3399081153 -1.9545932781
H 0.8533480499 -0.2665256997 -0.5631494724
H 0.6889199627 -1.9339783299 -1.0839989702
H -0.7744583659 -1.1974999341 -2.9785332566
H -0.8273928237 0.4344407940 -2.3105195569
H 1.6455418919 0.6270410432 -2.6444609952
H -0.0463537167 -0.0728265876 -5.0989814639
H 0.1906178136 1.5245668332 -4.3710266823
H 1.6694295286 1.1928553333 -6.3708892862
H 1.9487131160 -1.1813455834 -6.3650720623
H 3.5569071888 -0.5320206593 -6.0642466331
H 2.5220034198 2.4002582123 -4.5521549750
H -0.8655242426 1.1755568656 4.1490177926
H 0.1132723946 0.6469827039 5.5327811114
H -1.6495843177 0.4495169457 5.5635405343
