41
CONF8
C -3.0099081769 2.7357600153 -0.2465830247
C -4.2557935227 2.2588460779 0.4706185572
O -3.9409769832 1.1373809391 1.3489635414
C -3.8851410541 -0.0734408763 0.7537768887
O -4.1012888519 -0.2886872126 -0.4117713170
C -3.5594600141 -1.1507020445 1.7921607079
C -4.8546666145 -1.7442800010 2.3247429770
O -2.8341685667 -2.2160807999 1.1917210735
C -1.5808710256 -1.9468436685 0.7157961336
C -0.9399756978 -3.0137415996 0.0789824086
C 0.3331364883 -2.8512459639 -0.4317481129
C 0.9724538282 -1.6196133325 -0.3112014518
C 0.3574032181 -0.5496796320 0.3167458732
C -0.9291638811 -0.7209024475 0.8325811007
O 2.2570313201 -1.6118749829 -0.8748753988
C 3.0403170561 -0.5548883899 -0.9405706025
N 2.8923763496 0.6691083371 -0.5459461182
C 4.0923953398 1.2767209126 -0.9214372898
C 4.5455558786 2.5813147161 -0.7762970169
C 5.8147295942 2.8860910878 -1.2645897460
C 6.5968090542 1.9040591604 -1.8779110609
C 6.1698455426 0.5853183974 -2.0385079450
C 4.9112769579 0.3279504308 -1.5422915140
O 4.2297053895 -0.8682220792 -1.5571073898
Cl 8.1872313579 2.3422491915 -2.4746636879
H -2.6192857214 1.9544327796 -0.9029867415
H -2.2353697198 3.0216774452 0.4707915237
H -3.2511294090 3.6104839119 -0.8585191573
H -5.0302848576 1.9444506532 -0.2343721950
H -4.6555634735 3.0213398860 1.1428616631
H -2.9791891513 -0.7037761647 2.6109285070
H -4.6271188798 -2.5259852232 3.0532384205
H -5.4508571891 -0.9675436540 2.8103017718
H -5.4280143216 -2.1779462673 1.5015414803
H -1.4600697206 -3.9606887137 -0.0091096990
H 0.8434979404 -3.6675258740 -0.9302192423
H 0.8567577359 0.4037831286 0.4052261409
H -1.3974136978 0.1273766672 1.3175267905
H 3.9338666940 3.3385291693 -0.2997986488
H 6.2075256677 3.8914263185 -1.1724029107
H 6.7837954079 -0.1674711065 -2.5155951085
