20
CONF3
C 2.7900216462 0.5970489583 0.0276189804
C 3.9323757740 0.6021846869 -0.9610569408
O 3.9213451732 0.1165740263 -2.0666015270
O 4.9846081663 1.2414233453 -0.4184079608
O 1.7025564366 -0.0954025935 -0.5827980136
C 0.5737791888 -0.2149522354 0.1429786290
N 0.5172391844 0.3095812162 1.3653597395
C -0.6073638517 0.1651249793 2.0305845034
C -1.7331647432 -0.4818721500 1.5717710486
C -1.7026917491 -1.0508356294 0.2734704747
C -0.4951499018 -0.8945167201 -0.4365899291
Cl -0.3506010860 -1.5600810398 -2.0442861930
N -2.7623527300 -1.6978427116 -0.2398778840
Cl -3.1684877658 -0.6051572467 2.5533501408
F -0.6269466590 0.7067342514 3.2607242316
H 2.5183055459 1.6303857841 0.2735468853
H 3.1109449732 0.1006709110 0.9509640892
H 5.7123464549 1.2381693627 -1.0638509714
H -2.7245790457 -2.0910921977 -1.1649748291
H -3.6123577477 -1.7903024224 0.2899844622
