61
CONF714
C -3.4277060447 4.5524193454 0.9807135447
C -2.7855572543 3.1775540890 0.8076634947
C -3.3130978187 2.4377002100 -0.4222779745
C -2.6648750007 1.0743701282 -0.6302373442
C -2.9937565578 0.0412582921 0.4606614164
C -2.7893024046 -1.3337982889 -0.2366943727
N -2.6335055120 -1.0251415442 -1.6663303766
C -3.1251863206 0.3396005633 -1.8846776914
C -3.2061034157 -2.0300064003 -2.5536406560
C -1.5603265444 -2.0182118161 0.3483332295
O -1.6082891589 -2.5563720202 1.4736282989
N -0.4500506109 -1.9099334087 -0.3842973954
C 0.8701684733 -2.3287707379 0.0398794661
C 1.6697639463 -1.1797489209 0.7080213027
C 1.5774093467 -1.1656439360 2.2341231678
C 2.3717085281 0.0279103092 2.7928599086
C 1.9504036914 1.3270993916 2.0961136967
C 1.9504080837 1.1925334110 0.5653706086
O 1.2079546380 0.0576797750 0.1475930924
S 3.6558581698 1.2686851359 -0.1710456198
C 3.1797938603 1.8990387878 -1.8264989602
O 0.6433783709 1.7167939931 2.5238452830
O 3.7706493460 -0.1329121598 2.5710389586
O 0.2475947028 -1.0178900543 2.7343316808
C 1.6513010279 -2.9497028174 -1.1377917336
C 1.9358549618 -1.9897582184 -2.2780802780
O 0.9338973206 -4.0595233989 -1.6923563724
H -4.5138103251 4.4636474195 1.0952168513
H -3.0373222163 5.0685368567 1.8634739107
H -3.2350825556 5.1853338467 0.1072048752
H -1.6960361529 3.2853202830 0.7198593115
H -2.9658472599 2.5724874056 1.7054149090
H -3.1400790299 3.0569534614 -1.3134729148
H -4.4015561234 2.3088189449 -0.3342986763
H -1.5738396455 1.2009818150 -0.6879968348
H -4.0424821657 0.1469010083 0.7596273020
H -2.7082894012 0.7539135672 -2.8100741641
H -4.2303900024 0.3746432257 -1.9573243806
H -4.2997141844 -2.1278540082 -2.4285054516
H -2.7474652243 -3.0054429926 -2.3568789233
H -2.9994915988 -1.7620147795 -3.5949694627
H -2.3774156689 0.1449655557 1.3575645170
H 0.7347193924 -3.1211262475 0.7878870455
H 2.7350310868 -1.3109247803 0.4616294925
H 2.0320127469 -2.0992776216 2.6063784401
H 2.1489539556 0.1247736599 3.8652899408
H 2.6357591581 2.1305463119 2.3846099712
H 1.4128162128 2.0529403905 0.1545298269
H 2.4552810321 1.2301687650 -2.2973413768
H 2.7656633636 2.9075480237 -1.7494313708
H 4.0881077241 1.9246763910 -2.4331913715
H 0.1007206511 0.9073131709 2.5237552046
H 4.0583422226 -0.9338435439 3.0288316197
H -0.3435994641 -1.7030653969 2.3458944304
H 2.6072448891 -3.2975731273 -0.7168369285
H 2.4981298795 -1.1253618452 -1.9171533939
H 2.5316532930 -2.4976250118 -3.0412733707
H 1.0117860531 -1.6376529660 -2.7489662912
H -3.6471892325 -1.9949256920 -0.0380947741
H -0.5759969938 -1.3924157124 -1.2499673737
H 0.8223904383 -4.7239222869 -0.9997316899
