44
CONF37
C -5.3818467050 1.1803409111 3.3198519149
C -4.0229765845 0.6855806577 2.8750176960
C -3.8775311569 -0.8517566829 2.8389093388
O -3.9040084503 -1.1739283435 1.4376138736
C -3.3080944544 -0.0563693158 0.8045023983
O -3.8235410456 1.0699909494 1.4873219895
C -3.8211675689 -0.0330251471 -0.6466309052
N -3.0821826321 0.9028054792 -1.4712144683
C -2.0403447390 0.6454077804 -2.2891081056
N -1.5393868935 1.7773898202 -2.7660504069
C -2.3298296966 2.7217915836 -2.1810361959
N -3.2750591358 2.2421208585 -1.3825544257
C -1.7768036389 -0.0803845828 0.8837580245
C -0.9856787287 -1.1736188576 0.5155003610
C 0.4025206895 -1.1318438165 0.5409428695
C 1.0304190876 0.0474453543 0.9315118535
C 0.2837573505 1.1583005324 1.3066192377
C -1.1000541108 1.0788495508 1.2769045473
O 2.3990020714 0.1510467355 1.0258701828
C 3.1905685430 -0.5794461301 0.1529516083
C 2.9585451164 -0.5629870510 -1.2199401130
C 3.8215914356 -1.2499652189 -2.0656225403
C 4.9046768350 -1.9310693552 -1.5200436520
C 5.1466647326 -1.9406939733 -0.1520140421
C 4.2753122525 -1.2595112284 0.6923765715
Cl 5.9979798207 -2.7998557153 -2.5915070704
Cl -1.6956122578 -2.6927788319 -0.0303218050
H -5.4569944443 2.2636496278 3.1906012802
H -6.1713718912 0.6959449110 2.7366436297
H -5.5311517849 0.9487380338 4.3790618670
H -3.2263071185 1.1329621323 3.4829278615
H -2.9292827896 -1.1785818673 3.2840878061
H -4.7118483334 -1.3705893781 3.3153006112
H -3.7058264505 -1.0273683882 -1.0823320660
H -4.8785298663 0.2414056590 -0.6356273179
H -1.7014009708 -0.3598120324 -2.5058282025
H -2.2137430407 3.7850157894 -2.3496443465
H 0.9818851365 -2.0030642647 0.2597615971
H 0.7876810873 2.0696636989 1.6083082267
H -1.6897149287 1.9460411209 1.5496811303
H 2.1140569926 -0.0174374541 -1.6280186945
H 3.6557191754 -1.2450283732 -3.1368225331
H 5.9970733055 -2.4756949618 0.2547478945
H 4.4361816217 -1.2524411783 1.7649275733
