59
CONF317
C 7.5702162669 -2.5552082902 -0.3136815033
C 6.5263836618 -2.6042058697 -1.4664681832
C 5.7569799265 -1.2696556866 -1.3890024566
C 5.9150351701 -0.8068889343 0.0739551444
C 7.3773668823 -1.1818462546 0.3567339729
C 4.9610469281 -1.5645221970 0.9991547751
C 3.5122481014 -1.1930755357 0.8174621032
O 2.6047811796 -1.9661100976 1.0907410713
N 3.2266584464 0.0904504161 0.3422660965
C 4.1962289625 1.0654450797 0.0884235197
O 3.8648328897 2.1915143620 -0.2543795758
C 5.6390898774 0.6767919602 0.2749720018
C 1.8095426981 0.4675125343 0.1841447241
C 1.2423087606 1.0576991069 1.4745394177
C -0.2014343304 1.5411031663 1.3151263795
C -1.1708043793 0.4059836877 0.9831034602
N -2.5791831795 0.7662051913 1.1966780857
C -3.4263082093 -0.4214598275 1.0255862806
C -4.8925825987 -0.0809372631 1.2728222269
N -5.3170432601 0.9831412265 0.3626241290
C -4.4790876209 2.1733427268 0.5068889908
C -3.0131012041 1.8202319327 0.2701722544
C -5.9782415519 0.7083653655 -0.8019115325
N -6.5035305008 -0.5331048674 -0.9454535306
C -7.1983586491 -0.7573175484 -2.0586280222
C -7.3890154224 0.2035690638 -3.0449471163
C -6.7978923267 1.4386942448 -2.8045870806
N -6.0946326304 1.7106831381 -1.7075364125
H 8.5934237455 -2.6818964602 -0.6772496067
H 7.3848826942 -3.3611111718 0.4032464826
H 6.9990102506 -2.7307578429 -2.4441222674
H 5.8458044319 -3.4503966384 -1.3313747975
H 4.7108150572 -1.3634965510 -1.7004468083
H 6.2278628077 -0.5213133457 -2.0377216615
H 7.6094576312 -1.1840724695 1.4270301827
H 8.0206968600 -0.4337066928 -0.1232074886
H 5.0252467215 -2.6486070306 0.8741518598
H 5.2133997232 -1.3473476033 2.0474967215
H 5.9121276088 0.9704720970 1.2997461465
H 6.2292177234 1.2975949637 -0.4055402154
H 1.2705923575 -0.4343121036 -0.1091112127
H 1.7515825746 1.1971330437 -0.6267392253
H 1.2975802044 0.3028854300 2.2686425653
H 1.8724483907 1.9008948606 1.7793042990
H -0.2322311259 2.3149554646 0.5387182730
H -0.5242387376 2.0109659220 2.2519954483
H -0.9511946935 -0.4477681602 1.6389245698
H -1.0114007754 0.0603135036 -0.0576473771
H -3.3257693922 -0.8479866633 0.0064465815
H -3.1066293621 -1.1874947733 1.7419918241
H -5.0172451661 0.2842689837 2.3002992856
H -5.5186889258 -0.9607863813 1.1324845681
H -4.8033015803 2.9421590423 -0.1928008910
H -4.6024986756 2.5493762076 1.5305624024
H -2.8797699207 1.5072679470 -0.7862120820
H -2.4089316291 2.7183790046 0.4324579478
H -7.6189777472 -1.7567385063 -2.1674419970
H -7.9548784263 0.0008947747 -3.9453848243
H -6.8884851170 2.2483581717 -3.5283648973
