45
CONF284
C 7.1984375981 0.8717835328 2.9188773465
C 5.9065942161 0.1880252088 2.4755187429
C 5.9730606548 -0.2966286969 1.0263259381
C 4.7433299741 -1.0835963210 0.5655797747
C 3.4486163604 -0.2696525477 0.5558886694
C 2.2732098734 -1.0326298183 -0.0528147708
C 0.9746757557 -0.2294759255 -0.0518988949
C -0.1952101071 -0.9991315436 -0.6916202041
C -1.4864736729 -0.2234393894 -0.7349533439
C -2.2065403729 -0.0737519112 0.4498941435
N -3.3400545285 0.6700862167 0.3848218299
C -3.7877481464 1.2580886449 -0.7981505115
N -4.9115481802 1.9339977890 -0.5248808508
C -5.0831625445 1.7218168207 0.7950826750
N -4.1718335958 0.9630695541 1.4175465067
N -3.1368048057 1.0966057976 -1.9481955545
C -2.0184054961 0.3684227559 -1.9121674457
C -1.3364016651 0.2096473295 -3.2495381102
C -0.1423196226 1.1549889727 -3.4316077622
N -1.9241563023 -0.6448027419 1.6500200689
H 7.4170286843 1.7405135769 2.2885161378
H 8.0500282173 0.1868982521 2.8449997019
H 7.1353984615 1.2179770288 3.9548694234
H 5.0687108164 0.8847479353 2.5987105113
H 5.6965050089 -0.6676248184 3.1317273544
H 6.8638231744 -0.9277211632 0.9076449769
H 6.1200578412 0.5671827694 0.3627209289
H 4.6129888307 -1.9651004981 1.2088362973
H 4.9256953207 -1.4669917054 -0.4471762699
H 3.6091384921 0.6597124148 -0.0089070393
H 3.1880652345 0.0332623326 1.5781828105
H 2.1238473016 -1.9739410582 0.4953496377
H 2.5195918861 -1.3180845243 -1.0852480203
H 0.7278891091 0.0651196911 0.9775669084
H 1.1197611564 0.7129952943 -0.5931578955
H 0.0962406019 -1.2890277040 -1.7041806741
H -0.3465591005 -1.9451929600 -0.1507006235
H -5.9153417148 2.1356240551 1.3513847622
H -2.0899865002 0.4297706193 -4.0091787894
H 0.2524407402 1.0792582697 -4.4490293402
H -0.9873219428 -0.9651625562 1.8169656406
H -2.4482680847 -0.3030140944 2.4421898654
H -0.4487523848 2.1908219396 -3.2594230058
H -1.0173433442 -0.8280949532 -3.3973360125
H 0.6709213078 0.9214616514 -2.7388500096
