46
CONF65
C -1.1649951645 -1.6061576076 0.4255160507
C -2.0026632020 -1.3760595106 -0.8087573662
C -3.3381499743 -0.6788125367 -0.7157805667
C -2.1468997919 0.0271699931 -1.3950921392
C -1.4829009084 1.1913992653 -0.7854801847
O -1.4616062900 1.5005153192 0.3908622655
O -0.8472545742 1.9064725490 -1.7525921970
C -0.1142621598 3.0718199938 -1.3218257421
C 1.2915844687 2.7515142226 -0.8796769616
C 1.7188136760 1.4485510532 -0.6475626711
C 3.0256880291 1.2241227508 -0.2201721533
C 3.9219552769 2.2672158704 -0.0371789304
C 3.4890675252 3.5693029435 -0.2838907483
C 2.1847602213 3.8134333403 -0.6965852119
O 3.4878562952 -0.0713556280 -0.0362725943
C 2.8065971105 -0.8943340109 0.8426378287
C 2.9046503936 -2.2646996782 0.6107833642
C 2.3023827303 -3.1500294343 1.4992076045
C 1.6015109552 -2.6745239974 2.6063824440
C 1.5109959930 -1.3014024835 2.8222111023
C 2.1124410077 -0.4011907414 1.9464107811
C -3.8792373108 -0.2134462126 0.5619902113
C -5.1772226663 -0.0992355084 0.8441043265
Cl -5.7441210136 0.4251799049 2.4111860818
Cl -6.4665859799 -0.4466232094 -0.2783287004
C -1.8933667887 -2.4881755606 -1.8286775908
H -1.1836548520 -0.7713420115 1.1253319358
H -1.5189484343 -2.5041064537 0.9436492878
H -0.1220332990 -1.7750618007 0.1363692143
H -4.0793425342 -1.0073573606 -1.4375496283
H -2.2027762810 0.0714208243 -2.4773245119
H -0.6625049913 3.5702310683 -0.5153601104
H -0.0947421285 3.7300173258 -2.1940519038
H 1.0584328582 0.6005050662 -0.7947244460
H 4.9341386370 2.0571437420 0.2912953949
H 4.1772614068 4.3976169253 -0.1484570109
H 1.8557370884 4.8316631390 -0.8841724148
H 3.4512821756 -2.6200600163 -0.2566690959
H 2.3772611409 -4.2178980606 1.3182800454
H 1.1281207365 -3.3682563943 3.2932714782
H 0.9693223545 -0.9198963386 3.6824028615
H 2.0447152022 0.6673307730 2.1202113111
H -3.1895996887 0.0544414662 1.3533945805
H -2.5215079393 -2.2967675806 -2.7028786055
H -2.2053412287 -3.4367703150 -1.3781028762
H -0.8548567477 -2.5935050688 -2.1613102010
