42
CONF124
C -3.0479407912 -1.0366344424 1.7733713193
C -2.6180181839 0.2875537125 1.1709150950
O -1.5521981468 0.7971866603 1.9562384828
C -1.1302424973 2.1028474248 1.5763603785
C -0.4244531520 2.1284159851 0.2250533067
O 0.2896134705 3.3608689056 0.1801549551
C 0.8721808557 3.6525070335 -1.0835379766
C 1.9031968696 2.6399247256 -1.5517534803
O 1.2361433054 1.5906119891 -2.2564283173
C 2.0668436323 0.4685399443 -2.5465902090
C 1.8245780370 -0.6780508486 -1.5895073355
O 2.2657256090 -0.2920119402 -0.2899908229
C 2.3071758426 -1.3548517620 0.6587096072
C 0.9553526724 -1.9002097591 1.0787085920
O 0.4807542416 -2.7899852037 0.0615707476
C -0.6837433718 -3.5237843196 0.4103749902
C -1.9556152578 -2.6962706591 0.4561840632
O -2.0325316416 -2.0314811693 1.7114099149
H -3.9680688150 -1.3848355486 1.2748523614
H -3.2629132413 -0.8887167371 2.8369073207
H -3.4768835322 0.9827958655 1.1821474644
H -2.3123902451 0.1549108162 0.1204548922
H -1.9811476133 2.8034175359 1.5854243750
H -0.4163473315 2.4221732551 2.3416985507
H -1.1331457594 2.0749263101 -0.6169618145
H 0.2568801507 1.2680099571 0.1546582094
H 1.3576103131 4.6254128511 -0.9537604853
H 0.0935787318 3.7513929671 -1.8588337824
H 2.6208919071 3.1377072223 -2.2267180343
H 2.4527492623 2.2460320488 -0.6849419656
H 1.8147999066 0.1292327704 -3.5602841425
H 3.1287478108 0.7556033303 -2.5362207416
H 2.3786368784 -1.5684293468 -1.9342745233
H 0.7560833256 -0.9327823175 -1.5798537219
H 2.9298462459 -2.1809538230 0.2762987638
H 2.7967758115 -0.9292751984 1.5412314230
H 1.0726871786 -2.4538730592 2.0260526288
H 0.2487389339 -1.0786701002 1.2604134385
H -0.7894318821 -4.2876841141 -0.3679679036
H -0.5501985535 -4.0313473998 1.3804500908
H -2.8318811306 -3.3572404088 0.3295509228
H -1.9424401478 -1.9829833806 -0.3835146379
