21
CONF9
C -3.2770679617 -0.5064902819 -1.1420077356
C -2.9027237493 -1.0140869355 0.1023924015
C -1.6084393376 -0.8520639470 0.5701642003
C -0.6657785502 -0.1755189027 -0.2099400490
C -1.0276021656 0.3362690744 -1.4571559163
C -2.3355443712 0.1646448804 -1.9105187209
O 0.5830742589 -0.0757181750 0.3349411628
C 1.5641976127 0.6590465737 -0.3808105604
C 2.8323975277 0.7158902424 0.4257455226
C 3.1013613219 -0.1647866231 1.5626283518
O 2.7334068397 1.2126880089 1.7613477267
H -4.2911950647 -0.6337531037 -1.5042315850
H -3.6277873449 -1.5393521177 0.7160403285
H -1.3036655295 -1.2361599937 1.5376151009
H -0.3141222476 0.8618506669 -2.0795304201
H -2.6117915248 0.5652377357 -2.8808613346
H 1.7809487612 0.1793516471 -1.3489553316
H 1.2111550239 1.6841850892 -0.5727295208
H 3.6810470392 1.1104529533 -0.1390414728
H 4.1335265333 -0.4057405660 1.8155393546
H 2.3446035373 -0.8859462202 1.8615582082
