31
CONF18
C -1.8532071101 -0.8239533633 -1.1453882132
C -3.0970171479 -0.2249700044 -1.2919382532
C -3.7901094059 0.1729807409 -0.1546289497
C -3.2756866575 -0.0254344978 1.1208314380
C -2.0361706594 -0.6370102669 1.2557727898
C -1.3057728455 -1.0336596437 0.1273657741
C 0.0110586821 -1.6794127881 0.2771271885
N 1.0998910320 -1.4449602559 -0.3666633485
O 0.9702671815 -0.4649693074 -1.3204258605
C 2.2658696574 -0.0178122761 -1.7602779728
C 2.7434536624 1.1528835137 -0.9164546426
O 1.8137332804 2.2220173899 -1.0361929897
C 1.6462938161 2.7761987066 0.2807066224
C 1.8080016054 1.5518804884 1.1602835410
O 2.8346854564 0.8156209806 0.4678133403
C 0.1775388392 -2.7403600434 1.3482197691
F 1.2317767337 -3.5464714336 1.1388387847
F -0.9242094075 -3.5228187879 1.4269819520
F 0.3469607865 -2.1792753540 2.5782630994
Cl -5.3591702392 0.9404870603 -0.3341572939
H -1.3164132424 -1.1468568077 -2.0286596059
H -3.5206104332 -0.0737145435 -2.2781099755
H -3.8304603748 0.2906032705 1.9966542923
H -1.6360793738 -0.7854188997 2.2524140874
H 2.1358151953 0.3073099730 -2.7965164616
H 2.9847450114 -0.8409250961 -1.7136383911
H 3.7469937738 1.4594687347 -1.2567347101
H 2.4242523835 3.5247504904 0.4852044993
H 0.6563611754 3.2336035637 0.3349706317
H 0.8797161891 0.9656646799 1.2119287978
H 2.1674933458 1.7745539623 2.1673629633
