63
CONF72
C 3.0865498706 1.2485557621 1.4151586630
C 1.9064409145 1.0609973568 2.3635970683
N 0.8913746736 0.1820216137 1.7724439159
C 1.4628475680 -1.1471812432 1.5310446965
C 2.6260881972 -1.0695921284 0.5464695186
C 3.6933040767 -0.1135220142 1.0777592014
N 4.8400232010 -0.0034595921 0.1766662397
C 4.8712908282 0.4736683221 -1.1315278515
C 3.8885302531 0.9745921923 -1.9771688477
C 4.2757643140 1.3729069660 -3.2603346760
C 5.6013390320 1.2753110077 -3.6871260964
C 6.5935860034 0.7732864740 -2.8413674611
C 6.2087297927 0.3788679051 -1.5708161321
N 6.9369560892 -0.1486234264 -0.5207340625
C 6.1204809722 -0.3923846963 0.5678331625
O 6.4539094905 -0.8558972210 1.6568181068
C -0.2862402227 0.1141464492 2.6483248440
C -1.4771920734 -0.6217346651 2.0349088535
C -1.8836529713 -0.0712338503 0.6704294923
C -3.0903963855 -0.8008782301 0.0543323122
C -4.3658498843 -0.7225953360 0.8761064383
C -5.2705851979 -1.7881922711 0.8242937453
C -6.4768994387 -1.7539480102 1.5175349115
C -6.7632308244 -0.6278494031 2.2699977212
C -5.8998033602 0.4494032013 2.3560382078
C -4.6983537718 0.3909211402 1.6523870775
F -7.9359916901 -0.5827534779 2.9587505288
C -3.3241281395 -0.3170196554 -1.3682560799
C -3.8787423335 0.9409159425 -1.6232175044
C -4.0499040183 1.4026171639 -2.9248405427
C -3.6580993324 0.5802463448 -3.9683113699
C -3.1071688103 -0.6717805037 -3.7650025452
C -2.9433702374 -1.1111881056 -2.4522747052
F -3.8255008960 1.0226531999 -5.2446225522
H 3.8437377268 1.8860463004 1.8848195388
H 2.7400655906 1.7505631668 0.5054017759
H 1.4461619682 2.0328041917 2.5751799468
H 2.2724797176 0.6538211330 3.3294885462
H 1.8086174643 -1.6065521950 2.4809239261
H 0.6906925361 -1.8021322179 1.1163540717
H 2.2503450079 -0.7256839879 -0.4231367785
H 3.0580018269 -2.0663995016 0.4048714480
H 4.1063300213 -0.5404168487 2.0000900961
H 2.8539790454 1.0604415582 -1.6698074046
H 3.5230809317 1.7665306648 -3.9355675874
H 5.8683587294 1.5931965353 -4.6895585791
H 7.6267192431 0.6930479025 -3.1624453393
H 7.9268646542 -0.3367897405 -0.5137859801
H -0.5886788787 1.1477228138 2.8630988212
H -0.0318986862 -0.3552219721 3.6201905469
H -1.2723287423 -1.6962614836 1.9490381778
H -2.3114915773 -0.5312658812 2.7406464358
H -2.0866863744 1.0056906343 0.7418048864
H -1.0454319653 -0.1723830463 -0.0275550586
H -2.8236812307 -1.8631447753 -0.0141772899
H -5.0283156620 -2.6637481857 0.2277248566
H -7.1782732248 -2.5806359340 1.4813835266
H -6.1594239640 1.3101466654 2.9629884706
H -4.0156669908 1.2312620883 1.7263919574
H -4.1885738198 1.5730879053 -0.7963946785
H -4.4805036388 2.3768419127 -3.1303505762
H -2.8163831921 -1.2856914492 -4.6107249091
H -2.5101988083 -2.0911159822 -2.2721862050
