65
CONF92
C 3.3334098052 -4.2178711319 6.3732832834
O 3.0934957580 -2.8063931252 6.4316676607
C 3.1946508461 -2.1036488454 5.2638916525
C 2.9649914093 -0.7255989794 5.3610239803
C 3.0473449552 0.0727203897 4.2304827774
C 3.3595301024 -0.4672936233 2.9755367031
C 3.5876574861 -1.8396800285 2.9009346324
C 3.5093778816 -2.6647317098 4.0253113998
C 3.4120994327 0.4113845742 1.7529537210
C 2.0301318261 0.9031269368 1.2997344079
N 1.0752876137 -0.1711071429 1.0057593360
C 1.4788217283 -0.9352601311 -0.1798526380
C 0.4947561576 -2.0677938518 -0.4689640702
C -0.9383688288 -1.5626972815 -0.6384165352
C -1.3048687847 -0.6799771423 0.5620990008
C -0.2608774504 0.4047408878 0.7965467388
N -1.0491756563 -0.8434131818 -1.9191965260
C -2.2690769547 -0.4708437211 -2.3929462895
N -3.4366858831 -0.9719779874 -2.0140870029
C -4.3697985524 -0.3302968615 -2.8151036936
C -5.7572169356 -0.4598309699 -2.8493410942
C -6.4703967548 0.3264630970 -3.7554440189
C -5.8206347832 1.2252171999 -4.6112004480
C -4.4305259183 1.3684382563 -4.5933196686
C -3.7305558329 0.5800080698 -3.6915164492
N -2.3772436050 0.4653081359 -3.4074984967
C -1.2796403953 1.2185336704 -3.9957970164
C -0.6126600095 2.1475101412 -3.0030970715
C -1.3787010127 2.9190389714 -2.1252343606
C -0.7700330021 3.7776105737 -1.2165010938
C 0.6139555900 3.8441469764 -1.2044056248
C 1.4078622780 3.0977104751 -2.0559628623
C 0.7785171281 2.2423952008 -2.9578269696
F 1.2159449171 4.6667863724 -0.3066582714
H 2.6108046244 -4.7137134366 5.7142392078
H 3.2087014391 -4.5823508733 7.3933908029
H 4.3524666339 -4.4301137580 6.0283842086
H 2.7290429131 -0.2984211022 6.3309337164
H 2.8694484008 1.1413663116 4.3244981605
H 3.8347928766 -2.2881359901 1.9419298870
H 3.6961849862 -3.7264921040 3.9186106921
H 4.0101948674 1.3065598330 1.9633622735
H 3.9201665798 -0.1152827521 0.9391531907
H 2.1603756239 1.5676288982 0.4215277792
H 1.5986869736 1.5143814251 2.1025036286
H 2.4686349662 -1.3695309366 -0.0106883345
H 1.5791977770 -0.2659270888 -1.0624354529
H 0.8132876599 -2.6156041137 -1.3622632426
H 0.5074865135 -2.7671031266 0.3747576330
H -1.6239642883 -2.4139444735 -0.6932341736
H -2.2858874617 -0.2204740016 0.4028434786
H -1.3751618185 -1.3176431090 1.4518195070
H -0.2558292769 1.1117312010 -0.0594806066
H -0.5293582303 0.9884344678 1.6848102494
H -0.3008776632 -0.1894953095 -2.1077488623
H -6.2644507096 -1.1534725015 -2.1854559511
H -7.5519152204 0.2413074424 -3.7975616949
H -6.4048862845 1.8242579763 -5.3023559997
H -3.9332677144 2.0684380189 -5.2572989275
H -0.5413379992 0.5259428659 -4.4178234460
H -1.6919783793 1.7906197726 -4.8327958907
H -2.4623495273 2.8453716308 -2.1441713472
H -1.3511666117 4.3783374217 -0.5253101768
H 2.4883804531 3.1737050391 -2.0042772276
H 1.3832029601 1.6368993754 -3.6271752737
