39
CONF8
C -0.6585144194 2.9241973043 0.3714599952
C -0.6181378950 1.8100444155 -0.6367968765
C 0.4771973835 1.0998366380 -0.9465969833
C 1.8321964413 1.1552844469 -0.3062634844
C 2.3085403853 -0.2478558453 0.2181719318
C 1.1501438290 -0.8201959944 0.9938569629
C 0.3919583331 -1.8665932020 0.6663087733
C -0.9670539104 -2.1130214299 1.2824001341
C -1.9721971416 -1.3772680415 0.4072342225
C -2.3015141141 -0.1151718292 0.7083416824
C -2.9609735479 0.8872674270 -0.1969403597
C -1.9511221485 1.4476182627 -1.2464913983
C -2.3622495298 -2.0734186051 -0.8628666908
C 3.5122915529 -0.0256709293 1.1469210144
C 2.7356730911 -1.1317580894 -0.9555701879
H -1.1955888208 3.7872052800 -0.0406000492
H -1.2065894165 2.6181864815 1.2723848838
H 0.3341570393 3.2565369273 0.6793366793
H 0.3528507472 0.3158917997 -1.6946116734
H 1.8314636614 1.8501508676 0.5392698230
H 2.5957572736 1.5102560070 -1.0143640102
H 0.8311156520 -0.2003305996 1.8370525196
H 0.6523853791 -2.4824910340 -0.1927467203
H -1.1959880370 -3.1847616731 1.3268289186
H -0.9941957939 -1.7074700532 2.2990661788
H -1.9056722821 0.2861948052 1.6419690826
H -3.3579312413 1.7147615731 0.4007786394
H -3.8090859741 0.4570904003 -0.7414406219
H -2.4084170027 2.3231902773 -1.7285180516
H -1.7962648108 0.6862077567 -2.0186989343
H -2.7717733899 -3.0678448156 -0.6469211891
H -1.4814761924 -2.2280772233 -1.5006652709
H -3.1002033270 -1.5118641082 -1.4398026978
H 4.3100136568 0.5098643299 0.6194452104
H 3.2244391976 0.5641862460 2.0239257350
H 3.9130532699 -0.9842463915 1.4939693077
H 3.5909887368 -0.6776532609 -1.4668846516
H 3.0371791537 -2.1243662235 -0.6039089337
H 1.9335445287 -1.2639124051 -1.6880330259
