28
CONF3
O -1.3965065679 2.5235332753 -0.4297293200
C -2.4253395711 1.6571926752 -0.8972640530
C -2.1091014203 0.1992278324 -0.6106411735
O -0.8390416129 -0.1079391191 -1.2028233308
C -0.1485725726 -1.0988728421 -0.4286259635
C -0.9853695875 -1.3267324821 0.8413705049
C -1.9662954932 -0.1481208811 0.8766459456
O -3.2018612528 -0.4033451576 1.5211175390
N 1.2132407459 -0.6211976422 -0.1746833744
C 1.4173736543 0.5798485204 0.4619377317
C 2.6414179660 1.0929541096 0.6993921384
C 3.8250495748 0.3756796236 0.2737211740
O 4.9821253707 0.7246948277 0.4256004206
N 3.5248958072 -0.8410814456 -0.3752442621
C 2.2887722113 -1.4000636640 -0.6339960164
O 2.1490288964 -2.4693563576 -1.1984599227
H -0.6266707165 2.3647718552 -0.9897204138
H -3.3416479952 1.9253946736 -0.3605084077
H -2.6019718269 1.7968294936 -1.9732595537
H -2.8982601546 -0.4369538816 -1.0534719644
H -0.0238304953 -2.0102236160 -1.0176318634
H -0.3678217462 -1.4144528395 1.7373883643
H -1.5513538915 -2.2593655578 0.7340936840
H -1.5441487132 0.7099147131 1.4092021114
H -3.6103401334 -1.1740396563 1.1073875149
H 0.5130785179 1.1068969894 0.7487923633
H 2.7676562512 2.0411668569 1.2024320526
H 4.3154953428 -1.3863596790 -0.6930219408
