37
CONF25
C -1.5570789223 1.1000217258 -4.5014451593
C -1.8266668661 0.6757121354 -3.0916991351
C -3.1297255035 0.2288374154 -2.7446745902
C -3.3574072873 -0.1580759506 -1.4515155655
C -4.6592625107 -0.6515800361 -0.9242169615
N -2.3213447342 -0.0929026269 -0.5791005006
C -1.0539771628 0.3523371320 -0.9353329727
N -0.8298600436 0.7376887830 -2.2283593507
N -0.0537323001 0.4131388728 -0.0768913901
N -0.4430281975 0.0182714607 1.1909119550
C 0.4937214625 -0.0583720790 2.0750995655
C 0.1253232902 -0.4336040021 3.4763433637
C 1.9345864804 0.2070740447 1.8058220792
C 2.5157419292 1.3730421157 2.3114434004
C 3.8620923131 1.6520195062 2.0917684003
C 4.6414790460 0.7464597028 1.3778955036
C 4.0701028905 -0.4271078891 0.8908927918
C 2.7180912596 -0.7173004355 1.0907832118
C 2.1195725551 -1.9889409957 0.5590372384
H -2.2263076909 1.9216377548 -4.7795380810
H -0.5209978135 1.4173335577 -4.6224493462
H -1.7691236554 0.2728227084 -5.1877933273
H -3.9238471536 0.1913067677 -3.4791376762
H -5.0010636388 -0.0131664030 -0.1022822166
H -4.5466371397 -1.6665958619 -0.5278884994
H -5.4122354578 -0.6558475742 -1.7122610307
H -2.4383351309 -0.3631195251 0.3923643549
H 0.6638993401 -1.3402561491 3.7794666674
H -0.9499718894 -0.6026180555 3.5670632695
H 0.4277081722 0.3564861749 4.1748455159
H 1.9012499123 2.0728187527 2.8715652851
H 4.2978761608 2.5674758438 2.4798150094
H 5.6943797844 0.9477106072 1.2051100756
H 4.6846913870 -1.1377241992 0.3442837182
H 1.4217656229 -1.7720832802 -0.2579373054
H 1.5512983036 -2.5144049287 1.3342041680
H 2.8970221670 -2.6584941862 0.1838080165
