47
CONF32
C 5.1718842568 0.2464859140 2.2867659531
C 4.6979833450 0.4084495829 0.8979184995
C 3.5101918084 0.1482018550 0.2600206365
C 3.7391839739 0.5574210244 -1.0939467711
N 4.9621358876 1.0164438166 -1.2527346272
O 5.5654776589 0.9354935688 0.0175331221
C 2.8457800068 0.4949703280 -2.2615246394
C 2.1348779062 -0.6771753053 -2.5471142370
C 1.3063234283 -0.7332684694 -3.6620157724
C 1.1800876470 0.3750946895 -4.4977496848
C 1.8888045517 1.5416105514 -4.2184190164
C 2.7200463665 1.6046508138 -3.1048287386
C 2.3099971614 -0.3782899637 0.9346109293
O 2.3929603276 -1.0888795617 1.9390439224
N 1.1142002982 -0.0118096040 0.3881076112
C -0.1310591732 -0.5019135653 0.8795467487
C -1.2172172573 0.5034650096 1.3959151859
N -2.1145630255 -0.0022181807 0.3469061998
C -1.2062385636 -0.9291916393 -0.1472645109
O -1.2878669270 -1.7470856246 -1.0341159702
C -3.5098850539 -0.1923038495 0.6752495617
C -3.5397778097 -0.6726738567 2.1748617072
S -2.0961941034 0.2157786136 2.9879101063
C -4.8233791098 -0.3012481720 2.9088948820
C -3.3154666600 -2.1845846147 2.2164898549
C -4.3503430414 1.0520477078 0.4329755283
O -5.5133850844 1.0096858534 0.0968686985
O -3.6689809327 2.1854511271 0.6567944245
H 5.9365068835 0.9925644100 2.5138279887
H 5.6069241701 -0.7503278264 2.4200582102
H 4.3351209418 0.3402080789 2.9800617073
H 2.2407499397 -1.5443636454 -1.9025832697
H 0.7612443626 -1.6459107583 -3.8803988037
H 0.5290697349 0.3292370731 -5.3650000421
H 1.7903051860 2.4072166334 -4.8656625214
H 3.2638209037 2.5149886238 -2.8752249545
H 1.1030895547 0.6271763014 -0.3948477902
H 0.0514212561 -1.3041152667 1.6005409669
H -0.9482822862 1.5584315681 1.3021873731
H -3.9286825040 -0.9822866978 0.0445064128
H -4.7776331236 -0.6623637237 3.9399117228
H -5.6755702961 -0.7830866659 2.4185803148
H -4.9894545730 0.7789645000 2.9285795650
H -3.2167089361 -2.5166507514 3.2530391129
H -4.1735716208 -2.6953894079 1.7648557952
H -2.4104762697 -2.4805472661 1.6783461113
H -4.2634519148 2.9416469781 0.5059477028
