52
CONF52
C -0.4455072452 -2.9005009622 -0.0162926134
C -0.9452957936 -1.8061877519 0.8799643014
C -1.7332721755 -0.7870044654 0.4946710916
C -2.2668027747 -0.5757149073 -0.8601588034
C -2.0652650813 0.7553483228 -1.6484538388
C -3.4436209935 0.3055700826 -1.1636805507
C -4.1798432568 1.0393642204 -0.0661825436
C -4.3639239736 -0.1590069465 -2.2754026932
C -1.2721270419 1.8908358357 -1.1555594866
O -0.5499055122 2.5572424299 -1.8796911600
O -1.3936895917 2.1324624865 0.1713435105
C -0.5776163826 3.2032981947 0.6993214378
C 0.8723467581 2.8136292416 0.8209388817
C 1.2385252203 1.4868837639 1.0436928079
C 2.5837731713 1.1692678244 1.1797671078
C 3.5757931536 2.1388933416 1.1176748552
C 3.2004287906 3.4637571422 0.9082175302
C 1.8590279248 3.7994830497 0.7522455499
O 2.9586170915 -0.1433179761 1.4510402983
C 2.9696447984 -1.0529746213 0.4147111361
C 2.6419901527 -0.7303442552 -0.9015185275
C 2.7060661833 -1.7253656275 -1.8762370072
C 3.0937032764 -3.0219158013 -1.5520533197
C 3.4192237682 -3.3266986748 -0.2301151755
C 3.3562073310 -2.3502096975 0.7562410358
C -0.4764292500 -1.9129703304 2.3037935688
H -0.8096368278 -3.8741930733 0.3362044288
H -0.7374203089 -2.7807098245 -1.0604542791
H 0.6495411343 -2.9429839730 0.0256350187
H -2.0086087626 -0.0579522158 1.2506997768
H -2.1676038103 -1.4264782794 -1.5277989882
H -1.8929782592 0.6154869680 -2.7106505063
H -3.5357019490 1.3710577318 0.7455337337
H -4.9489486201 0.3783086231 0.3489520381
H -4.6832117798 1.9193044246 -0.4817155331
H -5.1303452550 -0.8291968867 -1.8700670356
H -4.8693381989 0.6962478339 -2.7377602268
H -3.8133160761 -0.6967197761 -3.0524796182
H -0.6861131527 4.0966873643 0.0785540259
H -1.0074185928 3.3994653785 1.6862970295
H 0.4914471015 0.6992247670 1.0895136622
H 4.6164970059 1.8531269335 1.2278774047
H 3.9616401910 4.2353531977 0.8526348832
H 1.5757484702 4.8321331665 0.5700042050
H 2.3425342479 0.2772820527 -1.1664251350
H 2.4496378966 -1.4736513795 -2.9008160670
H 3.1407533625 -3.7879884585 -2.3186759263
H 3.7216401129 -4.3341735600 0.0387396337
H 3.6064108746 -2.5737952572 1.7882508293
H -0.7706759959 -2.8761563098 2.7398791948
H -0.8772898557 -1.1096957201 2.9278713553
H 0.6207104259 -1.8738068474 2.3471831760
