57
CONF118
C -5.5260846507 -0.2998307126 -2.3244172223
C -4.4237819472 -0.9548991328 -1.5040430368
C -3.2288027555 -0.0304016621 -1.2958861812
O -3.2014282672 1.0886101877 -1.8144905743
N -2.2136243744 -0.5070424809 -0.5056455906
C -2.3183579049 -1.8286709521 0.0484188746
C -1.9076940115 -2.9275187394 -0.7056426599
C -2.0065514808 -4.2105288368 -0.1753827857
C -2.5122835488 -4.3977024456 1.1095851192
C -2.9198440043 -3.2979609630 1.8621319012
C -2.8236871923 -2.0134224703 1.3343236846
C -1.0071173441 0.3410924306 -0.1841250294
C -0.0303538628 -0.4644679364 0.6911094954
C 1.3111207825 0.2398384388 0.8695830937
N 1.9597681213 0.4743689712 -0.4254543970
C 1.1026733316 1.3346802730 -1.2494923736
C -0.2657467490 0.7025070791 -1.4874396945
C 3.2802502228 1.0872436410 -0.2687676382
C 4.3251659749 0.1161658371 0.3028812503
C 5.6988212784 0.7043793169 0.3018563204
C 6.7733363836 0.3652127463 -0.4782881632
C 7.9319471308 1.1553770132 -0.2350514618
C 7.7394565903 2.1016922122 0.7318116271
S 6.1215610783 2.0322994783 1.3580080064
C -1.4634525490 1.6077499866 0.5488902006
O -2.1359868858 1.2436478288 1.7513342998
C -2.5843890909 2.3927512888 2.4618183973
H -6.3610708974 -0.9956873076 -2.4467734760
H -5.1648750022 -0.0162895781 -3.3161903963
H -5.8985542196 0.6032830686 -1.8337666170
H -4.8024743408 -1.2688252755 -0.5242228885
H -4.0770017567 -1.8746341520 -1.9893085214
H -1.5127269547 -2.7674963711 -1.7045454401
H -1.6855904429 -5.0635609050 -0.7650200235
H -2.5882645135 -5.3982821161 1.5234158216
H -3.3145444689 -3.4395993961 2.8634950439
H -3.1319452367 -1.1453169859 1.9075378459
H 0.1594795439 -1.4322143996 0.2160650024
H -0.4663904528 -0.6586566060 1.6745386803
H 1.9475648811 -0.4086636091 1.4791710834
H 1.1910001526 1.1865985826 1.4331354283
H 1.5913538069 1.4823800506 -2.2198197334
H 0.9902222111 2.3389836410 -0.7944063662
H -0.8734614714 1.3786931546 -2.0918020462
H -0.1331369759 -0.2259335257 -2.0563408136
H 3.6218348415 1.4103889042 -1.2596948057
H 3.2338793610 1.9939362324 0.3679391620
H 4.0493091874 -0.1839713686 1.3196314541
H 4.3418239951 -0.7902249398 -0.3121144841
H 6.7297970228 -0.4374827682 -1.2063627828
H 8.8729187124 1.0251993734 -0.7570878584
H 8.4399427298 2.8318543651 1.1142326294
H -0.5863003130 2.2263447311 0.7870162446
H -2.1277203997 2.1942778443 -0.0967618033
H -3.2860558068 2.9857064214 1.8563563705
H -3.0941829642 2.0395688573 3.3613617252
H -1.7397453027 3.0353316721 2.7526954996
