27
CONF11
C 4.5857622915 1.3071410332 -0.3206298859
C 3.4453042781 0.4384076432 -0.7885282810
O 2.4838534367 0.3563023906 0.3157949383
C 1.3850004937 -0.3626479213 0.0866032390
O 1.1278884245 -0.9486569798 -0.9432069579
C 0.5072440721 -0.3713892083 1.3261764484
N -0.8059932760 -0.9296020935 1.0510780244
C -1.8226517831 -0.3423825797 0.2956579637
C -2.9502187370 -1.1810965393 0.1687984620
C -4.0895906655 -0.8137018562 -0.5298616282
C -4.1180144366 0.4370221541 -1.1347082523
C -3.0228564539 1.2884540810 -1.0353001364
C -1.8843948197 0.9092283518 -0.3288434851
Cl -0.5658768280 2.0715423531 -0.2798572835
S -2.7060316529 -2.7128517236 0.9896821168
C -1.0581587813 -2.2191065592 1.4935266258
O -0.2936670039 -2.9157525061 2.1342385325
H 5.0773346043 0.8713568200 0.5534745146
H 4.2349301443 2.3117702675 -0.0690573318
H 5.3222535654 1.3900483232 -1.1249967452
H 3.7703568160 -0.5773512527 -1.0319116708
H 2.9284221574 0.8631616762 -1.6541672215
H 0.9835721483 -1.0217496191 2.0675202431
H 0.4342356146 0.6259721787 1.7607322338
H -4.9326546271 -1.4917107549 -0.6003897096
H -4.9938459399 0.7545922340 -1.6893107770
H -3.0422035344 2.2629998703 -1.5091852730
