44
CONF119
C -4.9981747777 1.0397516806 1.0614311404
C -3.5889371205 0.5013173274 1.1732911373
C -3.4808257719 -0.8851534578 1.8456797457
O -3.1992778972 -1.7829226056 0.7567642327
C -2.4471057014 -1.0064156927 -0.1568622742
O -3.0784651819 0.2593910550 -0.1675493520
C -2.6085651121 -1.6563063254 -1.5428571264
N -1.6887512723 -1.0995649300 -2.5160903636
C -0.4835401007 -1.5788450669 -2.8863714192
N 0.1227747245 -0.7213242119 -3.6979492937
C -0.7790472495 0.2977431684 -3.7820408302
N -1.8906140579 0.1175719864 -3.0798783073
C -0.9747631566 -0.8726687168 0.2519004023
C -0.3730215907 0.3893660713 0.2099357964
C 0.9694364828 0.5870301129 0.4968574499
C 1.7510744194 -0.5151393775 0.8287038379
C 1.1975330233 -1.7889557723 0.8850998780
C -0.1513568874 -1.9500282236 0.5953862897
Cl -0.7534063789 -3.6057536995 0.6414836509
O 3.0795832115 -0.4094406557 1.1764317509
C 3.8678456059 0.5222041604 0.5199882140
C 4.7784687084 1.2356869711 1.2905099353
C 5.6505050954 2.1269134887 0.6734792482
C 5.5840668747 2.2894712278 -0.7047964879
C 4.6770497119 1.5766162535 -1.4814184133
C 3.8135893932 0.6798881223 -0.8627086992
Cl 6.6784046772 3.4246185333 -1.4896536521
H -5.6525664255 0.2961926213 0.5955381582
H -5.0137912477 1.9549501290 0.4628803024
H -5.3831668791 1.2742946328 2.0586793625
H -2.9328985241 1.2237967386 1.6747706114
H -2.6655300006 -0.9149646979 2.5792730791
H -4.4142052637 -1.2085230263 2.3107399012
H -2.4019665098 -2.7252039302 -1.4600932938
H -3.6367704521 -1.5070588163 -1.8803453889
H -0.1067004244 -2.5379022581 -2.5536242503
H -0.6206455525 1.1880540295 -4.3776231627
H -0.9894656027 1.2393223507 -0.0582911218
H 1.3997573443 1.5813466190 0.4603703739
H 1.8198500292 -2.6380476199 1.1417388987
H 4.8045012387 1.0913359758 2.3651394156
H 6.3650667785 2.6896095586 1.2631848398
H 4.6470403227 1.7089366119 -2.5569313840
H 3.1070104603 0.1088098854 -1.4556952074
