75
CONF65
C 7.8766644671 2.5266183921 0.0600647908
C 6.7551342420 1.5148402926 0.3123498031
C 5.5651974919 2.2157587688 0.9728060243
C 6.3217726587 0.7899768742 -0.9870640967
C 7.5044598322 0.1059040451 -1.6910151287
C 5.2584544843 -0.2317417029 -0.6974659846
C 4.0228952709 -0.2135791834 -1.1992347702
C 2.9118819678 -1.1930683015 -0.9068698608
C 3.4129597544 -2.4600947156 -0.2150507496
C 1.8055248611 -0.4544100938 -0.1140836109
C 1.2899663796 0.8096542365 -0.8678970301
C -0.2078969608 0.9745238785 -0.5114786012
C -0.4189636711 -0.0221839936 0.6234330133
C -1.7947497938 -0.4603473866 1.0225958688
C -1.7516381243 -1.3911094528 2.2071339316
C -0.8011981654 -2.5785046983 1.9613394221
C 0.5887612451 -2.1337789801 1.4873698139
C 0.5071033156 -1.2254734759 0.2523567704
C -0.0419232818 -1.9861528534 -0.9611944733
C -2.9114743761 -0.0619386734 0.3734802266
C -4.2707120559 -0.4463707544 0.6864694629
C -5.3895232476 -0.0634014300 0.0314444393
C -5.4060597395 0.8642669508 -1.1541769332
C -6.2044236932 2.1349862104 -0.8279435112
O -6.3042327899 2.9995979168 -1.9718781692
C -7.6169563092 1.7786545546 -0.3995570451
C -7.6018712698 0.7967683228 0.7712791968
C -6.7807843995 -0.4748285826 0.4636109274
C -6.8470738720 -1.4495335914 1.6346401813
H 7.5715079366 3.2519533277 -0.7046652357
H 8.1015619948 3.0817972013 0.9767713088
H 8.8016540177 2.0494277161 -0.2740138949
H 7.1319824714 0.7444803876 1.0028903287
H 4.7617053309 1.5118527454 1.2075946884
H 5.8723578182 2.7112903082 1.8996424207
H 5.1539983270 2.9805007325 0.3014383977
H 5.8996798741 1.5492329609 -1.6630321839
H 8.2471676873 0.8297130101 -2.0370892225
H 8.0015164826 -0.5952943638 -1.0096425499
H 7.1538027257 -0.4587946849 -2.5603402131
H 5.5642523968 -1.0355051494 -0.0249761352
H 3.7583934897 0.6098875924 -1.8637753969
H 2.4736437082 -1.4786410523 -1.8760451975
H 2.6386236900 -3.2289041010 -0.1934421515
H 3.7168667198 -2.2570064590 0.8181122896
H 4.2765510022 -2.8717576945 -0.7475029192
H 2.2592468248 -0.1341164680 0.8364908834
H 1.8717240182 1.6918117566 -0.5851378125
H 1.4163129806 0.6833403402 -1.9490592036
H -0.4624027912 1.9964828918 -0.2141244733
H -0.8349467189 0.7229203819 -1.3731857879
H 0.0434490814 0.4120232653 1.5277206026
H -1.3715666518 -0.8231826459 3.0704432771
H -2.7422665525 -1.7614505112 2.4811227517
H -1.2503163433 -3.2488111440 1.2185745699
H -0.7041612239 -3.1587792973 2.8862384399
H 1.1987122419 -3.0206154907 1.2925474769
H 1.0832256373 -1.5740985925 2.2945161135
H 0.5402984099 -2.8954001725 -1.1442659026
H -0.0035406922 -1.3779294409 -1.8700637364
H -1.0845264400 -2.2786615402 -0.8074297403
H -2.7734417838 0.6195838250 -0.4613275780
H -4.3976972558 -1.1109200681 1.5355128801
H -5.9077598438 0.3703589372 -1.9997618869
H -4.4005587030 1.1399191169 -1.4833159711
H -5.6980127213 2.6657100483 -0.0044638699
H -5.4087592144 3.2563175532 -2.2254136283
H -8.1621203030 2.6907467505 -0.1310827232
H -8.1330540489 1.3270723269 -1.2581773684
H -7.1688007224 1.2807767406 1.6579303713
H -8.6282858616 0.5109518115 1.0290574877
H -7.2566215455 -0.9532876131 -0.4087950949
H -6.2984406645 -2.3734185953 1.4261167502
H -6.4324462331 -1.0033045930 2.5456307080
H -7.8898010956 -1.7133046135 1.8371967712
