56
CONF497
C -0.4418410333 -2.3864223379 -2.0699957416
C 0.0851955198 -2.1106874516 -0.6607965454
C 0.6170421103 -3.3607545546 0.0378241983
N -0.9111654910 -1.4025449493 0.1694692917
C -2.2242076534 -1.8028540093 0.3420072763
C -2.8376167705 -3.0378988318 0.1079942301
C -4.1846545343 -3.1651875863 0.4203013641
C -4.9160278707 -2.0957413731 0.9665260413
C -4.3127510292 -0.8703556527 1.1997955467
C -2.9590095706 -0.7050097570 0.8706699112
C -2.0442000915 0.3861863234 1.0060956013
C -0.8006890002 -0.0726190200 0.5788581880
C 0.4212930144 0.7033057930 0.5682292926
C 1.6749215659 0.2767241937 0.7902776709
C 2.8611899538 1.1860340699 0.7530566355
C 3.8943358102 0.7439162439 -0.2819760793
C 3.3673229726 0.7637571220 -1.7072239873
C 4.4167579536 0.2320433890 -2.6795823569
C 3.9206842544 0.1870941448 -4.0976931632
O 2.8256578398 0.5637679314 -4.4717634443
O 4.8405914869 -0.3263511019 -4.9370715518
O 3.0112510101 2.1177151160 -2.0214903058
O 3.5518459287 1.1592946441 2.0235635147
C -2.3441744617 1.7094413943 1.5534911937
C -1.5000053151 2.3267769686 2.4903480002
C -1.7867630877 3.5885377220 3.0009895622
C -2.9396381474 4.2234790386 2.5730341493
C -3.8105335290 3.6524281058 1.6602369949
C -3.5034411856 2.3947456406 1.1536952477
F -3.2306045175 5.4549721913 3.0707187237
H -1.2324278234 -3.1395406173 -2.0824072434
H -0.8263074467 -1.4669627018 -2.5216086333
H 0.3833510663 -2.7542608953 -2.6872335516
H 0.9133818496 -1.4084495952 -0.7672976054
H 1.4292438380 -3.7880447667 -0.5578130295
H -0.1551320565 -4.1258763907 0.1530751461
H 1.0073700318 -3.1139372904 1.0295638884
H -2.2935495373 -3.8859578013 -0.2875391418
H -4.6771527848 -4.1174063341 0.2501322798
H -5.9634761656 -2.2371776156 1.2136304106
H -4.8774565788 -0.0515063704 1.6344343820
H 0.2696199967 1.7699770599 0.4020593423
H 1.8888043227 -0.7618832210 1.0402396164
H 2.5312765365 2.2096166442 0.5282099540
H 4.7682211280 1.4032932376 -0.2086291312
H 4.2218463757 -0.2737928237 -0.0367450575
H 2.4716176177 0.1265356058 -1.7752997058
H 5.3194071298 0.8559579367 -2.6510831185
H 4.7289469300 -0.7811308468 -2.3976903942
H 4.4693790212 -0.3207761017 -5.8361719487
H 2.5821410152 2.0927221279 -2.8884553053
H 2.9168681334 1.4322622751 2.6982441760
H -0.6159233536 1.8031576700 2.8384300387
H -1.1384803182 4.0661917148 3.7277233215
H -4.7003767950 4.1876517825 1.3467550155
H -4.1619578414 1.9455436459 0.4175455320
