43
CONF19
C -0.6823072883 -1.8744292294 -0.2559464802
C -1.7969517102 -0.9602239598 -0.7380948123
C -2.2914640687 0.0547600911 0.2606307036
C -3.6765748442 -0.0427989496 0.3584425450
C -4.4069369387 0.7248177306 1.2540814270
C -3.7157773471 1.6081191895 2.0837946392
C -2.3343278051 1.7340025856 1.9861270005
C -1.6078066325 0.9699346941 1.0635555416
N -0.2039403408 1.1203215771 1.0231051730
C 0.5222219106 1.3106285862 -0.1254380665
O -0.0043376930 1.4097788969 -1.2354564197
C 1.9790258929 1.3879745343 0.0413231107
C 2.8175850626 0.8566172187 1.0215073478
N 4.0873471273 1.1663782982 0.7019115758
N 4.1408139655 1.8885019612 -0.4459227805
C 2.8797295785 2.0197321455 -0.8585034130
C 2.5719261223 2.7723442130 -2.1051861603
C 5.3044990607 0.7877432829 1.4050964424
Cl 2.4699441806 -0.1011168266 2.4089338847
C -4.1759210111 -1.0706703390 -0.6281294566
O -2.9632172820 -1.7778722332 -1.0000067945
C -5.1359033116 -2.0851887526 -0.0249004606
C -4.7777424184 -0.3921659633 -1.8628173158
H -0.9396932609 -2.3103106456 0.7141288811
H -0.5371312452 -2.6807585140 -0.9805941479
H 0.2610434268 -1.3306197057 -0.1605904802
H -1.4849593007 -0.4538767273 -1.6640992885
H -5.4867498519 0.6330789267 1.3200567901
H -4.2556106941 2.2117913727 2.8064729541
H -1.8039763878 2.4363569739 2.6226934691
H 0.2485344628 1.3253629653 1.9025153758
H 2.1848526041 2.1026900804 -2.8782691248
H 1.8055017776 3.5312404117 -1.9245285977
H 3.4789917743 3.2571807761 -2.4729542212
H 5.2593924776 1.1239425829 2.4441541596
H 5.4377140587 -0.2976784588 1.3775132018
H 6.1370235736 1.2730336977 0.8970264407
H -4.6957451921 -2.5463220519 0.8634827450
H -6.0744638601 -1.5980129510 0.2560499631
H -5.3601408252 -2.8653827230 -0.7587335881
H -4.0542333007 0.2967237583 -2.3095891045
H -5.6726522635 0.1753334799 -1.5878128198
H -5.0551452350 -1.1483035409 -2.6039725234
