59
CONF147
C 6.8657957828 -2.6540239480 -1.4678992653
C 7.7387077740 -2.6426315264 -0.1801003292
C 7.3410373476 -1.3600844716 0.5754653441
C 5.9069406207 -1.0576560225 0.1141192896
C 5.9924824723 -1.3854608624 -1.3902724640
C 5.4865398333 0.3764958544 0.4017198904
C 4.0547519751 0.6827044226 0.0463265705
O 3.6822265591 1.8134922086 -0.2326479931
N 3.1437127630 -0.3781722063 0.0613859676
C 3.4655633744 -1.6808079230 0.4552492062
O 2.5973634399 -2.5402672929 0.5126435772
C 4.8986410829 -1.9650975862 0.8211421430
C 1.7373824745 -0.0897113911 -0.2771974810
C 0.9230726221 0.2995704627 0.9531247204
C -0.5391727283 0.5574098578 0.5952023148
C -1.3441391894 0.9613459758 1.8393400888
N -2.7813078428 1.1923409298 1.6653387949
C -3.5223868086 -0.0124891465 1.2862488344
C -5.0234775812 0.2702081845 1.3239701225
N -5.3399972331 1.3884340955 0.4342703842
C -4.5853824036 2.5930468933 0.7827511568
C -3.0873314328 2.2945088373 0.7507981122
C -5.8425519599 1.1903172901 -0.8204506097
N -6.3181317099 -0.0448571500 -1.1169188474
C -6.8551775351 -0.1986250664 -2.3249526385
C -6.9359871299 0.8267639717 -3.2604022399
C -6.4103138391 2.0496792945 -2.8593114283
N -5.8629991836 2.2527878322 -1.6629955906
H 6.2400081464 -3.5512416952 -1.4989555804
H 7.4732370034 -2.6605231852 -2.3768669445
H 7.5319480484 -3.5273818704 0.4300356402
H 8.8080962019 -2.6559518394 -0.4068762799
H 7.9838413857 -0.5254764964 0.2686355582
H 7.4176649164 -1.4561324031 1.6637287512
H 6.4903686384 -0.5494556954 -1.8960561111
H 5.0111453351 -1.5160376029 -1.8594318471
H 5.5943787946 0.5874255185 1.4762537479
H 6.1104395040 1.0993203756 -0.1322945944
H 5.0709666001 -3.0251159954 0.6177314202
H 4.9801901441 -1.8293473213 1.9095949051
H 1.3235520542 -0.9880920587 -0.7400600397
H 1.7368477918 0.7204559342 -1.0089815933
H 0.9871896612 -0.5056748236 1.6955159994
H 1.3617391905 1.1976184253 1.4063659134
H -0.9654324117 -0.3485051786 0.1463343317
H -0.5936422686 1.3490880186 -0.1623694708
H -0.9098799576 1.8811318137 2.2560820696
H -1.2286108508 0.1794826221 2.6030028296
H -3.2618573482 -0.3703400191 0.2712441904
H -3.2849500316 -0.8134067560 1.9971327226
H -5.3165026539 0.5551072216 2.3426176158
H -5.5886252017 -0.6110135894 1.0245264681
H -4.8328767502 3.3964891504 0.0906763831
H -4.8767254099 2.8922465920 1.7978378161
H -2.8002199948 2.0704123023 -0.2949324329
H -2.5313591114 3.1849087088 1.0693132097
H -7.2365360768 -1.1930601822 -2.5561748625
H -7.3740824324 0.6806091417 -4.2395985032
H -6.4247630873 2.9077671966 -3.5310459011
