41
CONF47
C -0.1325394949 -1.3579571341 -2.8383185775
C -0.0621312740 -2.0079489634 -1.4817927406
C 0.1130800483 -3.3938366326 -1.4123657497
C 0.1959034739 -4.0459250600 -0.1925117503
C 0.1222548065 -3.3183273600 0.9903515078
C -0.0452439477 -1.9358309011 0.9694813967
C -0.1503622815 -1.2898055475 -0.2779134038
N -0.3580062404 0.1283457135 -0.2967424708
C -1.7279292523 0.6387032965 -0.1131858120
C -2.5048674382 0.7603553177 -1.4186320272
C -1.7482440277 1.9671379781 0.6498204448
O -2.4983932335 2.8768399416 0.3983911512
O -0.9198363910 1.9407496957 1.7170697393
C -0.8501157949 3.1859432869 2.4417652090
C 0.6218966942 1.0163393792 -0.6570475162
O 0.3853470863 2.2033733743 -0.8332451161
C 2.0393888192 0.4330397892 -0.7735554475
O 3.0253831395 1.4268727911 -0.8401350316
C 3.2106281257 2.0995762369 0.4013314729
C -0.0764697655 -1.1528882596 2.2502999631
H 0.7625821922 -1.6002383117 -3.4213072687
H -0.9919660351 -1.7384731907 -3.4004917906
H -0.2213271769 -0.2732070285 -2.7855317026
H 0.1830443881 -3.9601102160 -2.3369635972
H 0.3293551752 -5.1224796975 -0.1599535211
H 0.2083561443 -3.8261668857 1.9463673664
H -2.2324001266 -0.0878905566 0.5392016302
H -3.5107051041 1.1324242949 -1.2150423351
H -2.0087642754 1.4686687356 -2.0860606496
H -2.5789720882 -0.2163204531 -1.9030153523
H -0.1355232988 3.0152587880 3.2473335671
H -1.8309959859 3.4524804491 2.8438388770
H -0.5027657451 3.9814315396 1.7769468866
H 2.2173666161 -0.2640109327 0.0643331133
H 2.1111981010 -0.1502346368 -1.6989185888
H 3.5004387646 1.3874197441 1.1907129581
H 2.3038733505 2.6374005751 0.7056530689
H 4.0208526945 2.8158796328 0.2513830472
H 0.5901033995 -0.2870706292 2.2036819301
H 0.2199774248 -1.7860650164 3.0894643444
H -1.0734712765 -0.7534526387 2.4653028600
