22
CONF2
C 3.5311127706 -0.1260576203 -0.3257955600
C 2.9365691559 -0.0794701207 0.9335712647
C 1.5493020933 -0.0303406512 1.0510216221
C 0.7409202554 -0.0274540187 -0.0901085706
C 1.3449584055 -0.0743606474 -1.3505751010
C 2.7322945022 -0.1234871082 -1.4673664677
C -0.7409669247 0.0260275317 0.0351533934
C -1.4877957882 -1.1525040602 0.1302210577
C -2.8750707376 -1.1020508891 0.2473986573
C -3.5311280716 0.1269959652 0.2708406191
C -2.7938002486 1.3055029360 0.1765969285
C -1.4065160710 1.2557205034 0.0593158697
H 4.6122179200 -0.1642932034 -0.4170536446
H 3.5535627300 -0.0810247689 1.8271078002
H 1.0855472428 0.0063271904 2.0326178615
H 0.7219514204 -0.0721749081 -2.2404422265
H 3.1893590867 -0.1596626982 -2.4516496839
H -0.9759841548 -2.1104688551 0.1117882616
H -3.4437931107 -2.0241579817 0.3204931908
H -4.6121600943 0.1661980085 0.3624584477
H -3.2991568601 2.2664200091 0.1945258512
H -0.8314237064 2.1743152863 -0.0142382686
