59
CONF36
C 1.8439281584 1.4725137697 3.9688073499
C 0.9835864734 0.6096814924 3.0414056592
C 1.7606425730 0.6599067295 1.7207899450
C 3.2691375089 0.6973751796 2.1232864783
C 3.2634322149 0.9893958180 3.6495268592
C 4.0267982785 1.7717711327 1.3456262827
C 4.0658213538 1.5121888626 -0.1378638760
O 4.1164898396 2.4203468816 -0.9557186607
N 4.0630056304 0.1750582243 -0.5516474759
C 4.0582155725 -0.9118278990 0.3304676058
O 4.1316360696 -2.0543060810 -0.1012035007
C 3.9639467146 -0.6232145870 1.8065604753
C 4.0762370594 -0.1301262001 -1.9985267370
C 2.6863090350 -0.4919423070 -2.5206389390
C 1.7044867234 0.6787608815 -2.5412362461
C 0.2988281348 0.2459562016 -2.9605855615
N -0.3896904760 -0.5225370156 -1.9111267621
C -1.4548673706 -1.3601028890 -2.4756947168
C -2.1222842123 -2.1827166016 -1.3765677031
N -2.6580801335 -1.2998267667 -0.3397383196
C -1.6208068681 -0.4315012009 0.2187219632
C -0.9620523579 0.3722176644 -0.8976673726
C -3.9819441412 -0.9670658759 -0.2880766740
N -4.8407398719 -1.6884821996 -1.0507601450
C -6.1320401756 -1.3825531408 -0.9408180981
C -6.6099767048 -0.3801529049 -0.1045675891
C -5.6458623566 0.3040356539 0.6268452688
N -4.3440194391 0.0346925757 0.5517661642
H 1.5884906083 1.3668838274 5.0275255633
H 1.7317228386 2.5300573937 3.6976680762
H 0.9492345913 -0.4191460908 3.4218749859
H -0.0464937849 0.9645919763 2.9391230511
H 1.5030768332 1.5803645878 1.1823183907
H 1.5298422465 -0.1806833956 1.0569927711
H 4.0418041329 1.7058707578 3.9302886026
H 3.4599269788 0.0589134923 4.1958931684
H 3.5924561581 2.7651767814 1.4877608380
H 5.0701681879 1.8157339820 1.6906040357
H 4.9896208560 -0.6139247777 2.2035617503
H 3.4486601554 -1.4739906205 2.2625345683
H 4.7670118162 -0.9622406682 -2.1484712161
H 4.4665449621 0.7514445019 -2.5097948107
H 2.8078910517 -0.8777497925 -3.5409831906
H 2.2760846915 -1.3101758209 -1.9188202304
H 2.0623306349 1.4434777376 -3.2417925959
H 1.6670234324 1.1583464696 -1.5556997576
H 0.3791233221 -0.3938359911 -3.8488925065
H -0.2995853498 1.1284911015 -3.2556345598
H -2.2264231363 -0.7487580096 -2.9870664324
H -1.0169796272 -2.0393811828 -3.2161908990
H -1.3755900947 -2.8375647511 -0.9087141479
H -2.9208657162 -2.7970335460 -1.7892306250
H -0.8704432441 -1.0687247942 0.7051742702
H -1.7171180876 1.0495495343 -1.3469495885
H -0.1700964831 0.9935353844 -0.4691629292
H -6.8166932272 -1.9666371012 -1.5553823175
H -7.6640240070 -0.1439303556 -0.0318829461
H -5.9301276203 1.1093028528 1.3038349843
H -2.0544625007 0.2328068610 0.9644165471
