47
CONF351
C -3.8791535710 -3.1194692493 -0.3470091025
C -4.9696745732 -2.2107043392 0.2198750248
C -4.4285157970 -0.9719264455 0.9406495696
C -3.6197618442 -0.0361166015 0.0413051516
C -3.2406957164 1.2909139165 0.7171497571
C -4.4290794450 2.2661149443 0.7713625674
C -4.2773518618 3.3862718856 1.8000079495
C -2.0781500364 1.9508253050 -0.0077458651
O -0.9074584453 1.1199294559 0.1706382374
C 0.2101102749 1.5446649502 -0.4797186995
O 0.2420114884 2.5467756199 -1.1660375319
C 1.3275429410 0.6288976017 -0.2248522900
C 2.5299251893 0.8635946848 -0.7809337098
C 3.7399462958 0.0782729682 -0.6430425194
C 3.8245948596 -1.0864123239 0.1448530995
C 4.9998200646 -1.7987737436 0.2432181035
C 6.1445587893 -1.3718757359 -0.4468328492
C 6.0898200272 -0.2205859607 -1.2348155166
C 4.8959988700 0.4852048603 -1.3214793513
O 7.2485803043 -2.1452493336 -0.2814737314
C 8.4387933103 -1.7572039321 -0.9647654542
H -3.3104933993 -2.6243738993 -1.1396747330
H -3.1712433282 -3.4133121822 0.4362140592
H -4.3078862241 -4.0326310214 -0.7708229364
H -5.6400377561 -1.8922716560 -0.5896453810
H -5.5874767887 -2.7845256623 0.9216585686
H -3.7952340677 -1.2907196679 1.7805620464
H -5.2724505866 -0.4268581539 1.3819614249
H -4.1901520223 0.1846068493 -0.8740687498
H -2.7024777004 -0.5438504301 -0.2749779204
H -2.9152185497 1.0773822792 1.7463403513
H -4.5803109908 2.6933257098 -0.2300743113
H -5.3402293803 1.7008659431 0.9964453767
H -4.1695428535 2.9734671213 2.8086427904
H -5.1540024645 4.0409925650 1.7988949434
H -3.4018751218 4.0118824796 1.6021265104
H -2.2875439584 2.0494449771 -1.0806455707
H -1.8576990608 2.9496824203 0.3827353756
H 1.1269749849 -0.2208766600 0.4183763988
H 2.6032617800 1.7493608026 -1.4108473154
H 2.9535312295 -1.4358804270 0.6885852198
H 5.0662223656 -2.6953819186 0.8497788825
H 6.9573204462 0.1323206851 -1.7780766655
H 4.8572250351 1.3807030417 -1.9351374418
H 8.2905784082 -1.7590677856 -2.0520473353
H 9.1893750048 -2.5021966469 -0.6991429302
H 8.7775221863 -0.7652373747 -0.6401351899
