47
CONF39
C 5.6229046545 -2.9230762455 1.2683589908
C 4.1051411853 -3.0771552667 1.4346575973
C 3.6824626083 -2.7947486528 2.8822534141
C 3.3513218250 -2.2001419215 0.4562981117
C 2.5323224648 -2.7655385632 -0.5242973648
C 1.8319376846 -1.9729071678 -1.4309969376
C 1.9622555380 -0.5968806945 -1.3454719914
C 2.7719991124 0.0042831083 -0.3926321920
C 3.4605992135 -0.8054494466 0.5046377583
O 1.2986704079 0.2108849110 -2.2953569240
P -0.1354057134 0.8508760946 -1.9962040984
O -0.5982699179 1.7006460411 -3.1112156074
O -0.0433884046 1.5682459966 -0.5583403330
C -0.0296652019 2.9636238307 -0.4131843909
C -1.0642533102 3.5340876384 0.3138541126
C -1.0514873381 4.9107326739 0.5242461931
C -0.0198139537 5.6922026231 0.0073948804
C 1.0071309365 5.0950456055 -0.7207230919
C 1.0120655641 3.7183689959 -0.9343470940
O -0.9948157362 -0.4557854405 -1.6319454139
C -2.2601523668 -0.3118794299 -1.0296276568
C -2.3766757921 -0.6332542890 0.3148383712
C -3.6294860648 -0.5381612362 0.9148716662
C -4.7348798840 -0.1238661543 0.1737212064
C -4.5907689054 0.1917859597 -1.1754356264
C -3.3446808872 0.0968820099 -1.7924703009
H 5.9401654045 -1.9024933146 1.5091517423
H 5.9310656311 -3.1426834883 0.2412891847
H 6.1496536196 -3.6076031726 1.9414048780
H 3.8431990786 -4.1167612963 1.2022099678
H 3.9456537789 -1.7721671297 3.1739731602
H 2.6022806842 -2.9185680682 3.0083040239
H 4.1915351038 -3.4814965330 3.5665008798
H 2.4367669608 -3.8461986658 -0.5833948458
H 1.1961840559 -2.4128393381 -2.1917561230
H 2.8604843213 1.0849285168 -0.3569344000
H 4.0936919301 -0.3360077957 1.2516975653
H -1.8589581722 2.9057047741 0.7027508631
H -1.8539539146 5.3711108186 1.0915814546
H -0.0157903602 6.7645834957 0.1721787343
H 1.8136557939 5.6988721892 -1.1240085361
H 1.8091163639 3.2391200233 -1.4939247639
H -1.5002942500 -0.9473264271 0.8717815597
H -3.7383950280 -0.7864054068 1.9657148881
H -5.7083390316 -0.0495222326 0.6470902827
H -5.4499902185 0.5100978714 -1.7569194249
H -3.2145195994 0.3304524959 -2.8435736481
