48
CONF3
C 2.6591567754 -1.9031242972 0.7904681828
C 2.4847387455 -0.8778701576 1.9270465930
C 2.8556173943 0.4802625791 1.2663706822
C 3.2191558632 0.1006921801 -0.1827189295
C 2.0038177961 0.1294243606 -1.1259686928
C 0.8595611064 -0.7868763277 -0.6617740921
C 1.3812341534 -2.0902386084 -0.0470254475
O 0.0404983230 -0.1373616539 0.3404854047
C -0.9110997408 0.7716043291 -0.1964476313
C -2.0480387868 0.0381580353 -0.8948556181
C -2.6831544887 -1.0297345346 -0.2563545544
C -3.7340261034 -1.6951115046 -0.8780572121
C -4.1655715154 -1.2960926954 -2.1438854094
C -3.5357114119 -0.2330270841 -2.7847773269
C -2.4776459827 0.4285169946 -2.1622888857
C -1.4456331470 1.6290433738 0.9339766762
C -1.3229410771 1.2443275806 2.2695241596
C -1.8583268109 2.0407615330 3.2811514964
C -2.5201761497 3.2252078189 2.9694437909
C -2.6440538642 3.6132749484 1.6357338032
C -2.1102622680 2.8192339731 0.6261970867
N 3.7395431440 -1.2680544583 0.0093361441
C 4.1777515589 -1.9706226074 -1.1885632153
H 2.9934244474 -2.8809225171 1.1596960860
H 3.1771327547 -1.1092911277 2.7412775961
H 1.4696046631 -0.8852658465 2.3291798934
H 2.0348516069 1.1999380832 1.3022127182
H 3.7239793108 0.9236766207 1.7615040635
H 4.0092460909 0.7413134600 -0.5947531940
H 2.3163947260 -0.1838942028 -2.1295650091
H 1.6399707892 1.1582434656 -1.2279959289
H 0.2134992524 -1.0297503449 -1.5188536289
H 1.5877822915 -2.7968517865 -0.8592170477
H 0.5868508845 -2.5351589867 0.5627155676
H -0.4364245504 1.4399547472 -0.9317787270
H -2.3457083949 -1.3383306394 0.7290489707
H -4.2211102853 -2.5254349220 -0.3755365343
H -4.9868930555 -1.8155706648 -2.6277432290
H -3.8609567824 0.0771564229 -3.7732099707
H -1.9787724502 1.2521474615 -2.6668974784
H -0.8023034499 0.3262792910 2.5175240964
H -1.7541584771 1.7331409747 4.3174490611
H -2.9339193894 3.8446887205 3.7590859113
H -3.1530483009 4.5382854297 1.3823654997
H -2.2083915747 3.1246379452 -0.4126069386
H 4.5681020844 -2.9546472282 -0.9037062559
H 3.4024761520 -2.1300910143 -1.9570707420
H 4.9939382384 -1.4066471080 -1.6549548874
