57
CONF102
C -4.0397001118 1.6338077724 -2.4340042173
C -3.2964121536 0.3123350732 -2.6656470318
C -2.0309284771 0.1887453450 -1.8516060819
C -1.8311235008 -0.7724456899 -0.9130883705
C -2.9031499178 -1.7002980627 -0.4693110376
C -4.1316983769 -1.2285396428 0.0107476863
C -5.1149276746 -2.1133313512 0.4454556496
C -4.8877554634 -3.4873746590 0.4087189393
C -3.6645330080 -3.9697889009 -0.0558872884
C -2.6792488639 -3.0844567208 -0.4795484165
C -0.5092910543 -1.0025411658 -0.2783265669
C -0.3999276650 -1.1397432166 1.1091174524
C 0.8300656959 -1.3241783893 1.7335198658
C 1.9906362087 -1.4014302502 0.9576262120
C 1.8956926444 -1.3079821049 -0.4356346596
C 0.6638334923 -1.1126393602 -1.0385265179
O 3.2455168734 -1.6127886003 1.4524679294
C 3.5021536455 -1.3199383555 2.8395727652
C 3.3945474582 0.1631601810 3.1654365669
N 4.2120234339 1.0205314298 2.3054429483
C 5.6433464003 0.8053944118 2.5265812555
C 3.8766341373 2.4249693978 2.5506893361
C -0.9945700023 1.2114532157 -2.1440874989
C -0.5707744147 1.4672234372 -3.4548688967
C 0.3906356084 2.4394634158 -3.7168836868
C 0.9327313396 3.1910376439 -2.6763520887
C 0.5015402354 2.9634424464 -1.3698463687
C -0.4511456427 1.9851217089 -1.1084235771
H -4.9341553227 1.6867445681 -3.0620978689
H -3.4018218595 2.4895295629 -2.6769642267
H -4.3483625238 1.7315149804 -1.3882726692
H -3.9572878869 -0.5328995853 -2.4614348676
H -3.0252757262 0.2493852508 -3.7284131527
H -4.3075518552 -0.1583387248 0.0577779759
H -6.0579609483 -1.7271735806 0.8206697899
H -5.6542907035 -4.1774556135 0.7472669069
H -3.4771337620 -5.0390097708 -0.0851509995
H -1.7240472823 -3.4635696125 -0.8318648666
H -1.2957132286 -1.0810953431 1.7213246002
H 0.8678055489 -1.4098227472 2.8128982345
H 2.8000383871 -1.3930608911 -1.0301888735
H 0.6054165944 -1.0381627287 -2.1198048429
H 2.8272958937 -1.8878594919 3.4916977894
H 4.5137383557 -1.6954870401 3.0074056248
H 3.6596023007 0.2752892738 4.2375641281
H 2.3519181644 0.4840000552 3.0607196851
H 5.9381596872 0.9854076685 3.5787017341
H 6.2142819182 1.4881748096 1.8896212386
H 5.9286284930 -0.2162434601 2.2598540898
H 4.0874919910 2.7366340309 3.5920291546
H 2.8127211887 2.5925018320 2.3520941922
H 4.4586731035 3.0648766371 1.8794728403
H -0.9759779526 0.8834107441 -4.2758596527
H 0.7184047897 2.6090793071 -4.7382188374
H 1.6794210798 3.9517526046 -2.8818671403
H 0.9063068470 3.5526893063 -0.5522397630
H -0.7844979426 1.8099795425 -0.0900550542
