35
CONF7
C 6.1351737949 0.5012527263 1.7966314797
C 4.7054370122 0.0978774756 1.6659963079
N 3.8201182601 1.0731810724 1.4017719801
C 2.5515768358 0.6638333034 1.3137521255
N 2.1266187053 -0.5975965597 1.4635846336
C 3.0968054091 -1.4754408867 1.7225827231
N 4.3998546341 -1.1938339280 1.8351461466
O 2.7902232240 -2.7552170677 1.8908700133
C 1.3937180836 -3.1348247831 1.7877718124
N 1.6298004898 1.6520144223 1.0395637947
C 0.2454582282 1.5974786634 0.8529457947
O -0.3735386868 2.5998948182 0.5369184542
N -0.3295901834 0.3628660023 1.0613645463
S -1.9469082562 0.0375165097 0.6553300300
O -2.0525029614 -1.4194791644 0.7900377240
O -2.8215711152 0.9056766307 1.4441961388
C -2.1027614208 0.5213013022 -1.0679507212
C -3.0674388653 1.4811701503 -1.3700702584
C -3.2700508532 1.8679901052 -2.6880389443
C -2.5017918515 1.3027724705 -3.7012587544
C -1.5310338187 0.3514995093 -3.4064364208
C -1.3318074690 -0.0437810860 -2.0885865960
Cl -0.0911673995 -1.2332954608 -1.7693566851
H 6.2655797703 1.0502971974 2.7364206282
H 6.4105552362 1.1800463333 0.9855933880
H 6.7870314467 -0.3718817733 1.8024133266
H 0.8034724545 -2.6183925071 2.5490147526
H 1.0108903347 -2.9037969103 0.7904221646
H 1.3845221570 -4.2096965419 1.9608687890
H -3.6482992357 1.9177993344 -0.5665067831
H -4.0230004036 2.6132323652 -2.9186142710
H -2.6507890660 1.6025553107 -4.7331747085
H -0.9266190620 -0.0866603377 -4.1924429741
H 0.3015959551 -0.4408184351 1.1960007169
H 2.0172525011 2.5794671129 0.9170288926
