27
CONF338
C 3.0985054552 -0.1507978336 0.7961949394
C 3.6660581797 -0.3783591011 -0.6060975405
C 5.1002835603 0.1040101845 -0.7255038845
O 5.9054054517 -0.6681318214 0.1743934476
C 1.7331613500 -0.7954450994 1.0538948636
C 0.6178207153 -0.2467971634 0.1877275671
C -0.7950105496 -0.6240760077 0.7118547736
C -2.0396024372 -0.3449639835 -0.1994060073
C -2.2312038584 1.0995586793 -0.7540589329
F -1.3332264393 1.3650411938 -1.7095676198
F -2.1196910179 2.0068733617 0.2251347492
F -3.4576619135 1.1957060440 -1.2895350913
F -3.1320733354 -0.6320379046 0.5523545034
F -2.0136246298 -1.1864955891 -1.2562257117
F -0.9920635431 0.0125559854 1.8941447445
F -0.8100851849 -1.9652651497 0.9470858495
F 0.7146966339 -0.7079541595 -1.1000706616
F 0.6734164524 1.1216199239 0.1330060414
H 3.7945249237 -0.5730964878 1.5273302063
H 3.0399595574 0.9241793657 1.0016472482
H 3.6313512315 -1.4462983379 -0.8564166855
H 3.0657797941 0.1457548310 -1.3574948629
H 5.1567610106 1.1760129804 -0.4744954357
H 5.4466274795 -0.0223762035 -1.7623806716
H 1.4453609066 -0.6381482258 2.0988455881
H 1.7738812209 -1.8761558231 0.8855841010
H 6.8129865622 -0.3544256020 0.1130963169
