47
CONF109
C -6.6498658164 0.2447629909 -0.9450797441
O -5.5183485714 1.1501334258 -0.8877437386
P -4.9793372831 1.6802980475 0.5236333171
S -3.4550955943 2.8388059635 0.3999240846
O -6.3359487596 2.2286136258 1.1870697234
C -6.2776055714 2.8694317027 2.4810059996
O -4.7920587562 0.3305712036 1.4424395016
C -3.6220134253 -0.4186977320 1.4347205762
C -3.0249713853 -0.8295441476 0.2455464635
C -1.8836972082 -1.6162459618 0.2974884467
C -1.3268161245 -1.9719037954 1.5288249961
C -1.9382665756 -1.5532847288 2.7108943873
C -3.0939411680 -0.7813999379 2.6649658010
S 0.1207726500 -3.0131933675 1.6266027472
C 1.2783905450 -2.1644605714 0.5608105990
C 1.2970994663 -0.7739678551 0.4283375885
C 2.2472586318 -0.1658889719 -0.3815568326
C 3.1875699634 -0.9517333459 -1.0348600347
C 3.1947641916 -2.3318996565 -0.9011798501
C 2.2275188270 -2.9398157167 -0.1099362383
O 4.1065215462 -0.3439172565 -1.8958616250
P 5.5153056221 0.2292205957 -1.3301912843
S 6.5578226898 -0.9466111964 -0.2078045269
O 5.0288072351 1.6229952572 -0.7026730913
C 5.9352121531 2.3958803545 0.1165667224
O 6.1830157383 0.7250506978 -2.7031747061
C 6.9024298957 -0.2167970234 -3.5292309503
H -6.7381234372 -0.0499284647 -1.9911359203
H -7.5588185286 0.7563997535 -0.6191187246
H -6.4692669421 -0.6360840073 -0.3211303129
H -7.2851166919 3.2363479267 2.6789273932
H -5.9852937719 2.1455319337 3.2482179037
H -5.5683098999 3.7020576068 2.4578635554
H -3.4502245123 -0.5386080922 -0.7089324678
H -1.4142676115 -1.9473677195 -0.6226648182
H -1.4997086453 -1.8174926285 3.6671554757
H -3.5757769544 -0.4387827865 3.5737799947
H 0.5663989710 -0.1652360853 0.9493929853
H 2.2708200057 0.9109581817 -0.5039096955
H 3.9443303438 -2.9175882882 -1.4205027654
H 2.2081182095 -4.0207261026 -0.0164870005
H 6.3268299153 1.7814278377 0.9321999398
H 6.7584589666 2.7820000934 -0.4924023072
H 5.3446714785 3.2228081595 0.5122013876
H 6.2134081491 -0.9587923553 -3.9451910870
H 7.3442829742 0.3711420894 -4.3344042097
H 7.6830639647 -0.7144694463 -2.9463516616
