78
CONF376
C -0.9414591146 -0.6915535203 -0.3226412255
C -0.1920310509 -2.0143505662 -0.3695218633
O -1.1738361003 -2.9825592556 0.1440043149
C -2.1084690421 -2.3521885976 0.9017454418
O -2.9707673132 -2.9716835693 1.4811694717
C -1.8139354854 -0.8722847324 0.9092621103
C -2.9616879293 0.1403165190 0.9441368532
C -4.0538552883 -0.1382113353 -0.0829844804
C -5.1230282058 -0.9638184647 0.2714481152
C -6.1126865212 -1.2509604775 -0.6659166692
O -7.2081855575 -2.0404795099 -0.4459724767
C -7.3363633183 -2.6482407085 0.8467734722
C -6.0520650943 -0.7181977662 -1.9591280373
O -7.0196183789 -0.9855236475 -2.8866598349
C -4.9865815270 0.1191288539 -2.3058777496
O -5.0159037549 0.6040837675 -3.5814520884
C -3.9348914528 1.4573694215 -3.9789099347
C -3.9953668800 0.4091377544 -1.3664584461
C -2.3576196620 1.5268891377 0.7592816820
C -3.1540582368 2.6209469515 1.1584917625
C -2.6583890181 3.8840890133 0.9570795250
C -1.4176580981 4.0989379669 0.3622115511
O -1.1953221132 5.4467373023 0.2273547727
C -2.2282934385 6.0763852270 1.0142513199
O -3.2598555325 5.0867914815 1.2227484387
C -0.6275089161 3.0563417939 -0.0470420859
C -1.1067318393 1.7432809456 0.1633421006
C -0.1727837040 0.6107146345 -0.2259979498
O 0.8559718905 0.5071276079 0.8020500882
C 2.1555505674 0.7112008877 0.3613097568
O 2.5992271721 -0.4894546789 -0.2947313936
C 3.9302671672 -0.3405141939 -0.7829410460
C 4.3463981832 -1.5915965201 -1.5338602522
O 5.7203743275 -1.4273637042 -1.9377941338
C 6.6088566068 -1.1698419619 -0.8572019313
O 6.2211033540 -0.0395886830 -0.0886428220
C 4.8748274045 -0.1593859122 0.3999730182
C 4.5043884264 1.0947757256 1.1614016621
O 5.2565936446 1.2538250858 2.3661360259
C 3.0349899508 1.0059233714 1.5763376354
O 2.5931766590 2.2364245701 2.1403727167
C 6.8178213993 -2.3829493692 0.0150570251
C 7.1331966361 -2.4300326003 1.3468162885
C 7.3688397439 -3.7502924937 1.8187336047
C 7.2426846929 -4.6961846130 0.8389075218
S 6.8267027909 -3.9784767151 -0.6831656503
H -1.5914583204 -0.6247635694 -1.2043687800
H 0.6740039745 -2.0297716053 0.2961631188
H 0.0904225638 -2.3427868516 -1.3703160590
H -1.1914288109 -0.7124346123 1.8051655772
H -3.4278435543 0.1002223182 1.9351569088
H -5.1689351484 -1.3790733885 1.2697372041
H -6.4828830824 -3.3038414975 1.0537863528
H -8.2535464416 -3.2360105848 0.8074530155
H -7.4175255439 -1.8853950382 1.6292249532
H -7.6718903251 -1.5687929108 -2.4701315678
H -3.9054127881 2.3673375247 -3.3678011981
H -2.9739297316 0.9339501716 -3.9079436742
H -4.1343358769 1.7200771157 -5.0181877778
H -3.1876679851 1.0824738181 -1.6235453290
H -4.1309660051 2.4594776550 1.6028365237
H -2.6428309299 6.9210451782 0.4613472378
H -1.8121129829 6.3724032160 1.9865896838
H 0.3331073241 3.2293683795 -0.5208854150
H 0.3139876428 0.8433506566 -1.1806754256
H 2.2152999058 1.5497382140 -0.3562756887
H 4.0020680886 0.5333055689 -1.4516495650
H 3.7722180403 -1.7288373199 -2.4527869510
H 4.2236666488 -2.4740336325 -0.8895285749
H 7.5489208103 -0.8781301661 -1.3377521233
H 4.7874408309 -1.0322230890 1.0647800835
H 4.6383975273 1.9704249906 0.5064103827
H 6.1526077768 1.5220320883 2.1258422674
H 2.9161132820 0.1779544634 2.2941850711
H 3.2442460135 2.4865952696 2.8105491933
H 7.1909522078 -1.5424667973 1.9662369492
H 7.6193166392 -3.9891512618 2.8458159063
H 7.3579803755 -5.7692667224 0.9170714007
