51
CONF47
C 2.6222738514 1.1017414123 -0.3357663958
C 2.1478347629 0.0547688901 -1.3091001590
C 1.0814121644 0.3295219630 -2.1864694840
C 0.6583418245 -0.6237025013 -3.1114686327
C 1.2963160202 -1.8532389373 -3.1997863580
C 2.3470168368 -2.1363162168 -2.3404537348
C 2.7726358703 -1.2051651753 -1.3856822129
C 3.8843838410 -1.5951951106 -0.4835342863
C 3.7242748362 -1.5961289363 0.9065794290
C 4.7603294319 -1.9997684151 1.7407577026
C 5.9767216678 -2.4077054496 1.1998234461
C 6.1467893989 -2.4151167570 -0.1812576557
C 5.1080001985 -2.0154917707 -1.0155777776
C 0.3765020375 1.6552835902 -2.1523209858
O -0.3195489729 1.8640278764 -0.8847786758
C -1.5323191898 1.2657879418 -0.7865273239
O -2.0612369414 0.6497641998 -1.6859112075
C -2.1017433551 1.4915036735 0.5624830684
C -3.1814630182 0.5198782022 1.0427370150
C -3.5348112687 1.9649065113 0.7552194563
C -4.4180705806 2.2280748426 -0.4424220057
C -3.7745487446 2.9204458031 1.9037408589
C -3.0994829528 -0.0015653802 2.4080849834
C -3.5888125675 -1.1711471889 2.8317876368
C -4.3231481088 -2.1384467850 1.9264277178
F -5.3245355127 -1.5078756940 1.2613859109
F -4.8706466528 -3.1680261925 2.5871019406
F -3.4929475801 -2.6529663821 0.9859899039
Cl -3.3869248960 -1.6840324407 4.4870636014
H 1.9795112035 1.1459258277 0.5500423671
H 2.6021622192 2.0987113452 -0.7845146833
H 3.6405260544 0.8978794005 -0.0021633267
H -0.1872553604 -0.3970441906 -3.7529063383
H 0.9645236025 -2.5930467732 -3.9206539372
H 2.8389956871 -3.1035269322 -2.3792666521
H 2.7715330734 -1.2943135262 1.3308187530
H 4.6153634282 -2.0027901402 2.8165152884
H 6.7860053827 -2.7208547229 1.8514203480
H 7.0923755344 -2.7300782855 -0.6113175905
H 5.2441048192 -2.0127001786 -2.0930372957
H -0.3459455178 1.7273663367 -2.9682175583
H 1.0721278187 2.4957415679 -2.2091014378
H -1.3909657134 1.8460233457 1.3018365939
H -3.4979161833 -0.1675095333 0.2656882656
H -5.4683204839 2.1669416703 -0.1381689827
H -4.2373232082 3.2364935927 -0.8316340021
H -4.2445951446 1.5113643747 -1.2456811598
H -4.7909193881 2.7951557184 2.2926789620
H -3.6716501559 3.9525862452 1.5531697907
H -3.0741047883 2.7794436847 2.7296666957
H -2.5908246445 0.6109617078 3.1467004154
