63
CONF150
C -11.7626672577 0.1291492719 1.3175076495
C -10.4186844840 -0.3419010003 0.7665383136
C -9.2320523717 0.3721374630 1.4124129428
C -7.8803030695 -0.0866177166 0.8673781916
C -6.7026337798 0.6443898562 1.5129423092
C -5.3231491259 0.1409578398 1.0764840629
C -5.0157104133 0.3694910620 -0.4047132767
C -3.6345172705 -0.1299697472 -0.8403888367
C -2.4593333537 0.6122647222 -0.2032429598
C -1.1061944214 0.1551126476 -0.7466080508
C 0.0761904006 0.8861440091 -0.1131809234
C 1.4294948681 0.4246094589 -0.6512788302
C 2.6105687808 1.1596186019 -0.0200531035
C 3.9652703920 0.7020879357 -0.5587419874
C 5.1397248191 1.4314927691 0.0945942099
C 6.5042330725 1.1053804504 -0.5183034399
C 6.9195209724 -0.3599418811 -0.3811158118
C 8.3435376169 -0.6190017089 -0.8709029693
C 8.7583797185 -2.0863002302 -0.7597962022
C 10.1884101937 -2.3208797609 -1.2278698483
O 10.5749758517 -3.6970792397 -1.1826803841
H -12.5985288975 -0.3933777686 0.8424489045
H -11.8276282618 -0.0472108785 2.3966979550
H -11.8998489548 1.2028598192 1.1494964684
H -10.3881695098 -0.1823253868 -0.3193313325
H -10.3151728906 -1.4242700942 0.9194486968
H -9.2611571108 0.2126514125 2.4996071976
H -9.3353809228 1.4560460207 1.2612037967
H -7.8673828518 0.0630358994 -0.2196988398
H -7.7688388693 -1.1682402635 1.0306357710
H -6.7859842468 0.5467929433 2.6036529001
H -6.7808700929 1.7191790208 1.2959941084
H -4.5629651534 0.6421740643 1.6875671656
H -5.2393674126 -0.9324936804 1.3000154468
H -5.7742540743 -0.1344940457 -1.0155159156
H -5.1026545998 1.4424488861 -0.6294800102
H -3.5537331256 -0.0399799066 -1.9319445972
H -3.5498651432 -1.2027164173 -0.6157603997
H -2.5758860009 1.6918408800 -0.3760166760
H -2.4694109552 0.4724475766 0.8851764537
H -0.9962338294 -0.9260110134 -0.5816848236
H -1.0822074877 0.3011068316 -1.8357002730
H -0.0324807422 1.9668669452 -0.2811603936
H 0.0504730674 0.7431864128 0.9762693367
H 1.5390981843 -0.6554687062 -0.4800417909
H 1.4551895056 0.5645691667 -1.7411153563
H 2.4988224815 2.2399087143 -0.1887733865
H 2.5864349860 1.0175844129 1.0696515110
H 4.0624559587 -0.3803469428 -0.4047815026
H 3.9989069855 0.8622126532 -1.6461058897
H 4.9676857889 2.5136204220 0.0202897643
H 5.1590090056 1.1978889221 1.1684129767
H 7.2675518971 1.7346492272 -0.0411519226
H 6.4999462541 1.3819913579 -1.5819616839
H 6.2272519504 -1.0006515997 -0.9417962994
H 6.8356610634 -0.6636673583 0.6723319201
H 8.4319095115 -0.2940374200 -1.9170067860
H 8.0843379027 -2.7162583377 -1.3534766569
H 8.6597988731 -2.4140869503 0.2857360938
H 10.8848886228 -1.6997551718 -0.6405863251
H 10.2933420536 -2.0238008537 -2.2772515990
H 10.5022003657 -3.9923320085 -0.2686032647
H 9.0426637711 0.0048314991 -0.2964564493
