46
CONF16
C 5.3682505516 -3.3464663577 -0.7505490736
C 5.4298716079 -2.0287708073 -0.0052611181
O 4.4600003868 -1.9880964722 1.0740404511
C 3.1960549426 -1.6766614827 0.7797004180
N 2.8767789811 -1.3583139514 -0.4763661572
C 1.5739691484 -1.0763830099 -0.6532183335
N 0.6351024601 -1.1429822452 0.3131277553
C 1.1093507177 -1.4229341868 1.5240080920
N 2.3794695859 -1.7016031856 1.8382966281
N 0.2315947603 -1.4131273885 2.5931249493
C -1.1282826361 -1.0634547240 2.6578314648
O -1.6480442849 -0.8244948331 3.7287612768
N -1.7761405113 -1.0737356633 1.4325764926
S -3.3453939313 -0.4431721226 1.2324471150
O -3.6001662496 -0.5891396114 -0.2041459623
O -4.2314201025 -1.0226009875 2.2318046313
C -3.1534711856 1.3108346471 1.5838088524
C -3.4728821225 1.7612577861 2.8587887897
C -3.3858117614 3.1210556213 3.1378309522
C -3.0049186415 4.0134281736 2.1415229476
C -2.6980558896 3.5536452950 0.8646691755
C -2.7524449076 2.1912303475 0.5746773724
C -2.3148341476 1.7280210048 -0.7818741895
O -1.2997395466 1.0975591704 -0.9910092165
O -3.1439796690 2.1748473337 -1.7329152420
C -2.8187472215 1.7467346042 -3.0751560160
N 1.1483087104 -0.7042056436 -1.8748309805
C 2.0597638530 -0.4601592450 -2.9788535130
H 4.4117557250 -3.4573661382 -1.2665447469
H 6.1694947439 -3.3820688423 -1.4956954541
H 5.5009596355 -4.1848267135 -0.0612961359
H 6.3869601072 -1.9097616503 0.5085641165
H 5.2661173376 -1.1779729749 -0.6719500995
H 0.6636373022 -1.5145816077 3.5007928240
H -1.1584753367 -1.0282254053 0.6018607303
H -3.7855653911 1.0448860818 3.6093016869
H -3.6269211749 3.4810039361 4.1320863334
H -2.9502907541 5.0757892032 2.3547332686
H -2.4070891044 4.2504200738 0.0855832960
H -1.8327771339 2.1195037507 -3.3650272847
H -3.5950392084 2.1724951312 -3.7093863530
H -2.8335605165 0.6549644205 -3.1246492034
H 0.2212781539 -0.3014339690 -1.8981295537
H 1.4698228986 -0.2728622787 -3.8784463799
H 2.7126107468 0.4024263570 -2.7930091373
H 2.6928987546 -1.3347018426 -3.1486827729
