35
CONF399
C -0.7842025613 1.8171613987 0.5844042353
C -2.0001803277 2.6594092421 0.8784235514
C -3.1067909947 1.9795528764 1.6472747362
Br -3.9468790041 0.5900261572 0.4935824214
Br -1.4607927593 4.2379710545 1.9893103625
O -0.2740163086 1.2922227850 1.8342505141
P 1.0268285679 0.3757357060 1.8876722706
O 1.4672730432 0.0779958494 3.2672002028
O 2.0200480100 1.2259290110 0.9639612929
C 3.3722536683 0.7713678847 0.7269713531
C 3.7044845143 0.9178673382 -0.7388961557
C 2.8222342542 0.1467434936 -1.6902175761
Br 3.2040511769 -1.7989016315 -1.5042410955
Br 3.5231902040 2.8427880151 -1.2674613004
O 0.7185611747 -0.9086423316 0.9717562525
C 0.7013693229 -2.2537472124 1.4984173741
C -0.7047921718 -2.8007957818 1.5737414645
C -1.5671474275 -2.5853701256 0.3553833885
Br -0.7947329776 -3.5639787660 -1.1984344816
Br -1.7022938929 -1.9142077554 3.0729201043
H -0.0157026343 2.4142348092 0.0873625896
H -1.0823260942 0.9866552399 -0.0684702264
H -2.3647121149 3.0974145777 -0.0520333434
H -2.7458434334 1.4585078779 2.5328884935
H -3.9142294728 2.6654544798 1.8915300849
H 3.4837577162 -0.2858508178 1.0008265099
H 4.0482172168 1.3705626215 1.3410295532
H 4.7610560243 0.6947512493 -0.8953801908
H 1.7615596614 0.2693061524 -1.4729579745
H 3.0421224383 0.3760934874 -2.7299523228
H 1.2710200348 -2.8619255890 0.7879766461
H 1.1878385656 -2.2911265108 2.4757165311
H -0.6625817234 -3.8521542881 1.8644288696
H -1.6099895067 -1.5401432845 0.0555487877
H -2.5655192516 -2.9969706312 0.4840572837
