97
CONF242
C -1.6177237200 -5.3525700736 1.1797870645
C -0.8630008457 -4.6797405586 2.3416167324
C 0.5888556442 -5.0732252828 2.2655069120
C 1.6018579807 -4.3260264641 1.7899822007
C 2.9696663730 -4.7940630819 1.7504282033
C 4.0445494861 -4.0952239913 1.3282291838
C 3.9073434568 -2.7087549259 0.8006922764
O 4.4537982603 -1.7509393772 1.3900737679
N 3.1983433494 -2.5763694920 -0.3439293204
C 2.7674784097 -1.3963475423 -1.0042459521
C 1.5642446987 -1.4823727309 -1.7164067010
C 1.0664282215 -0.4168486371 -2.4453289893
C 1.7421359627 0.8300295970 -2.4173192675
C 2.9661367741 0.9263249601 -1.6839402322
C 3.5021469984 -0.2144024612 -1.0287244449
O 4.7500520968 -0.1335438160 -0.4773457939
C 3.6335498795 2.2070300799 -1.5999431826
C 3.1281357742 3.3744771138 -2.1732749952
C 1.9306664579 3.2383866159 -2.8598914961
C 1.2417149761 2.0259825769 -3.0275154574
C 0.0565176505 2.3323844540 -3.7464085891
O -0.8926288453 1.6240708352 -4.1219358343
C 0.0947076939 3.8427982422 -4.0653029855
O 1.3073799673 4.3140196563 -3.3992198990
O -1.0330536704 4.5322211491 -3.5901284811
C -1.5868767198 4.1424811048 -2.3790036488
C -0.9239427803 3.8542484122 -1.2623724002
C -1.6258492725 3.2305609500 -0.0915300896
C -1.1805052924 1.7626516317 0.0801880954
C -2.1392830281 0.9825638486 0.9908475209
C -1.8603986484 -0.5262251500 1.0635731514
C -2.6281321140 -1.1450272163 2.2507556749
C -2.5129057319 -2.6837094215 2.3463493518
C -1.0542319031 -3.1576168393 2.3570025355
O -0.4306963876 -2.5888814388 3.5315253544
C -3.3244990198 -3.2139485398 3.5314055540
O -2.2524507293 -0.5054531565 3.4795055859
C -2.1762227860 -1.2289928768 -0.2622126729
O -3.4976229252 1.1344299943 0.4613413677
C -4.4257711347 1.7709260596 1.2047698648
O -4.2221793567 2.2471030382 2.3038231949
C -5.7498063856 1.7854867747 0.4968809090
C 0.2536147107 1.6613436567 0.6155769889
O -1.3572474249 3.9170495137 1.1353899879
C -2.0051358599 5.1853525019 1.2017047786
C 0.2175359191 4.1239610173 -5.5430614518
C 3.8359240379 4.6844140036 -2.0089182574
O 4.7722030170 2.3475555125 -0.9167569452
O -0.0692307555 -0.6396953142 -3.1435597001
C 5.4561504895 -4.5859194748 1.4516695545
H -1.3468730147 -4.8801491502 0.2288342634
H -2.7007531498 -5.2827290243 1.3124799653
H -1.3527083301 -6.4122147907 1.1179521508
H -1.2584678560 -5.0804234428 3.2848223245
H 0.8133205345 -6.0864607796 2.6013162381
H 1.4098340244 -3.3131549313 1.4390262282
H 3.1487599070 -5.7888235560 2.1577934198
H 2.8053027376 -3.4358130193 -0.7059625415
H 1.0027424933 -2.4119378857 -1.7110389922
H 4.7497676034 -0.7115558405 0.3693645617
H -2.6709335212 4.0856513456 -2.4490364778
H 0.1515030872 3.9758454956 -1.1924245275
H -2.7091563326 3.2510295562 -0.2909701612
H -1.2171572618 1.3265631579 -0.9263310679
H -2.1154914976 1.4129274333 1.9938431149
H -0.7905520125 -0.6286541450 1.2839471048
H -3.6963014349 -0.9174203199 2.1186010022
H -2.9604178473 -3.0739790541 1.4260839708
H -0.5654001548 -2.7504384719 1.4599894851
H 0.5036933397 -2.8353661403 3.5289319921
H -3.4128206512 -4.3038291781 3.4979475105
H -4.3359317610 -2.7957398742 3.5081043677
H -2.8671265442 -2.9361543311 4.4839728900
H -1.4171731796 -0.9222485521 3.7469563034
H -1.7404796884 -2.2306853597 -0.2971809342
H -3.2574479216 -1.3251105074 -0.4031002179
H -1.7734248029 -0.6758902563 -1.1141867237
H -6.2137462408 0.7989868610 0.6058906947
H -6.4004342896 2.5344297548 0.9476033603
H -5.6208552130 1.9767049111 -0.5705316959
H 0.9102845256 2.3840230151 0.1239081072
H 0.2833777953 1.8581090602 1.6915940507
H 0.6725948863 0.6685991537 0.4324909885
H -3.0957321704 5.0735746826 1.1068760036
H -1.6482717966 5.8627799114 0.4136130029
H -1.7701198454 5.6125861984 2.1790978676
H 0.2644211736 5.2042113578 -5.7025437518
H -0.6537674555 3.7128988655 -6.0580982008
H 1.1242725718 3.6576235799 -5.9354348240
H 3.3301042502 5.4696069317 -2.5711315618
H 3.8709355502 4.9776639456 -0.9542917081
H 4.8704720682 4.6112161620 -2.3578945383
H 5.0228624137 1.4550735458 -0.5617615486
H -0.4331697705 0.1975362538 -3.5526599256
H 6.0328305835 -3.9275866729 2.1112185627
H 5.9597244963 -4.5846705261 0.4777386182
H 5.4761669544 -5.5985620820 1.8596654171
