55
CONF30
C -6.4020081025 -2.4976237370 1.1774839911
C -6.5240990566 -1.0516944048 0.7468484628
O -5.6228995538 -0.7566443126 -0.3614200644
C -4.3398598323 -0.4850001534 -0.0276420027
O -3.9160314179 -0.4057342686 1.1132280275
N -3.6091020614 -0.3091143377 -1.1739957246
C -2.2362130072 -0.0512493706 -1.2678871011
C -1.4903061590 0.4796097056 -0.2122987095
C -0.1202195798 0.6683887798 -0.3690962512
C 0.4937650651 0.4598002242 -1.6064484436
C -0.2648311550 -0.0234969066 -2.6722881465
C -1.6090811200 -0.3079006318 -2.4963383066
S 2.2217066156 0.8302751434 -1.8059060358
C 2.2977812304 2.2456815868 -0.7263430000
C 3.1344536447 3.3222071662 -1.0228248036
C 3.1762217882 4.4141247867 -0.1626300179
C 2.3624813586 4.4495762719 0.9694255396
C 1.5182622850 3.3827515716 1.2575966448
C 1.5047894203 2.2684028337 0.4234619416
N 0.6826414639 1.1334494745 0.7162820031
C 0.9425032134 0.4049005535 1.8718843967
O 1.7860945215 0.7926070501 2.6748969013
C 0.1850402880 -0.8817302819 2.1234509349
C 1.1480333400 -2.0727188165 2.1065251247
N 1.7217151463 -2.3070478874 0.7769860868
C 2.8770795342 -3.2102155701 0.8767995529
C 3.4677428424 -3.4602313803 -0.4992969955
O 2.4998145585 -4.0451835612 -1.3787149174
C 1.3699717753 -3.1732639437 -1.4925601050
C 0.7372305859 -2.9042880212 -0.1381610268
H -7.1359705171 -2.7010429032 1.9636226126
H -5.4054034635 -2.7078613819 1.5744224026
H -6.6015997650 -3.1691883731 0.3376307008
H -6.3136064601 -0.3606702363 1.5670351734
H -7.5145639714 -0.8378815919 0.3401954017
H 1.9708185856 -1.8691977709 2.8007423864
H 0.2005292802 -0.1893342822 -3.6384071398
H -2.1875613083 -0.7077092070 -3.3234363096
H 3.7410908476 3.3037539202 -1.9226294973
H 3.8307853268 5.2489821476 -0.3906689014
H 2.3818803182 5.3115391961 1.6279476409
H 0.8815827881 3.3969835602 2.1351675804
H -0.2395530483 -0.7969988082 3.1295386607
H -0.6407338296 -1.0422519025 1.4340714018
H 0.6134063555 -2.9662405345 2.4796825521
H 3.6387323744 -2.7489873353 1.5169855444
H 2.5915180090 -4.1802465520 1.3301610057
H 3.8302677924 -2.5117547273 -0.9291879328
H 4.3014049127 -4.1651239694 -0.4340554484
H 1.6851882461 -2.2237817831 -1.9541683151
H 0.6528081418 -3.6685039936 -2.1535683256
H 0.3386120906 -3.8526598516 0.2740031581
H -0.1070341735 -2.2197820892 -0.2808523974
H -1.9574338070 0.7183696345 0.7325381770
H -4.0932199283 -0.5051692810 -2.0392200613
