55
CONF14
C -5.4655229473 -4.1990264736 0.5099710326
C -5.9525160942 -2.8454208135 0.9805694622
O -5.4845031448 -1.7851631196 0.0956803008
C -4.2290942377 -1.3324048237 0.3256812994
O -3.5127492445 -1.6950549719 1.2430150643
N -3.9082931571 -0.4064291579 -0.6323720129
C -2.7062375944 0.2988428013 -0.7644779916
C -1.7688060167 0.4057358629 0.2661887696
C -0.5831738593 1.0993164334 0.0448546314
C -0.3733967487 1.7963572925 -1.1482716121
C -1.3308931611 1.7217168502 -2.1587490472
C -2.4711031565 0.9541361225 -1.9822258049
S 1.0980421108 2.7724385507 -1.3496697899
C 1.2779043623 3.3122321266 0.3384968647
C 1.7851778959 4.5808328062 0.6207249468
C 1.9239881796 4.9858887560 1.9436941781
C 1.5229193607 4.1451757730 2.9810479895
C 1.0023529148 2.8864366927 2.7006634027
C 0.9053678844 2.4564470819 1.3795567370
N 0.4221966641 1.1508540378 1.0537086836
C 1.0986115678 0.0327942329 1.5341728003
O 1.9757779255 0.1515771658 2.3820610898
C 0.7559968217 -1.3264228304 0.9511735037
C 1.1522075540 -1.4503005960 -0.5270589204
N 2.4705920470 -0.8770951095 -0.7961379253
C 2.7012899545 -0.7520355848 -2.2389986889
C 4.0527288991 -0.1049779649 -2.4885743190
O 5.1109575892 -0.8729456076 -1.9043027118
C 4.8906483826 -1.0103613291 -0.4959251123
C 3.5543669918 -1.6720798183 -0.2056004387
H -5.7926848054 -4.3929480700 -0.5154597367
H -5.8822349659 -4.9766565024 1.1578277761
H -4.3750837251 -4.2616399973 0.5554945806
H -5.6250247589 -2.6250440960 1.9996514680
H -7.0404005860 -2.7694481442 0.9257190088
H -4.5881557414 -0.2815453414 -1.3690456377
H -1.9480298599 -0.0573848133 1.2253356645
H -1.1803417749 2.2587952978 -3.0894866652
H -3.2023033675 0.8845117971 -2.7818218767
H 2.0639327658 5.2435157652 -0.1923302510
H 2.3258232367 5.9698984284 2.1620640118
H 1.6111376631 4.4709103162 4.0121179421
H 0.6859815923 2.2249457189 3.4982159753
H 1.3011881094 -2.0482758620 1.5623609011
H -0.3072177418 -1.5588391691 1.0481404394
H 1.0968518624 -2.5190391593 -0.8110176983
H 0.4271010027 -0.9156760906 -1.1499586083
H 2.6683959235 -1.7387112909 -2.7424616149
H 1.9149709390 -0.1212538895 -2.6729475289
H 4.2598187576 -0.0502723386 -3.5612030377
H 4.0581975239 0.9139254400 -2.0673838282
H 5.7115243345 -1.6205572027 -0.1086310268
H 4.9227218061 -0.0177630590 -0.0173517826
H 3.4225184267 -1.7273837313 0.8803307840
H 3.5564762164 -2.7051292908 -0.6070541746
