41
CONF28
C -5.0663445066 -0.6056706251 1.2932956448
C -3.8562151664 -0.3380277204 0.4031654865
C -3.4886945415 -1.5858598808 -0.4077250169
N -2.7537557836 0.1634418622 1.2467579478
C -1.5444606547 0.5410469313 0.5069463540
C -0.6423749661 1.3555691057 1.4273172793
O -1.3528997085 2.4867300761 1.9394335755
C 0.5762377323 1.9032709418 0.7041021347
O 1.3989386042 0.7776466040 0.3764658649
C 2.5443205381 0.9974882130 -0.3308480196
C 2.9707928258 2.2618619655 -0.7434855421
C 4.1573073860 2.3880638629 -1.4664085649
C 4.9183880031 1.2670043766 -1.7749219438
C 4.4846346911 0.0108564511 -1.3495295216
C 3.3044727769 -0.1506856924 -0.6281715085
C 2.8320146424 -1.5200161490 -0.1978313096
C 1.7586719868 -2.0649863398 -1.1018471654
C 0.5729377726 -2.5123918951 -0.6935291114
H -5.9191061694 -0.9377672674 0.6937581088
H -4.8363358075 -1.3953203304 2.0190353861
H -5.3543565429 0.2952219165 1.8433897323
H -4.1048366610 0.4731016751 -0.2963561734
H -2.6480840192 -1.3973054806 -1.0821816823
H -4.3390988703 -1.9148290819 -1.0141831200
H -3.2123814249 -2.4058776796 0.2669135695
H -2.5116893615 -0.5626286689 1.9187170770
H -0.9744524781 -0.3100631808 0.1040880725
H -1.8443068383 1.1760327491 -0.3387734978
H -0.2991562455 0.7159115081 2.2590445680
H -2.2584911138 2.1573036983 2.0725845061
H 1.1197126938 2.5980830013 1.3585272812
H 0.2684575244 2.4348757946 -0.2072044323
H 2.3932353463 3.1475271541 -0.5079233929
H 4.4800780416 3.3749244648 -1.7838228515
H 5.8429653487 1.3647972420 -2.3343460089
H 5.0762710414 -0.8718640456 -1.5789028151
H 3.6951808491 -2.1970971424 -0.2291326457
H 2.4639254880 -1.4969805865 0.8330042569
H 2.0080429878 -2.0875857593 -2.1633660250
H 0.2966583457 -2.4974685581 0.3586800786
H -0.1562032635 -2.9076931291 -1.3947365547
