47
CONF73
C -0.8884472513 3.1053772003 2.3573753728
C -0.8707152419 2.5080496840 0.9675199668
C -1.9671306914 2.9522273623 0.0306962473
C -2.0226869507 1.5491584808 0.6612511214
C -1.8006556490 0.3323249531 -0.1344973847
O -1.1881874696 0.2314228295 -1.1768555054
O -2.3825876044 -0.7327422857 0.4986591367
C -2.2053820530 -2.0265812607 -0.1523408134
C -3.4964309432 -2.7024363714 -0.0804178020
N -4.5123800687 -3.2485944883 -0.0342149425
C -1.0799243129 -2.7987532024 0.5027588201
C -1.3146731279 -3.8923746253 1.3284150807
C -0.2314167340 -4.5478887264 1.9124868398
C 1.0661479324 -4.1185648702 1.6850812570
C 1.2876316269 -3.0133836365 0.8604034013
C 0.2221386074 -2.3511672432 0.2614625176
O 2.6001802389 -2.6370219332 0.7045248988
C 2.8937046082 -1.5853769396 -0.1552590026
C 3.3399888103 -0.3932422320 0.3981421278
C 3.6949106790 0.6545322825 -0.4472960767
C 3.5932940850 0.5080367006 -1.8270996320
C 3.1484116826 -0.6971710822 -2.3660251893
C 2.8014912462 -1.7547657683 -1.5323791811
C -1.7376981990 3.1482868847 -1.4029929434
C -2.2130062837 4.1669565471 -2.1189926373
Br -1.8381736494 4.3387135988 -3.9741645565
Br -3.2992472581 5.5581568096 -1.4060122461
C 0.5178955039 2.2252067228 0.4457533794
H -1.9071435536 3.3108453278 2.6978394186
H -0.3294128842 4.0472871728 2.3668385928
H -0.4179995927 2.4226377177 3.0731582867
H -2.6928399238 3.6313138349 0.4676287274
H -2.7501431491 1.4238069199 1.4554954838
H -1.9650301334 -1.8418253438 -1.2067712355
H -2.3270267991 -4.2372106996 1.5080607721
H -0.4049502643 -5.4055896848 2.5538413236
H 1.9171305967 -4.6186646531 2.1339073524
H 0.3917319970 -1.4983287377 -0.3848389661
H 3.4090970271 -0.3028307416 1.4768581120
H 4.0480065074 1.5891689123 -0.0233528157
H 3.8648781258 1.3283506982 -2.4827393996
H 3.0757125644 -0.8180171054 -3.4418296431
H 2.4583694696 -2.7021203497 -1.9348600557
H -1.1394602953 2.4151672046 -1.9322026114
H 1.0737737304 3.1654526218 0.3625935130
H 0.5251558480 1.7342305794 -0.5268624904
H 1.0531001064 1.5779416289 1.1483000757
