42
CONF254
C -6.8910776282 -0.2840975725 0.6783859782
C -6.0413062179 0.1095727052 -0.5261090798
C -4.6247669870 0.5122008808 -0.1660043526
O -4.5943328526 1.6063243819 0.7673758090
C -3.9324559053 1.1607728446 1.9609450373
C -3.1042481238 -0.0244948580 1.4771456715
O -3.9501041624 -0.5781964489 0.4600092750
C -1.7572721796 0.4127353729 0.9316855542
O -1.1072759199 -0.7535733117 0.4127399061
C 0.1262666907 -0.5962809206 -0.1509823744
C 0.8102032751 0.6212628473 -0.2259165406
C 2.0672054821 0.6673698355 -0.8256919500
C 2.6356865836 -0.4915102870 -1.3345469886
C 1.9621982997 -1.7060231727 -1.2617771155
C 0.7057586002 -1.7572279362 -0.6743815791
O 3.8619542031 -0.4454436435 -1.9946953427
C 4.9941435690 -0.1761012238 -1.2535071024
C 6.1294414934 0.1815531398 -1.9815134091
C 7.3207560050 0.4316151896 -1.3100981883
C 7.3862177452 0.3316504721 0.0797828944
C 6.2451148360 -0.0274952742 0.7924153586
C 5.0428387715 -0.2848702091 0.1358192663
H -6.9553794372 0.5404340218 1.3947221379
H -6.4696358018 -1.1522448345 1.1926890568
H -7.9070050436 -0.5369810448 0.3619461431
H -6.4925132478 0.9561219659 -1.0567867093
H -5.9766696329 -0.7142489665 -1.2473992428
H -4.0705257595 0.8338835661 -1.0629793500
H -3.3295701320 1.9842070954 2.3551857469
H -4.6641775277 0.8418042764 2.7141862036
H -2.9701551079 -0.7934184057 2.2437992819
H -1.1640995949 0.8494310775 1.7471337835
H -1.8824010013 1.1639313745 0.1393125948
H 0.3819418191 1.5345631275 0.1679540320
H 2.6053886795 1.6077864931 -0.8924916911
H 2.4216413304 -2.6016960247 -1.6670574936
H 0.1614484498 -2.6938277972 -0.6111977292
H 6.0648018502 0.2583690234 -3.0620802867
H 8.2024155794 0.7111830712 -1.8787404457
H 8.3169518885 0.5309903053 0.6003499381
H 6.2837265170 -0.1142110467 1.8740782760
H 4.1588718014 -0.5677682063 0.6962951372
