53
CONF17
C -1.0668565422 5.1897183270 0.3150632985
C -1.3155589228 4.1349840091 -0.7438686882
O -1.0679091309 2.8040040433 -0.2196467487
C 0.2134496988 2.3595390073 -0.2480500512
O 1.1332448755 3.0276594178 -0.7108671800
C 0.3202724060 1.0195248446 0.3115562075
C 1.5408106285 0.4137647884 0.4002277852
N 1.6507664810 -0.8243341495 0.9655594323
C 0.6266846989 -1.4587009669 1.6251452091
C -0.6279544038 -0.9189577441 1.5984990163
C -0.9519036662 0.2762598038 0.7070729136
C -1.7088419099 -0.1730028480 -0.5437844164
C -1.0706976920 -1.0651395927 -1.4151302102
C -1.6716420876 -1.5247135095 -2.5788416262
C -2.9547531467 -1.0928813006 -2.9066441511
C -3.6190741500 -0.2084253589 -2.0659747050
C -2.9947705906 0.2386415094 -0.9027343897
Cl -3.9237046394 1.3577381155 0.0995959051
C -1.7004874949 -1.5231619043 2.3797742230
O -1.6167472263 -2.4818536103 3.1382634197
O -2.8774699051 -0.8737498850 2.1762639284
C -4.0084056787 -1.3877016828 2.9065387160
C 1.0474926052 -2.7030464935 2.3467569130
C 2.8578285783 1.0300130521 -0.0430241384
O 3.9820991370 0.2282562940 0.3024755217
C 4.6240396670 -0.4283013194 -0.8003079749
C 3.8873576477 -1.6690896854 -1.2771808886
N 3.7502718017 -2.6298627166 -0.1708213824
H -1.6898859355 5.0060051065 1.1952701157
H -1.3205666109 6.1756553044 -0.0872116487
H -0.0166847846 5.2000947728 0.6181418504
H -0.6907956631 4.2933546036 -1.6269409567
H -2.3665917695 4.1119488445 -1.0419408464
H 2.5549749575 -1.3030693278 0.9003625159
H -1.5976179260 0.9594716094 1.2593499022
H -0.0699710499 -1.4031803100 -1.1599702383
H -1.1427108151 -2.2159656760 -3.2269436069
H -3.4426505353 -1.4400484087 -3.8116588434
H -4.6185881201 0.1366132159 -2.3063098079
H -3.8289728850 -1.3301366044 3.9835537812
H -4.8469169481 -0.7507704707 2.6246683126
H -4.2060516484 -2.4257757175 2.6258608071
H 2.0746359164 -2.9632283298 2.0811241826
H 0.9889440966 -2.5551831069 3.4286728371
H 0.3851113841 -3.5365066603 2.1081570132
H 2.8261458836 1.2309545217 -1.1206231418
H 2.9703511580 1.9977080705 0.4558739034
H 4.7551361215 0.2739262422 -1.6356812057
H 5.6165543566 -0.7069999515 -0.4277174214
H 2.8831009699 -1.3954938698 -1.6290658100
H 4.4336595586 -2.0654974234 -2.1489252876
H 4.6677591031 -2.9704277549 0.1009328030
H 3.2240900256 -3.4406275315 -0.4797070538
