40
CONF78
C 4.2712065737 -1.8480036125 3.1859001926
C 2.7746721831 -1.7044759817 3.0341087264
O 2.4760349634 -0.3877665203 2.4811911968
P 1.8220814147 -0.2632666587 1.0292697882
S 2.5951774992 -1.2925045410 -0.4092087109
O 1.7599639769 1.3235464994 0.9300238586
C 2.0377056873 2.0458787080 -0.3053732290
C 1.1231691033 3.2466890014 -0.3404407159
O 0.2781461715 -0.7042387070 1.4523332287
C -0.7550362112 -0.7698866268 0.5669023481
C -1.8419946189 -1.5590484378 0.9267761278
C -2.8934789057 -1.6020618036 0.0214857045
N -2.8427224821 -0.9290723247 -1.1404700666
C -1.7484754323 -0.2037366376 -1.3830935817
N -0.6921901076 -0.0789992824 -0.5608198368
C -1.7372736545 0.5614166941 -2.6861243501
C -2.5937864340 1.8287532427 -2.5285591893
C -0.3347836339 0.9002821693 -3.1817876688
C -4.1273089765 -2.4109810440 0.2766688765
H 4.7556398969 -1.8107552088 2.2067602846
H 4.5041989625 -2.8085850486 3.6565904480
H 4.6738871474 -1.0468683733 3.8114324431
H 2.2570159577 -1.7445873851 3.9974189940
H 2.3672701458 -2.4847613179 2.3816139609
H 3.0938854928 2.3341731805 -0.2817670769
H 1.8718843484 1.3789014273 -1.1553339127
H 1.2918214375 3.8934012920 0.5246593926
H 0.0786801555 2.9237085929 -0.3415314434
H 1.3137618979 3.8257724671 -1.2497266780
H -1.8481995184 -2.1068294087 1.8608660033
H -2.2360024203 -0.0891532431 -3.4142617452
H -2.1517156103 2.4958769994 -1.7801020419
H -3.6099247628 1.5773498235 -2.2137464745
H -2.6455179629 2.3705213158 -3.4782353584
H 0.3163915293 0.0215735871 -3.1878538985
H -0.3888111257 1.3040579674 -4.1975552168
H 0.1279630877 1.6556161608 -2.5418101406
H -4.2203074947 -3.1929598916 -0.4836422079
H -4.1106330997 -2.8747909134 1.2648841827
H -5.0123963878 -1.7741861439 0.1892627640
