45
CONF3
C -2.0093314620 1.9140660077 -0.5542120065
C -3.4311506232 1.4411825084 -0.6491258410
C -3.8386183554 0.2451257227 -0.1971687761
C -2.9595649940 -0.7314411212 0.4904053327
C -2.0250483661 -1.6359702407 -0.3453704332
C -3.1871038931 -2.2049523503 0.4786658765
C -2.9011356456 -3.0003748052 1.7319660287
C -4.3248405310 -2.7605091872 -0.3502999119
C -0.6237481165 -1.6947434153 0.0687461692
O -0.1791467356 -1.5953685975 1.1962625955
O 0.1877279232 -1.8210371924 -1.0309282398
C 1.5979097083 -1.6559653660 -0.7968928352
N 1.9099039272 -0.2795452200 -0.4975606249
C 1.7044290315 0.7675264830 -1.3735501684
O 1.3071023447 0.6776719886 -2.5183471443
C 2.0668810702 2.0295770491 -0.6177544234
N 2.3802969217 1.5355531300 0.7145541993
C 2.4065755484 0.1701716601 0.7537225048
O 2.7909132191 -0.5458309592 1.6592460794
C 3.1415296131 2.3299332627 1.6724505137
C 4.5403896167 2.4845299414 1.2788115161
C 5.6857588065 2.5996752426 0.9223322202
C -4.3828875901 2.4010700339 -1.3013456996
H -1.6208548996 2.1443484302 -1.5545928410
H -1.3479503949 1.1801364804 -0.0883016319
H -1.9538900119 2.8463273975 0.0219891125
H -4.8857510528 -0.0290580877 -0.3180422112
H -2.4526842144 -0.3725998117 1.3857178072
H -2.1827006029 -1.6152924504 -1.4180054494
H -2.6145398594 -4.0269773251 1.4781440995
H -2.1031693056 -2.5524061486 2.3251005213
H -3.8088089307 -3.0449991666 2.3441409244
H -4.4710456090 -2.1979685229 -1.2758114841
H -5.2573572479 -2.7259370531 0.2244959304
H -4.1245108285 -3.8052723256 -0.6096862601
H 1.9417380316 -2.2701315792 0.0382479800
H 2.0688146859 -1.9533450897 -1.7347509331
H 2.9323566208 2.5101069689 -1.0950219995
H 1.2250733123 2.7317922922 -0.6185555472
H 2.6648248268 3.3120096461 1.7647940668
H 3.0762953959 1.8392903783 2.6487679558
H 6.7019801641 2.7011094747 0.6146662216
H -4.4115365070 3.3494389398 -0.7499500928
H -5.3969657437 1.9963451176 -1.3520134495
H -4.0493269595 2.6422470987 -2.3185685678
