39
CONF23
C 5.2241980043 0.1491155572 -2.5815607176
C 4.2595938977 0.8250734522 -1.6096151973
C 2.9788424234 0.0100571674 -1.4169137791
C 1.9985959427 0.7010979044 -0.4956453519
C 2.4481334484 0.8591926281 0.9470760813
O 1.2072692251 0.8848612782 1.6749261710
C 0.2124998037 0.2395561997 0.8847245076
C -0.2647568103 -1.0297309974 1.6209073411
N 0.8405371745 -1.9325277991 1.8728215950
C 1.4051135910 -2.8159778130 1.0236987472
N 2.4659490949 -3.3810289728 1.5859809885
C 2.5080629503 -2.7822555388 2.8106556870
N 1.5477375884 -1.8943103594 3.0308253436
O 0.8293417696 -0.1370617519 -0.3305130770
C -0.9574315740 1.2030549094 0.6621083349
C -1.9961252390 0.9651338286 -0.2458773848
Cl -2.0612439624 -0.4884719665 -1.2361816984
C -3.0424752406 1.8648328835 -0.4258279134
C -3.0543680569 3.0260954946 0.3333454386
Cl -4.3687769248 4.1665030238 0.1118834803
C -2.0560768009 3.3005357732 1.2566478699
C -1.0240883626 2.3835509385 1.4070390300
H 4.7630358831 0.0287592274 -3.5677600409
H 6.1387870677 0.7367348647 -2.7051565262
H 5.5071895048 -0.8454802353 -2.2203639510
H 4.0011998775 1.8260796662 -1.9783974715
H 4.7556792979 0.9660761956 -0.6407864316
H 3.2184061364 -0.9756789783 -0.9966315621
H 2.4963059117 -0.1545308279 -2.3879762641
H 1.6882972646 1.6741190672 -0.9077689269
H 2.9789689984 1.7932935236 1.1450250377
H 3.0582113069 0.0015048070 1.2667721907
H -0.7030651312 -0.7397220303 2.5781847861
H -1.0159696729 -1.5504042005 1.0238310215
H 3.2560691963 -3.0081161082 3.5603097540
H -3.8274794064 1.6589321229 -1.1429611255
H -2.0781644614 4.2098596511 1.8455008180
H -0.2344899816 2.5886308110 2.1190637245
H 1.0100225889 -3.0117205664 0.0360039561
