31
CONF71
C -1.8039455992 -0.1305064273 0.2463941116
C -0.4974077257 -0.6594626948 -0.4485933421
C 0.8081612124 0.0006374190 0.1241177719
C 2.0431402738 -0.1439694588 -0.8356841635
C 3.4092484349 0.0886411189 -0.1196841511
F 3.3236105309 1.1468604823 0.7102341385
F 3.7443252724 -1.0052925932 0.5889179783
S 4.8332962360 0.4417926532 -1.3679575227
O 4.7081892526 -0.5803366805 -2.4081227677
O 4.7646963634 1.8728459477 -1.6609114688
N 6.2221929907 0.1538914200 -0.5259415208
F 1.9224320420 0.7636873023 -1.8317490577
F 2.0422966286 -1.3879964667 -1.3634210091
F 0.5791410270 1.3162421102 0.3332242807
F 1.1065111454 -0.5900166938 1.3032270980
F -0.4159758648 -1.9964210621 -0.2732835607
F -0.5775558474 -0.3887376716 -1.7703727369
C -3.0362405987 -1.0737244202 0.0439202686
C -4.4537128386 -0.4517450432 0.3255260008
C -4.6940113162 0.1978535437 1.7233233283
F -3.9987641876 1.3367737647 1.8380261374
F -4.3316627478 -0.6385752291 2.7037995721
F -5.9967961025 0.4773245486 1.8491632744
F -4.7242555848 0.4755221843 -0.6172438507
F -5.3354487975 -1.4713636460 0.1977383097
F -2.8931569241 -2.1555092898 0.8381187496
F -3.0591062519 -1.4776960365 -1.2496194780
F -1.5783340987 -0.0176609701 1.5772365649
F -2.0916565251 1.0872617976 -0.2611989459
H 6.3719621070 0.7992785722 0.2469711017
H 6.3491608768 -0.8215682652 -0.2650423533
