39
CONF319
C 7.3320886658 1.8928826109 0.7424697545
C 6.6421430506 1.7853630645 -0.6170225031
C 6.7343341409 0.3875757962 -1.2392006836
C 6.1630168538 -0.7413715559 -0.3688595993
C 4.7255272928 -0.5399337982 0.1355435975
C 4.3016548869 -1.6511573802 1.1082451701
C 5.0041573613 -1.5823735807 2.4632450042
C 3.7722357346 -0.4624191381 -1.0506358398
O 2.4061644292 -0.1860518742 -0.6164295345
C 2.1240415904 1.1071129539 -0.3723236173
O 2.8881368914 2.0295714321 -0.5252821978
C 0.6967500197 1.2558167285 0.0588619893
C -0.2759040197 0.6124296455 -0.6991495433
C -1.6220239275 0.7967979099 -0.4278444189
C -2.0252420086 1.6180884710 0.6292118612
C -1.0462932280 2.2451083328 1.4213913387
C 0.3135108453 2.0647571033 1.1328793201
Br 1.6440549693 2.8357374354 2.2415249913
Br -1.5712550073 3.3312868923 2.8789728030
Br -3.8633038983 1.8669212486 0.9860311464
Br -2.8683833847 -0.1055677928 -1.5398045436
H 8.3800980526 1.5780713749 0.6790319019
H 7.3126328708 2.9224923579 1.1114037485
H 6.8435372065 1.2670478510 1.4968817191
H 5.5913109992 2.0853546136 -0.5246900420
H 7.0994344185 2.5008716996 -1.3110684734
H 6.2418263859 0.3989517839 -2.2194666285
H 7.7886727107 0.1550475426 -1.4397857681
H 6.8140248491 -0.8762152531 0.5009256313
H 6.2113065897 -1.6871746073 -0.9275080592
H 4.6660555331 0.4212154769 0.6637463441
H 4.4881689931 -2.6268365004 0.6372918543
H 3.2198001456 -1.5853568674 1.2695546609
H 4.6268547851 -2.3578722208 3.1362046949
H 6.0856790841 -1.7224816135 2.3776613969
H 4.8285026956 -0.6124511093 2.9414526341
H 3.7014870195 -1.4270696032 -1.5629542857
H 4.0694088294 0.3151997922 -1.7580283870
H 0.0264357319 -0.0275752132 -1.5179584514
