26
CONF159
C -2.4232502168 -0.7203386464 -0.0944079688
C -1.5013921555 -1.4444576816 0.8742456656
C -0.1664471577 -0.7247254943 1.1287884197
C 0.6180458695 -0.4078400450 -0.1499280432
C 2.0075031201 0.1823107998 0.1678224115
C 2.8991298119 0.2729437981 -1.0591131405
O 2.2668103791 0.9663317376 -2.1410990276
O 1.8857294906 1.5185009543 0.6736107170
O 0.7399425014 -1.6446620671 -0.8598515705
O -0.3765646790 0.4755422572 1.9011003462
O -2.1511664024 -1.7004272686 2.1247117325
O -2.6675061702 0.6100767445 0.4065656601
H -1.9579310879 -0.6822559643 -1.0882780173
H -3.3663287245 -1.2776745775 -0.1690467463
H -1.2812737099 -2.4237931462 0.4388203899
H 0.4454207845 -1.3790151388 1.7628915871
H 0.0606125818 0.3325619439 -0.7440941056
H 2.5095284571 -0.4702520242 0.9033863941
H 3.1470292070 -0.7267711872 -1.4256602019
H 3.8355153784 0.7702156093 -0.7667699995
H 1.1662679217 1.4950964657 1.3278070501
H 0.9983217031 -1.4378512686 -1.7667234454
H -1.0857199430 0.9651801511 1.4437514881
H -2.1619057408 -0.8668210368 2.6156363471
H 2.0030050775 1.8314764188 -1.8001154898
H -3.1255369641 1.1161156413 -0.2744621312
