54
CONF2
C -2.6958580321 1.5961772659 -1.9706406867
C -2.2483802604 1.4215522357 -0.4963029053
C -2.3955433566 2.7882507612 0.2035048377
C -3.8466334433 3.1255178440 0.5430587080
C -4.5322709335 2.0122498660 1.3008304437
O -5.4471686052 2.2419544655 2.0954500874
C -4.1200948614 0.6498187698 0.9908514773
C -3.1111698335 0.3540512036 0.1436499214
C -2.8552504617 -1.0681449591 -0.2799086113
C -1.3726158637 -1.4756114611 -0.3748871156
C -0.5839068135 -0.4244892275 -1.1708145490
C -0.7722919100 0.9372744595 -0.4629537230
C -0.1748631383 0.7421302642 0.9261627154
O -0.7283162001 1.0579203784 1.9660050831
C 1.1427217922 -0.0090602530 1.0099841330
C 1.8982111518 -0.2487594179 -0.3022558999
C 0.9140574796 -0.6742958475 -1.4589748910
C 1.2505297446 -2.1405114840 -1.8158643337
C 1.9741692377 -2.6789734151 -0.5829967450
C 2.8712150568 -1.5053981260 -0.1788001312
C 3.4699777806 -1.6752363855 1.2065829204
O 2.8397362440 -2.1708443415 2.1286139036
C 4.8875480864 -1.2132987139 1.4469390853
O 5.2499771080 -1.3406522286 2.8056066301
O 3.9947965037 -1.3879149478 -1.0571912726
C 2.6775515177 1.0223039323 -0.6562528959
H -2.7943567973 0.6508493736 -2.5055053493
H -3.6683415782 2.0937060909 -2.0066886470
H -1.9690282705 2.2207248172 -2.5011815263
H -1.8218836845 2.7860999388 1.1298300982
H -1.9717427492 3.5617694795 -0.4477252852
H -3.9139921221 4.0448260057 1.1320002069
H -4.4427971962 3.2909483963 -0.3656811274
H -4.7059409623 -0.1457343784 1.4468656408
H -3.3010360714 -1.1867194329 -1.2791540970
H -3.3976888126 -1.7497017359 0.3819480271
H -1.3199055525 -2.4552784507 -0.8578858004
H -0.9714699713 -1.6058164783 0.6361671832
H -1.0566438335 -0.3643739051 -2.1566654433
H -0.1607889275 1.6921717124 -0.9796212289
H 1.7715043194 0.5261854206 1.7316857286
H 0.8883560433 -0.9552855639 1.5008565574
H 1.1424985167 -0.0340017545 -2.3187366211
H 0.3665078911 -2.7277986640 -2.0745445837
H 1.9086760404 -2.1802191799 -2.6916422399
H 1.2631085826 -2.8798186734 0.2252099651
H 2.5596390093 -3.5854204442 -0.7614584068
H 5.5502208857 -1.8098243250 0.8018647023
H 4.9852425509 -0.1702605261 1.1110056103
H 4.4919857611 -1.7648309807 3.2434479577
H 3.6770522763 -1.2529628965 -1.9583579475
H 3.4454568365 1.2333632272 0.0947561611
H 1.9996119332 1.8809907667 -0.6831041919
H 3.1596270724 0.9504012375 -1.6339306439
