44
CONF50
C 3.3422946675 2.5029987492 -2.9817032934
C 3.0164660926 1.7683614133 -1.6857769146
C 2.8971976184 0.2070555861 -1.8485427555
N 2.0062137181 -0.2357825318 -0.8041766628
C 0.8876744367 0.6373252786 -0.4351012082
S 1.3118112501 2.3017230549 -1.1033791417
C 1.1712044785 0.2846374778 1.0678103140
C 2.3025408370 -0.6093306013 0.5012233992
O 3.1732065901 -1.3090694949 0.9618943686
N 0.1578068586 -0.2894634364 1.8948354800
C -0.4123437129 -1.4897654871 1.6074304293
O -0.0348541953 -2.1827073279 0.6650555875
C -1.5754943782 -1.8970733103 2.5327180182
C -2.8055983390 -1.0993688755 2.1456586283
C -3.2554087968 -1.0816997882 0.8226060306
C -4.3984912101 -0.3766876482 0.4637551883
C -5.1070337670 0.3309399136 1.4377186577
C -4.6673033095 0.3294898461 2.7617128239
C -3.5248186894 -0.3834838618 3.1044705403
O -6.2360485001 1.0442609182 1.1516172515
N -1.8573497741 -3.3325526651 2.5054938952
C 2.3515067541 -0.1975973938 -3.2096438155
O 3.3475487269 -0.4050291397 -4.0886793909
O 1.1758163681 -0.3067430539 -3.4743463123
C 4.0639875858 2.0773572137 -0.6161739000
H 4.3208044489 2.1787575276 -3.3503345869
H 3.3918014469 3.5792982582 -2.7947088629
H 2.5929439173 2.3228925883 -3.7570370580
H 3.8845375101 -0.2440110982 -1.7068782937
H -0.0894676727 0.3219289996 -0.8088907933
H -0.2079344477 0.2577895418 2.6603062129
H -2.7065918599 -1.6218761334 0.0552667719
H -4.7394876696 -0.3697194068 -0.5682154386
H -5.2255167874 0.8840678645 3.5090952456
H -3.1897388794 -0.3859448382 4.1379945309
H -6.4390485584 0.9635954448 0.2101652667
H -2.0976822262 -3.5972428741 1.5537154973
H -1.0015629609 -3.8399192829 2.7158260395
H 4.0693595064 3.1481582634 -0.3972417044
H 3.8674757772 1.5403621501 0.3155688181
H 5.0568688630 1.7890030024 -0.9803405139
H 2.9554842592 -0.6174057310 -4.9540703059
H -1.2986458344 -1.6208005172 3.5581012685
H 1.6183433694 1.1400306162 1.5825115714
