70
CONF26
C 0.4979691719 -1.1514704848 2.1732016000
C 0.2869847729 -2.4959533677 2.8968734003
C -0.5511793501 -2.2605142864 4.1095876739
C -0.6930373284 -2.8755348657 5.3253999643
N -1.6639530843 -2.2027142382 6.0658217307
C -2.1460091493 -1.1382840664 5.3355873001
C -3.0885118796 -0.1430762337 5.5947863003
C -3.2929335070 0.7984764620 4.5916813067
C -2.5954967178 0.7720047648 3.3661924851
C -1.6640517449 -0.2241729092 3.1015537910
C -1.4582463618 -1.1675944219 4.1070600686
C -0.8326959737 -0.4005773143 1.8460682604
C -0.5211671057 0.9369147550 1.1643637790
C 0.3865904765 0.7485047584 -0.0541040877
C 1.6598186026 -0.0204895679 0.3951680243
N 1.3572817986 -1.3137279598 0.9903475646
C 0.9056367065 -2.3180865430 0.0132033606
C 1.5908980724 -3.6434306814 0.1857139356
C 0.9803395735 -4.8230317686 0.1283957559
C 0.8104783395 2.0917949273 -0.6246582368
O 0.9676041685 3.0440826218 0.1418131456
N 1.0622458365 2.1738231297 -1.9868514003
C 0.8664922945 1.0118757165 -2.8702397669
C -0.5576468447 0.9089570595 -3.4177829328
C -0.8173391338 -0.4846568370 -3.9855745892
N -0.8581138059 -1.5055019129 -2.9288029528
C -2.1545059876 -1.5201844036 -2.2556398701
C -0.5565129191 -2.8345704954 -3.4550116224
C 1.4033484101 3.3908163499 -2.6945806247
O 1.5090934106 3.3615839247 -3.9148416205
N 1.5744874444 4.4968048220 -1.9456412724
C 1.9602422220 5.7550770016 -2.5720396919
C 3.4576732781 5.8354637463 -2.8601373333
H 1.0528631508 -0.4977864941 2.8653799257
H -0.2173562465 -3.2017937473 2.2250269875
H 1.2632058766 -2.9330081491 3.1321333408
H -0.1919023416 -3.7376676610 5.7420722565
H -1.9352336437 -2.4399047248 7.0029955045
H -3.6361745706 -0.0901358085 6.5301453936
H -4.0146820786 1.5914013665 4.7606299514
H -2.7982308867 1.5499344250 2.6377657132
H -1.4088136663 -1.0289226729 1.1457161539
H -1.4484739044 1.4329972195 0.8565893096
H -0.0299923527 1.6031616453 1.8822840109
H -0.1358161905 0.1388660793 -0.7985750527
H 2.3489149716 -0.1650746654 -0.4455600159
H 2.1801048717 0.5984747608 1.1391487572
H -0.1869377196 -2.4614851184 0.0170096471
H 1.1365229144 -1.9472777092 -0.9953708578
H 2.6682557993 -3.5889046485 0.3366737130
H -0.0976927245 -4.8957543486 -0.0009436355
H 1.5290909805 -5.7549847524 0.2143715414
H 1.1236679033 0.1018187354 -2.3280787507
H 1.5689521031 1.1189239770 -3.6990040505
H -1.2781036698 1.1362339867 -2.6226987344
H -0.7004404602 1.6646933411 -4.1970275268
H 0.0002873234 -0.7402045043 -4.6722958482
H -1.7462834472 -0.4885828352 -4.5876520387
H -2.9829862537 -1.7895543617 -2.9399611338
H -2.3802817600 -0.5405070376 -1.8231587560
H -2.1399189958 -2.2495408714 -1.4385869133
H -1.2901571695 -3.1767283650 -4.2108748126
H 0.4368580300 -2.8368450462 -3.9154319073
H -0.5482246105 -3.5624542890 -2.6359710776
H 1.4881094562 4.3921792065 -0.9387003632
H 1.3947705406 5.8653224390 -3.5028342965
H 1.6554921514 6.5603317103 -1.8951924612
H 3.7511213119 5.0382845864 -3.5480167055
H 4.0382588532 5.7347498633 -1.9381767213
H 3.7054412819 6.7971364958 -3.3207432822
