38
CONF1
C 0.9035194854 0.9399572706 3.5163561578
C 0.7043406509 -0.4035981418 2.8418134233
C 1.9617846986 -1.2436574172 2.7736691950
O 0.3118237768 -0.1785388200 1.4387437224
C -0.9709038388 0.0635674190 1.1946259963
O -1.8492241841 0.1409065285 2.0294743709
C -1.2677843986 0.2212421828 -0.3163800849
C -0.9676175050 -1.1276822950 -0.9759854714
C 0.3480079385 -1.5316404794 -1.2187946685
C 0.6192449658 -2.7691906916 -1.7872646779
C -0.4416878591 -3.6079867839 -2.1102659510
C -1.7562933180 -3.2312275581 -1.8793699942
C -2.0118008229 -1.9865550935 -1.3092035592
Br -0.0763353999 -5.3131847919 -2.8956782426
C -0.4655550023 1.3741203134 -0.9161734742
C -0.1989634911 1.4059897273 -2.2839249511
C 0.4342050508 2.4999227624 -2.8641813257
C 0.8007410052 3.5690271608 -2.0579128729
C 0.5364509011 3.5709199889 -0.6942850331
C -0.1016389957 2.4704203071 -0.1346114447
Br 1.6837416594 5.0737684436 -2.8399172337
O -2.6437010159 0.5403554231 -0.4437107324
H 1.2280767823 0.7871967853 4.5500098131
H 1.6734490011 1.5167773105 2.9942923895
H -0.0282286056 1.5105704140 3.5334238556
H -0.1129990025 -0.9538923688 3.3186506352
H 2.7606672382 -0.6987680673 2.2617523160
H 1.7753109940 -2.1790800719 2.2399734423
H 2.2990275137 -1.4818810582 3.7863793035
H 1.1710232556 -0.8710918967 -0.9689556169
H 1.6403993216 -3.0759941416 -1.9801871893
H -2.5723668459 -3.8941770343 -2.1413347018
H -3.0330332134 -1.6710799679 -1.1331279359
H -0.4898671993 0.5685124689 -2.9093010756
H 0.6371463512 2.5190336183 -3.9283408264
H 0.8212482514 4.4168886884 -0.0802040072
H -0.3201263139 2.4806518041 0.9294597491
H -3.0020823110 0.5493979566 0.4604868009
