22
CONF214
C 2.4533920775 -0.3608736973 0.4002136318
C 1.1767414522 0.4546083575 0.3981635340
C -0.0531323295 -0.4287974837 0.1367048206
C -1.3684050180 0.2936587689 0.4612847520
C -2.5981323699 -0.5543757503 0.1413987329
O -2.8353822728 -0.6203147963 -1.2715778880
O -1.4663408175 1.5630835523 -0.2138561834
O -0.0304859865 -0.9185659977 -1.2170827367
O 1.2934531635 1.4531960716 -0.6271929506
O 3.5289234646 0.4828116004 0.8302490043
H 2.6409073763 -0.7502153056 -0.6101848574
H 2.3251592493 -1.2101259824 1.0867422987
H 1.0609595719 0.9293193985 1.3856855448
H -0.0038402392 -1.3104803392 0.7884959052
H -1.3633187035 0.5083875509 1.5378171920
H -2.4778185286 -1.5569422988 0.5763466042
H -3.4864845896 -0.0893099207 0.5793800357
H -2.0242498249 -0.9902541020 -1.6579519655
H -1.8820543533 1.3783449838 -1.0715170123
H 0.3140940393 -0.1917410483 -1.7610143240
H 0.4471357992 1.9334376450 -0.6209389595
H 4.3488796493 -0.0148510213 0.7288348212
