52
CONF77
C 2.7888838739 -3.8466818495 3.2111657114
N 2.2342388156 -2.5763977280 2.7473896708
C 3.2596327484 -1.5288183720 2.7708488787
C 2.6885867271 -0.2073699566 2.2819262070
N 2.1803885435 -0.3408482113 0.9108501513
C 1.1463057407 -1.3852780900 0.8985565578
C 1.7144309722 -2.7087802938 1.3830615345
C 1.6347857448 0.9381537122 0.4364981945
C 1.4945049139 0.9817289184 -1.0882555413
C 0.4514893778 2.0007327016 -1.5510607573
N -0.8863252660 1.6837948364 -1.0300745358
C -1.7291346044 2.7233711951 -0.5966959219
C -1.6112951636 4.0294245780 -1.0874321250
C -2.4399882675 5.0408536112 -0.6079439894
C -3.4255714120 4.7640481732 0.3346840519
C -3.5819042054 3.4602558856 0.8002329572
C -2.7292559839 2.4564391234 0.3520058027
S -2.8412453577 0.8172220384 1.0414276179
C -2.4078943372 -0.1080254929 -0.4105848897
C -1.4516622537 0.4296561178 -1.2926764098
C -1.0817971997 -0.3278287929 -2.4067824791
C -1.6089321210 -1.6054598660 -2.5916186952
C -2.5396759810 -2.1391571704 -1.7065511774
C -2.9571003324 -1.3667263864 -0.6268472185
C -1.1125424609 -2.4050723283 -3.7552851844
F -1.0723162935 -1.6731784302 -4.9001861936
F 0.1592494597 -2.8572696454 -3.5545272945
F -1.8733074575 -3.4929108859 -4.0096542637
H 3.1530266670 -3.7389081072 4.2386229187
H 3.6302163214 -4.1955291882 2.5818141318
H 2.0104013470 -4.6170871373 3.1981739368
H 4.1275834819 -1.8065282359 2.1383832111
H 3.6218954673 -1.4103004709 3.7991560218
H 3.4773291396 0.5538074929 2.2940574906
H 1.8888198240 0.1235597734 2.9749593084
H 0.2905571777 -1.0953008019 1.5423936407
H 0.7611833473 -1.5152603997 -0.1190125401
H 0.9226153025 -3.4674121462 1.3769929809
H 2.5071918846 -3.0440583290 0.6835350527
H 0.6538279711 1.1396389793 0.9093152499
H 2.3116517633 1.7388922573 0.7577999279
H 2.4520756216 1.2556231126 -1.5441964013
H 1.2491472330 -0.0120580325 -1.4712236445
H 0.4558845306 2.0935064817 -2.6465776892
H 0.7185125130 2.9806665481 -1.1462039007
H -0.8738774026 4.2579637807 -1.8483015736
H -2.3199971322 6.0489088696 -0.9918081561
H -4.0761326985 5.5505824591 0.7017802194
H -4.3500906900 3.2230303290 1.5298909543
H -0.3741452767 0.0692352816 -3.1249542354
H -2.9447371714 -3.1329144913 -1.8536142630
H -3.6954864522 -1.7559352159 0.0665467846
