46
CONF65
C -3.8999777238 -1.5293509639 0.3058644161
C -2.5543605382 -2.2138560891 0.2731031117
C -1.4996484821 -1.7456938065 -0.7026737746
C -1.3086855825 -1.5124952978 0.8043905624
C -1.3594493180 -0.1548089750 1.3825468413
O -2.0277867885 0.7827308094 1.0002908232
O -0.5250511914 -0.0798338147 2.4557154268
C -0.4151043933 1.2352974362 3.0502612928
C 0.3578218756 2.1897855199 2.1779706046
C 1.3859343721 1.7143054285 1.3683781861
C 2.0898361576 2.6037509883 0.5627081536
C 1.8097319721 3.9670241153 0.5845643171
C 0.7968089130 4.4327928124 1.4136208970
C 0.0596896719 3.5510626349 2.1980293912
O 3.1336933090 2.1984305157 -0.2411917359
C 3.1007191279 0.9340533725 -0.8027444118
C 4.2909394765 0.2152795142 -0.8033337189
C 4.3363423929 -1.0280244712 -1.4260109825
C 3.2004280353 -1.5508378400 -2.0367806853
C 2.0157868121 -0.8178658376 -2.0290487618
C 1.9559191437 0.4286072859 -1.4161283406
C -1.7272231256 -0.6257932211 -1.6238379439
C -1.6536626620 -0.7239914790 -2.9511091866
Cl -1.8924369881 0.6376418277 -4.0050438003
Cl -1.3094569262 -2.2149021725 -3.7916666580
C -2.6168204400 -3.7022842970 0.5358300662
H -4.5439971544 -1.9666800469 -0.4646569309
H -4.3794558069 -1.6893292544 1.2776016837
H -3.8301584684 -0.4562790972 0.1343001306
H -0.8615599026 -2.5331806452 -1.0935859405
H -0.5717520499 -2.1543880527 1.2746548242
H 0.1063300821 1.0522627402 3.9946445737
H -1.4136636620 1.6312737140 3.2581290057
H 1.6247132930 0.6568683741 1.3488842515
H 2.3794846572 4.6355560156 -0.0508727530
H 0.5628800372 5.4924043945 1.4265256979
H -0.7571723480 3.9184000662 2.8114406619
H 5.1639992421 0.6419517741 -0.3218932053
H 5.2652672817 -1.5892996412 -1.4295143238
H 3.2376730273 -2.5195998216 -2.5232849915
H 1.1308058485 -1.2095732595 -2.5189584821
H 1.0356549378 1.0038490819 -1.4182773923
H -1.9705021969 0.3473972872 -1.2097017183
H -3.0334878394 -3.8982812857 1.5299715684
H -1.6276400679 -4.1662518114 0.4825703201
H -3.2614046982 -4.1881245171 -0.2046574624
