39
CONF116
C 3.7625097359 1.6907045469 -0.7968557162
C 3.5314592113 0.5430082668 -1.7793122359
C 3.1114039240 -0.7717315178 -1.1123654878
C 1.8353161911 -0.6666007484 -0.3091050621
C 1.2954722780 -1.9833430416 0.2574970141
O -0.1416973415 -1.8648797733 0.1284400500
C -0.4161055236 -0.6005744202 -0.4706014044
C -1.5400862219 -0.7997974820 -1.4991434000
N -2.7949456204 -1.1342823821 -0.8522476081
C -3.2201418344 -2.3350847238 -0.4102050168
N -4.3861602510 -2.2078162218 0.2116590011
C -4.6285021624 -0.8691206959 0.1235154839
N -3.6913030721 -0.1747302504 -0.5084641842
O 0.7500283559 -0.2463709066 -1.1730665028
C -0.7709723170 0.4257113190 0.6137160011
C -0.8681076686 1.8009113815 0.3768671988
Cl -0.5914442378 2.4937228230 -1.2165588634
C -1.2045492553 2.7034776880 1.3802352833
C -1.4610198518 2.2107010156 2.6522120292
Cl -1.8891432797 3.3414293326 3.9244492349
C -1.3882579929 0.8548579298 2.9360462184
C -1.0431578587 -0.0160205765 1.9103254954
H 2.8349187502 1.9884307910 -0.2967504525
H 4.4852720743 1.4063343635 -0.0236775020
H 4.1523568291 2.5718440216 -1.3156395491
H 4.4520451136 0.3565447189 -2.3444296114
H 2.7696337959 0.8326051121 -2.5124727151
H 3.9005691103 -1.1097886204 -0.4277821661
H 2.9834513720 -1.5530217888 -1.8717846847
H 1.9391937301 0.0698183861 0.5004202907
H 1.5620904498 -2.1249831102 1.3095886563
H 1.6232280026 -2.8463863662 -0.3328829682
H -1.6857144556 0.1090120441 -2.0841263258
H -1.2483222201 -1.6201588750 -2.1593062980
H -2.6633153960 -3.2485533076 -0.5713179023
H -5.5137218313 -0.3938767850 0.5273023442
H -1.2682483976 3.7637836296 1.1688065062
H -1.5935456189 0.4826084315 3.9327452885
H -0.9804862986 -1.0783834090 2.1142694762
