46
CONF11
C -1.3935714993 0.3979819969 -2.1351709182
C -0.9899035988 0.7093361239 -0.7010492787
C -1.7298170459 -0.2058950119 0.2848104759
O -1.7184370185 -1.4102349082 0.3215439592
N -2.4378534990 0.6624192115 1.0968686525
C -2.3035694816 2.0072235749 0.6984970813
O -2.8173412209 2.9546102779 1.2196263448
O -1.4722555867 2.0482879011 -0.3682555092
N -3.2624470574 0.2704947569 2.1340411647
C -4.6525907386 0.2363912731 1.8572815405
C -5.5463615802 0.4669040709 2.9045703418
C -6.9128486374 0.3644156407 2.6825822359
C -7.4023057522 0.0413201615 1.4196779101
C -6.5054861140 -0.1861930267 0.3811788977
C -5.1339382959 -0.0962991879 0.5917701430
C 0.5090226744 0.6404723044 -0.4764139611
C 1.1618842505 -0.5913455090 -0.5751584094
C 2.5355875088 -0.6828036379 -0.4012556502
C 3.2693340218 0.4724270116 -0.1349530160
C 2.6319798289 1.7038369911 -0.0293123186
C 1.2548343699 1.7847809248 -0.1945246479
O 4.6235609347 0.4547532216 0.1107975250
C 5.4184681772 -0.4788724458 -0.5315957293
C 6.3969431082 -1.1071982699 0.2297064607
C 7.2739151072 -1.9927508669 -0.3884590163
C 7.1685907151 -2.2531714680 -1.7516004266
C 6.1836223287 -1.6137852371 -2.5007147903
C 5.3055775845 -0.7195170332 -1.8986553034
H -1.0951642201 -0.6237805445 -2.3795382142
H -2.4765820376 0.4913752084 -2.2575085385
H -0.8895512042 1.0917757845 -2.8119276927
H -3.0395872530 0.8019316723 2.9678157993
H -5.1707617628 0.7305911526 3.8893659455
H -7.5994492236 0.5502554710 3.5021533619
H -8.4704177983 -0.0316815673 1.2479263318
H -6.8725165669 -0.4446793165 -0.6068441579
H -4.4459337795 -0.3038329801 -0.2203069866
H 0.5891686331 -1.4938311699 -0.7595423642
H 3.0343108343 -1.6433955004 -0.4641093248
H 3.2224305996 2.5874772896 0.1857959783
H 0.7625821391 2.7461061957 -0.1118898792
H 6.4605227804 -0.8914056302 1.2905103198
H 8.0400045031 -2.4843961653 0.2023498260
H 7.8517340446 -2.9470997415 -2.2291747460
H 6.1021004086 -1.8032401459 -3.5662577001
H 4.5425142450 -0.2097585669 -2.4770513866
