47
CONF69
C -1.6171001185 1.0774905657 3.0743016146
C -1.2722398292 1.5144211020 1.6686195588
C -2.2402539306 2.3757762868 0.9225537976
C -2.1531701124 0.8927368055 0.5718583934
C -1.5832729861 0.5267993444 -0.7308175085
O -0.8851278848 1.2182757691 -1.4394561052
O -1.9339953151 -0.7630000891 -1.0440979071
C -1.4093747740 -1.2677085962 -2.2957507592
C -2.5237246967 -1.8870773747 -3.0076968228
N -3.3927212499 -2.3753431460 -3.5899529798
C -0.2500801222 -2.2162924041 -2.0481541269
C -0.1445997685 -3.4342563912 -2.7127721816
C 0.9674067955 -4.2425595512 -2.4853208555
C 1.9673950412 -3.8452677045 -1.6111588953
C 1.8474688924 -2.6235781599 -0.9497386486
C 0.7437895789 -1.8048624400 -1.1600393892
O 2.8419376914 -2.3279142688 -0.0455205441
C 3.1022720835 -1.0160361864 0.3087347348
C 3.2070805778 0.0014543335 -0.6366679607
C 3.5534575028 1.2804374407 -0.2150459612
C 3.8074785858 1.5404793467 1.1293125954
C 3.7113853392 0.5097909721 2.0594528532
C 3.3519769460 -0.7719168258 1.6551205753
C -3.4723077267 2.9037882290 1.5451431072
C -4.6020703098 3.1076799064 0.8678612751
Cl -6.0332093470 3.7696428473 1.5984493302
Cl -4.7588173341 2.7288861593 -0.8176452453
C 0.2063752675 1.7051106422 1.4270859783
H -2.6897389199 0.9090339359 3.2031019720
H -1.3000351509 1.8392508648 3.7958862497
H -1.0943854944 0.1469983037 3.3175523101
H -1.7977838903 3.0019802439 0.1483052186
H -2.9506834221 0.2480207661 0.9241446313
H -1.0566531054 -0.4080502644 -2.8832297542
H -0.9229255152 -3.7551552129 -3.3962851153
H 1.0516244251 -5.1952220297 -2.9974226779
H 2.8368036077 -4.4643239615 -1.4207973584
H 0.6632583805 -0.8589147959 -0.6380580861
H 3.0223884736 -0.2078737605 -1.6845218989
H 3.6335112319 2.0764857840 -0.9482053609
H 4.0818492450 2.5402477224 1.4481004558
H 3.9113283113 0.7018211517 3.1087518176
H 3.2713143918 -1.5897249286 2.3628037643
H -3.4666764421 3.1708949806 2.5979354125
H 0.7548251116 0.7731696648 1.6043675457
H 0.5965938291 2.4540720120 2.1247477411
H 0.4194267446 2.0403331914 0.4112110106
