45
CONF166
O -0.7633027350 -0.3165826886 -2.9534806762
C -2.0482484041 -0.9230757464 -2.8175170311
C -2.5567256526 -0.9403786243 -1.3922015486
O -1.6166675794 -1.6979618619 -0.5748027203
C -1.4672591405 -1.1122022963 0.7064431464
C -1.4777786390 -2.2515731694 1.7228955155
O -1.1777299597 -1.8126723900 3.0373352913
O -0.2399507935 -0.3674386776 0.8296534925
C 0.9249559424 -0.9069274177 0.2457914995
O 1.2741232382 -0.1816545256 -0.9247652989
C 1.5152817846 1.2305995862 -0.6865310537
C 1.7129894933 1.8989221738 -2.0366103888
O 0.4872725387 2.2166264041 -2.6906659510
C 2.7230492116 1.3651242827 0.2409087664
O 2.9367180835 2.7527441027 0.4879405949
C 2.4318257675 0.6219280477 1.5421286394
O 3.5270566625 0.7106694414 2.4625230221
C 2.0752549473 -0.8292185418 1.2506340498
O 1.6826568603 -1.5320147985 2.4287872700
C -2.5767741805 -0.0449423390 0.7969158824
O -2.3454456061 1.0133054110 1.7021435663
C -2.6916678966 0.3898051822 -0.6713278809
O -3.9296686780 0.9937138633 -1.0104812874
H -0.1725173457 -0.6858229873 -2.2748150116
H -2.7480591647 -0.3491878923 -3.4335541271
H -2.0220647557 -1.9547584080 -3.1961189668
H -3.5317123001 -1.4508399236 -1.3799549175
H -0.7684158079 -3.0214490972 1.3797225499
H -2.4781555681 -2.6955908585 1.7353762832
H -0.2471424563 -1.5295368736 3.0196793227
H 0.7668262799 -1.9394518485 -0.0813663458
H 0.6375735030 1.6769385914 -0.1977020917
H 2.3537898801 1.2564769973 -2.6608641769
H 2.2329824041 2.8470537812 -1.8762207430
H -0.0103588131 1.3915485706 -2.8399386439
H 3.6061446244 0.9153920079 -0.2474122074
H 3.5524086770 2.8158920451 1.2313872001
H 1.5906395516 1.1110873167 2.0485560296
H 4.2986951804 0.2899754447 2.0548692909
H 2.9431234489 -1.3254517869 0.7865913892
H 2.3455501959 -1.3473437900 3.1093188550
H -3.5154374701 -0.5251069298 1.0980004586
H -1.4400007184 1.3228429978 1.5530640747
H -1.8451485565 1.0500638576 -0.9183663093
H -3.9486850586 1.8704734574 -0.6059686062
