20
CONF1
C 2.9030095794 0.9240524796 0.3924108748
C 1.9098630336 0.0454963857 0.5217453906
C 0.5302710617 0.2122259827 -0.0339867621
C -0.5307915218 0.1724925398 1.0791912112
C -1.9228621469 0.4634883256 0.5152171764
C -2.1898517843 -0.3045331371 -0.7472432870
C -1.2331006844 -0.9256753026 -1.4412990441
C 0.2209635205 -0.8864356928 -1.0666724974
H 3.8833567366 0.7417279584 0.8229254955
H 2.7623279868 1.8558204096 -0.1514763115
H 2.0828224684 -0.8820700540 1.0721106479
H 0.4650060589 1.1881047383 -0.5359361353
H -0.2802122390 0.8944985280 1.8639705418
H -0.5188659433 -0.8255546741 1.5382187103
H -2.0330890729 1.5406188800 0.3194661888
H -2.6902655524 0.2202335771 1.2610880319
H -3.2207535606 -0.3513888157 -1.0941745428
H -1.4968023108 -1.4876391223 -2.3358543937
H 0.8314807487 -0.7303037088 -1.9651097831
H 0.5274934102 -1.8651589851 -0.6654983066
