56
CONF9
C 2.3004629164 0.8315549505 1.0771339667
C 2.8223679993 -0.5826094792 0.8689732858
N 3.1541288635 -0.8097090692 -0.5432583961
C 1.9691284715 -0.5580741403 -1.3712136045
C 1.4545249117 0.8561173032 -1.1546690917
N 1.1150349799 1.0528671602 0.2520656365
C 0.4799505105 2.3467235125 0.4949704982
C -0.2485114082 2.4005743699 1.8422476853
C -1.0695768743 1.1346226000 2.1014171214
N -1.9436672155 0.8141750813 0.9650296096
C -2.9798816296 1.6998717751 0.6282236593
C -3.5693468462 2.5357242582 1.5867621281
C -4.5914958335 3.4126703114 1.2343328525
C -5.0718579241 3.4559210751 -0.0705288213
C -4.5086817284 2.6197332864 -1.0316436389
C -3.4581589603 1.7732373535 -0.6909494372
S -2.6330795921 0.8507082764 -1.9701950755
C -2.1591735188 -0.5758475118 -1.0276344376
C -1.8418892310 -0.4297309357 0.3346405715
C -1.4106897827 -1.5684238625 1.0293266507
C -1.2205849354 -2.7724110702 0.3599473708
C -1.5208781149 -2.9039465850 -0.9944075102
C -2.0195882477 -1.8012574598 -1.6748262284
C -0.7124377997 -3.9707905385 1.0983590762
F -0.2584952914 -3.6775824621 2.3382328632
F 0.3110263711 -4.5762665228 0.4372330771
F -1.6745641018 -4.9250003083 1.2519507600
C 3.6798307614 -2.1610637289 -0.7696659634
C 5.1234089043 -2.2644660321 -0.2967418297
O 5.9252566046 -1.2393244838 -0.8974199808
H 2.0419004808 0.9570746479 2.1344264048
H 3.1020209343 1.5606394323 0.8390046417
H 2.0549503803 -1.3065857124 1.2116817081
H 3.7172826353 -0.7276204961 1.4829733290
H 1.1572345965 -1.2748417771 -1.1325185215
H 2.2397734744 -0.6929161081 -2.4247319558
H 2.2199989928 1.5815050960 -1.4989909654
H 0.5527557349 1.0045210730 -1.7610784062
H -0.2544467891 2.5009783222 -0.3053356056
H 1.2022518322 3.1842339326 0.4346001709
H 0.4554897531 2.5086939500 2.6754115995
H -0.8822958462 3.2941032903 1.8548355065
H -0.3749772092 0.3046276404 2.2166387024
H -1.6337069363 1.2151421534 3.0387385833
H -3.2268981107 2.5079244528 2.6140834509
H -5.0188697470 4.0574104951 1.9956332497
H -5.8747188350 4.1320365984 -0.3439982142
H -4.8629673057 2.6427474077 -2.0577788227
H -1.2060663492 -1.5111546470 2.0902564362
H -1.3737533122 -3.8460626203 -1.5107312429
H -2.2696128998 -1.8791833748 -2.7281560003
H 3.6512875597 -2.3548044161 -1.8488114062
H 3.0652182769 -2.9359116710 -0.2720831579
H 5.1856932321 -2.2041109640 0.8000549858
H 5.5388947139 -3.2307568666 -0.6004704973
H 5.3509981515 -0.4556868933 -0.9094469693
