39
CONF5
N 2.4042556763 0.1957505236 1.0266741871
C 2.4967164971 -1.0596205271 0.4860076126
N 3.0964114565 -1.9961797521 1.2260725596
C 3.2193856704 -3.2116073399 0.6695316813
N 3.7951132226 -4.1832130516 1.4488729646
N 2.7993943729 -3.5880669547 -0.5489742795
C 2.2077065721 -2.6211736864 -1.2585666888
C 2.0191682131 -1.3227470533 -0.8202779290
C 1.3714651729 -0.2613633859 -1.6618190985
C 0.0998576083 0.3199777964 -1.0670312560
C -0.8146573726 -0.5198908454 -0.4342699041
C -1.9920097345 0.0094793000 0.0978881104
O -2.9419428571 -0.7192157479 0.7432131168
C -2.7101956149 -2.1195555916 0.8777333359
C -0.1478772981 1.6894873620 -1.1582287862
C -1.3290614447 2.2209144865 -0.6280998201
O -1.6632120924 3.5403320307 -0.6559042107
C -0.7633739511 4.4298321926 -1.3086001374
C -2.2641710478 1.3817880792 -0.0086632359
O -3.4456541532 1.8918557793 0.4575980827
C -3.3902131711 2.2850133205 1.8355458913
H 2.5851236661 0.2412820333 2.0177070045
H 1.6526350224 0.7822385215 0.6929087920
H 4.3470151278 -3.8610402764 2.2259160579
H 4.1219369456 -4.9991688974 0.9590618865
H 1.8621349883 -2.9017935012 -2.2551721753
H 1.1421283508 -0.6903708978 -2.6461487554
H 2.0797365355 0.5588299685 -1.8428068774
H -0.5859599483 -1.5756176505 -0.3540679349
H -1.7968101621 -2.3201781998 1.4523384881
H -3.5738336940 -2.5106194871 1.4169561364
H -2.6402317441 -2.6074552268 -0.1026436820
H 0.5785829212 2.3271648631 -1.6484166068
H -0.6358380667 4.1637074455 -2.3657786446
H 0.2166495594 4.4446093000 -0.8133760546
H -1.2200833215 5.4177639660 -1.2364476486
H -2.6459328782 3.0781955175 1.9822586238
H -3.1519394772 1.4260992318 2.4753385247
H -4.3824211423 2.6645564609 2.0879314763
