55
CONF144
C 5.4497062737 -1.9968904836 -3.1150594992
O 5.0472077146 -2.7220492313 -1.9453861830
C 3.8814989330 -2.3550281117 -1.3456064333
C 3.0487728542 -1.3260067752 -1.7957654625
C 1.8764874898 -1.0379366976 -1.1018438726
C 1.5113312537 -1.7571539303 0.0362913873
C 2.3530769002 -2.7901583278 0.4666260956
C 3.5256333985 -3.0885581367 -0.2082562980
C 0.2791348357 -1.4449052723 0.8405341835
S -1.1861779975 -1.3445280614 -0.2983881425
C -2.3781622176 -0.5112715353 0.7342426730
C -3.5355101378 -1.1904686051 1.1206567383
C -4.5311731153 -0.5423605808 1.8437150106
C -4.3585780259 0.7885754775 2.2142986771
C -3.2032012029 1.4700194156 1.8513173663
C -2.2134570404 0.8394048053 1.0939935236
N -1.0695580267 1.5812619643 0.6942106542
C -1.2668217179 2.8385429344 -0.0509077161
C -1.3562615093 2.6132578927 -1.5569827315
N -2.5055508849 1.8025808555 -1.9588120517
C -3.7654959478 2.5294953233 -1.8073741684
C -2.3460657720 1.3611699623 -3.3449418556
C 0.2120421259 1.1321151499 0.8554961224
O 1.1846136312 1.7366700891 0.4134907899
C 0.3695818470 -0.1478429360 1.6804199720
O 1.6667881864 -0.0634694403 2.3010905525
C 1.8602540390 -0.8247208991 3.4081019240
C 3.2689470850 -0.6945339024 3.8970454241
O 0.9979858579 -1.5201126733 3.9020974690
H 6.3940505705 -2.4430506617 -3.4277119065
H 5.6008153671 -0.9354888626 -2.8865459543
H 4.7092298906 -2.1018339075 -3.9165537002
H 3.2970786538 -0.7468227602 -2.6765589987
H 1.2401124760 -0.2369431335 -1.4630919119
H 2.0847885549 -3.3678590477 1.3474015964
H 4.1753557768 -3.8899426475 0.1283386442
H 0.1017844543 -2.2639214128 1.5429788988
H -3.6516918422 -2.2319900956 0.8399569832
H -5.4296823093 -1.0801595743 2.1274699001
H -5.1178425505 1.2974337518 2.7991486864
H -3.0622298805 2.5010201581 2.1588939990
H -0.4175092156 3.4919530673 0.1603563965
H -2.1659242969 3.3240622925 0.3326069640
H -1.3630804999 3.6081000469 -2.0487877678
H -0.4437106025 2.0988003656 -1.8800749249
H -4.5927275199 1.8934178794 -2.1380903861
H -3.7885970274 3.4646760405 -2.4004536509
H -3.9444715430 2.7834763080 -0.7580415921
H -1.4260719909 0.7750987503 -3.4432780277
H -3.1914617992 0.7259080683 -3.6290006532
H -2.2967005594 2.2068746632 -4.0583268632
H -0.3925264727 -0.1879463851 2.4637948581
H 3.9195839369 -1.2709599394 3.2298596842
H 3.5986724861 0.3459256475 3.8641715946
H 3.3457053036 -1.0949256005 4.9072335964
