45
CONF1459
N 6.3136706302 -0.3268294513 0.8169272819
C 5.9093658576 0.2147391406 -0.4760339548
C 4.4900067877 -0.2470584909 -0.8603116458
C 3.3919303448 0.2777496736 0.0639596839
C 2.0050970834 -0.1896869883 -0.3764156506
C 0.9060006126 0.3245552899 0.5445047891
N -0.4141769304 -0.1425995932 0.1000971871
C -1.5026065698 0.2984578211 0.9742039631
C -2.8337113792 0.0759531029 0.2693689969
O -2.7685371010 0.5713454033 -1.0538226639
O -3.1334585098 -1.3241631793 0.2911235947
C -4.5750993921 -1.5160918090 0.2434760551
C -4.9489994135 -2.2539210872 -1.0260872630
O -4.3452396744 -3.5475667734 -1.0919207975
C -5.2012415902 -0.1162844423 0.3502455012
O -6.4160785584 -0.0747439468 1.0839490913
C -4.0538662984 0.7186763972 0.9357579765
O -4.1592689463 2.1139636881 0.7421211067
C 5.9898044840 1.7378259753 -0.5416580410
O 5.8414782826 2.1908580841 -1.8058294908
O 6.1566607983 2.4747610605 0.4073776927
H 7.2796091621 -0.0707478233 0.9969384330
H 5.7790644638 0.1249965179 1.5531251168
H 6.5973754045 -0.1660588286 -1.2421751069
H 4.4925266763 -1.3430496599 -0.8493499947
H 4.2848191792 0.0692265179 -1.8887694761
H 3.4128793464 1.3768537328 0.0808036161
H 3.5722841667 -0.0576025808 1.0932769219
H 1.8065049740 0.1500560496 -1.4009300386
H 1.9810239857 -1.2883174711 -0.3937724349
H 1.1227426134 0.0154636226 1.5833096160
H 0.8971742195 1.4226398508 0.5333781347
H -0.4081014343 -1.1591820660 0.0770283731
H -1.3943459529 1.3765917565 1.1462982914
H -1.5242987714 -0.2031735586 1.9545137574
H -1.8295782945 0.4713523358 -1.3080079909
H -4.8531333386 -2.1196790826 1.1189668264
H -6.0336684769 -2.4088171350 -1.0439571059
H -4.6673743334 -1.6421281163 -1.8961812001
H -3.3889482587 -3.4102904744 -1.0726930263
H -5.4465166123 0.2723784133 -0.6458911204
H -6.2380244984 -0.3941371599 1.9790760835
H -3.9977154269 0.5455664910 2.0187873388
H -3.9816091165 2.2757683882 -0.1965272413
H 5.8855791069 3.1622255843 -1.7882811803
