63
CONF213
C 3.3775508145 0.3586425993 1.0759822728
C 2.5643986494 -0.3009580286 -0.0332603193
N 1.1323932338 -0.0000593920 0.1064014423
C 0.9247754714 1.4522632245 0.0087577375
C 1.6635477392 2.1914774691 1.1202045189
C 3.1551928417 1.8703391093 1.0458561289
N 3.9292799911 2.5661135182 2.0778292577
C 4.9508578712 3.4803370859 1.8421612433
C 5.4992925397 3.9749372857 0.6673271789
C 6.5387716556 4.9035239394 0.7807705289
C 7.0107480912 5.3205067102 2.0273290912
C 6.4605641357 4.8225120359 3.2119200907
C 5.4314061880 3.9023993751 3.0979626583
N 4.6876661910 3.2296862002 4.0489400604
C 3.7560934311 2.3967605680 3.4492621865
O 2.9493172246 1.6644394650 4.0198165696
C 0.3702430374 -0.7149385431 -0.9278804926
C -1.1358286487 -0.7255844102 -0.6811805139
C -1.8626602344 -1.5546910330 -1.7387907733
C -3.3875960133 -1.5506905461 -1.5419969344
C -4.1595819580 -2.1763912411 -2.6925291355
C -5.5044403366 -1.8282109634 -2.8666581868
C -6.2770942636 -2.3925700868 -3.8755776160
C -5.6783912756 -3.3197829706 -4.7128624960
C -4.3544223135 -3.6944133950 -4.5823188006
C -3.5994295056 -3.1136971502 -3.5631528373
F -6.4231431990 -3.8801000956 -5.7050870585
C -3.7777629550 -2.2086105497 -0.2277242216
C -4.3069675704 -1.4546340587 0.8209212435
C -4.6503363916 -2.0463977383 2.0359984742
C -4.4514100650 -3.4074417510 2.1761541072
C -3.9303743081 -4.1958328477 1.1626878147
C -3.5980687034 -3.5829158152 -0.0409808191
F -4.7827256172 -3.9997112845 3.3563315194
H 4.4410500360 0.1346911260 0.9363989291
H 3.0675179709 -0.0386715954 2.0478903203
H 2.6972721027 -1.3877848536 0.0109542941
H 2.9456154531 0.0368558249 -1.0197315586
H 1.2675369305 1.8291119975 -0.9779336804
H -0.1442350174 1.6700126935 0.0850748235
H 1.2693950815 1.8867890260 2.0946510498
H 1.5082943854 3.2705009581 1.0093269055
H 3.5331138333 2.2487946147 0.0886939406
H 5.1432635928 3.6591890874 -0.3068759012
H 6.9852191379 5.3057025072 -0.1227607222
H 7.8187123834 6.0427422667 2.0809168146
H 6.8224996172 5.1407652724 4.1837921698
H 4.7834697952 3.3065123943 5.0492912092
H 0.7241028866 -1.7539827624 -0.9387812679
H 0.5801964448 -0.2969319986 -1.9336813642
H -1.3306353378 -1.1355810625 0.3176133717
H -1.5419493482 0.2929199562 -0.6935956813
H -1.6387411776 -1.1546928912 -2.7364374572
H -1.4851339000 -2.5849939969 -1.7161103553
H -3.7052957284 -0.5020650084 -1.4799868297
H -5.9569002471 -1.1007178857 -2.1977425134
H -7.3179737528 -2.1209103386 -4.0153692530
H -3.9227594991 -4.4218054273 -5.2615103623
H -2.5599610270 -3.4053682542 -3.4608510028
H -4.4524656978 -0.3857945712 0.6920871344
H -5.0621018139 -1.4660763966 2.8547630870
H -3.7943915116 -5.2611824069 1.3154657501
H -3.1965779164 -4.1892974720 -0.8481648920
