49
CONF29
C -2.8979495951 3.5372217067 -0.1754960000
C -2.6865276241 2.0524108374 -0.1167398281
C -3.5724721679 1.1947707955 -0.6452179512
C -3.4439127311 -0.2835492315 -0.6041190459
C -2.4202450254 -0.9800508607 -1.5262770040
C -3.9292312974 -1.1800896995 -1.6941218034
C -4.5053964553 -0.5525317597 -2.9453664616
C -4.5618531368 -2.5040471560 -1.3318448071
C -1.5215991226 -1.9544797059 -0.9024290272
O -1.7736571952 -2.7063258639 0.0179726657
O -0.2822322982 -1.8755809171 -1.4897244548
C 0.8263741313 -2.5046570531 -0.8046753256
N 1.6642977788 -1.4877845250 -0.2407675499
C 2.5535035557 -0.7036679653 -0.9990817958
O 2.8792614483 -0.9340615783 -2.1461604094
C 2.9785445705 0.4196777893 -0.1219778884
C 2.3245453791 0.3232042772 1.0482109080
C 1.4464735100 -0.8763990863 1.0086452487
O 0.6797008229 -1.2781532094 1.8599188297
C 2.4415646165 1.2852553251 2.1722679168
C 3.1266463736 2.5671444199 1.6741662230
C 4.3502336972 2.2498785974 0.8046530328
C 3.9582175623 1.4804338824 -0.4662801163
C -1.4194895721 1.6108505635 0.5569572693
H -2.0607151456 4.0246486315 -0.6910521238
H -3.8252553082 3.7958248849 -0.6931838382
H -2.9314670114 3.9627564888 0.8353952058
H -4.4630649187 1.5974122604 -1.1265927045
H -3.4611267100 -0.7409794195 0.3852035522
H -1.9506269980 -0.3424542194 -2.2669939373
H -3.9984725559 0.3802182050 -3.2055492427
H -5.5699052282 -0.3359001159 -2.7999605773
H -5.6411849671 -2.3637840277 -1.2051172014
H -4.4089951209 -3.2343628807 -2.1343008022
H -4.1531380781 -2.9144229337 -0.4076656839
H 0.4593448721 -3.1609966573 -0.0137602219
H 1.3881638457 -3.0573217100 -1.5588548270
H 3.0198085105 0.8253904760 2.9862260855
H 1.4481648146 1.4953183751 2.5865696844
H 2.4063657007 3.1487618408 1.0844018547
H 3.4195514932 3.1843406538 2.5285886343
H 5.0555530738 1.6425861066 1.3861452756
H 4.8689601059 3.1731201837 0.5299840889
H 3.5084076790 2.1555106897 -1.2083660824
H 4.8352820114 1.0383698767 -0.9535069291
H -1.3672986590 2.0143917903 1.5758233413
H -0.5462162787 2.0066352177 0.0209978297
H -4.4122359910 -1.2435152479 -3.7897272748
H -1.3277418789 0.5247110284 0.6114053675
