52
CONF158
C 1.3094862691 3.2066845638 0.9419359693
C 1.7651411143 2.1219522545 -0.0085798703
C 3.0972756007 2.4249861064 -0.6829695980
C 3.4543474924 1.3390213440 -1.7048835889
C 2.3083898859 1.1195500349 -2.6914901769
C 0.9397151114 1.0336933059 -2.0022043323
O 0.7377362623 2.0147708387 -1.0276757212
O 0.8224651710 -0.3078228752 -1.4632953659
C -0.4342819991 -0.6366106883 -1.0278223666
C -0.6564189909 -0.8663870140 0.3048095802
O -1.8981481939 -1.1917928754 0.7652763166
C -2.9645238901 -1.2840972778 -0.0804430075
C -4.1910802448 -1.5771442849 0.4951090769
C -5.2886893778 -1.7014178576 -0.3580300996
C -5.1729764604 -1.5436874654 -1.7441430289
C -3.9356116914 -1.2522228313 -2.2938218092
C -2.7920893772 -1.1095843335 -1.4595076243
C -1.4956001241 -0.7920362352 -1.9992664851
O -1.2998246010 -0.6483851434 -3.2361687489
O -3.8136423401 -1.0963582582 -3.6224803041
O -6.5285344926 -1.9855693687 0.1120312658
C 0.3256180119 -0.7973572877 1.3814298529
C 1.6553930870 -1.1890061372 1.1671200786
C 2.5911194328 -1.0585638905 2.1776943309
C 2.2059347072 -0.5484809184 3.4289296486
C 0.8826318388 -0.1810988713 3.6522787565
C -0.0571314945 -0.3070162450 2.6377847509
O 3.1965758885 -0.4492056168 4.3587907249
O 3.8840416541 -1.4182186901 1.9330084314
O 2.3193639166 2.2512062431 -3.5634327522
O 3.7264107115 0.0989926040 -1.0599966661
O 4.0924271430 2.4537521177 0.3513161839
H 2.0261181697 3.3123176372 1.7595079156
H 1.2248075646 4.1655232541 0.4196840984
H 0.3345709145 2.9464474938 1.3643774973
H 1.8471062443 1.1644640468 0.5190453782
H 3.0323112958 3.3964581349 -1.1928662604
H 4.3332498837 1.6715732733 -2.2820197834
H 2.4825523435 0.1864256969 -3.2444433016
H 0.1447173906 1.1909991716 -2.7388244872
H -4.2804714225 -1.7084985270 1.5678145827
H -6.0448765198 -1.6487065163 -2.3794481601
H 1.9784453719 -1.5696200820 0.2076704466
H 0.5955216926 0.2143361351 4.6227232942
H -1.0807335392 0.0015457977 2.8142119934
H 2.8432806313 -0.0957426106 5.1861558399
H 4.4070752401 -1.2730830981 2.7349845085
H 1.6964022072 2.0838979872 -4.2820245588
H 4.2010437880 0.3098965119 -0.2417027734
H 4.8991845413 2.8315274330 -0.0230979387
H -6.5037307888 -2.0749907409 1.0749692172
H -2.8456228027 -0.8975237539 -3.7828115481
