45
CONF7
C 2.3289680018 -2.9938120010 0.8457097159
C 2.3885508843 -1.5507557985 1.3452978090
C 3.1367015918 -0.5934816275 0.4152310297
C 2.5873152647 -0.5456429705 -1.0174984428
N 1.1455803981 -0.3371158683 -1.1168785389
C 0.5185052213 0.8268389728 -0.7865689513
C -0.8974047288 0.8748574647 -0.7366684836
C -1.5616511733 2.0729010284 -0.5047147644
C -0.8772080857 3.2629887265 -0.2906645311
C 0.5185692690 3.2193758541 -0.3062531777
C 1.2030727737 2.0288588975 -0.5479768879
C 1.3320342287 4.4387896505 -0.0725574318
O 2.5482155028 4.4619474644 -0.0647605532
O 0.5783828263 5.5386518424 0.1342374677
S -3.3644386392 2.0869439566 -0.4626630812
O -3.8159998515 1.0869952262 0.5152681613
O -3.7791220585 3.4900472565 -0.3275217050
N -3.9251778736 1.5712707498 -1.9596188252
O -1.6232247921 -0.2544822735 -1.0502430081
C -1.6190080495 -1.3123452159 -0.1386584095
C -1.8867625901 -2.5716401705 -0.6650377210
C -1.9192417947 -3.6656083734 0.1937982680
C -1.6812415966 -3.5000392697 1.5573184415
C -1.4176189147 -2.2291616063 2.0617885136
C -1.3880621114 -1.1213388623 1.2180750115
H 1.7289037820 -3.0863201833 -0.0665467216
H 3.3320753494 -3.3773212450 0.6260943646
H 1.8749577790 -3.6465461433 1.5979156754
H 2.8767226633 -1.5253640677 2.3268733273
H 1.3691289894 -1.1776584697 1.5009540965
H 4.1919071762 -0.8885917416 0.3436283849
H 3.1232842738 0.4113024684 0.8538554895
H 2.7940512430 -1.4912397593 -1.5272518557
H 3.1052943879 0.2349937667 -1.5881912271
H 0.5770945434 -1.1690541300 -1.1283336217
H -1.4182298595 4.1809090400 -0.1088276091
H 2.2850094487 2.0547963840 -0.5728853045
H 1.1800726755 6.2879183550 0.2784132527
H -3.6205835164 0.6174389756 -2.1483087225
H -3.6116481384 2.1980923477 -2.6989395047
H -2.0620675463 -2.6810327530 -1.7302817576
H -2.1257096339 -4.6521040615 -0.2088813478
H -1.7022180172 -4.3567321701 2.2225307813
H -1.2346360347 -2.0905606894 3.1227074980
H -1.1931429769 -0.1279687379 1.6078958753
