50
CONF105
C 1.0399992831 0.0533664515 -1.8105485676
C -0.4468428335 -0.0909841481 -2.0327692542
C -1.0456651335 -1.4067478170 -2.4622701976
C -1.2990034408 -0.8865502852 -1.0394090295
C -0.6668434121 -1.5256369292 0.1194182369
O 0.2714253450 -2.2917735654 0.1325551025
O -1.2824084535 -1.0924778678 1.2681761592
C -0.6110790003 -1.4810209064 2.4825702723
C -1.5753254228 -1.2422529081 3.5579254777
N -2.2998978770 -1.0515592735 4.4364210681
C 0.6599605191 -0.6795045142 2.7190499916
C 0.7849375257 0.5906199306 2.1616135143
C 1.9520162438 1.3135620520 2.3960337428
C 2.9749680789 0.7844471607 3.1837105806
C 2.8274104154 -0.4831316944 3.7310542735
C 1.6711564971 -1.2263118031 3.5029154264
O 2.1963369472 2.5487113568 1.8420951697
C 1.1424820939 3.2732458983 1.2950619474
C 0.0586275209 3.6593516178 2.0782711881
C -0.9395283480 4.4417631059 1.5054638006
C -0.8472912239 4.8408156511 0.1723450321
C 0.2523579185 4.4570003249 -0.5908835096
C 1.2545971591 3.6660935283 -0.0326424585
C -0.2004261591 -2.5828984795 -2.7110674956
C -0.6049784775 -3.7339192944 -3.2554892159
C -2.0267907194 -4.0612717877 -3.6370186100
F -2.2711199199 -5.3854336131 -3.6556769762
F -2.3372867076 -3.5854539519 -4.8730971643
F -2.9090577154 -3.5095904817 -2.7717665087
Cl 0.5509217445 -4.9890980793 -3.6526110229
C -1.1021226463 1.1606780048 -2.5727932718
H 1.2239358777 0.9195613611 -1.1663574410
H 1.4982602865 -0.8161285618 -1.3386835743
H 1.5359405584 0.2339821810 -2.7701791003
H -1.9334888829 -1.3240501459 -3.0805085096
H -2.2901529742 -0.4888294628 -0.8500110224
H -0.3763129121 -2.5523550132 2.4597177781
H -0.0056880931 1.0011658098 1.5446498259
H 3.8743076681 1.3683228915 3.3476017725
H 3.6256383332 -0.8988507910 4.3372057714
H 1.5611172520 -2.2202803115 3.9247670007
H 0.0009266738 3.3491650303 3.1167147988
H -1.7890779585 4.7470080359 2.1081240030
H -1.6280815664 5.4529856892 -0.2668348584
H 0.3327499656 4.7680150068 -1.6277528200
H 2.1184236096 3.3557752541 -0.6110814282
H 0.8561383446 -2.5004639036 -2.4822976129
H -0.6370920107 1.4406339810 -3.5242480081
H -2.1730631072 1.0160786013 -2.7385530824
H -0.9660109667 1.9892270540 -1.8689111836
