48
CONF70
C -0.8020251859 -3.6696582926 -0.0827181365
O -1.3461698490 -2.6739871516 0.8069388834
N -1.6504596049 -1.5433601182 0.0856835937
C -2.0587983135 -0.5673371817 0.8284955384
C -2.2295709626 -0.6312214261 2.3003858657
C -3.1995222237 -1.4590025751 2.8699575735
C -3.3784112181 -1.4982116673 4.2487859757
C -2.5807482506 -0.7141403498 5.0786673418
C -1.5967535266 0.1054833065 4.5322050045
C -1.4341734705 0.1325972854 3.1577702772
O -0.4923091573 1.0250536463 2.6312432085
C 0.4941177408 0.5105229123 1.8613254086
C 1.0508291867 1.3355325704 0.8932075175
C 2.0338700237 0.7840865057 0.0802261866
N 2.4541428947 -0.4651479383 0.2415966713
C 1.8759634741 -1.1614277802 1.2226390964
N 0.9181399961 -0.7365813262 2.0439413060
O 2.5517541668 1.5754204562 -0.8871716454
C 3.3325156592 0.9648247182 -1.8682956649
C 4.7001293595 1.1893484626 -1.8670035867
C 5.4829425812 0.6556701387 -2.8862430856
C 4.8926053451 -0.0987256601 -3.8966561219
C 3.5180427536 -0.3204059760 -3.9003894164
C 2.7379967772 0.2184647855 -2.8844644072
Cl 1.0070239768 -0.0326756682 -2.8734252268
F 0.6193070547 2.5927154957 0.7123518086
C -2.3852529692 0.6794454422 0.1198976328
N -3.0389125257 1.5732565854 0.7917301555
O -3.3223856352 2.7856683714 0.1592782627
C -2.5257631907 3.0574293143 -1.0142932331
C -2.5320473487 1.8466927223 -1.9066614449
O -1.9721628305 0.7357134880 -1.1621420075
H -0.5812529329 -4.5280031606 0.5534645289
H -1.5365391430 -3.9420403045 -0.8465761944
H 0.1156579191 -3.2994936335 -0.5509713724
H -3.8254409977 -2.0590232421 2.2177240776
H -4.1441681599 -2.1382558265 4.6738725650
H -2.7176768743 -0.7413283443 6.1546195801
H -0.9565065218 0.7188092233 5.1569311438
H 2.2246537544 -2.1824579063 1.3652061164
H 5.1331980055 1.7776058411 -1.0649495165
H 6.5534628925 0.8295131613 -2.8869585100
H 5.4989036267 -0.5177781362 -4.6925167011
H 3.0497881156 -0.9018487265 -4.6866764433
H -2.9947958105 3.9182361164 -1.4952744902
H -1.5022016039 3.3058057020 -0.7078508216
H -3.5491413421 1.5857884469 -2.2178124818
H -1.8918557718 1.9784278157 -2.7803695108
