51
CONF18
C 0.4588548025 -0.1853188568 2.2026865239
C -0.3710657603 0.8743369514 1.5384258466
C -1.6267079819 0.6195135316 1.1341548861
C -2.5285747004 1.5965243372 0.4931603128
C -2.8347893898 1.5395358089 -1.0420231865
C -3.9016899324 1.2519458084 0.0047313758
C -4.4632263684 -0.1411202929 0.1777272809
C -4.9543754693 2.3352655189 0.1311787637
C -2.1390590811 0.5145005702 -1.8260439060
O -1.9923669906 -0.6612660677 -1.5473996906
O -1.5905337863 1.0758524880 -2.9444969177
C -0.6571052770 0.2282135883 -3.6633698456
C 0.6214151191 0.0942968215 -2.9024561199
C 1.4943671604 -1.0425202460 -2.8706406911
C 2.5202836620 -0.7303094809 -2.0310834366
O 2.3359455885 0.5335604559 -1.5313903747
C 1.1770216283 1.0222168187 -2.0779172760
C 3.7129525784 -1.4728090905 -1.5438676564
C 3.6242162945 -1.8045938512 -0.0664009084
C 2.8349215615 -2.8727395493 0.3690116475
C 2.7393077655 -3.1770805888 1.7237810452
C 3.4285011257 -2.4116762840 2.6635222973
C 4.2112154404 -1.3411975849 2.2386887078
C 4.3081198272 -1.0403912527 0.8808623689
C 0.3215766469 2.1934632650 1.3578396392
H 0.8270678816 0.1592465193 3.1778020389
H 1.3488484191 -0.4114684486 1.6002897502
H -0.1021337397 -1.1122385728 2.3488156332
H -2.0154130562 -0.3826292598 1.2952239491
H -2.4059479205 2.6259233332 0.8200028946
H -2.8901933721 2.5082309961 -1.5273387597
H -3.7151151948 -0.9203058668 0.0425853813
H -4.8979358648 -0.2338337554 1.1794296677
H -5.2631251559 -0.3079424496 -0.5520252520
H -5.7348876122 2.2020929134 -0.6261403289
H -5.4255080473 2.2838339806 1.1191427868
H -4.5204329191 3.3318786678 0.0089352845
H -0.5134970376 0.7385942036 -4.6193493160
H -1.1020518106 -0.7535135132 -3.8480032600
H 1.3672951331 -1.9757403743 -3.4006462129
H 0.8851607375 2.0130941009 -1.7671387440
H 4.6181538689 -0.8838795259 -1.7328810441
H 3.7871591770 -2.3932974824 -2.1304655469
H 2.2955362660 -3.4705978614 -0.3615374404
H 2.1267237413 -4.0134154022 2.0470880188
H 3.3541179831 -2.6483965842 3.7204529365
H 4.7503484115 -0.7391051844 2.9640507285
H 4.9245912204 -0.2079064629 0.5522190489
H -0.2469619929 2.8963292973 0.7462569049
H 1.2988266846 2.0383691452 0.8839957546
H 0.5201697201 2.6584744508 2.3322596560
