46
CONF6
C 1.7416129444 1.4063110390 3.7490476625
C 1.5919596135 1.1743281838 2.2655436015
O 2.7137641344 0.3300790196 1.8554787694
C 2.7742946004 -0.0604538332 0.5846922635
N 3.8274414571 -0.8143327450 0.2873408508
C 3.8756522968 -1.2076540951 -1.0028166551
N 2.9545231221 -0.8973463148 -1.9527267420
C 1.9610869021 -0.1413748382 -1.5094416057
N 1.8081641905 0.3231885444 -0.2583122095
N 0.9987153068 0.1822585845 -2.4534119257
C -0.1942009153 0.8942356318 -2.3445486404
O -0.9521676019 0.9843480394 -3.2984519103
N -0.4227104994 1.4759129713 -1.1148555280
S -1.9239028673 2.1483587344 -0.7004721063
O -1.8005948477 2.4001391907 0.7426241908
O -2.2161178969 3.2510074705 -1.6178554600
C -3.1570214007 0.8653377019 -0.9542251332
C -3.9933384317 0.9800232382 -2.0581312644
C -5.0314825229 0.0679837679 -2.2221416642
C -5.2381441931 -0.9291536273 -1.2751901549
C -4.4053604104 -1.0271962713 -0.1642004673
C -3.3438643978 -0.1384750463 0.0037781879
C -2.4035608802 -0.3616883645 1.1456179890
O -1.2236948539 -0.6124316041 1.0054106658
O -3.0409322885 -0.3181228533 2.3179743123
C -2.2137036389 -0.5776654798 3.4854851471
N 4.9071754247 -1.9682716272 -1.3915135316
C 5.9791956646 -2.3922794197 -0.5031678831
H 2.6862608512 1.9078165460 3.9764861700
H 0.9206640490 2.0427204928 4.0919368564
H 1.6984513631 0.4613017212 4.2978275663
H 0.6582441983 0.6561616837 2.0276823240
H 1.6377062904 2.1099112260 1.6982006797
H 1.1511799114 -0.2099322624 -3.3737648411
H 0.1990965844 1.1824575935 -0.3418294589
H -3.8376273204 1.7801186270 -2.7713409522
H -5.6827812210 0.1492175692 -3.0855186432
H -6.0542091633 -1.6336801727 -1.3957748659
H -4.5656517707 -1.8056677837 0.5741745546
H -2.8867794530 -0.4916360929 4.3366731450
H -1.4151539616 0.1656579093 3.5442762617
H -1.7876012282 -1.5813898935 3.4243993115
H 4.9246749697 -2.2494990609 -2.3588910916
H 6.5208171385 -1.5315876091 -0.0972510829
H 5.5887198289 -2.9809503271 0.3331266417
H 6.6712006154 -3.0080865766 -1.0790006164
