46
CONF108
C -1.7279836800 -1.5374530374 -0.5801018186
C -2.4833008592 -1.5786200605 0.7268917379
C -1.9790894609 -2.4090447890 1.8819316427
C -1.9329389201 -0.8691455865 1.9620249884
C -0.6564493405 -0.1322615082 1.9249434712
O 0.3918462523 -0.5071780787 1.4330055947
O -0.8067955415 1.0734227355 2.5281523131
C 0.3514237882 1.9685640868 2.4828595735
C 0.4031729634 2.6869943512 1.1642439864
C 1.2830569278 2.2615525138 0.1704682073
C 1.2813481390 2.9018478916 -1.0657087454
C 0.4318644304 3.9744940597 -1.3180834682
C -0.4315508052 4.4049798997 -0.3142045168
C -0.4542700671 3.7639565057 0.9204339000
O 2.1648079336 2.5512681496 -2.0702461639
C 2.4712909375 1.2128983609 -2.2579071921
C 3.7855574305 0.9117268762 -2.6006448733
C 4.1312099884 -0.4092421485 -2.8729174330
C 3.1750329865 -1.4196259058 -2.7957959166
C 1.8620741433 -1.0999162267 -2.4535853711
C 1.4990163154 0.2168717400 -2.1873424527
C -0.7576796521 -3.2102487440 1.7878632174
C -0.5175922661 -4.3186076013 2.4888673769
Cl 0.9511619833 -5.2425815247 2.2909686936
Cl -1.6061866514 -4.9920186233 3.6741695673
C -3.9857928881 -1.5042856820 0.5615399357
H -0.6463634633 -1.5316457706 -0.4497237302
H -2.0033069829 -2.4067165483 -1.1872011451
H -2.0060313605 -0.6354124532 -1.1360046987
H -2.7528782488 -2.8259583074 2.5188664468
H -2.6794436701 -0.4250334068 2.6115844027
H 1.2600161414 1.3905539666 2.6641471322
H 0.1758515522 2.6623633797 3.3067123658
H 1.9509616988 1.4284727585 0.3573889666
H 0.4567253486 4.4588272260 -2.2885671462
H -1.0931101077 5.2444183760 -0.5032999790
H -1.1343302346 4.0972142606 1.6986693847
H 4.5191305808 1.7095470992 -2.6514020594
H 5.1561524964 -0.6473367206 -3.1397589364
H 3.4493488096 -2.4486476138 -3.0029708376
H 1.1077313514 -1.8790308225 -2.4005716438
H 0.4764826240 0.4681636664 -1.9261755232
H 0.0192649325 -2.8985642779 1.0999889518
H -4.4981448759 -1.5484821615 1.5264388058
H -4.3348823359 -2.3402128653 -0.0545524513
H -4.2664070415 -0.5708674391 0.0616290531
