14
CONF7
C 0.6772622116 -0.7818763789 -0.0442430783
C -0.3790490746 -0.4365715334 -1.0843599320
C -1.5804736738 0.3157767570 -0.5632776854
O -2.3128869080 0.9945077770 -1.2379577626
O -1.7897803912 0.0975935428 0.7643186987
C 1.2648228414 0.4537223525 0.5877331316
O 1.0016071422 1.5909154709 0.2793670403
O 2.1553699721 0.1351735794 1.5612657172
H 0.2747435682 -1.4161819131 0.7513720691
H 1.4980251365 -1.3469917227 -0.5015397629
H -0.7632019159 -1.3578240416 -1.5393361112
H 0.0387212034 0.1690460739 -1.8915336235
H -2.5781692468 0.6095566792 1.0033954638
H 2.4930091405 0.9731533623 1.9147955282
