22
CONF209
C 1.9548144906 -0.8302582115 -0.3878440508
C 1.2920970017 -0.1379441294 0.7976364920
C -0.0353628808 0.5601469909 0.4588581469
C -1.0417328160 -0.3493012180 -0.2505698130
C -2.4071120426 0.3090752342 -0.4180205243
O -3.0079243518 0.6343354490 0.8379831240
O -1.1632081637 -1.5366395604 0.5513285602
O 0.2003241698 1.7364201848 -0.3284858679
O 2.1870297366 0.8176639913 1.3887456481
O 2.1746018996 0.0596460293 -1.5019463392
H 1.3129011192 -1.6362879875 -0.7565688802
H 2.9043945125 -1.2717672656 -0.0596553544
H 1.1000181712 -0.9019616749 1.5589592844
H -0.4783294927 0.9148276870 1.3969465964
H -0.6565262986 -0.5942023725 -1.2539763733
H -2.3020921547 1.2434957318 -0.9762818871
H -3.0549907932 -0.3688884539 -0.9957020245
H -2.9942075840 -0.1749873583 1.3677267801
H -1.6866693303 -2.1784280377 0.0533589084
H 0.7089324320 1.4424010220 -1.1041173534
H 2.0571141157 1.6486363350 0.9076089107
H 2.9359284658 0.6140175987 -1.2859838722
