42
CONF86
C 3.1934337728 2.6623970190 -0.5084748233
C 2.2198325172 1.4823697147 -0.5513292834
C 1.5719790241 1.3447880619 -1.9288832854
C 2.9796249719 0.2214532818 -0.1601119892
O 2.1352586492 -0.9695908247 -0.2185098503
C 1.3155009025 -1.1817794745 0.8189420178
O 1.2320801943 -0.4644354991 1.7990222636
C 0.5400802405 -2.4440723045 0.6593007646
C 1.1684764564 -3.5930790827 0.1766099540
C 0.4950332970 -4.8108266817 0.1713465948
C -0.8097484238 -4.8887252168 0.6499054316
C -1.4459280427 -3.7463994486 1.1265317165
C -0.7818715459 -2.5212325344 1.1251348970
C -1.5413694115 -1.3175201995 1.5719762719
O -2.2082362596 -1.2742607352 2.5881261297
O -1.4515804142 -0.3246779549 0.6781437658
C -2.1305193349 0.9201160399 1.0223383868
C -1.9362108431 1.8956968184 -0.1240134438
C -2.5632923247 3.2363779239 0.2661410238
C -2.5334031241 1.3628754278 -1.4262970242
H 3.9991517445 2.5243303974 -1.2392399782
H 3.6451252020 2.7739732320 0.4827411604
H 2.6723855036 3.5928423517 -0.7526596230
H 1.4355495088 1.6497360098 0.1972272994
H 1.0401749375 2.2645901373 -2.1929728593
H 2.3343421677 1.1596103479 -2.6952894374
H 0.8531937659 0.5201017660 -1.9547414193
H 3.4006845935 0.3044124968 0.8460088804
H 3.7772390736 0.0133873886 -0.8791484902
H 2.1954788354 -3.5356017523 -0.1665122778
H 0.9945678490 -5.7002061065 -0.1983764914
H -1.3362549313 -5.8374454127 0.6484532542
H -2.4700807607 -3.7935704678 1.4819617228
H -1.6971273607 1.2990580483 1.9544025264
H -3.1931983077 0.7043212313 1.1848027118
H -0.8565965926 2.0419594266 -0.2607703260
H -2.4117768023 3.9710595736 -0.5300760501
H -2.1223641560 3.6336562237 1.1862700762
H -3.6427200578 3.1260344317 0.4227029600
H -2.0755495849 0.4138359902 -1.7189587374
H -2.3787101708 2.0803553996 -2.2383051791
H -3.6126543398 1.2040857337 -1.3134193467
