47
CONF10
C -4.2009672933 -4.8631057959 0.1585502641
O -4.0971788372 -3.4642414358 0.5487328151
P -5.1541551643 -2.3986459971 0.0002076586
S -5.5759937112 -2.4435592933 -1.8945540373
O -6.3610490327 -2.5883721424 1.0309469570
C -7.6132805589 -1.8757783143 0.8259539919
O -4.5057244671 -1.0174134019 0.5510897703
C -3.5605325912 -0.3057448725 -0.1940436171
C -2.2544857790 -0.7733360987 -0.2915554937
C -1.3219210464 -0.0257570662 -0.9985210297
C -1.6924922132 1.1935605798 -1.5732862945
C -3.0057249421 1.6523019939 -1.4554451233
C -3.9506393871 0.8919146675 -0.7730254570
S -0.5370928366 2.1596664790 -2.5386304524
C 0.9321295462 2.1478408328 -1.5182067680
C 0.8658790647 2.2894780692 -0.1291801907
C 2.0334108475 2.3149108859 0.6216582467
C 3.2588274075 2.2302972167 -0.0266531911
C 3.3457716726 2.1157366570 -1.4065168159
C 2.1727540857 2.0608505667 -2.1533682289
O 4.4183087271 2.3107619129 0.7507208304
P 5.3715049517 1.0205739630 0.9904039925
S 4.4659140930 -0.6915364274 1.1333504641
O 6.2290556626 1.5081859422 2.2486041418
C 5.6755540842 1.4034485748 3.5901712715
O 6.4242998574 1.2047967848 -0.1977711050
C 7.4289825265 0.1799682939 -0.4439251722
H -4.1364611637 -4.9533552936 -0.9285840418
H -5.1409074892 -5.2858657219 0.5230777416
H -3.3552849076 -5.3607270751 0.6319881057
H -7.4422654197 -0.7965233924 0.8677118461
H -8.0494600041 -2.1565569776 -0.1358510687
H -8.2630676828 -2.1857117439 1.6437281849
H -1.9764248002 -1.7140765970 0.1709099720
H -0.3037322346 -0.3880273622 -1.0934983206
H -3.2925527897 2.6027666804 -1.8930352598
H -4.9764228631 1.2301689753 -0.6751470531
H -0.0946925338 2.3690546129 0.3684539994
H 2.0008095827 2.4096380196 1.7017566644
H 4.3145106142 2.0522862675 -1.8902876674
H 2.2273749438 1.9456045015 -3.2309825576
H 4.7737084992 2.0164158981 3.6732017641
H 5.4500176336 0.3593015595 3.8207036485
H 6.4501145849 1.7817593185 4.2564722864
H 7.9917718816 0.5260084791 -1.3102081121
H 8.0888351936 0.0853963846 0.4225061344
H 6.9429731986 -0.7743589017 -0.6615777025
