47
CONF10
C -1.1278214933 -0.0648950752 2.6306607965
C -1.2057025142 0.6760395141 1.2992243723
C -2.4209822578 1.6004710325 1.2197309415
C -2.5214834762 2.3450076134 -0.0938148324
O -2.7181618042 1.3481630394 -1.1384853274
C -2.5241091158 1.7621972075 -2.3945425717
O -2.2951426656 2.9013656350 -2.7328031330
C -2.6669910921 0.6190673081 -3.4024054903
C -4.0975851177 0.5680390491 -3.9173345217
O -2.3823440749 -0.6627935217 -2.8477774943
C -1.1326473294 -0.8784142100 -2.3352392306
C -0.0646461425 0.0153651544 -2.4470147931
C 1.1614165328 -0.3040176383 -1.8704524572
C 1.3106985278 -1.5006127891 -1.1926712486
C 0.2605466976 -2.4006715729 -1.0859284706
C -0.9631071328 -2.0885662081 -1.6587971789
O 2.5617728849 -1.8648814022 -0.6745037038
C 2.9809861356 -1.2789756338 0.4758577254
C 4.2746718869 -1.6164476183 0.9035465861
C 4.7284170081 -1.0465485093 2.0718054476
C 3.8910803457 -0.1694401154 2.7726543554
C 2.6301937735 0.0925384532 2.2584652906
N 2.1764998417 -0.4540822765 1.1250390454
C 4.3779381534 0.4723566437 4.0309665562
F 4.8912442536 -0.4421114854 4.8930609146
F 3.3975046719 1.1349507252 4.6825283663
F 5.3721477426 1.3670924150 3.7889409001
H -0.2693950328 -0.7421643365 2.6490178380
H -1.0334653359 0.6311560554 3.4722914255
H -2.0295442271 -0.6642492863 2.7978968563
H -0.2899397484 1.2605412416 1.1416964098
H -1.2421244614 -0.0484563946 0.4787748168
H -3.3423335283 1.0258534661 1.3798030522
H -2.3751680772 2.3501441691 2.0211863789
H -1.6074898882 2.9048947006 -0.3197034055
H -3.3674625753 3.0402888686 -0.1198220988
H -1.9784817887 0.8435163334 -4.2285524716
H -4.3640066186 1.5303092326 -4.3607302543
H -4.7839674989 0.3458268522 -3.0960952319
H -4.1876872400 -0.2133526895 -4.6755279728
H -0.1657409024 0.9599251283 -2.9681496108
H 1.9971158444 0.3833149500 -1.9424228274
H 0.4050472518 -3.3334182191 -0.5520523603
H -1.8056369640 -2.7668558031 -1.5838883508
H 4.8770707041 -2.3029060263 0.3210679548
H 5.7204181259 -1.2745442657 2.4481820989
H 1.9483967266 0.7627801890 2.7763162366
