20
CONF71
C -0.0626117980 -0.7158013540 -0.1598825609
O 0.6980888105 -0.1657171989 -1.2612372045
C 1.9369261476 0.2023802523 -0.8127674231
O 2.7667277587 0.7200333593 -1.5366399861
C 2.0591005054 -0.1408922560 0.5908121991
O 3.1760460824 0.0816954837 1.3232898629
C 0.9026448226 -0.7081381094 0.9840495795
O 0.5024008266 -1.1970332640 2.1647391482
C -1.3246908676 0.1222948325 0.1255482192
O -1.0162445686 1.5070733808 0.2544494816
C -2.4058921650 -0.0060548051 -0.9372550052
O -2.0117810692 0.4533444185 -2.2287138241
H -0.3623303374 -1.7379284218 -0.4258570690
H 3.8404409080 0.4849559088 0.7428106838
H 1.2098993882 -1.1061708526 2.8216468342
H -1.7497776495 -0.2810864674 1.0588366500
H -0.4885651370 1.6428857148 1.0521623212
H -3.2906022451 0.5414394578 -0.5802000375
H -2.6750377556 -1.0612352317 -1.0452774373
H -1.7047414450 1.3639550465 -2.1305147389
