19
CONF1
C 2.4480146025 -0.6683333612 -0.1579682502
C 2.4077717039 0.6995507966 -0.4213005650
C 1.1972408719 1.3913920015 -0.3812016246
C 0.0323563854 0.6975487388 -0.0809901804
C 0.0726215521 -0.6750686477 0.1834539732
C 1.2783022380 -1.3635292616 0.1492063252
C -1.3099315440 -1.1870962451 0.5038862339
C -2.2253839505 -0.0761125614 -0.0556422420
C -1.3803053938 1.2130253073 0.0410388648
H 3.3952801686 -1.1969456656 -0.1979254127
H 3.3240056980 1.2282931833 -0.6646167768
H 1.1688426562 2.4574106046 -0.5891148601
H 1.3126513930 -2.4304381693 0.3518441455
H -1.4304872657 -1.2800985647 1.5924803360
H -1.5172652275 -2.1709645936 0.0716862701
H -3.1805919802 -0.0025813014 0.4708326505
H -2.4376773360 -0.2855370052 -1.1097211640
H -1.6377734497 1.9519792082 -0.7240339563
H -1.5176711221 1.6975058487 1.0180863228
