53
CONF9
C 0.9020817386 -0.0940602465 -1.7936879698
C 2.2826342420 -0.4157605314 -1.2433823738
N 3.1525438769 0.7647648838 -1.3131707604
C 2.5365181850 1.8676672999 -0.5677696365
C 1.1534552239 2.1816781117 -1.1174175424
N 0.2987859874 0.9978701519 -1.0317895208
C -1.0770245513 1.2612013856 -1.4537556932
C -1.8464787585 2.1291124212 -0.4543154122
C -1.6532040977 1.6587579235 0.9900269971
N -1.9113883480 0.2200766339 1.1321597814
C -0.9485605002 -0.6076967012 1.7353891708
C -0.0552244363 -0.1178766582 2.6981006295
C 0.9336370755 -0.9378276147 3.2342866102
C 1.0252831244 -2.2754462454 2.8616288831
C 0.1081802576 -2.7925873887 1.9501461108
C -0.8551774631 -1.9638332046 1.3820824486
S -1.9281752002 -2.6040570205 0.1137359069
C -3.3634381545 -1.6109724477 0.4473373290
C -3.1883561368 -0.2777283447 0.8627901637
C -4.3259114433 0.5311204970 0.9964409823
C -5.5760781715 0.0047067479 0.7012472074
C -5.7611823704 -1.3128502030 0.3088073011
C -4.6326181857 -2.1227816035 0.2033525967
Cl -6.9819489883 1.0588703502 0.8487177381
C 4.5047636655 0.4777479759 -0.8191985213
C 5.3042851997 -0.2966076839 -1.8582667830
O 5.3057812084 0.3955461526 -3.1133114570
H 0.2656640605 -0.9826019873 -1.7016364212
H 0.9859352781 0.1546263347 -2.8714031990
H 2.7206130061 -1.2298506311 -1.8303998669
H 2.1825061402 -0.7672594607 -0.1957819351
H 3.1745376809 2.7542682823 -0.6567168637
H 2.4461545170 1.6186963906 0.5091238371
H 1.2436077030 2.5381740834 -2.1639836640
H 0.7185687777 2.9945571768 -0.5254225676
H -1.5813689038 0.2902226408 -1.5345061178
H -1.1192075183 1.7322673398 -2.4552934656
H -2.9045332527 2.1188380620 -0.7379684633
H -1.5257237106 3.1758985311 -0.5019801022
H -2.2621625371 2.2553094425 1.6821105586
H -0.6104271363 1.8186323059 1.2600952638
H -0.1287368160 0.9106949925 3.0316831156
H 1.6250938408 -0.5243204248 3.9615443821
H 1.7922728578 -2.9170497603 3.2820861555
H 0.1528449006 -3.8367202094 1.6552092504
H -4.2397225878 1.5586391228 1.3247721819
H -6.7477611302 -1.7017062182 0.0880493191
H -4.7425955883 -3.1571614411 -0.1070836966
H 5.0058962877 1.4361265347 -0.6363064559
H 4.4904366729 -0.0816020266 0.1357081777
H 6.3443227590 -0.3845075699 -1.5278898112
H 4.9063715758 -1.3146788639 -1.9839826338
H 4.4042312343 0.7466601396 -3.2002114656
