44
CONF33
C 3.9651475870 3.6155020908 -1.7683285411
C 2.9093690871 2.5635718271 -1.7134054696
N 1.7728040440 2.8560014227 -1.0766855072
C 0.8676366253 1.8622843287 -1.0334463595
N 1.0490968384 0.6515420096 -1.5714903334
C 2.2214404587 0.4786094307 -2.1901906359
N 3.1895024948 1.3852551963 -2.2970735738
O 2.3691301899 -0.7296858350 -2.7226717216
C 3.6183521653 -1.0150885994 -3.4030038797
N -0.3177144146 2.1517594767 -0.3714454464
C -0.4212825692 3.4776863928 0.2705842061
C -1.4696400235 1.3296064270 -0.2898510845
O -2.4697805710 1.6991875178 0.3052871133
N -1.3919848610 0.1102755092 -0.9189927861
S -2.6294569290 -1.0453568243 -0.7943319992
O -3.8659683186 -0.4791292294 -1.3375884060
O -2.0396714484 -2.2444353498 -1.4061026249
C -2.8820374700 -1.3592456369 0.9589989959
C -4.0008511654 -0.7873616944 1.5559099533
C -4.3028951817 -1.0991691093 2.8767853557
C -3.5056834543 -1.9970780154 3.5796851270
C -2.4012486983 -2.5807782325 2.9686483463
C -2.0632916621 -2.2574660195 1.6541607459
C -0.8488758056 -2.9229281887 1.0860755572
O -0.6980564331 -4.1254559567 1.0651946914
O 0.0657430867 -2.0286868266 0.6931979587
C 1.2761405945 -2.5878609699 0.1159165530
H 4.4796999860 3.5890333195 -2.7310724184
H 3.5410008142 4.6023857622 -1.5826778788
H 4.7107725920 3.4060447330 -0.9914875289
H 3.5173355811 -2.0447887663 -3.7428458273
H 4.4567959481 -0.9166920864 -2.7104435952
H 3.7497963464 -0.3393895712 -4.2506334076
H -1.3479081483 3.5015675243 0.8370425047
H -0.4280164778 4.2650852827 -0.4866229082
H 0.4290435732 3.6283580805 0.9361823147
H -0.4724566789 -0.1913234517 -1.2848477395
H -4.6295801822 -0.1145218840 0.9863870897
H -5.1698349132 -0.6489764616 3.3479538029
H -3.7461768911 -2.2514114570 4.6064934791
H -1.7821360683 -3.2886894169 3.5097028805
H 1.9198699372 -1.7329676633 -0.0815675721
H 1.7446016737 -3.2751902135 0.8232670172
H 1.0312686787 -3.1100782951 -0.8121892727
