40
CONF49
C 2.7957507161 -2.6738512075 -0.7079617027
O 3.0537014416 -1.3202646241 -1.1708272095
C 3.8625991520 -0.5847319651 -0.3934881642
O 4.3626225978 -0.9736089860 0.6382553591
C 4.0737382964 0.7814987879 -1.0221324929
S 4.3854619679 2.1178250192 0.1710042013
C 2.7920546830 2.3177650048 0.9361082087
C 1.6900567513 1.5038553425 0.6674244064
C 0.4479318531 1.6963149049 1.2907477111
C 0.3617298654 2.7338830292 2.2275350609
C 1.4276374917 3.5575202115 2.5265173484
C 2.6360969175 3.3444476724 1.8757967020
Cl 3.9913170377 4.3896010165 2.2588250586
F -0.8152242267 2.9462802363 2.8573263583
N -0.6502977647 0.8751721404 1.0895526715
C -0.9986613230 0.4897616602 -0.0833314119
N -1.9736052784 -0.4578286698 -0.2800241481
N -2.4830452754 -0.4711322743 -1.5920280455
C -1.7423770882 0.1971182242 -2.5156933373
O -1.9001041143 0.1838854449 -3.7218320372
S -0.4243122069 1.1101177704 -1.6670016964
C -3.2637070283 -1.6650841561 -1.9611889190
C -4.3716986957 -1.8845886780 -0.9424365121
C -3.7750387391 -1.9565221545 0.4602333790
C -2.9884986215 -0.6916537609 0.7708811364
H 2.3181251156 -2.6437833688 0.2739270918
H 3.7315531993 -3.2341712170 -0.6536813946
H 2.1272668661 -3.1069868571 -1.4501587587
H 3.2541745705 1.0358015868 -1.6993881041
H 4.9925920604 0.7276951870 -1.6192878200
H 1.7754877023 0.6686406173 -0.0157651459
H 1.3117741312 4.3553674865 3.2509686151
H -3.6551828889 -1.4783893863 -2.9622081698
H -2.5871339658 -2.5305473626 -1.9948119713
H -5.0950823318 -1.0628545912 -1.0032596100
H -4.8937631834 -2.8128079319 -1.1922833373
H -4.5620797525 -2.0606166611 1.2129754746
H -3.1152503988 -2.8285437985 0.5435092339
H -2.4450680659 -0.7788104422 1.7115845094
H -3.6515426636 0.1842266443 0.8223224444
