44
CONF15
C 1.1134207329 -0.0201663906 2.6075919703
C -0.0557560176 0.8643974238 2.1802533177
C 0.1382506233 1.4513461527 0.7692896292
C 0.2364229999 0.3827745608 -0.2931800540
C -0.7798315507 -0.5618875276 -0.5760992368
C -0.4962918634 -1.7028133342 -1.3827912770
C 0.7410654677 -1.8351885753 -1.9934055568
C 1.7305473299 -0.8826587142 -1.8164129464
C 1.4568529944 0.1922201047 -0.9510252302
O 2.4313662836 1.1158549918 -0.6782138532
C 3.6450529018 1.0064166839 -1.2519053317
C 3.9934144389 0.0244840560 -2.1097987606
C 3.0438901818 -1.0133092751 -2.4638158655
O 3.3199239064 -1.9336642916 -3.2398058175
C 4.5373613410 2.1176790419 -0.7962281318
O 4.1927568735 2.9621562192 -0.0004780897
O 5.7408038032 2.0467721457 -1.3758828776
C -1.4789920619 -2.7906965878 -1.5531153705
O -1.2864913276 -3.7463790372 -2.3206235574
C -2.6424645462 -2.6776287500 -0.7186050714
C -2.8917412222 -1.5294803671 -0.0351662185
N -2.0675770330 -0.4295831192 -0.0454394150
C -2.7434432148 0.9063612211 0.0084665394
C -2.5949528567 1.6702166490 -1.2989040058
C -4.1014992521 -1.5157145871 0.8580377643
O -5.1466618865 -2.0555587313 0.5727762737
O -3.8482973619 -0.9111301053 2.0293680452
H 0.9740150087 -0.3852241732 3.6294565175
H 1.2111042838 -0.8924355400 1.9518195261
H 2.0571853923 0.5354974295 2.5701300496
H -0.9893688464 0.2933203525 2.2341412640
H -0.1601363540 1.7059464524 2.8746489276
H -0.6520118938 2.1690009671 0.5403246244
H 1.0632490985 2.0288869480 0.7690158652
H 0.9353441439 -2.7048666132 -2.6107465323
H 4.9890351760 0.0007455734 -2.5332051896
H 6.2874281387 2.7812627870 -1.0462120169
H -3.3322889498 -3.5090191911 -0.6408123938
H -3.8037606393 0.7109547263 0.1680224172
H -2.3976999460 1.4769454726 0.8710002424
H -3.1718256081 2.5963841827 -1.2235060613
H -1.5572793621 1.9319852989 -1.5184634515
H -2.9898218406 1.0815135201 -2.1322347777
H -4.6502977820 -0.9557191404 2.5802122120
