41
CONF90
C -2.6334184101 4.7358295893 0.3337243970
C -1.3877199478 3.8556716804 0.2991802107
C -0.6377604113 4.0209080804 -1.0272516481
N -1.7871959343 2.4657899409 0.5850102233
C -0.6800776590 1.5081570169 0.6818147493
C -1.1951150626 0.2455036762 1.3702294622
O -1.8118568036 0.5786510621 2.6115117158
C -0.0837183113 -0.7366343787 1.6975367000
O 0.4766751794 -1.1581259656 0.4527463255
C 1.4404066117 -2.1220914944 0.4664688778
C 1.9505198187 -2.6969520307 1.6314113750
C 2.9374777018 -3.6779619041 1.5399134296
C 3.4180469064 -4.0823306217 0.3011242784
C 2.9042818147 -3.4942240049 -0.8546769899
C 1.9179344970 -2.5143187022 -0.7986911374
C 1.3402523059 -1.8990384109 -2.0518225370
C -0.0069697973 -2.4765158914 -2.3930535783
C -1.1324187532 -1.7741524615 -2.4903157832
H -2.3684727214 5.7860986856 0.1805553166
H -3.3282845312 4.4462831729 -0.4641190545
H -3.1515117807 4.6402573518 1.2921782688
H -0.7203567063 4.1590938990 1.1186881530
H -0.3592002164 5.0679061920 -1.1860444411
H -1.2747439064 3.7087017797 -1.8641329202
H 0.2784315203 3.4233784696 -1.0521325765
H -2.4296304118 2.1579581362 -0.1422290213
H -0.2253661942 1.2383300657 -0.2839638765
H 0.1033528530 1.9542140793 1.3104782620
H -1.9195664861 -0.2568773295 0.7039934008
H -2.2420903036 1.4344710238 2.4401875705
H -0.4999062378 -1.5930761056 2.2445472504
H 0.6792209844 -0.2501827802 2.3228366382
H 1.5910944567 -2.3897427155 2.6059602711
H 3.3284028605 -4.1212097116 2.4504456076
H 4.1881564730 -4.8430762526 0.2305140119
H 3.2779348475 -3.7996532706 -1.8287791864
H 1.2531754301 -0.8130691936 -1.9403434881
H 2.0338717752 -2.0958127921 -2.8788776244
H -0.0259864855 -3.5540397633 -2.5586059216
H -1.1408608937 -0.7007603613 -2.3145944412
H -2.0770075731 -2.2467173575 -2.7414222643
