55
CONF22
C 1.6167572697 -0.4014927733 2.6260797046
C 2.7017121006 -0.9082428059 1.6896060466
N 3.2703617751 0.1975979239 0.9117249785
C 2.1983041960 0.8583671127 0.1583578853
C 1.1095752916 1.3556250990 1.0954820309
N 0.5433756273 0.2432977084 1.8642323190
C -0.5392825980 0.6800764494 2.7475604933
C -1.8368087424 0.9990583753 1.9799435688
C -2.3973613367 -0.2380436856 1.3585292797
C -2.3480883318 -0.6238548709 0.0691539154
C -2.7768081852 -1.9820763545 -0.3216437523
C -3.9616183788 -2.5541385301 0.1559033605
C -4.3044299109 -3.8628632305 -0.1631495352
C -3.4729974747 -4.6202908991 -0.9867151571
C -2.3073755699 -4.0630540723 -1.5009423809
C -1.9660448182 -2.7507444899 -1.1712177574
S -0.4306513728 -2.0956776889 -1.7961510710
C -0.8420268355 -0.3746302933 -1.9046595085
C -1.7691771311 0.1952101396 -1.0133804294
C -2.1119929849 1.5357606453 -1.1942592309
C -1.4721272755 2.3102072222 -2.1586137709
C -0.4982360569 1.7537296555 -2.9852732693
C -0.2025498882 0.4025026940 -2.8715274832
C -1.8457901114 3.7554251747 -2.2636373986
F -1.5139111268 4.4466293336 -1.1362782607
F -3.1855977822 3.9256136139 -2.4248193360
F -1.2407488625 4.3817869866 -3.2964404281
C 4.3477731783 -0.2689142293 0.0308083890
C 5.2227963755 0.8970097569 -0.4107523487
O 5.6935704829 1.6316654914 0.7245637128
H 2.0675267796 0.2952009775 3.3619053937
H 1.1976627076 -1.2493127683 3.1803794312
H 3.5007738481 -1.3737054350 2.2779342605
H 2.2713091002 -1.6834668575 1.0246135207
H 2.6076723972 1.7136317400 -0.3898276846
H 1.7539758027 0.1645051474 -0.5824041400
H 1.5304138178 2.1314233608 1.7672619052
H 0.3253511424 1.8267855602 0.4934754159
H -0.7410861590 -0.1302038751 3.4595078321
H -0.2470941065 1.5690624681 3.3397433146
H -1.6477446983 1.7877024981 1.2508292428
H -2.5549912381 1.4026461954 2.7044061104
H -2.7853099555 -0.9677720083 2.0693364776
H -4.6133415719 -1.9560610735 0.7855532592
H -5.2244589375 -4.2893125672 0.2231541887
H -3.7381813731 -5.6402318210 -1.2454334976
H -1.6653686428 -4.6418482784 -2.1577380779
H -2.8838078486 1.9738253208 -0.5701085638
H 0.0038456079 2.3555040912 -3.7333686028
H 0.5206617124 -0.0516656000 -3.5410660376
H 3.9580922024 -0.8038398684 -0.8564344502
H 4.9660162445 -0.9729685006 0.6009330592
H 6.0984461363 0.5142708499 -0.9451613381
H 4.6777110085 1.5615667434 -1.0980494063
H 4.9413241413 1.6387242524 1.3393686347
