61
CONF554
C -5.9789114204 1.1071447152 -2.4382404639
C -4.5480850203 1.4719276165 -2.0422432231
C -3.5438255095 0.3307613659 -2.2289028253
C -3.8611218020 -0.9615426348 -1.4633487852
C -2.7506401186 -2.0223780867 -1.6616717929
C -1.8672530333 -1.9282259513 -0.3821542637
N -2.4371071367 -0.8239937326 0.3971522808
C -3.8638121577 -0.7877560174 0.0560347902
C -2.1715954970 -0.9378360478 1.8284214110
C -0.4053896763 -1.6966520314 -0.7306322486
O 0.3392647764 -2.6478272220 -1.0384447267
N -0.0108403313 -0.4194469480 -0.7003981584
C 1.3104926338 0.0504986655 -1.0665089425
C 2.2280833779 0.2689221582 0.1583875103
C 3.0562083262 -0.9626803196 0.5337767647
C 3.8938780291 -0.6629420464 1.7820932843
C 3.0063553938 -0.1014329435 2.9050853509
C 2.1261357934 1.0584888154 2.4148075505
O 1.4006198697 0.6965463595 1.2499151558
S 3.0698580718 2.6498584578 2.2323466627
C 1.6820136412 3.8075524580 2.5492793494
O 2.1705882983 -1.1271206081 3.4432433036
O 4.8911396695 0.2779371641 1.3853078241
O 2.2680341757 -2.1094173490 0.8537446066
C 1.2162256886 1.3178619835 -1.9443486253
C 0.5973692631 2.5208683440 -1.2583211405
O 0.4364032620 1.0597397864 -3.1190593560
H -6.0115107203 0.7126281344 -3.4604551714
H -6.4001966725 0.3457231663 -1.7739908969
H -6.6340911978 1.9827585711 -2.3934841255
H -4.2110758103 2.3229872777 -2.6468664994
H -4.5319340208 1.8187933258 -1.0014128417
H -2.5443328050 0.6797509996 -1.9397343448
H -3.4859672853 0.0803424386 -3.2972641707
H -4.8233143913 -1.3576626611 -1.8022134936
H -3.1695932557 -3.0279279971 -1.7422666499
H -2.1714997924 -1.8304365919 -2.5703080559
H -1.9071434196 -2.8832058285 0.1690630168
H -4.4118149257 -1.6229603616 0.5333281064
H -4.3142293170 0.1498250487 0.3986740409
H -1.0903820044 -0.9524963176 2.0084579658
H -2.6083887074 -1.8556264463 2.2626018109
H -2.5907646479 -0.0718199719 2.3506517365
H -0.7041114938 0.2306026656 -0.3439666786
H 1.7692834087 -0.7315123739 -1.6857879558
H 2.9460649450 1.0676172212 -0.0852499436
H 3.7403536754 -1.1777534203 -0.3019638776
H 4.3483006639 -1.6006027357 2.1328494588
H 3.6380057545 0.2556711982 3.7267822728
H 1.3664388258 1.2495995184 3.1789684077
H 1.3220585414 3.7056202214 3.5762018313
H 2.0682753053 4.8186069429 2.3997363251
H 0.8651029865 3.6306090881 1.8452980861
H 1.8190720237 -1.6228319699 2.6822813265
H 5.4605905809 0.4490442582 2.1461798202
H 1.7042873800 -2.3529105909 0.0869802811
H 2.2503402351 1.5641355381 -2.2316770423
H 0.5918716132 3.3680619298 -1.9494838976
H -0.4366523500 2.3248308146 -0.9556626994
H 1.1756473345 2.7964609013 -0.3733961965
H 0.8576419028 0.3431230953 -3.6114586617
