37
CONF664
C -2.3931571973 -1.0788715877 -3.4101467649
C -3.0014087971 -0.4086101911 -2.1997445869
O -2.4135775213 0.9195578737 -2.0336480793
P -1.4477068043 1.2519140916 -0.8227265035
O -0.8574694928 2.6013361406 -0.8554795254
O -2.2868147304 0.8488112536 0.4705741282
C -2.1280444423 1.5883513354 1.7282625364
C -2.3337698479 0.6121232937 2.8597005903
O -0.3524809855 0.0391909971 -0.9874688963
P 0.8701406024 -0.2903637604 0.0262782165
O 0.7095026954 0.2798900134 1.3837774683
O 0.8993359385 -1.8766481869 -0.0987561728
C 1.4100325504 -2.6623987502 1.0209029667
C 2.9172059139 -2.5760910688 1.1259343579
O 2.1695483299 0.1369398894 -0.7898268742
C 2.4885618459 1.5679277028 -0.8964998776
C 3.3614541888 2.0047740557 0.2583097174
H -1.3231154401 -1.2430954023 -3.2619761961
H -2.5366821157 -0.4642315580 -4.3025774703
H -2.8756411805 -2.0479663047 -3.5739863975
H -4.0744877734 -0.2378338482 -2.3247600817
H -2.8495882066 -1.0000605925 -1.2909451858
H -2.8801746753 2.3839457419 1.7258292407
H -1.1306721330 2.0316875758 1.7600552789
H -3.3166293381 0.1368077714 2.7953822541
H -1.5550155154 -0.1535049803 2.8358743403
H -2.2685319798 1.1452450774 3.8135310916
H 1.0805115548 -3.6802587067 0.7995362898
H 0.9221237765 -2.3190732271 1.9393314321
H 3.2358743542 -1.5620069528 1.3836230275
H 3.2649154415 -3.2532453229 1.9128350209
H 3.3886495860 -2.8633897381 0.1823946702
H 3.0077058137 1.6546529720 -1.8542286919
H 1.5594147163 2.1473612604 -0.9482920965
H 4.2794787557 1.4112228443 0.2967642178
H 3.6341494591 3.0570137610 0.1271977237
H 2.8263634475 1.8988962205 1.2049692390
