56
CONF3
C 3.1809853174 -2.5635110304 -2.2415834194
C 2.3703945052 -2.1956973767 -1.0046899195
C 0.8563761954 -2.0104124814 -1.2716195621
C 0.4703978489 -0.9659545897 -0.2337737459
C -0.9605190488 -0.4367755791 -0.1560818357
C -1.6521606131 0.1155482291 -1.4078578135
C -3.1557224505 0.1198190093 -1.1247634617
C -3.4644477595 0.2501990658 0.3505193457
C -4.5051987080 -0.4104782573 0.8792244830
C -4.8311780844 -0.3723006651 2.3138826959
O -5.8080431679 -0.9583311725 2.7694898023
C -3.9052753252 0.3883675368 3.1647050296
C -2.8698537651 1.0540223873 2.6415944326
C -2.5467774976 1.1158214384 1.1781539805
C -1.0544287751 0.5930094733 0.9932480146
C 0.0554907336 1.6741501836 0.9622605893
C 1.4510369788 1.0342363462 0.8744836881
C 1.5961319078 0.0800159624 -0.3216976206
C 2.8591311684 -0.8734116072 -0.3162973473
C 3.3722092545 -1.1018365075 1.0783533325
O 2.8599340707 -1.8749927400 1.8733573714
C 4.5793682202 -0.2967388613 1.5093648091
O 4.8799944308 -0.4678029120 2.8673856014
C 1.6578485698 0.8358630129 -1.6595044400
O -0.0273009785 2.6125579695 -0.1213051520
C -2.8204236283 2.5903506892 0.7574769507
F -3.7639807832 1.1906623332 -1.8261308332
H 4.2365807455 -2.7193937842 -1.9952420805
H 3.1250908081 -1.7772392337 -3.0025839436
H 2.8029916242 -3.4887824845 -2.6888812921
H 2.4744620067 -2.9968209146 -0.2650524777
H 0.6780963741 -1.6532991179 -2.2926955508
H 0.3076266753 -2.9503361713 -1.1521965697
H 0.6287065952 -1.4545563341 0.7415502748
H -1.5592427790 -1.3058700451 0.1602058938
H -1.4409582089 -0.4847013916 -2.2974283824
H -1.3344018810 1.1404414432 -1.6092726598
H -3.6349403139 -0.7921859357 -1.5000651005
H -5.1556731653 -1.0241308266 0.2606596675
H -4.1081993473 0.3818688462 4.2311110476
H -2.2015976900 1.6234180085 3.2881804405
H -0.8340736424 0.0277134228 1.9104334051
H 0.0082425251 2.2245258169 1.9167046851
H 1.6155467591 0.4802682037 1.8068972240
H 2.1859142828 1.8462137570 0.8330611270
H 3.6603770538 -0.3983769791 -0.8960340679
H 5.4212997374 -0.6121163901 0.8645977130
H 4.3973690148 0.7656598903 1.2786092372
H 4.2812207424 -1.1699444937 3.1746493337
H 2.4546135233 1.5859062829 -1.6155659922
H 1.8887536428 0.1562103788 -2.4834436969
H 0.7332300064 1.3599583850 -1.8873723873
H -0.7093097595 3.2571552761 0.0830906550
H -2.2337549303 3.2853245570 1.3703438007
H -2.6368352122 2.7567793407 -0.3049635370
H -3.8751265125 2.8099308480 0.9444070423
