42
CONF10
C -4.1071309240 2.8658779785 0.8419291229
C -2.8830263184 3.2821731675 1.3592481611
C -1.8051814734 2.4002544696 1.3968870761
C -1.9395329089 1.0930449513 0.9237855547
C -3.1704175475 0.6819394707 0.4074989386
C -4.2467320071 1.5634629149 0.3649215356
C -0.7411420329 0.1692559517 0.9533977828
C -1.0515753289 -1.2264523044 1.4733600468
C -1.4568801991 -2.2534391337 0.6166715219
C -1.7674478738 -3.5132394242 1.1241734491
C -1.6753957961 -3.7583962074 2.4915657160
C -1.2661461830 -2.7392725824 3.3504450298
C -0.9512770185 -1.4824537606 2.8434544066
C -0.0518289893 0.0662285825 -0.4022629123
O -0.5444646934 0.4166546851 -1.4529228883
C 1.3728310371 -0.4899631835 -0.3450706642
C 2.3563702698 0.6819577956 -0.1493490869
O 2.4207077944 1.3927571488 0.8329812873
C 3.1807844207 0.7696618870 -1.3699059167
C 4.1684435872 1.6996014090 -1.6771914176
C 4.8196463594 1.5689262857 -2.8998857845
C 4.4931560994 0.5336953786 -3.7882657342
C 3.5075290532 -0.3978983772 -3.4765082445
C 2.8552612574 -0.2646999109 -2.2556577085
C 1.7936255902 -1.1115609037 -1.6777227219
O 1.3255843980 -2.1250296021 -2.1571590546
H -4.9488999694 3.5507094354 0.8126235192
H -2.7653110158 4.2935047711 1.7362572656
H -0.8504291084 2.7283716415 1.7995063654
H -3.2921554888 -0.3320877853 0.0398468113
H -5.1979872918 1.2314469243 -0.0397286232
H 0.0139609496 0.6012288995 1.6250017557
H -1.5329478227 -2.0749812911 -0.4526806513
H -2.0794042016 -4.3029124399 0.4478446310
H -1.9169034920 -4.7400137750 2.8868677097
H -1.1871119188 -2.9247992866 4.4171847875
H -0.6283220343 -0.6899432189 3.5129252325
H 1.4623422976 -1.1978577219 0.4863581081
H 4.4173190152 2.4978262603 -0.9859842218
H 5.5943342059 2.2774414127 -3.1742332062
H 5.0222445382 0.4607703430 -4.7328229084
H 3.2535120562 -1.2017911572 -4.1593320920
