27
CONF8
C -5.1955156773 0.0511513329 -0.3035041729
C -3.7321490564 -0.2673562785 -0.3504937525
C -3.1231070648 -1.1543787891 0.5426626463
C -1.7722362712 -1.4566964915 0.5052291608
C -0.9600253149 -0.8551021421 -0.4634976157
C -1.5265574509 0.0417202491 -1.3744547859
C -2.8874371442 0.3139558671 -1.2998566728
N 0.4055642918 -1.1908984240 -0.4355985366
C 1.3748593114 -0.8703074256 -1.3411897877
O 1.1909620145 -0.2482081414 -2.3846984744
C 2.7301457354 -1.3581377598 -0.9729057768
C 3.3649520861 -1.4454963952 0.2548551606
N 4.6581524462 -1.8885410912 0.1464744940
N 5.0609185940 -2.1467141691 -1.0396256306
S 3.8262076701 -1.8316477439 -2.1997088377
C 2.8334938981 -1.0939522327 1.6049686270
Cl -4.1008860892 -1.9386030365 1.7813806508
H -5.4760282828 0.4769665008 0.6657413805
H -5.4524837868 0.7677106627 -1.0858192594
H -5.8003926924 -0.8509383667 -0.4444688479
H -0.9162330215 0.5182180966 -2.1266148364
H -3.3170877578 1.0126285183 -2.0117023687
H 2.3156745960 -1.9470346606 2.0592629667
H 3.6635062355 -0.8225495746 2.2597629636
H 2.1338418328 -0.2570583727 1.5511387426
H -1.3503272916 -2.1533481908 1.2220644437
H 0.6801293320 -1.8098637337 0.3145923436
