49
CONF49
C -6.5808832822 2.8579481670 -0.8843341796
C -5.5133900030 1.9227764156 -0.3944552594
C -4.9437673324 1.0213070064 -1.2070210072
C -3.9048167963 0.0403584620 -0.7976670159
C -2.4747204803 0.5073670933 -0.5252873771
C -2.8152577113 -0.4026909428 -1.7206493898
C -2.6869490826 0.2609839115 -3.0736332116
C -2.3834191471 -1.8504827643 -1.7071258038
C -1.7589914077 -0.0196929948 0.6413345751
O -2.0515322558 -1.0061327410 1.2886324009
O -0.6778865078 0.7733928615 0.9237278906
C 0.2095628917 0.3394684916 1.9840976845
N 1.5179888010 0.1255025037 1.4511230484
C 2.5112099058 1.1137250959 1.3376665749
O 2.4204425072 2.2465381235 1.7656858278
C 3.6476389443 0.4819823411 0.6132262047
C 3.3061635903 -0.7764650263 0.2878206192
C 1.9321348493 -1.0446961170 0.7929114780
O 1.2636998569 -2.0519896201 0.6764588852
C 4.1621875403 -1.7237281793 -0.4692943210
C 5.3292493999 -0.9568418295 -1.1106803142
C 5.9583840210 0.0385098500 -0.1272501751
C 4.9537201036 1.1175395791 0.3062831413
C -5.1395325308 2.0764055145 1.0505110535
H -6.8028297219 2.7024937790 -1.9432819033
H -7.5058444313 2.7235089209 -0.3095566081
H -6.2736936491 3.9015935014 -0.7402593515
H -5.2772670505 0.9741486086 -2.2432198488
H -4.2200421942 -0.7262107533 -0.0894364059
H -2.2328942796 1.5315390271 -0.7883651989
H -2.9762555524 1.3143426329 -3.0401875490
H -3.3276044385 -0.2482764649 -3.8030047142
H -2.5076807517 -2.3073697195 -0.7240356175
H -2.9872448877 -2.4127789975 -2.4281684361
H -1.3322998645 -1.9428625199 -2.0038697159
H 0.2544100842 1.1460695013 2.7181447595
H -0.1702222551 -0.5840207783 2.4244183520
H 3.5639842341 -2.2481715735 -1.2237331716
H 4.5347119949 -2.4996847199 0.2146324482
H 6.0834451295 -1.6650392366 -1.4662066332
H 4.9572940880 -0.4106802713 -1.9868851445
H 6.8356103762 0.5124419237 -0.5775122206
H 6.3032218584 -0.5048612895 0.7617039233
H 5.3152598733 1.6726233648 1.1798479244
H 4.8136847412 1.8630245107 -0.4894993277
H -4.7807517173 3.0952425731 1.2447717530
H -4.3673698311 1.3703346358 1.3613104934
H -1.6529806256 0.1964074677 -3.4285656578
H -6.0209224997 1.9308297710 1.6874986308
