41
CONF27
C -5.1620610138 -0.5799882185 -1.2591130847
C -4.5094163226 0.8003392702 -1.2852308276
N -3.5892417150 1.0086867012 -0.1603008934
C -4.1780420663 1.6109271445 1.0334766612
C -4.0283878621 3.1369478636 1.0291583070
O -4.6770976498 3.7199931735 2.1589297557
C -2.2850351792 0.6353175417 -0.2182439486
C -1.3857074054 0.9226345714 0.8536340780
C -0.0674067133 0.5507060772 0.7986121737
C 0.4462406360 -0.1337638327 -0.3279868914
C -0.4362368887 -0.4206227323 -1.3892796076
C -1.7599055215 -0.0541546056 -1.3461646801
N 1.7473622577 -0.5535096071 -0.4909899259
N 2.5479852258 -0.2975685342 0.4711849842
C 3.8591590736 -0.7370044944 0.2587703675
C 4.7552812991 -0.4960717872 1.3160218687
C 6.0781089947 -0.8850257683 1.2258033978
C 6.5110013475 -1.5212047774 0.0621905486
C 5.6428889278 -1.7702787768 -1.0053234569
C 4.3230677882 -1.3801290474 -0.9078931630
N 7.9008297502 -1.9357988246 -0.0437186339
O 8.2671647782 -2.4939790761 -1.0806656266
O 8.6519219386 -1.7114012708 0.9083109489
H -5.8522651940 -0.6787179584 -2.1021967894
H -5.7281387636 -0.7215983224 -0.3334568206
H -4.4127562472 -1.3734681647 -1.3299382192
H -5.2767209364 1.5779237360 -1.2193433844
H -3.9773552308 0.9679222555 -2.2258239181
H -3.7333331220 1.1856690727 1.9391022030
H -5.2428236618 1.3563957538 1.0518706353
H -2.9652844375 3.4135268293 0.9898864841
H -4.5176816191 3.5505535180 0.1414467075
H -4.1671637037 3.4916416954 2.9463182467
H -1.7330546812 1.4620294724 1.7255184898
H 0.5927984373 0.7900160870 1.6240851794
H -0.0477507420 -0.9525545430 -2.2525438652
H -2.3993859011 -0.3154453061 -2.1786047538
H 4.3866244144 0.0013306897 2.2069365204
H 6.7709789997 -0.7031238486 2.0373978743
H 6.0118650296 -2.2647921940 -1.8952920027
H 3.6389746798 -1.5652012638 -1.7265454257
