34
CONF57
C -4.4193998297 -0.2964379848 -1.0660565946
C -2.9456937642 -0.3103365473 -1.3874908514
O -2.2184096993 0.1540346907 -0.1974914881
P -0.9971454437 1.1745174758 -0.2402991558
S -0.9776019110 2.4987400882 -1.6530573104
O -0.8631762597 1.6435086594 1.2705484134
C -1.4256329673 2.9199531675 1.7371424793
C -2.9294288868 2.8502889249 1.8584904751
O 0.3586372086 0.1950527411 -0.1700938845
N 0.3907807032 -0.6580139575 -1.2682477427
C 1.4661913945 -1.3790317112 -1.3003448591
C 1.4891581662 -2.2274783201 -2.4597785284
N 1.5320562876 -2.9332803627 -3.3751203634
C 2.6194655178 -1.4440540156 -0.3877135715
C 3.8814724332 -1.7255939948 -0.9328867064
C 4.9978140703 -1.7968190519 -0.1109320151
C 4.8636556733 -1.6155683439 1.2636189025
C 3.6083655526 -1.3613843999 1.8127081658
C 2.4875153359 -1.2678609916 0.9980542927
H -4.6373653403 -0.9271125567 -0.1998510583
H -4.7631403720 0.7217074700 -0.8631605386
H -4.9736356637 -0.6859773454 -1.9255938315
H -2.5768852559 -1.3170364098 -1.6010331522
H -2.7061624394 0.3481731340 -2.2273379109
H -1.1035481197 3.7069610682 1.0485279405
H -0.9451681911 3.0695920707 2.7054390477
H -3.2898620165 3.7853190195 2.2989573882
H -3.2309937878 2.0219974114 2.5055541638
H -3.4033704482 2.7302171558 0.8796020560
H 3.9893329273 -1.8742784397 -2.0029494814
H 5.9714379194 -2.0005021658 -0.5439148385
H 5.7348329466 -1.6797780647 1.9075564887
H 3.4989560479 -1.2357836789 2.8848690615
H 1.5169480055 -1.0837340260 1.4381966092
