27
CONF166
C -4.2116856083 0.4108244163 0.5573957379
C -3.6010800746 -0.0453231840 -0.7661670367
C -2.2127521807 -0.7575161147 -0.6631043232
C -0.9810758770 0.2071037675 -0.5653909115
C 0.3094409103 -0.4890712128 -0.0032965166
C 1.6269798128 0.3053163069 -0.3168935255
C 2.8302386146 -0.1163337461 0.5947810486
C 4.2281001124 0.3188966117 0.0426473435
F 5.1462141486 0.1335615406 1.0002822615
F 4.5700539685 -0.4119116134 -1.0233627359
F 4.2124964375 1.6150925236 -0.2982218837
F 2.8448673998 -1.4626244216 0.7293876545
F 2.6750807499 0.4487281477 1.8108416059
F 1.4013211122 1.6264008603 -0.1355158963
F 1.9644963887 0.0903371048 -1.6083985618
F 0.4184705249 -1.7215625755 -0.5479893691
F 0.1854119795 -0.6070421690 1.3385142454
F -0.7109056484 0.6877211549 -1.8008500969
F -1.2886576177 1.2440509113 0.2489462441
F -2.2315220459 -1.5557142403 0.4396656083
F -2.0327790908 -1.5400708159 -1.7524589854
F -3.4627954086 1.0142925555 -1.6258729404
F -4.4472965987 -0.9324346349 -1.3699058811
O -5.4456955867 1.0600941560 0.3203657476
H -3.5005421041 1.0468121001 1.0951887249
H -4.4128624294 -0.4808422248 1.1565780164
H -5.2638630094 1.9528859461 -0.0014560795
