41
CONF40
C -4.4108274211 2.5778984925 -1.7306694922
C -4.4734992905 1.1607540156 -1.1638108008
N -3.6220779509 0.9867571232 0.0199924598
C -4.2771255412 1.2716442807 1.2984794528
C -5.0241412316 0.0647989547 1.8633971305
O -4.1538740825 -1.0121050498 2.2146231067
C -2.2968522338 0.7017136481 -0.0898449533
C -1.6657670770 0.6075612100 -1.3618775472
C -0.3269190216 0.3128787559 -1.4616796446
C 0.4698022098 0.0942755685 -0.3199911630
C -0.1497627212 0.1813654370 0.9491133118
C -1.4843029517 0.4725533574 1.0625620119
N 1.7966721017 -0.1907676767 -0.5504224225
N 2.5148212067 -0.4061026014 0.4845927553
C 3.8593027006 -0.6716186786 0.2053220959
C 4.6525701279 -1.0069848516 1.3177352084
C 5.9970955121 -1.2883788885 1.1699139134
C 6.5578305240 -1.2275118500 -0.1062296695
C 5.7946256781 -0.8897286698 -1.2281666089
C 4.4517994742 -0.6131715207 -1.0735978781
N 7.9719985997 -1.5198732654 -0.2734984973
O 8.6291793249 -1.8193399981 0.7263688798
O 8.4524493840 -1.4564538079 -1.4075893281
H -4.7299809322 3.3090631941 -0.9819062452
H -5.0773216469 2.6595332343 -2.5943897418
H -3.3969519759 2.8334374632 -2.0507841953
H -4.2006714826 0.4194160195 -1.9199011637
H -5.4982199488 0.9280864358 -0.8580252681
H -5.0004029103 2.0800106090 1.1336787650
H -3.5493407197 1.6392791828 2.0245775325
H -5.5266692979 0.3737567637 2.7857354943
H -5.7932241274 -0.2713211522 1.1534176444
H -3.8257334544 -1.4090618125 1.3977912358
H -2.2255823859 0.7828162225 -2.2705341247
H 0.1436530447 0.2512749182 -2.4383714840
H 0.4375116071 0.0040911301 1.8425150084
H -1.9272308722 0.4942160009 2.0489492547
H 4.1864553506 -1.0440441920 2.2967254129
H 6.6106193238 -1.5512963491 2.0221667233
H 6.2616425100 -0.8462804817 -2.2042313653
H 3.8484515921 -0.3459826886 -1.9321363173
