48
CONF6
C -2.9891331132 0.8259878589 3.0619373868
O -4.0625705791 0.6261453223 2.1374055834
C -3.7897093560 -0.0726252677 1.0035016632
C -4.8918264903 -0.2277241827 0.1263605822
C -4.7431181128 -0.9091556431 -1.0495007978
C -3.4925518840 -1.4678648479 -1.4172399880
N -3.4129203235 -2.1259195552 -2.6054313089
C -2.2448409613 -2.6412531751 -2.9360996773
C -1.0907214599 -2.5507816403 -2.1350191042
C -1.1406914673 -1.8893300629 -0.9281777799
C 0.0911286320 -1.7566555326 -0.0556779855
O 1.0794646631 -2.7384641841 -0.3780718255
C 0.6904496608 -0.3442465522 -0.2074265517
C 1.4746422636 -0.1330690946 -1.5283374088
C 2.6562397921 0.7959695872 -1.2171871202
C 3.6482214687 0.0423710950 -0.3236610775
C 2.8608975995 -0.5188692012 0.8932214755
N 1.4987333807 0.0566522330 0.9659738367
C 1.6320995785 1.5281093766 0.9367781788
C 2.1215591304 2.0307416556 -0.4488151957
C 3.1157717662 3.1543908636 -0.4262495692
C 3.5403230234 3.8569567939 0.6230191804
C -2.3820290021 -1.3132980277 -0.5305681016
C -2.5571303958 -0.6059413990 0.6861760135
H -2.1670151415 1.3828107770 2.5953173214
H -3.4090253334 1.4089655095 3.8819210897
H -2.6149722271 -0.1319939296 3.4431345820
H -5.8446866281 0.2048403269 0.4134139162
H -5.5770146124 -1.0369341469 -1.7318056967
H -2.1943582480 -3.1630584247 -3.8912610278
H -0.1627476336 -3.0000503663 -2.4709995302
H -0.1995754854 -1.8696192989 0.9988661632
H 0.7050956721 -3.6047777993 -0.1760636211
H -0.1714606289 0.3343967918 -0.2028356827
H 0.8216489297 0.3073260848 -2.2897674151
H 1.8494418419 -1.0839334981 -1.9205260712
H 3.1412593464 1.1174309503 -2.1456451848
H 4.4454604990 0.7213448042 0.0002191074
H 4.1172721931 -0.7703787326 -0.8888642673
H 3.3713083966 -0.2805565919 1.8333467039
H 2.7661982541 -1.6043665727 0.8327133510
H 2.3469117920 1.7949835117 1.7221586949
H 0.6686384197 1.9829948028 1.1972233658
H 1.2566945422 2.4009621683 -1.0227113464
H 3.5064434703 3.4188090315 -1.4111429663
H 4.2569871918 4.6623578142 0.4951691646
H 3.1949132629 3.6712944377 1.6355071723
H -1.7197071899 -0.4849745936 1.3601616546
