40
CONF118
C 1.4289382257 1.9865047273 3.1265485023
C 1.7785308851 0.6765528145 2.4667983015
O 1.4999837260 0.8294476426 1.0307046905
P 1.7968131402 -0.3599581371 0.0164738424
S 1.4053226819 -2.1849719483 0.5580476337
O 3.2981668368 -0.0479284877 -0.4159063532
C 4.1072051038 -1.0012150970 -1.1916220241
C 5.2382648388 -1.5050817947 -0.3294749621
O 1.0198924365 0.1711011448 -1.3318981364
C -0.3430740267 0.1533306785 -1.4895007385
C -0.8308235922 0.2735594519 -2.7855204477
C -2.2132450245 0.2809111574 -2.9141869501
N -3.0202882090 0.1724232282 -1.8356378263
C -2.4378605695 0.0595420013 -0.6413126262
N -1.1097427691 0.0482608191 -0.4229267115
C -3.3170668857 -0.0706238134 0.5778089414
C -3.0939919226 -1.4306572630 1.2529914221
C -3.0576812357 1.0780710806 1.5606028711
C -2.8799454088 0.4028341171 -4.2463501740
H 2.0433202850 2.8000994006 2.7319034441
H 1.6132903017 1.9014346993 4.2015699868
H 0.3732308952 2.2271575076 2.9733439362
H 1.1657906300 -0.1482031086 2.8431105069
H 2.8379506116 0.4277804151 2.5900911837
H 3.4695175396 -1.8182622685 -1.5423271761
H 4.4671467292 -0.4342429998 -2.0536283178
H 4.8519447767 -2.0647624122 0.5269066794
H 5.8496508056 -0.6739413663 0.0328899246
H 5.8736754693 -2.1697983312 -0.9231733049
H -0.1661923803 0.3556675303 -3.6366091024
H -4.3517832391 -0.0131514213 0.2251244858
H -3.7743494739 -1.5388678858 2.1033488157
H -2.0661187738 -1.5095850026 1.6215649242
H -3.2768979987 -2.2555892400 0.5570878153
H -3.7399455179 0.9975252193 2.4124154831
H -2.0303423676 1.0350710882 1.9362838255
H -3.2118328811 2.0517156808 1.0847209354
H -3.5140466969 -0.4717747424 -4.4248652916
H -3.5328770012 1.2816660138 -4.2553305349
H -2.1505311457 0.4879589017 -5.0533624540
