42
CONF6
C -0.4450572495 2.7238919335 -1.3386481750
C -1.4691917651 1.7905081461 -1.1940005857
C -1.3346524324 0.7444974335 -0.2870538049
C -0.1748386157 0.6195627961 0.4859471161
C 0.8417511031 1.5658408289 0.3424365675
C 0.7072093053 2.6136067743 -0.5636229852
C -0.0106785914 -0.5527306543 1.4316597348
C -0.8070392083 -0.4884774052 2.7194336792
C -1.8032045743 0.4593806225 2.9490242085
C -2.5040569963 0.4716417877 4.1550687375
C -2.2171926187 -0.4633458765 5.1439786750
C -1.2176842067 -1.4108681781 4.9240583453
C -0.5190007996 -1.4205419893 3.7228011910
C -0.2993026387 -1.8303038630 0.6341064800
O -1.1740346468 -2.6181233861 0.9138140807
C 0.5458006011 -2.0627358857 -0.6246031929
C 1.8716151474 -1.3117728711 -0.7626324270
O 2.7820724703 -1.3330419225 0.0446776528
C 1.8632550512 -0.6035106122 -2.0585952945
C 2.8614963109 0.1809277844 -2.6251931538
C 2.6072550712 0.7541182150 -3.8671770997
C 1.3857419006 0.5458858905 -4.5238013664
C 0.3893025637 -0.2420000020 -3.9555867781
C 0.6469029949 -0.8131479213 -2.7141772287
C -0.2286830891 -1.6931300260 -1.9118136161
O -1.3367788812 -2.0841176050 -2.2082203816
H -0.5444480093 3.5347121362 -2.0534351988
H -2.3703540117 1.8716223491 -1.7935694943
H -2.1346788636 0.0160965598 -0.1819070779
H 1.7483350403 1.4697397245 0.9333478014
H 1.5078481545 3.3387289886 -0.6710589937
H 1.0533624266 -0.6139954957 1.6978218021
H -2.0331166864 1.2002688439 2.1908843738
H -3.2749244592 1.2185513330 4.3186208852
H -2.7627995621 -0.4528067209 6.0823698719
H -0.9807275526 -2.1417373117 5.6912034917
H 0.2608527391 -2.1595119596 3.5577062680
H 0.7435530485 -3.1423371206 -0.6581208922
H 3.8022716484 0.3418869417 -2.1092804202
H 3.3627007123 1.3745104103 -4.3383840200
H 1.2187462242 1.0085659651 -5.4910476672
H -0.5576257584 -0.4063089332 -4.4589791143
