37
CONF113
C -6.6963159462 0.7031097955 1.1514023952
C -5.3279568618 1.3546034648 1.2962466757
N -4.3435185965 0.5019462520 1.9881697197
S -3.4852960836 -0.6550668860 1.1603148800
O -3.9713568764 -0.7654933312 -0.2147120655
O -3.2764906709 -1.7884984648 2.0576691881
C -1.8030375996 0.2491110214 1.0188732762
C -0.8389865269 -0.4520517171 0.0114577050
C 0.6611780159 -0.0303398525 0.1976824736
C 1.5566923568 -0.3702547438 -1.0471890992
C 3.0909887724 -0.3856256713 -0.7086573632
C 4.0042896174 -0.2645528469 -1.9724677975
C 5.5134666633 -0.6711598930 -1.7938162233
C 6.3263536155 0.0333811938 -0.6649627466
F 6.2004441724 1.3638021799 -0.7496912741
F 7.6187805760 -0.2891232527 -0.8012439835
F 5.9113567476 -0.3719291589 0.5419480011
F 6.1168601499 -0.3701785028 -2.9683170936
F 5.5941651142 -2.0034169491 -1.5947833298
F 3.5134802375 -1.0812897370 -2.9359526975
F 3.9693096265 1.0093718816 -2.4163363811
F 3.3699160137 0.6590454187 0.1081827717
F 3.3759611280 -1.5405041895 -0.0697129545
F 1.2104321789 -1.5903613165 -1.5122103376
F 1.3303535624 0.5534379392 -2.0069750039
F 0.7096051034 1.3054690935 0.4092097843
F 1.1587011112 -0.6691632380 1.2799398294
F -0.9365258896 -1.7879437857 0.1858469801
F -1.2253868153 -0.1339358867 -1.2433906117
F -2.0484515153 1.5102678406 0.6093743549
F -1.2493983164 0.2825266250 2.2467631612
H -6.6283549103 -0.2023086166 0.5430469720
H -7.1126120408 0.4388180556 2.1290080206
H -7.3914798601 1.3951954247 0.6661923150
H -4.9128387511 1.6063805516 0.3168859078
H -5.3909244697 2.2869952257 1.8689940829
H -4.5934033341 0.1697359865 2.9132107485
