40
CONF69
C 3.6904041924 -2.9193765928 1.3003605344
C 2.5389044442 -2.1577470796 0.6800995284
O 2.9774464013 -1.4318740661 -0.5072230031
C 3.5788379143 -0.2521272750 -0.2847637875
O 3.7663766877 0.2460080494 0.7989341934
C 3.9634858470 0.4312446309 -1.5904366930
C 2.7837691305 0.5686993601 -2.5575126795
C 1.6484731554 1.2915195038 -1.8802331676
C 0.6124361008 0.5621250964 -1.2989007193
C -0.4204897376 1.1749771536 -0.5982570597
C -0.4102522279 2.5633212730 -0.4749357934
C 0.5785892416 3.3287518568 -1.0654257874
C 1.5990587824 2.6845063011 -1.7530466693
Cl 2.8523494257 3.6782652766 -2.4692865181
F -1.3514627662 3.1746461157 0.2540810420
N -1.4333237042 0.4045021008 -0.0011095178
C -2.7983494972 0.5987118710 -0.1471913078
O -3.4145663769 1.4516455661 -0.7458034881
N -3.3174021644 -0.5029222897 0.5759727031
C -2.2596368037 -1.2769409709 1.0328601735
N -1.1206496113 -0.7572822458 0.6897153484
C -2.4123000728 -2.5224869070 1.8188122361
C -4.7116118646 -0.7194218642 0.7154077434
F -5.0587415203 -0.7700886975 2.0374649117
F -5.0672821382 -1.9282621623 0.1808457513
Cl 5.3096717959 -0.5130994783 -2.3793901979
H 4.1458050706 -3.5944236662 0.5707003165
H 3.3211662365 -3.5158251875 2.1406334682
H 4.4522181003 -2.2327469156 1.6761448889
H 2.0929684975 -1.4438044927 1.3778364210
H 1.7626890196 -2.8284028704 0.3041376349
H 3.1224458704 1.1091923349 -3.4448967511
H 2.4581930144 -0.4277859750 -2.8634501749
H 0.6128870470 -0.5192584163 -1.3766808015
H 0.5590379979 4.4059415882 -0.9573062997
H -2.9434641304 -2.3286764232 2.7555430265
H -1.4193150938 -2.9141202728 2.0422234956
H -2.9823441784 -3.2710549870 1.2604218672
H -5.2568546132 0.0868552384 0.2132660388
H 4.3830237712 1.4039653041 -1.3303068489
