65
CONF139
C -3.3595631035 3.9649700500 -0.1299291476
C -2.1247608196 3.9873092051 -1.0278406248
C -1.6398768563 2.5852949517 -1.4102621753
C -0.4410605597 2.6414582244 -2.3716398930
C -1.2222667116 1.8141371064 -0.1755799644
O -0.5352023611 2.2685999820 0.7205090790
O -1.6613443702 0.5410936296 -0.2079957086
C -1.2741677625 -0.3320354707 0.9037643071
C -2.2065502061 -0.1132762257 2.0835088035
C -1.7985566043 -1.0120344076 3.2605843941
C -1.5467608495 -2.4145540330 2.7911620175
C -1.3608525839 -2.7628137424 1.5042326665
C -1.3729771305 -1.7531009995 0.3752038007
C -0.2924529249 -2.1170997910 -0.6673234134
C -0.6882461681 -3.4817930412 -1.2768519349
C -0.9004259058 -4.4899612126 -0.1770755652
C -1.1696711774 -4.1450328867 1.0937624709
C 0.2962119122 -4.0044925266 -2.3269123934
C 1.1351205871 -2.1378325693 -0.0723347975
C 2.1868831420 -1.4836975600 -0.9790328683
C 2.1413088283 0.0358532598 -0.9202521499
C 2.8267817128 0.6329110598 0.2930149393
C 2.8277565942 2.1481064656 0.1867939109
C 3.5908855548 2.5513311932 -1.0693142936
C 3.2859393188 1.7395362479 -2.3070068824
O 3.5777597586 2.1228738571 -3.4226629046
O 2.7481694589 0.5113539516 -2.1767764234
O 3.3671369034 2.7874750379 1.3473580088
C -0.5871797801 -0.4562516928 4.0310393967
H -4.1876063978 3.4391221677 -0.6174760458
H -3.1500660852 3.4580564267 0.8186521160
H -3.6943340070 4.9800466486 0.1032149511
H -2.3461959541 4.5279994080 -1.9555059954
H -1.3043907377 4.5212340775 -0.5339692291
H -2.4561669029 2.0360780613 -1.8924531353
H 0.4001652159 3.1654856047 -1.9050843299
H -0.1111440103 1.6391947635 -2.6624489302
H -0.7232684074 3.1843379992 -3.2784309934
H -0.2461657835 -0.0796640228 1.1816310285
H -2.1892397510 0.9384486396 2.3854924533
H -3.2271238585 -0.3602078322 1.7658142280
H -2.6409030988 -1.0408025104 3.9659505200
H -1.5162979854 -3.1925139328 3.5539561365
H -2.3477534485 -1.8374441442 -0.1310032432
H -0.3362570856 -1.3654726121 -1.4664785275
H -1.6513281301 -3.3311864779 -1.7913435195
H -0.8027139204 -5.5422790241 -0.4386765542
H -1.2712657696 -4.9118300696 1.8594707266
H -0.0793795738 -4.9362032653 -2.7624716680
H 0.4248034418 -3.2783747456 -3.1359860981
H 1.2786252098 -4.2145562971 -1.8918144661
H 1.1469338777 -1.6520060660 0.9108278559
H 1.4303401076 -3.1734576197 0.1222978028
H 3.1947932623 -1.8174206563 -0.7045989482
H 2.0157162567 -1.7902269136 -2.0159393044
H 1.0984408205 0.3782624026 -0.9576757947
H 3.8572367974 0.2564611416 0.3615451545
H 2.2867699474 0.3207533267 1.1932468448
H 1.7934166341 2.5014989329 0.1256599580
H 4.6670915567 2.4027173018 -0.8933267940
H 3.4504913024 3.6067118998 -1.3162884058
H 4.2816027831 2.4917089581 1.4528173001
H -0.8156463390 0.5329171242 4.4413123573
H 0.2870846003 -0.3663616712 3.3775579175
H -0.3183033841 -1.1193560714 4.8593818131
