49
CONF18
C -4.5124982953 3.6001050292 0.0855268702
C -4.0010066270 2.2021865312 0.2974190878
C -3.7222098139 1.4087261863 -0.7499171759
C -3.2125824160 0.0285049944 -0.6968824184
C -2.2601841339 -0.4518381367 -1.8019374045
C -3.6581668880 -1.0582555946 -1.6378433763
C -4.6388577571 -0.7438608853 -2.7460545286
C -3.8096922203 -2.4561176101 -1.0823559606
C -1.0475424241 -1.1852472626 -1.4178434331
O -0.8567850055 -1.7981907249 -0.3862967350
O -0.1070133146 -1.0901005711 -2.4062048514
C 1.1623053820 -1.7353502295 -2.1558400440
N 1.9701229493 -0.9873860496 -1.2372565571
C 2.5091397517 0.2790298461 -1.5128941205
O 2.3857221083 0.8735822971 -2.5654368010
C 3.2351571411 0.7038174101 -0.2854089463
C 3.1408900944 -0.2748913537 0.6295873169
C 2.3472454817 -1.3975589327 0.0549688527
O 2.0971672481 -2.4731840037 0.5563342626
C 3.7676363880 -0.2477303452 1.9751786060
C 4.7980835181 0.8903953602 2.0370962434
C 4.2540010068 2.1794760709 1.4071126971
C 3.9462240267 1.9918831459 -0.0867178002
C -3.8456754500 1.8127374276 1.7390904236
H -4.6095600004 3.8424844109 -0.9758726633
H -5.4913335566 3.7311200437 0.5643731063
H -3.8386851170 4.3314152227 0.5501985988
H -3.8802464717 1.8199959976 -1.7452643634
H -2.9244862552 -0.3465318968 0.2807769572
H -2.1431540618 0.2016338956 -2.6601704181
H -4.4691364368 0.2371474691 -3.1938420930
H -5.6625325228 -0.7707509260 -2.3553490275
H -3.1217510527 -2.6463723497 -0.2576783541
H -4.8347567504 -2.5887635381 -0.7189611071
H -3.6303692727 -3.2019727454 -1.8653384551
H 1.0149221082 -2.7366129812 -1.7441672135
H 1.6365413066 -1.7715689230 -3.1379131659
H 4.2285338892 -1.2183361157 2.1933429552
H 2.9847045001 -0.1071688895 2.7341157208
H 5.0861970498 1.0700934274 3.0771417862
H 5.7028298045 0.5817008609 1.4980548241
H 4.9715651238 2.9953315118 1.5355329400
H 3.3327411961 2.4722360595 1.9267584990
H 3.3419506696 2.8186788993 -0.4781487377
H 4.8732544483 1.9875626501 -0.6775494671
H -3.4845608003 0.7934422206 1.8809298139
H -4.8068622061 1.9098357314 2.2594094585
H -4.5591749554 -1.4971847941 -3.5370776878
H -3.1511569204 2.4975812766 2.2418959850
