38
CONF4
C -2.8386794242 -1.4516045894 -1.2728782628
N -1.8919290199 -0.4697261591 -0.7128447758
C -2.2877189149 0.6751324980 -0.0429871333
N -1.5251122224 1.2517523623 0.8613762424
C -0.2621904587 0.7913792378 1.0851470501
O 0.4341988599 1.2083525649 2.0093783028
N 0.2696778916 -0.1426630359 0.1617537833
C -0.5532163753 -0.8677662214 -0.6812770627
O -0.1744346180 -1.8214750827 -1.3505079948
C 1.7113894854 -0.5064424471 0.1810020418
C 2.6237114493 0.7071503731 -0.0090058533
C 4.0760891233 0.2311603996 -0.1263603840
C 4.4870987737 -0.5900444731 1.0981823578
C 3.5519812874 -1.7861056130 1.2948009433
C 2.0926972385 -1.3331806304 1.4113710585
N -3.5139178587 1.1817546302 -0.3030652171
C -4.0551176853 2.2023639622 0.5955015938
C -4.0863534320 1.2015041233 -1.6559755885
H -2.8568135941 -1.4198578433 -2.3648711295
H -2.5233822799 -2.4464080164 -0.9548963274
H -3.8319421316 -1.2447566332 -0.8771637030
H 1.8367645226 -1.1465080339 -0.6970100323
H 2.5306193812 1.3877339189 0.8422423213
H 2.3228405272 1.2527483982 -0.9113294486
H 4.1873669867 -0.3857021318 -1.0290997158
H 4.7371049037 1.0968595056 -0.2465259431
H 5.5228379650 -0.9333555805 0.9932062061
H 4.4487125546 0.0498067048 1.9909916961
H 3.6537868592 -2.4681541344 0.4389435021
H 3.8349410625 -2.3517429390 2.1896526963
H 1.9628780562 -0.7269015079 2.3133123423
H 1.4250181724 -2.1997624349 1.4887517504
H -3.6374521211 3.1936365558 0.3774559989
H -3.8384884182 1.9443749374 1.6322021274
H -5.1378058204 2.2331667766 0.4488616469
H -4.2600532471 2.2462301070 -1.9361641127
H -3.3956922907 0.7733187912 -2.3810855532
H -5.0394149973 0.6637316604 -1.6935503367
