46
CONF139
C -0.2116427185 -1.9423862230 0.5748791744
C -1.5932012560 -2.0084831746 -0.0286360920
C -2.8210318099 -1.9050373699 0.8418707493
C -2.4593998273 -0.7531046535 -0.1180868871
C -1.9832724366 0.5498682038 0.3757286690
O -1.4409088486 0.7873091230 1.4375826300
O -2.2242236743 1.5032943109 -0.5659115474
C -1.7738909045 2.8394892127 -0.2643505953
C -0.3397859760 3.0766309957 -0.6663893672
C 0.5170817894 2.0354445815 -1.0057492228
C 1.8373913299 2.3198033675 -1.3469246895
C 2.3184865725 3.6205119937 -1.3761996464
C 1.4495322613 4.6597597526 -1.0464157929
C 0.1334035434 4.3936506961 -0.6892341774
O 2.6905127908 1.2986769612 -1.7407754293
C 2.8914240780 0.2405970110 -0.8731056046
C 2.8086973581 0.3798138059 0.5114778370
C 3.0927883088 -0.7188769600 1.3182170128
C 3.4580393571 -1.9400790649 0.7568075588
C 3.5378896021 -2.0608106638 -0.6295223840
C 3.2525410752 -0.9747948918 -1.4508631965
C -2.7301187843 -1.7500009774 2.2944051061
C -3.6553794886 -2.1583564356 3.1631559145
Cl -3.4543310980 -1.9754582188 4.8882453153
Cl -5.1617076871 -2.9164314466 2.7169724370
C -1.6881734829 -2.9359813154 -1.2204789109
H -0.1282557302 -1.2249343050 1.3904230831
H 0.0685112204 -2.9322668196 0.9514254750
H 0.5151371028 -1.6592996424 -0.1942819699
H -3.6809963916 -2.4677553386 0.4925872950
H -3.0835274128 -0.6845403350 -1.0023575104
H -1.9065879891 3.0368337827 0.8047097904
H -2.4388246102 3.4967964173 -0.8303469427
H 0.1811423016 1.0041010505 -1.0149662096
H 3.3506852629 3.8077232400 -1.6517238647
H 1.8076649853 5.6841180327 -1.0663748009
H -0.5355446864 5.2100153169 -0.4318685398
H 2.5293047615 1.3308503848 0.9517784887
H 3.0285866160 -0.6126902679 2.3968084948
H 3.6759433728 -2.7911042497 1.3934983154
H 3.8180198896 -3.0083780814 -1.0793043867
H 3.3086660340 -1.0540663497 -2.5315932869
H -1.8507942797 -1.2775347599 2.7156113858
H -2.7029070085 -2.9680286421 -1.6264671713
H -1.4001224821 -3.9510235559 -0.9257905646
H -1.0068197021 -2.6038645034 -2.0114423660
