41
CONF121
C -4.9311776170 -0.7507769282 -0.4628814932
C -4.5456444280 0.5237924111 -1.2126767638
N -3.5045055037 1.3071224491 -0.5317996854
C -3.9503327872 2.5468720637 0.1047923922
C -4.7129931502 2.3341443183 1.4025385500
O -3.8404776682 1.7019724618 2.3423702609
C -2.2186862917 0.8699160186 -0.4807676621
C -1.2436852960 1.4928296031 0.3568363172
C 0.0604526702 1.0719045002 0.3712884834
C 0.4845551397 -0.0085302052 -0.4383081215
C -0.4775872717 -0.6460464284 -1.2474344954
C -1.7879421966 -0.2328418755 -1.2711567370
N 1.7624656478 -0.5150010171 -0.5019420957
N 2.6439982031 0.0842982719 0.2036912500
C 3.9205361268 -0.4819841648 0.1276322298
C 4.2426547825 -1.6715849068 -0.5590579629
C 5.5394767550 -2.1423609902 -0.5590022824
C 6.5268960345 -1.4292946749 0.1279968759
C 6.2340146116 -0.2525141756 0.8180296351
C 4.9326943469 0.2117140804 0.8158945121
N 7.8919791337 -1.9288129299 0.1259869390
O 8.1326003221 -2.9710026712 -0.4884293087
O 8.7501733386 -1.2883299218 0.7380274651
H -5.3226885466 -0.5148823033 0.5302916804
H -4.0763326167 -1.4211249366 -0.3421971617
H -5.7059538699 -1.2823383221 -1.0235859934
H -5.4195946075 1.1735445624 -1.3070710847
H -4.2215505454 0.2898599890 -2.2336050420
H -4.6144240901 3.0660280800 -0.5968438663
H -3.0957517236 3.2035362715 0.2754310285
H -5.0435354837 3.3192263318 1.7642126669
H -5.6073102702 1.7208814597 1.2220575671
H -4.3504606936 1.5062701861 3.1374113770
H -1.5357722907 2.2914291447 1.0247901397
H 0.7728467338 1.5588723649 1.0270212142
H -0.1597811642 -1.4791473149 -1.8671901232
H -2.4828143878 -0.7521844821 -1.9172860898
H 3.4661582702 -2.2157388243 -1.0819041659
H 5.7988553051 -3.0552042825 -1.0807006839
H 7.0166900167 0.2801033800 1.3429994964
H 4.6719560728 1.1225419271 1.3445402670
