52
CONF52
C 1.5522974151 -2.4850936165 -1.7180601119
C 1.5746793550 -0.9847354261 -1.5332869726
C 2.5504173022 -0.2765765077 -2.4758692328
C 2.6604813835 1.2137997705 -2.1370514980
C 2.9983990395 1.4093471256 -0.6585347246
C 2.0730199760 0.5806096542 0.2414935883
O 1.9570608721 -0.7517319185 -0.1475228963
O 0.7821975664 1.2700861834 0.2295110441
C -0.0938547925 0.8229286468 1.1919929397
C -1.2238377634 0.1434858980 0.8314014697
O -2.0823469750 -0.3536224552 1.7625716067
C -1.8383396689 -0.1941545610 3.0983970963
C -2.7437531642 -0.7752475462 3.9678246876
C -2.5261159070 -0.6005984748 5.3351927340
C -1.4390474256 0.1345498592 5.8252283099
C -0.5469018067 0.7068648401 4.9317773354
C -0.7292846166 0.5483598539 3.5308416432
C 0.1950013990 1.1102304248 2.5806965153
O 1.1959581794 1.7894027197 2.9324836855
O 0.5009116509 1.4096809517 5.3935451612
O -3.4246839710 -1.1777635137 6.1681967474
C -1.6473288882 -0.1504128075 -0.5335288895
C -1.6123842738 0.8494675999 -1.5172395600
C -1.9290183981 0.5392064020 -2.8291923609
C -2.2989072960 -0.7744822378 -3.1741388085
C -2.3666514451 -1.7540968499 -2.1894423480
C -2.0484195989 -1.4466060581 -0.8730987795
O -2.6012182529 -1.0981160267 -4.4568183910
O -1.9153144185 1.4343042051 -3.8579891830
O 4.3422656681 0.9617431629 -0.4885014445
O 1.4568052028 1.9017360723 -2.5028748635
O 2.1369759391 -0.4406686556 -3.8318000815
H 1.2428924913 -2.7262034108 -2.7376033310
H 2.5467340734 -2.9071848160 -1.5393578752
H 0.8409935427 -2.9401841925 -1.0228927101
H 0.5676498244 -0.5773236350 -1.6956109839
H 3.5398670684 -0.7393269445 -2.3840800455
H 3.4561094618 1.6611569053 -2.7424835555
H 2.8921272744 2.4707067046 -0.3953819875
H 2.4527722431 0.5607817183 1.2676454784
H -3.5924504860 -1.3391846764 3.6009618961
H -1.2881252687 0.2592558603 6.8930412063
H 0.9982329907 1.7185932372 4.5823086865
H -3.1872312181 -0.9973619378 7.0887907539
H -1.3653508878 1.8740594063 -1.2531974561
H -2.6567473824 -2.7606758011 -2.4723950240
H -2.0751594991 -2.2214976080 -0.1153102147
H -2.5028919888 -0.3106712148 -5.0134804386
H -1.6061961656 2.2970226157 -3.5498395660
H 4.6300446189 1.2019576213 0.4021341778
H 0.7919592051 1.7320037112 -1.8181898631
H 1.4057072175 0.1821790332 -3.9672855679
