28
CONF2
C 4.8140354862 -0.2113343177 -1.2670149734
C 5.5038210377 0.3080232243 -0.1753230785
C 4.8181786412 0.6711653683 0.9769962228
C 3.4402946151 0.4975421688 1.0444049655
C 2.7279042939 -0.0453374435 -0.0345891475
C 3.4403523631 -0.3784730413 -1.1957275924
C 1.2777031528 -0.2741079059 -0.0101423409
N 0.5973400058 -0.0768504837 -1.1553020861
N -0.7133692104 -0.1165136075 -1.1052850103
C -1.2768141396 -0.3145357587 0.1032624765
N -0.5961220897 -0.8253396149 1.1466528546
N 0.7146687606 -0.8248347985 1.0839604147
C -2.7277604484 -0.1479109742 0.2559712495
C -3.4384467445 -1.1024173266 0.9980685903
C -4.8125326057 -1.0125854510 1.1525367827
C -5.5043161571 0.0480271441 0.5748096779
C -4.8204734340 1.0214909357 -0.1425663779
C -3.4422206799 0.9241762614 -0.2976600588
Cl -2.6266729032 2.2280126627 -1.1295634131
Cl 2.6227006463 1.0599132920 2.4840151009
H 5.3458513767 -0.4885908602 -2.1703908901
H 6.5795485661 0.4420881301 -0.2187057631
H 5.3413767694 1.1005587453 1.8231522966
H 2.8873246837 -0.7835963754 -2.0351692992
H -2.8835036373 -1.9223862078 1.4388996796
H -5.3431343674 -1.7696270540 1.7192381956
H -6.5803535448 0.1282451200 0.6877235559
H -5.3453808441 1.8651977715 -0.5746662405
