21
CONF1
C -2.3861460006 2.0718215145 0.0000193813
C -1.1722493497 1.4235578180 -0.0000550743
C -0.9673165244 0.0282750518 -0.0000724151
C -2.1380309870 -0.7562318607 -0.0000723472
C -3.3978838314 -0.1348940896 0.0000180583
C -3.5105740479 1.2661446798 0.0000697067
Cl -5.0698188855 2.0316032825 0.0001790748
Cl -4.8433174403 -1.0943693429 0.0000447005
Cl -2.1040238470 -2.4853338574 -0.0002360055
C 0.4916958366 -0.1342762612 -0.0001284861
C 0.9900945885 1.1852297134 -0.0001800807
O 0.0036846063 2.1172669051 -0.0001289700
C 2.3278470756 1.5372690995 -0.0002687383
C 3.2609596880 0.5043005456 -0.0002901158
C 2.8218673935 -0.8322955813 -0.0002004259
C 1.4570797073 -1.1591476821 -0.0001010488
Cl 1.0370463682 -2.8357717451 0.0001028705
Cl 4.0133039043 -2.0922343781 -0.0001893966
Cl 4.9460279065 0.8810352461 -0.0004070265
Cl 2.7739690481 3.2056330668 -0.0003409605
H -2.4513664606 3.1522921088 0.0000358920
