42
CONF456
C -2.6315355509 -0.5023962368 0.9540121273
C -2.8023126257 0.3125804124 -0.3025132228
O -1.5793360002 0.9943095463 -0.5635966449
C -1.6392934829 1.8197657606 -1.7237458270
C -0.3288357741 2.5566177500 -1.8477453261
O -0.2332234534 3.5091928238 -0.7792899481
C 1.0822106751 3.7189881177 -0.2632808942
C 1.5223887369 2.6529209183 0.7220799129
O 1.9926686028 1.5004991023 0.0199750041
C 2.1020037243 0.3592988046 0.8663001175
C 2.8374435249 -0.7389634780 0.1247901477
O 2.2772182282 -1.0848238072 -1.1448524720
C 0.9313487534 -1.5768375519 -1.1226696293
C 0.7828946107 -2.9769245592 -0.5513138303
O 0.8280517217 -3.0229358493 0.8847942633
C -0.3917304282 -3.3823275602 1.5362520565
C -1.2686500183 -2.1996141418 1.8835264710
O -1.7539475191 -1.5960724419 0.6879077227
H -3.6127782944 -0.8728594568 1.2910823373
H -2.2132607434 0.1358882011 1.7482502795
H -3.6212594722 1.0347922173 -0.1538909324
H -3.0699115356 -0.3410260309 -1.1489278946
H -1.8002790021 1.2084227467 -2.6268463993
H -2.4737137379 2.5355308240 -1.6407402043
H -0.2956876664 3.0773473715 -2.8172219413
H 0.4975497911 1.8389708542 -1.8023524661
H 1.0430301767 4.6774915047 0.2656435252
H 1.8172577490 3.8082333946 -1.0776965449
H 2.3279051329 3.0530723198 1.3606730128
H 0.6715964335 2.3876601246 1.3696411802
H 2.6847837798 0.5972088611 1.7718903398
H 1.1005201375 0.0354749389 1.1928786625
H 2.9030985107 -1.6159660881 0.7840263077
H 3.8535787698 -0.3991375653 -0.1026591815
H 0.2559953080 -0.8856633308 -0.6050664980
H 0.6341102336 -1.6136416220 -2.1778136257
H -0.1645779978 -3.3989877183 -0.9111590804
H 1.6023266795 -3.6058049614 -0.9277768844
H -0.9544078398 -4.1024880205 0.9246780911
H -0.1118902198 -3.8773784118 2.4739692206
H -0.6944149481 -1.4639228701 2.4703637807
H -2.1069352716 -2.5564950880 2.5064768810
