56
CONF153
C -4.1188939483 1.4537311768 -1.5021561083
C -2.7218650154 2.0750596978 -1.5165843672
C -2.5587766873 3.0174119048 -2.7103586906
C -1.6528583740 0.9606567433 -1.5581919280
C -1.7283208879 -0.0087046521 -0.3891456892
C -1.5286952871 0.4280456386 0.9245272105
C -1.5632832298 -0.4689822753 1.9847328736
C -1.8062748712 -1.8104511119 1.7274507733
C -2.0298708818 -2.2700921302 0.4378707700
C -1.9795737223 -1.3631525198 -0.6159396918
O -1.8830368501 -2.7036764750 2.8087047404
C -0.7315350677 -3.3726164191 3.1201907478
F 0.2985545531 -2.5090569848 3.3791644983
F -0.3085971996 -4.1612933872 2.0864796616
C -0.2194549162 1.4628416964 -1.5981407613
O 0.6777521594 0.9514174133 -2.2207007998
O -0.0549409667 2.5319930539 -0.7644044020
C 1.3294315474 2.8656793684 -0.4302256141
C 1.3904284597 4.3197447586 -0.3359912330
N 1.4525200195 5.4696793944 -0.2537990855
C 1.6790861713 2.1579105096 0.8570506280
C 1.3563435914 2.7158683385 2.0929799873
C 1.5699456187 1.9724111343 3.2495757399
C 2.0815415951 0.6832960387 3.1787618861
C 2.4017271187 0.1371446735 1.9365591492
C 2.2138773701 0.8740450690 0.7687662555
O 2.9596277326 -1.1142449685 1.9475030717
C 2.8282333992 -1.9308814802 0.8326316376
C 1.6029833881 -2.1033135714 0.1976721330
C 1.5191010700 -2.9865902824 -0.8712336910
C 2.6399558958 -3.6967885539 -1.2939164924
C 3.8550250593 -3.5202086783 -0.6385709757
C 3.9572091525 -2.6313888370 0.4272273991
H -4.8834417455 2.2358969354 -1.4826977350
H -4.2820615015 0.8487679650 -2.4022467085
H -4.2666777009 0.8100931056 -0.6303843072
H -2.5805674823 2.6471219942 -0.5921105942
H -3.3195049883 3.8030022008 -2.6838789146
H -2.6764499921 2.4695721519 -3.6526934488
H -1.5789986856 3.5040988017 -2.7165809069
H -1.7813152040 0.3883378536 -2.4836297234
H -1.3234970513 1.4735513336 1.1246373029
H -1.3907454434 -0.1394699056 3.0029101523
H -2.2258066830 -3.3223521627 0.2677199994
H -2.1380212086 -1.7155724445 -1.6308291579
H -0.9194552626 -3.9937148708 4.0005132585
H 1.9746401363 2.5303525828 -1.2503124982
H 0.9466657787 3.7192286616 2.1480844001
H 1.3289817186 2.3991795645 4.2177198891
H 2.2440871183 0.0865694146 4.0693906187
H 2.4579862449 0.4462992109 -0.1972693864
H 0.7298384380 -1.5596714293 0.5403789848
H 0.5640867442 -3.1231389513 -1.3681279786
H 2.5658920430 -4.3859431975 -2.1281830963
H 4.7329075392 -4.0714129488 -0.9598168182
H 4.8940923506 -2.4762903180 0.9508177406
