48
CONF1085
C -2.0382430846 3.0613888185 -2.2179753483
C -1.6485372971 1.6195173017 -1.8971251272
C -0.4547860142 1.5388662060 -0.9413322238
C 0.8875759343 1.8237309578 -1.6214102494
O 1.0200081761 2.2834271165 -2.7347710398
O 1.8953728414 1.5523525540 -0.7831984207
C 3.2504735500 1.6589021239 -1.3134135241
C 4.1597675908 0.9432022754 -0.3383205493
C 3.8103943551 -0.5455602250 -0.2016842186
C 4.7464199373 -1.2756770461 0.7090989473
C 4.3754724449 -1.9360960537 1.8050484267
N -0.4009388001 0.2680638755 -0.1974578250
C -0.4962235885 0.3712260082 1.2740766825
C -1.8147232962 0.8947659290 1.7072724911
C -2.2051449358 2.0651308891 2.2828853069
C -3.6271559033 1.9990812451 2.4237520177
C -4.0065585876 0.7966012702 1.9182948909
O -2.9123180792 0.1039273415 1.4757503020
C -0.0037853987 -0.8217548288 -0.8902783026
O 0.4122172576 -0.7839352917 -2.0430108172
N -0.0857464016 -2.0862962660 -0.2198498373
C -1.1104433192 -2.6123163648 0.5564533008
C -0.7238155799 -3.8895997578 0.8461944606
N 0.5081041523 -4.1697341266 0.2783897117
C 0.8552071659 -3.0792614924 -0.3646122871
H -2.9019258101 3.0804263984 -2.8886557464
H -2.3087995149 3.6000756324 -1.3029605287
H -1.2192729025 3.5981203726 -2.7031614537
H -2.4884874473 1.1162262982 -1.4057318243
H -1.4228167932 1.0650100292 -2.8125951016
H -0.5755956445 2.3206104213 -0.1796253003
H 3.5029142792 2.7193586040 -1.4126904663
H 3.2712105087 1.1908387056 -2.3030634264
H 5.1884040499 1.0549191069 -0.7022766297
H 4.1096389586 1.4323068642 0.6417872291
H 3.8450812757 -1.0007245250 -1.2027440644
H 2.7847119254 -0.6522315972 0.1685432841
H 5.8021989883 -1.2444761910 0.4348739168
H 5.0982934187 -2.4502748558 2.4317048790
H 3.3304722350 -1.9832435585 2.1061135943
H -0.2835459842 -0.6031212376 1.7178160040
H 0.2764108302 1.0668139862 1.6211108235
H -1.5525273260 2.8773899244 2.5683506541
H -4.2791391994 2.7507924840 2.8433310377
H -4.9569112292 0.2989600348 1.8023537600
H -2.0025885479 -2.0520413616 0.7869362291
H -1.2654172566 -4.6267454411 1.4225317463
H 1.7606208066 -2.9227790225 -0.9355581757
