88
CONF14
C 1.6602289853 -1.5107339660 -0.6698676834
C 0.1508476487 -1.4799041067 -0.4144201265
C -0.5499858835 -0.6907693226 -1.5099922122
O -1.9700322525 -0.5899124671 -1.2173499231
C -2.7730033320 -1.5816770618 -1.6680597599
O -2.3641865529 -2.5495770202 -2.2933809377
C -4.1841631427 -1.3771058287 -1.3388160346
C -4.6489086044 -0.3207142496 -0.6422364797
C -6.0307175949 -0.0449425624 -0.2835361840
C -6.2841269958 1.1202594696 0.4560460694
C -7.5886116345 1.4412314355 0.8314660977
O -7.9388637323 2.5380757921 1.5519743166
C -6.8854429859 3.4247053010 1.9546528213
C -8.6494292490 0.6030355588 0.4572808215
O -9.9349548962 0.9437684287 0.7774481742
C -10.3927251973 0.3475184616 2.0121134013
C -8.3898039441 -0.5671116451 -0.2818509257
O -9.4871598737 -1.3071990485 -0.5856031856
C -9.2827916923 -2.5112915642 -1.3382896937
C -7.0884625464 -0.8898744298 -0.6538568542
C -0.0364470874 0.7392860127 -1.6155153254
O -0.6100014237 1.3907355981 -2.7535821202
C -1.6469266267 2.3219076580 -2.4368708720
C 1.4785383947 0.7302798324 -1.8223835541
C 2.0091876791 2.1469824916 -1.8543842649
O 1.4841507436 3.1128333686 -1.3388619829
O 3.1970358621 2.1958194375 -2.4862790704
C 3.8502892528 3.4898740963 -2.4963198514
C 2.2451586172 -0.0928634214 -0.7584316943
C 2.2562795507 0.5650697180 0.6235813434
C 2.9819220234 -0.2953281081 1.6610453539
N 2.4168662114 -1.6623330462 1.6968746876
C 3.1376364167 -2.4784624504 2.6900875745
C 4.6259883005 -2.7269357287 2.3535503615
C 5.2299921208 -1.4730235813 1.8105143998
C 4.4721561342 -0.3781465729 1.4789684099
N 5.2966958046 0.6217904758 0.9863319793
C 6.5974349602 0.1747349500 0.9871987171
C 6.5922114262 -1.1512167315 1.4985953451
C 7.8147999194 -1.8315039881 1.5959426318
C 8.9791824158 -1.1990469415 1.1954953613
C 8.9534545817 0.1197656968 0.6913132480
O 10.1785396788 0.6205664540 0.3324187716
C 10.2143575802 1.9508875776 -0.1889959915
C 7.7615270700 0.8309199808 0.5784991234
C 2.4333766868 -2.3104607592 0.3770874967
H 1.8262348038 -2.0057947381 -1.6370769617
H -0.2444197449 -2.5011998965 -0.3977497066
H -0.0729269993 -1.0250188040 0.5563690905
H -0.4297985609 -1.1854117979 -2.4806131150
H -4.8350815038 -2.1617736407 -1.7098624498
H -3.9284788219 0.4192224292 -0.3016291770
H -5.4533091644 1.7575708418 0.7323301888
H -7.3739891839 4.2250988653 2.5105062083
H -6.1659175525 2.9109247987 2.6025125123
H -6.3693681083 3.8426181676 1.0827119979
H -9.7742931966 0.6874810849 2.8506045477
H -11.4220850516 0.6820321127 2.1508129516
H -10.3625062115 -0.7455123348 1.9439730419
H -8.8439809856 -2.2908221971 -2.3181477324
H -10.2738757495 -2.9460024900 -1.4685976348
H -8.6404807118 -3.2114347640 -0.7917624622
H -6.8920435874 -1.7868338034 -1.2251177866
H -0.2929249391 1.2907519349 -0.7006546143
H -2.5094798550 1.8251567204 -1.9751911377
H -1.2735212142 3.1062181801 -1.7650743685
H -1.9575205656 2.7753047535 -3.3813651605
H 1.6800571776 0.2731442880 -2.7996180552
H 4.0390941858 3.8236664785 -1.4729764082
H 3.2268605838 4.2221884100 -3.0145787973
H 4.7873389453 3.3361266876 -3.0297130008
H 3.2842844343 -0.1799341359 -1.1021640093
H 1.2362185057 0.7346844007 0.9827283200
H 2.7297342769 1.5527097718 0.5801171873
H 2.7779145306 0.1501244182 2.6474162822
H 2.6135400546 -3.4352812531 2.7974522635
H 3.0713615143 -1.9530698820 3.6512479989
H 4.7293537497 -3.5500145307 1.6321322384
H 5.1446836475 -3.0554981701 3.2630723693
H 5.0010619137 1.5355166361 0.6841164625
H 7.8533785656 -2.8460821408 1.9822600141
H 9.9380078481 -1.7032349867 1.2604101328
H 11.2619374720 2.1561918567 -0.4125891606
H 9.6200071065 2.0319024081 -1.1077466383
H 9.8478458983 2.6755136341 0.5489290914
H 7.7209239787 1.8427748926 0.1943079756
H 1.9844524374 -3.3053786610 0.4917391977
H 3.4605971502 -2.4555390459 -0.0031235648
