41
CONF1
C -5.0883022485 -2.0782272621 -0.5898838603
C -4.8958210680 -1.8161769212 0.7661621708
C -4.2125414104 -0.6727850000 1.1666347341
C -3.7118810131 0.2262733259 0.2186536213
C -3.9121193517 -0.0428423777 -1.1379020024
C -4.5967241063 -1.1885579535 -1.5406806878
C -2.9343585847 1.4400172526 0.6603476752
C -1.5343681471 1.0637574961 1.1569710058
N -0.7949751148 0.3767597969 0.0975797839
C 0.5506912910 0.2117644712 0.1168393418
C 1.3962386827 0.8543413429 1.0457014474
C 2.7730181072 0.7030279746 1.0041962795
C 3.3685536004 -0.1076353392 0.0488379708
C 2.5477244782 -0.7643270882 -0.8975160689
C 1.1779319077 -0.5976478641 -0.8554069909
C 3.0813586670 -1.6826238492 -1.9777974861
F 2.1743810623 -1.8686685582 -2.9642443822
F 3.3810534911 -2.9089787747 -1.4960460598
F 4.1910924379 -1.1888530635 -2.5722605541
S 5.1632184486 -0.2538092003 0.1723433062
O 5.5306900712 -1.6515316193 -0.0947366663
O 5.5429888717 0.3813408452 1.4445976760
N 5.7477585622 0.7374439545 -1.0606697704
S 0.6771938883 1.9204267943 2.2804817991
O 1.4415351726 3.1706567494 2.3645605224
O 0.4104297111 1.1448083920 3.4994449642
N -0.8256390199 2.2762097922 1.5843882821
H -5.6227896483 -2.9699470153 -0.9019051938
H -5.2822552865 -2.5029269253 1.5129148328
H -4.0685506458 -0.4706577863 2.2249519591
H -3.5354589320 0.6530616972 -1.8832421345
H -4.7473756782 -1.3825144980 -2.5981406613
H -2.8368435124 2.1538442412 -0.1650224689
H -3.4415681475 1.9411553431 1.4902822864
H -1.6244013760 0.4160070892 2.0408852401
H -1.3309159854 -0.1998161397 -0.5365880399
H 3.3914324033 1.2206444055 1.7290656796
H 0.5500609090 -1.0956691839 -1.5849794314
H 6.3813103568 1.4296458539 -0.6679220393
H 6.2072054949 0.1894775997 -1.7834769481
H -0.6889761318 2.9335319173 0.8132203544
