61
CONF2
C -0.7548756429 -2.4988633359 -2.5443407768
C -1.9026101385 -1.5291377235 -2.2340677396
C -2.0987095993 -1.3088717079 -0.7544145994
C -2.8653816674 -2.2195074753 -0.0281406980
C -3.0814489974 -2.0708617586 1.3402925411
C -2.5207166468 -0.9657155894 1.9771671839
C -1.7471655183 -0.0304979348 1.2896054584
C -1.5146261464 -0.2181151017 -0.0859661819
C -0.6326842489 0.7073294539 -0.8193260026
C -0.9982575536 1.9659721521 -1.4651913548
O -2.0680309437 2.5618378330 -1.5401845926
N 0.1785208600 2.3980447981 -2.0886812468
N 1.2375909183 1.5151088545 -1.8551766529
C 0.6939463294 0.5410252461 -1.0495185922
O 1.4726865183 -0.5189300080 -0.6702627350
C 1.9543683494 -0.5032090253 0.6394173871
O 2.0142703568 0.5124084713 1.2779315739
C 2.3354871242 -1.8982953066 1.0907624890
C 1.0123861941 -2.6409655571 1.3781076243
C 3.1672128712 -1.7879788522 2.3706691806
C 3.1227755678 -2.6344328944 -0.0039201866
C 2.5559924436 2.0985705293 -1.5620229450
C 2.5127852901 3.2923653797 -0.6053730542
O 2.2615405073 4.5244167666 -1.2737180328
C 0.9011650451 4.7250225579 -1.6393009846
C 0.3768555214 3.7126374833 -2.6569341789
C -1.2391643326 1.1850823736 2.0216297726
C -2.2635129079 2.3292736069 1.9870196390
C -3.9371842591 -3.0485314786 2.0983918674
H -0.6563932082 -2.6548604080 -3.6233182081
H 0.1955827122 -2.1116327311 -2.1671737108
H -0.9328102288 -3.4716507527 -2.0737148684
H -1.7177415120 -0.5702850921 -2.7284139248
H -2.8330806647 -1.9288936004 -2.6531884261
H -3.3118472457 -3.0637423126 -0.5500326754
H -2.6914913982 -0.8209103109 3.0421992473
H 0.3902826511 -2.7134439866 0.4818530143
H 0.4321704611 -2.1279412289 2.1507391882
H 1.2444079802 -3.6516289618 1.7290367347
H 2.6150502270 -1.2627456110 3.1530702563
H 4.0993743317 -1.2444836327 2.1907637156
H 3.4149900902 -2.7915824308 2.7286107540
H 2.5241995935 -2.7709502999 -0.9068713689
H 3.4110897837 -3.6212665291 0.3708537226
H 4.0367836238 -2.0931713378 -0.2693937396
H 3.0283020443 2.4087123714 -2.5010004958
H 3.1575831242 1.2896047836 -1.1391943089
H 1.7794459357 3.1107988249 0.1959611888
H 3.5001637290 3.4040863160 -0.1461692370
H 0.2528920978 4.7000403576 -0.7481155933
H 0.8595551882 5.7289870262 -2.0743466274
H -0.6158207375 4.0309644451 -2.9949050603
H 1.0389280084 3.6524039231 -3.5285917216
H -0.2972692234 1.5223773950 1.5806994102
H -1.0251464265 0.9131775414 3.0620067403
H -1.8799928867 3.2065165110 2.5183782553
H -3.2002424775 2.0231355030 2.4640645414
H -2.4876611448 2.6139570939 0.9549438952
H -3.8816771894 -4.0492251670 1.6609819185
H -3.6339654484 -3.1124502316 3.1470556807
H -4.9888777727 -2.7390790173 2.0787569163
