18
CONF45
C 1.6071509006 0.2753705938 -0.9340339953
C 2.4303011134 -0.3038797353 0.2055385111
O 2.2011034407 -0.1378293539 1.3848584410
O 3.4808798550 -1.0080488154 -0.2590540304
N 0.3170481057 0.8172509947 -0.5439221946
C -0.6138469114 -0.2116747139 -0.0726831558
P -2.2622569173 0.5222570918 0.1756160959
O -2.2679971912 1.7440903039 1.0256434905
O -3.1977201679 -0.6993975195 0.6711043005
O -2.8927088348 0.8368876295 -1.2693065902
H 1.4771890919 -0.4942927459 -1.7037294580
H 2.2190911629 1.0671340780 -1.3876994073
H 4.0041544092 -1.3223322383 0.4988373038
H 0.4506951670 1.5079179437 0.1890282135
H -0.7101393225 -0.9963610697 -0.8349369910
H -0.3206392602 -0.7039037751 0.8711358526
H -3.0232779836 -0.9758595081 1.5844963416
H -2.8990267526 0.0826711413 -1.8802514257
