45
CONF97
C 8.0266714788 0.4416300094 -0.5010194497
C 6.8580735077 1.0101777938 -1.3072793272
C 5.5101072793 0.3458433749 -1.0053948742
C 5.0063865581 0.5859821956 0.4191822464
C 3.6687074254 -0.0926679587 0.7311496208
C 2.4901933178 0.4262556576 -0.0943684879
C 1.1544529009 -0.1556312489 0.3632446262
C -0.0266199589 0.3601658016 -0.4743327284
C -1.3533173398 -0.1886977792 -0.0190257209
C -1.7707759424 -1.4397651301 -0.4913445196
N -2.9710833701 -1.8854924582 -0.0226717039
C -3.7394539715 -1.1636573225 0.8802556531
N -4.8556124846 -1.8687510166 1.1372628205
C -4.7013819055 -2.9756652637 0.3778301553
N -3.5848819698 -3.0575937743 -0.3503360706
N -3.3525296661 0.0149578735 1.3603852613
C -2.1757229184 0.4819820282 0.9129683407
C -1.7939650835 1.8389743723 1.4438899604
C -2.3371396960 2.9603572396 0.5449741494
N -1.0969395126 -2.2512479972 -1.3259525713
H 7.9117473143 0.6289986532 0.5709711131
H 8.9746071987 0.8912354572 -0.8135535458
H 8.1056762015 -0.6422867434 -0.6443412993
H 7.0747413910 0.8955782839 -2.3766935204
H 6.7747103410 2.0899072661 -1.1233284033
H 5.5921516828 -0.7368983863 -1.1810520879
H 4.7686756097 0.7216408363 -1.7209217632
H 4.9116275828 1.6683120471 0.5893439937
H 5.7532501707 0.2237523734 1.1358556119
H 3.4390798561 0.0511822754 1.7955616984
H 3.7671277856 -1.1769556610 0.5799822555
H 2.6363057771 0.1894251454 -1.1560237313
H 2.4504074171 1.5228176282 -0.0219474372
H 1.1908047689 -1.2519599223 0.3111689534
H 0.9809706478 0.0992725009 1.4170549331
H -0.0460203183 1.4523379695 -0.4342394877
H 0.1413997950 0.1161555610 -1.5313235252
H -5.4349345853 -3.7727275658 0.3451862904
H -0.7085488672 1.9283452033 1.5405273878
H -3.4273473346 2.8983213224 0.4766804093
H -1.9290354037 2.8902908862 -0.4682813334
H -0.2908275149 -1.9024848607 -1.8164787490
H -1.5774066716 -3.0454186179 -1.7205364543
H -2.2225830051 1.9376729477 2.4451040676
H -2.0720301965 3.9395096441 0.9542614080
