23
CONF1
C -3.4355526241 0.2469534584 -0.2385904116
C -3.0471431922 -1.0858515553 -0.3804989677
C -1.7021546121 -1.4423918652 -0.3417501760
C -0.7484875481 -0.4438511461 -0.1584576927
C -1.1418028431 0.9000603405 -0.0148505261
C -2.4821533076 1.2493772675 -0.0544698844
C 0.0726352287 1.7763437757 0.1696484287
C 1.2108238356 0.7872598225 0.1157881742
C 0.7093348729 -0.5136737107 -0.0778364038
C 1.5777411618 -1.5996263354 -0.1605579267
C 2.9466029611 -1.3733568952 -0.0479364104
C 3.4423601330 -0.0831886674 0.1444097224
C 2.5745350524 1.0066838877 0.2274208276
H -4.4889996346 0.5056311167 -0.2716923507
H -3.8029986314 -1.8516863022 -0.5225888748
H -1.4054919864 -2.4809234992 -0.4528619325
H -2.7903390665 2.2853380100 0.0553359483
H 0.0452437459 2.3146359443 1.1258656930
H 0.1526650284 2.5339547334 -0.6205659412
H 1.1974238924 -2.6055713513 -0.3099038620
H 3.6369696844 -2.2085304379 -0.1100720441
H 4.5128212052 0.0734244416 0.2300454790
H 2.9659662446 2.0089891675 0.3770430312
