38
CONF4
C -5.6297140395 1.1760665111 -1.9043650354
C -4.3149504398 1.2410250743 -1.2036156564
N -3.2100592496 1.0688995311 -1.9457811383
C -2.0623590605 1.1727881743 -1.2656099312
N -1.9492316447 1.4248298237 0.0423803081
C -3.1160609134 1.5701839456 0.6739070789
N -4.3266047695 1.4906080750 0.1121113059
O -3.1267024418 1.8191258573 1.9770906483
C -1.8476118472 1.9271195639 2.6570678114
N -0.9192051921 0.9923149403 -2.0162473832
C 0.4298372157 0.9775669267 -1.6597350535
O 1.2812453372 0.7039576065 -2.4907473002
N 0.7051495789 1.3044474264 -0.3472407847
S 2.2460865934 1.0467623066 0.3208029463
O 3.2144473995 1.8740765748 -0.4025379235
O 2.0584888101 1.2507024057 1.7597919085
C 2.6581569545 -0.6569094821 -0.0381704310
C 3.8547593015 -0.9406046976 -0.7354055861
C 4.0458117891 -2.2874719741 -0.8923813611
S 2.7721728377 -3.2097318400 -0.1986344375
C 1.9383918561 -1.7818715730 0.3319508002
C 0.6534824747 -1.8835563076 1.0330231635
O -0.0058441677 -0.9301387443 1.4015908180
O 0.2928896356 -3.1652019093 1.2042541273
C -0.9778503204 -3.3721335139 1.8741716011
H -5.5627670453 0.5520605119 -2.7963860816
H -6.4068473063 0.8096352407 -1.2319119222
H -5.9089331932 2.1892760650 -2.2191216969
H -2.1032401046 2.1264039282 3.6965432523
H -1.2932330936 0.9904065624 2.5675918091
H -1.2683462673 2.7542486775 2.2391060963
H -1.0770874527 0.7865827675 -2.9952249236
H -0.0851660676 1.3121079299 0.3124246050
H 4.5332956404 -0.1827867481 -1.1021822835
H 4.8713782465 -2.7858249992 -1.3840329690
H -1.1045943630 -4.4524657723 1.9166636118
H -0.9425622079 -2.9451694411 2.8788421611
H -1.7815577585 -2.9088479451 1.2973816111
