22
CONF6
C -3.2285316642 -0.8052433303 -0.7834568176
N -3.2182870523 0.6457287721 -1.0009405145
S -2.3156771784 1.6647979811 -0.0496722486
O -2.6020873855 3.0206325097 -0.5073537262
O -2.4278214115 1.2246742204 1.3365281320
C -0.4602044788 1.4224221795 -0.5762511822
C 0.3166353264 0.3840460792 0.2792414082
C 1.6958128140 -0.0387950191 -0.3343786299
C 2.6598091915 -0.7339727869 0.6812356713
F 2.0198622561 -1.7156216202 1.3330537619
F 3.1368772518 0.1448775277 1.5673470562
F 3.6897162081 -1.2636055196 0.0067748683
F 1.4719061338 -0.9059434199 -1.3473663038
F 2.3305050241 1.0515607034 -0.8213220836
F -0.4416212425 -0.7362565467 0.3894546413
F 0.5229148117 0.9075170083 1.5046463867
F -0.4631626648 1.0251849550 -1.8750030493
F 0.1323326092 2.6197890654 -0.4832588141
H -4.1711031407 -1.1945276912 -1.1779982885
H -3.1999592003 -0.9995132964 0.2899401720
H -2.3907559695 -1.3177782392 -1.2694659159
H -3.2349853711 0.9595501989 -1.9652698307
