34
CONF194
C -3.2939010418 -3.1900963334 -0.5472806485
C -3.1921980313 -1.7518887343 -0.1107130957
O -2.4941095071 -1.0228102933 -1.1954006848
P -1.8941033529 0.4350954708 -1.0490415587
S -1.9055954374 1.5172128754 -2.6517551343
O -2.5943404824 0.9788428696 0.2721998088
C -2.5714043583 2.4001786052 0.6551843584
C -1.2095670766 2.8297545959 1.1464580890
O -0.2844123498 0.2105019195 -0.6511459444
N -0.1301389162 -0.6087167877 0.4711572348
C 1.1149241545 -0.7979869601 0.7741914686
C 1.2370389546 -1.6804655840 1.9028263664
N 1.3630884484 -2.3792032350 2.8159050603
C 2.3587435278 -0.2971391474 0.1669171646
C 2.4460273992 0.9701513747 -0.4299761502
C 3.6540422049 1.3969319790 -0.9657569517
C 4.7769428510 0.5724333427 -0.9271939176
C 4.6965875474 -0.6837380756 -0.3306534603
C 3.4995209670 -1.1130321249 0.2257922072
H -3.8288349655 -3.7530955959 0.2237095156
H -3.8469410666 -3.2767648418 -1.4863556431
H -2.3008694643 -3.6302726564 -0.6723434091
H -4.1731729193 -1.2862024279 0.0122921031
H -2.6146301935 -1.6443375120 0.8092657180
H -3.3242005674 2.4599694781 1.4429197794
H -2.9030207067 2.9872908593 -0.2066805509
H -0.4728213568 2.8276591407 0.3384314677
H -0.8604924463 2.1777974840 1.9524484454
H -1.2854087632 3.8505257048 1.5339941818
H 1.5870891566 1.6262698291 -0.4556423491
H 3.7177993705 2.3824153313 -1.4152722352
H 5.7147503054 0.9119093236 -1.3550279213
H 5.5682443256 -1.3284809527 -0.2921757293
H 3.4453636054 -2.0907082071 0.6946340061
