49
CONF42
C -5.5800505131 0.4757896163 -2.3178958783
C -4.2158875815 -0.2023614882 -2.1605827716
C -3.2623276107 0.2567194073 -3.2676924339
C -3.6259220836 0.1018258286 -0.7824620152
C -4.3905744268 -0.4432467289 0.4575487214
C -4.2045102020 -1.9830691408 0.2869158689
C -2.7701735674 -2.1063320757 -0.3054103424
C -2.3008194647 -0.6219518185 -0.4018469724
C -2.1477815654 -0.1492983729 1.0255233925
C -3.4398903073 -0.0351684759 1.5542546409
C -3.6492412264 0.3202660792 2.8777141909
C -2.5252755473 0.5861079944 3.6653074767
C -1.2321017744 0.4691409459 3.1616544948
C -1.0278385512 0.0753430563 1.8267017823
N 0.2415119841 -0.0737277124 1.2392883103
C 1.4712030089 -0.1277852069 1.8461167003
O 1.6440303048 -0.0790562792 3.0625048213
C 2.5991786198 -0.2462750471 0.8996067755
C 2.6639654053 0.1783163416 -0.4226543384
N 3.9024166004 -0.1110183391 -0.8720018260
N 4.6609810231 -0.7061095577 0.0609679963
C 3.8867022784 -0.7844348621 1.1451263421
C 4.4718242544 -1.4330685568 2.3499428259
F 4.6774820725 -0.5194065046 3.3646049874
F 3.6211013993 -2.3925147130 2.8551467687
C 4.4570487925 0.1771077397 -2.1882908096
H -6.2998898309 0.1147399165 -1.5770530871
H -5.9946730482 0.2826767081 -3.3127204933
H -5.4834120084 1.5616262020 -2.1968795717
H -4.3610546541 -1.2846145285 -2.2652780697
H -3.6999719627 0.0735133486 -4.2545923146
H -3.0639523748 1.3320826110 -3.1811986239
H -2.3037478075 -0.2697380834 -3.2231404047
H -3.4952059228 1.1894656843 -0.6931087027
H -5.4248428541 -0.1235517981 0.5931193081
H -4.9561547658 -2.3854033721 -0.3988670656
H -4.3123337855 -2.5015477190 1.2430162056
H -2.7840360307 -2.5679485224 -1.2975012637
H -4.6505675576 0.4011281604 3.2900101913
H -2.6526411816 0.8941118712 4.6988593809
H 1.9405504536 0.6792891289 -1.0511566484
H 5.4329124603 -1.9067037953 2.1249619275
H 4.8306612033 -0.7462592355 -2.6366981439
H 5.2740107398 0.8973404325 -2.0965283941
H 3.6654916820 0.5951850425 -2.8106940609
H -2.0994081743 -2.6926251311 0.3279350162
H -1.4526655774 -0.4603658542 -1.0702549529
H 0.2275071049 -0.2630599680 0.2483598348
H -0.3827751805 0.6786943089 3.7952516872
