40
CONF4
C -2.6028008230 -3.9826828630 0.2551279150
N -2.5997468887 -2.5341666206 0.4582100438
C -2.6397303484 -1.7944625845 -0.8035485307
C -2.5100405747 -0.2947757006 -0.5563553163
C -1.1611430569 0.0920846580 0.0477731262
O -0.1860875230 -0.2079520400 -0.9711792243
C 1.1276314940 -0.2640450591 -0.6265636763
C 1.9988508755 -0.6440962255 -1.6544041684
C 3.3569811337 -0.7426162141 -1.4140166593
C 3.8648607984 -0.4667058131 -0.1430504703
C 2.9993866524 -0.0808190792 0.8751510028
C 1.6327626276 0.0235281717 0.6444802184
C 5.3383586587 -0.5247250759 0.1038038799
F 5.9507659347 -1.4513971090 -0.6734316294
F 5.6312290220 -0.8248701386 1.3925387058
F 5.9497847722 0.6631217355 -0.1621121355
C -1.1293196904 1.5474248764 0.4506395751
C -0.7404982894 2.5381496023 -0.4501341196
C -0.7629754492 3.8768072655 -0.0721482654
C -1.1787342073 4.2390012972 1.2057482530
C -1.5688223951 3.2538969621 2.1087130722
C -1.5404193372 1.9152571764 1.7325335695
H -1.6713043356 -4.2807107240 -0.2389092009
H -3.4433556515 -4.3470896977 -0.3632717267
H -2.6415275430 -4.4913368977 1.2233124494
H -3.4126777131 -2.2782838828 1.0105930651
H -3.5600056782 -1.9890667284 -1.3869504237
H -1.7979195233 -2.1319523605 -1.4208415108
H -2.6455310792 0.2593592175 -1.4925507143
H -3.2961696767 0.0461770062 0.1293850373
H -0.9736397532 -0.5527007280 0.9170827821
H 1.5852185323 -0.8634594280 -2.6324890056
H 4.0263684066 -1.0435177868 -2.2122834166
H 3.3906081433 0.1413356991 1.8618392525
H 0.9813944364 0.3437440807 1.4469657075
H -0.4068398222 2.2543795395 -1.4431020239
H -0.4508349002 4.6401401119 -0.7778345497
H -1.1922205502 5.2835412306 1.4993054692
H -1.8869910986 3.5276241330 3.1096531898
H -1.8348655741 1.1458601997 2.4427776477
