29
CONF27
C 1.6556452042 0.5805120162 1.8892732843
N 1.9989843217 0.8987276631 0.4966905081
C 2.7931936448 -0.1170792034 -0.2030251834
S 0.9243874670 1.7629989791 -0.4317657643
O 0.2046218836 2.6741836944 0.4596393461
O 1.6282865310 2.2476851828 -1.6145104450
N -0.2159826533 0.5537820869 -1.0577292143
C -1.1167887713 -0.0031824298 -0.0775453870
C -2.1995492557 0.7355379875 0.3997251876
C -3.0450654990 0.1750040214 1.3496445221
C -2.8105068589 -1.1147198382 1.8231956553
C -1.7301422548 -1.8481631715 1.3410597827
C -0.8801849950 -1.2944673955 0.3881447124
S -0.8383798586 0.8223464008 -2.6276518154
C 0.1588684002 -0.3693373102 -3.6030764405
F 1.4745124621 -0.0744448810 -3.5963187334
Cl 0.0045200648 -2.0778400118 -3.0434513278
Cl -0.4773710399 -0.1941038830 -5.2758632970
H 2.5887663702 0.5643347756 2.4618642962
H 1.0070839236 1.3544888838 2.2997268845
H 1.1625966120 -0.3957261467 1.9772434666
H 3.7057063826 -0.2814101978 0.3778763367
H 3.0714014997 0.2424662623 -1.1946709022
H 2.2531557051 -1.0691113914 -0.2972650107
H -2.3669350316 1.7417041119 0.0305882529
H -3.8878159444 0.7475561923 1.7229788017
H -3.4728059566 -1.5484343188 2.5653620701
H -1.5488427489 -2.8553423455 1.7021695780
H -0.0413598007 -1.8579657279 -0.0040090598
