47
CONF141
C -1.1640932749 1.6215580225 2.9164516704
C -2.3620635118 1.2378219557 2.0515061815
C -2.9743396040 2.4469652740 1.3441490327
C -4.1678370917 2.1009524386 0.4743963364
O -3.7620688208 1.2098787523 -0.6167200406
C -3.2894466026 1.7853891503 -1.7237717818
O -3.2577326078 2.9798374142 -1.9420183559
C -2.8329362024 0.7549035794 -2.7583257527
C -3.9985194843 0.3861592474 -3.6633822382
O -2.3719197462 -0.4599468427 -2.1580213047
C -1.2923244866 -0.3907537202 -1.3191619194
C -0.4847902072 0.7383996886 -1.1626061667
C 0.5799663456 0.7015257268 -0.2637681333
C 0.8230460722 -0.4512894849 0.4618256175
C 0.0311689888 -1.5832664449 0.3089252281
C -1.0281775585 -1.5518234172 -0.5855568483
O 1.8447469174 -0.4517964936 1.4202024800
C 3.0607036231 -0.9518189474 1.0664654856
C 3.3586474343 -1.4003384302 -0.2245338586
C 4.6334175501 -1.8863397091 -0.4575372478
C 5.5521645711 -1.9086545313 0.5894909457
C 5.1530373126 -1.4314985039 1.8358019316
N 3.9299053751 -0.9605676150 2.0753922901
C 6.9458893109 -2.4160749723 0.4164305226
F 7.2500703009 -3.3828880856 1.3239511528
F 7.8735509041 -1.4346122784 0.5908749175
F 7.1577737140 -2.9430767708 -0.8095902761
H -0.7334799062 0.7442328955 3.4095994967
H -0.3779639637 2.0827372452 2.3082285309
H -1.4537537789 2.3390218878 3.6924168478
H -2.0526450945 0.4995582301 1.3030192977
H -3.1313183188 0.7580319815 2.6708900226
H -3.3158927081 3.1791147143 2.0878585788
H -2.2151232902 2.9500811383 0.7310334589
H -4.6362327809 2.9897644102 0.0457422367
H -4.9112151018 1.5207952183 1.0264960863
H -2.0327807827 1.2203364956 -3.3466178736
H -4.8009161494 -0.0750185832 -3.0813655176
H -3.6568271445 -0.3157450403 -4.4278135527
H -4.3815804244 1.2835840821 -4.1551684795
H -0.6631467511 1.6504936269 -1.7190344223
H 1.2128845816 1.5719526000 -0.1258932957
H 0.2403884700 -2.4746329481 0.8915184274
H -1.6708423769 -2.4161787796 -0.7150916727
H 2.6222404001 -1.3696166650 -1.0173411053
H 4.9041949625 -2.2438036444 -1.4445788922
H 5.8461699365 -1.4305539674 2.6752312979
