51
CONF5
C 5.3998182373 0.0467735223 2.8869980945
C 5.1825571552 -1.0780842460 1.9126431595
C 6.1377386766 -2.0011926878 1.6330034338
C 7.5204273503 -2.0276450800 2.2054106471
O 8.3938804064 -1.0330538243 1.6084468203
C 3.9056420446 -1.1707007596 1.2389601008
C 2.8572048682 -0.3180511764 1.4007952065
C 1.6197518478 -0.4723776114 0.7039530122
C 0.5059345671 0.3210777025 0.7916245267
C 0.4211648554 1.5319117143 1.6765135182
C -0.6422790046 -0.0292480660 -0.0110083092
C -1.8105995167 0.6567823053 -0.0585347578
C -2.9699119717 0.3208915475 -0.8818445007
C -3.4010175439 -0.9537842773 -1.0662092559
C -2.8706541767 -2.1498990648 -0.3245857433
C -4.5079829134 -1.3075592524 -2.0249098105
C -4.8524084348 -0.1861682169 -2.9933929818
C -4.9883727741 1.1090904735 -2.2087934462
C -3.6719996745 1.5281284756 -1.5304897824
C -2.7256940176 2.1700093633 -2.5625617854
C -4.0267269151 2.5900363559 -0.4703752552
H 6.3767290769 -0.0102170169 3.3668018176
H 5.3325859893 1.0133087322 2.3745969006
H 4.6278447176 0.0419892291 3.6641564613
H 5.9006778817 -2.7698109060 0.8983558677
H 7.5216471388 -1.7988967618 3.2752384874
H 7.9568951887 -3.0264142610 2.0764841044
H 8.3593727638 -1.1661975721 0.6521901728
H 3.7906941952 -2.0025762979 0.5433158519
H 2.9641370105 0.5159137674 2.0885289479
H 1.5624443363 -1.3246836145 0.0257248949
H 1.3382211419 1.7052984812 2.2386359437
H 0.2142143736 2.4288608294 1.0808890384
H -0.4025310039 1.4306477858 2.3924514486
H -0.5265081035 -0.9103691021 -0.6394114952
H -1.8757654119 1.5786182701 0.5137557450
H -2.1965360021 -2.7448149178 -0.9547950152
H -3.7072808248 -2.8087422558 -0.0599390231
H -2.3297950607 -1.8804991222 0.5843313080
H -4.2115823492 -2.2163145320 -2.5678970727
H -5.4001347231 -1.5946383891 -1.4455286446
H -4.0624820308 -0.0918346670 -3.7486744016
H -5.7804483048 -0.4157983026 -3.5284646410
H -5.7564369842 0.9684943461 -1.4347716624
H -5.3271341095 1.9318538719 -2.8502209226
H -2.4901088394 1.4744331013 -3.3741947309
H -3.1862990209 3.0655910505 -2.9957003936
H -1.7825262514 2.4641035072 -2.0900289706
H -4.6655199041 3.3532187957 -0.9291121306
H -4.5765596631 2.1424102918 0.3648109634
H -3.1442902718 3.1001274777 -0.0740644300
