46
CONF32
C 5.1601686785 3.9677589282 3.2112940540
C 4.0752021843 3.4870496839 2.2782275603
O 4.2146400225 2.0369452143 2.1870944428
C 3.3635282623 1.3678374787 1.4082327914
N 3.5672390335 0.0530412992 1.3904254816
C 2.7104161755 -0.6262824803 0.6008281075
N 1.7221463177 -0.0556971963 -0.1301595669
C 1.6336960537 1.2640036870 -0.0056486133
N 2.4203445909 2.0490606977 0.7433766723
N 0.6439315140 1.9381183801 -0.7001749766
C -0.3739288077 1.4673745413 -1.5290667318
O -1.2049530345 2.2362333036 -1.9879847426
N -0.3448881568 0.1121651362 -1.7808846624
S -1.6305233776 -0.6877839431 -2.5459412909
O -1.8028595384 -0.1253106334 -3.8867191404
O -1.3032935570 -2.1108386870 -2.3803738823
C -3.1084151756 -0.3196286861 -1.5899418216
C -4.0150868326 0.5846170999 -2.1297356736
C -5.2203182814 0.8147050850 -1.4733507283
C -5.5177854286 0.1247031036 -0.3033516736
C -4.6115186609 -0.7919173662 0.2214211433
C -3.3866575096 -1.0163173483 -0.4072227565
C -2.3993341676 -1.9170889543 0.2647391173
O -1.2946202418 -1.5623371092 0.6224192486
O -2.9178191733 -3.1297868826 0.4781487057
C -2.0523877842 -4.0607998181 1.1839478134
N 2.8399621173 -1.9562602634 0.5296745561
C 2.0011383377 -2.8048292750 -0.3060183205
H 5.0482248946 3.5231357331 4.2040234475
H 6.1508712901 3.7196105956 2.8205188053
H 5.0897531979 5.0548070185 3.3095071778
H 3.0757330652 3.7191382885 2.6579820389
H 4.1786039647 3.9128011173 1.2757829851
H 0.6163913990 2.9387820205 -0.5519925108
H 0.3000665151 -0.4543323197 -1.2011784905
H -3.7813786703 1.0926851347 -3.0571654377
H -5.9275166556 1.5251446182 -1.8871860389
H -6.4614753989 0.2940675234 0.2041484350
H -4.8431495450 -1.3299385930 1.1343997136
H -2.6252588058 -4.9836270002 1.2566125575
H -1.8153966083 -3.6694023264 2.1756635960
H -1.1342765175 -4.2162510917 0.6129567112
H 3.5930653053 -2.3677207104 1.0578853079
H 2.1287220239 -2.5683585003 -1.3686369740
H 2.2950867127 -3.8416054239 -0.1372376725
H 0.9439099758 -2.6876714710 -0.0463960682
