35
CONF4
C -3.6637196368 -2.1921814451 0.1721697366
C -2.1590337819 -2.2138151433 0.0424915920
O -1.5354211037 -1.0830609740 0.7473181761
P -1.6107812297 0.4031644994 0.1847741256
S -1.5694143141 0.6724465086 -1.7363221161
O -2.8312325559 1.0203104019 0.9982094801
C -3.4827607894 2.2807541190 0.6089325504
C -2.6314108452 3.4820991545 0.9452824192
O -0.3619467729 1.0858175879 1.0171964139
C 0.9255317388 0.9775692654 0.6059263734
N 1.7533707743 2.0418226830 0.6988148022
C 2.8859873401 1.5214379183 0.2410702960
N 2.7411097290 0.2302487442 -0.1081304383
N 1.4527464497 -0.1411819721 0.1369906634
C 3.7080635851 -0.7322645231 -0.6682303373
C 3.2204724382 -1.2180482931 -2.0287017312
C 3.9387399941 -1.8686491501 0.3220954437
Cl 4.3606675883 2.3845018476 0.1086010836
H -3.9649624475 -2.1735579089 1.2231554842
H -4.0683938091 -3.0982194608 -0.2898617177
H -4.0963316710 -1.3269973403 -0.3392717781
H -1.8346998402 -2.1831456913 -1.0022419358
H -1.7216441459 -3.0875516293 0.5285619596
H -3.7149615284 2.2270883929 -0.4590659610
H -4.4130034950 2.2711761246 1.1797062122
H -3.2079735425 4.3879459561 0.7326861863
H -1.7191202021 3.5094196557 0.3422761332
H -2.3596432426 3.4842983397 2.0044738210
H 4.6329657824 -0.1620229216 -0.7930986863
H 3.9832029738 -1.8670658103 -2.4667463438
H 2.2951792385 -1.7912737004 -1.9236676628
H 3.0450735317 -0.3770012671 -2.7050522535
H 3.0210720506 -2.4460413725 0.4656255696
H 4.2732327070 -1.4831327456 1.2890821525
H 4.7090382228 -2.5348901514 -0.0750497132
