54
CONF234
C -3.1144864970 0.5155234551 -1.9425870494
C -2.5691543419 0.5890723090 -0.4944808549
C -3.1623751515 1.8528799434 0.1650194008
C -4.6168287749 1.6686660771 0.5953730843
C -4.8017724959 0.4400606918 1.4648677685
O -5.6656816661 0.3808995861 2.3275276452
C -3.9444742678 -0.7086879463 1.1568793367
C -2.9590274112 -0.6782632197 0.2422804016
C -2.2332646919 -1.9384090604 -0.1570338530
C -0.7083209694 -1.7936238418 -0.3136368261
C -0.3797489480 -0.5799258919 -1.1974973861
C -1.0168142761 0.6653012089 -0.5377426072
C -0.3297912753 0.7937503325 0.8246428666
O -0.9075495812 0.9764642164 1.8747312895
C 1.1767192788 0.5451851227 0.8516150799
C 1.8975425120 0.5363085965 -0.5004976059
C 1.0967706693 -0.3000063487 -1.5656799790
C 1.9374226215 -1.5662001995 -1.8575198236
C 2.8803222193 -1.6925883222 -0.6581925138
C 3.2782444956 -0.2392411292 -0.4149734303
C 4.0316771585 0.0689144321 0.8747721528
O 4.7175728829 1.0783398392 0.9404063259
C 4.0140862115 -0.8812241615 2.0492867876
O 4.7138846464 -0.3749211706 3.1516943430
O 4.1206541002 0.1338986011 -1.5032507907
C 2.1271193629 1.9851730820 -0.9408988974
H -4.2000897141 0.6402868590 -1.9382945383
H -2.6814546977 1.3206983500 -2.5466519491
H -2.9046025991 -0.4329889550 -2.4394143205
H -2.5809533996 2.1084001004 1.0501615995
H -3.0782377613 2.6881333889 -0.5419207581
H -4.9850126196 2.5386038164 1.1455183190
H -5.2819943545 1.5396420421 -0.2698107751
H -4.1812287582 -1.6264566643 1.6901193953
H -2.6426475880 -2.2640032014 -1.1253377527
H -2.4684307801 -2.7344049032 0.5557659073
H -0.3173360443 -2.7166749925 -0.7520597428
H -0.2578828904 -1.7064455544 0.6814258054
H -0.8850215229 -0.7558509474 -2.1538565511
H -0.7422878174 1.5528757363 -1.1283095509
H 1.6120353105 1.2863597841 1.5325247613
H 1.2719423711 -0.4181837165 1.3652002939
H 1.0523577542 0.3106625932 -2.4746266408
H 1.3262113721 -2.4585419951 -2.0109135959
H 2.5319219222 -1.4178210557 -2.7617080482
H 2.3427892574 -2.0927362146 0.2094468286
H 3.7528268796 -2.3230521361 -0.8489991377
H 2.9815641375 -1.1254632011 2.3364637248
H 4.4633242994 -1.8243728829 1.6835837216
H 5.1508705603 0.4354712861 2.8418936439
H 4.5984264274 0.9281850080 -1.2224941951
H 1.1880587259 2.5466641237 -0.9248795700
H 2.5318317451 2.0313439598 -1.9540963727
H 2.8202932010 2.4923228686 -0.2606844655
