51
CONF14
C -0.2232004501 2.1630830874 -4.2426262508
C -0.2065435533 1.4189070155 -2.9223073413
C -1.4404221601 1.6688332587 -2.0757460324
O 0.9721326780 1.9248766735 -2.2145533388
C 1.5235523661 1.1802274886 -1.2544038870
N 2.5079854952 1.7894153967 -0.5915636854
C 3.0845062616 1.0503386634 0.3595345368
C 2.7131123097 -0.2353884077 0.6904020433
C 1.6527838949 -0.7444977130 -0.0744436537
N 1.0719033954 -0.0662212035 -1.0496999773
O 1.2207577504 -1.9739973336 0.2378559714
C 0.0650295742 -2.4854166899 -0.4584383766
C -1.2355364487 -1.7495967524 -0.2379478358
C -2.2103379002 -1.9340018066 -1.2210394363
C -3.4703940324 -1.3619990424 -1.1116838318
C -3.7681067439 -0.5691266163 -0.0087383559
C -2.8035072856 -0.3694327969 0.9678491515
C -1.5352185638 -0.9584066501 0.8836070517
C -0.5637665314 -0.6697294549 1.9640229846
C -0.1200330279 0.5826584262 2.2072462527
O -0.4857563948 1.6251568655 1.4501381322
C 0.0704004579 2.8982266372 1.8313043263
C 0.0135180323 -1.7243413612 2.8100206015
O 0.8908817025 -1.5748478948 3.6387251758
O -0.5639350963 -2.9285364515 2.5551016401
C -0.0159329738 -4.0235236787 3.3124338744
C 4.2053083362 1.7535618878 1.1028295713
F 4.7723047976 0.9482740340 2.0261786897
F 3.7427980523 2.8482475002 1.7541848005
F 5.1746076378 2.1616710995 0.2642403298
H -1.0804479115 1.8346414484 -4.8372618230
H 0.6905465346 1.9720116629 -4.8110335150
H -0.3101888469 3.2406219218 -4.0743837533
H -0.0702858273 0.3450907907 -3.0856867662
H -1.5688840982 2.7428584506 -1.9058764729
H -2.3269039979 1.2888406061 -2.5926645464
H -1.3691336334 1.1598412065 -1.1121008922
H 3.1610506118 -0.8083616681 1.4895480161
H 0.2830963306 -2.5225886088 -1.5311570228
H -0.0185839829 -3.5066868942 -0.0747488292
H -1.9710698621 -2.5361985084 -2.0942613953
H -4.2099123353 -1.5262195877 -1.8888263281
H -4.7447214755 -0.1066634160 0.0898695512
H -3.0243387634 0.2493612722 1.8314930645
H 0.5861413617 0.7670292128 3.0165412351
H -0.1545720436 3.5821347867 1.0130007273
H -0.3970831096 3.2512532201 2.7570735162
H 1.1548264600 2.8253307790 1.9544036991
H -0.1434404206 -3.8509685813 4.3842803552
H -0.5747048848 -4.9047986876 2.9962489606
H 1.0497193940 -4.1409434861 3.0958065723
