55
CONF13
C -6.3985182489 -2.7302985142 1.6594458369
C -5.6775682816 -3.3487120933 0.4810391625
O -5.1694005984 -2.3199492340 -0.4190212111
C -3.9877205749 -1.7586293478 -0.0694398759
O -3.3094622898 -2.0964667765 0.8855124930
N -3.6841457480 -0.7670217314 -0.9655816026
C -2.5277429537 0.0220456125 -0.9988662550
C -1.6690900429 0.1613739127 0.0945712319
C -0.5210263240 0.9373120078 -0.0310934669
C -0.2850453161 1.6849975259 -1.1881977446
C -1.1680978236 1.5766658866 -2.2614919524
C -2.2600980116 0.7273500488 -2.1813476508
S 1.1218289129 2.7678735055 -1.2677945590
C 1.1676833665 3.2544232432 0.4449535665
C 1.5702037289 4.5423793115 0.8000505788
C 1.6055408281 4.9049672388 2.1418741055
C 1.2056832991 4.0003468424 3.1247434372
C 0.7892702738 2.7217099450 2.7707525021
C 0.7964892870 2.3373286525 1.4323328263
N 0.4200679709 1.0158695276 1.0365345778
C 1.1571062303 -0.0692308323 1.5025303791
O 2.0059272726 0.0834156509 2.3738936179
C 0.9067825516 -1.4355844061 0.8892549803
C 1.3161967366 -1.5208801821 -0.5878828572
N 2.5917001879 -0.8539461493 -0.8482180382
C 2.8108725668 -0.6982652034 -2.2902599314
C 4.1196517278 0.0316268561 -2.5379121395
O 5.2244014753 -0.6757545851 -1.9636318865
C 5.0174396079 -0.8358116189 -0.5557374775
C 3.7261013427 -1.5820551433 -0.2666517220
H -7.2158397986 -2.0880449183 1.3193882002
H -5.7123902281 -2.1416703179 2.2738360734
H -6.8208710174 -3.5263249788 2.2807517951
H -6.3572310856 -3.9302011958 -0.1451488303
H -4.8458057268 -3.9827228991 0.7984430553
H -4.3191467360 -0.6690587180 -1.7452985079
H -1.8757838830 -0.3434497040 1.0266324775
H -0.9958404561 2.1511133285 -3.1658370925
H -2.9302916540 0.6304996053 -3.0300298053
H 1.8484588420 5.2527154758 0.0281080702
H 1.9256947049 5.9045041836 2.4172121873
H 1.2137488194 4.2914624815 4.1698010037
H 0.4757020068 2.0092855630 3.5246152050
H 1.4919818035 -2.1313353779 1.4937990294
H -0.1410532883 -1.7330589815 0.9796678184
H 1.3411761654 -2.5891290859 -0.8774262648
H 0.5582464727 -1.0377334806 -1.2129683421
H 2.8346282467 -1.6796112183 -2.8046136826
H 1.9862532492 -0.1112512514 -2.7148849945
H 4.3187639490 0.1079965974 -3.6107311191
H 4.0656376042 1.0454145532 -2.1079632420
H 5.8758326737 -1.3961847688 -0.1745352723
H 4.9895961111 0.1539210904 -0.0707291309
H 3.6008493177 -1.6541459568 0.8192453538
H 3.7926533578 -2.6100708862 -0.6756934179
