54
CONF466
C -3.0905933733 1.2086529754 2.8065929972
C -2.8282927182 -0.1446743988 2.1603931469
C -1.5115058823 -0.7663352811 2.5372883938
C -1.0765931494 -1.9519511861 1.9683178600
C 0.2101355653 -2.4385493262 2.2728432677
N 0.9525220727 -1.8048861580 3.1964881996
C 0.4262974968 -0.7053753418 3.7294030683
N -0.7381105768 -0.1333185421 3.4409687294
N 0.7309769606 -3.5356439480 1.6622096271
C 2.1584404328 -3.8323648352 1.6940603108
C 3.0358801096 -2.7443173532 1.0677023074
O 2.6014341391 -2.4217165654 -0.2580677864
C 1.6409980205 -1.4340552912 -0.3939859702
C 0.6044212433 -1.6645450238 -1.3066171246
C -0.3702215171 -0.6669183832 -1.5054120046
C -0.3214900339 0.5286697037 -0.7697375377
C 0.7359136540 0.7276514392 0.1185887888
C 1.7196251839 -0.2296319027 0.3011099427
C -1.3380778343 1.6320895737 -0.9364389048
C -1.0072462136 2.5788585473 -2.0868166186
O 0.1853785964 3.2718142024 -1.7583994004
C 0.6434110305 4.1039244574 -2.8170445902
C 1.9165154079 4.7866793219 -2.3641173654
C -1.4692315986 -0.9426393731 -2.4981045383
C 0.5269225350 -2.9678685022 -2.0525771214
Cl -2.0914478630 -2.8309463764 0.8321557754
H -3.1137242605 1.1297949110 3.8956631667
H -4.0508432873 1.6043072574 2.4631270178
H -2.3059862925 1.9249567546 2.5508614096
H -2.8530151230 -0.0604846696 1.0657713040
H -3.6287852003 -0.8538257079 2.4105314365
H 1.0333606565 -0.2080831923 4.4866006504
H 0.2305740288 -3.8470567675 0.8441657460
H 2.2953303745 -4.7744896629 1.1543776936
H 2.4821144056 -3.9836906233 2.7306439675
H 4.0591714254 -3.1229387840 0.9725115831
H 3.0511911634 -1.8624509195 1.7117963398
H 0.7946421678 1.6626599520 0.6666498286
H 2.5394014964 -0.0350494969 0.9825402778
H -1.3798234019 2.2267769504 -0.0171496972
H -2.3451545893 1.2324423551 -1.0947514268
H -0.8699498871 2.0117516243 -3.0241632051
H -1.8337845820 3.2949504354 -2.2423540001
H -0.1300887874 4.8489628825 -3.0731598071
H 0.8270893385 3.4946995641 -3.7186053305
H 2.3056195883 5.4304039166 -3.1585290503
H 1.7274724961 5.4004648135 -1.4791469910
H 2.6770449681 4.0423072624 -2.1127991714
H -2.0787522531 -0.0633781007 -2.7025286650
H -2.1375092131 -1.7331874291 -2.1334373022
H -1.0593161033 -1.2893111443 -3.4522130554
H 1.2682569669 -3.6748462176 -1.6790601178
H -0.4689490892 -3.4168264811 -1.9646429339
H 0.7183505125 -2.8283114953 -3.1235032101
