39
CONF18
C -1.5593845998 1.1115146589 3.0803858377
O -2.4206160450 0.6506043851 2.0299657732
C -1.8334102933 0.0435136256 0.9631619088
C -0.4584945988 -0.1564873208 0.8240580713
C 0.0367267935 -0.7971462957 -0.3120488622
C -0.8298295487 -1.2306432952 -1.3149117753
C -2.2085534909 -1.0286471052 -1.1783323257
C -2.7149639051 -0.3824416850 -0.0430197467
O -4.0628709006 -0.1326543564 0.0657006390
C -4.7753136548 -1.1838573023 0.7509675147
O -3.1380715841 -1.4111719956 -2.0951440416
C -2.6647170113 -2.0609835531 -3.2829328745
C 1.5329928512 -1.0206760975 -0.4543323089
C 2.3590309720 0.1980330187 -0.1536758382
C 3.2493995587 0.2543403864 0.8996079880
N 4.0141293796 1.3168670516 1.2020203676
C 3.8587749439 2.3753773550 0.3861009995
N 3.0278032586 2.4574693399 -0.6672754478
C 2.2786458028 1.3782582020 -0.9366026091
N 1.4680607077 1.4427786067 -2.0274871818
N 4.5806656456 3.5019083458 0.6850019311
H -2.2190879106 1.5553880533 3.8263285804
H -1.0038861822 0.2788639516 3.5269425623
H -0.8583889089 1.8684864867 2.7100609918
H 0.2347367468 0.1822442296 1.5845069045
H -0.4254128926 -1.7262297285 -2.1898818889
H -4.3958170714 -1.3027101165 1.7724588395
H -5.8237311188 -0.8807684028 0.7797242608
H -4.6782985337 -2.1305849583 0.2067260525
H -1.9943469299 -1.4042501702 -3.8492337152
H -2.1493215844 -2.9975781266 -3.0407728442
H -3.5553825010 -2.2746142737 -3.8742712399
H 1.7400297679 -1.3784325577 -1.4712012240
H 1.8431660927 -1.8226040785 0.2270492917
H 3.3610416825 -0.6171358782 1.5460790807
H 1.3178851508 2.3550037459 -2.4316074906
H 0.6975680263 0.7948365035 -2.0978181833
H 5.3869077968 3.3707479337 1.2759511854
H 4.6860501003 4.1772661232 -0.0561003285
