50
CONF12
C 3.8685177627 -0.1756124989 0.2992188249
Si 2.4559504008 0.1472538467 -0.8751066156
O 1.8110831716 1.6362717891 -0.5795501971
Si 0.8910918013 2.4215300912 0.5420448886
O -0.5571241869 1.6516393255 0.7103230717
Si -1.8694587255 1.2383932092 -0.2013528078
O -2.4224685269 -0.1937899105 0.4007098809
Si -2.4505451400 -1.8074943186 0.0561717627
O -0.9205933655 -2.3604463769 -0.2247581804
Si 0.6204421986 -2.1179077019 0.3128188231
O 1.2868193814 -0.9965362872 -0.6926431451
C 1.5454537982 -3.7213477599 0.1227862825
C 0.6000052423 -1.5114184935 2.0755851563
C -3.1639672820 -2.6675160688 1.5452465095
C -3.4405637777 -2.1216853025 -1.4891839368
C -1.3925031705 1.0624418857 -1.9957702962
C -3.1973794905 2.5156462356 0.0607185060
C 1.7273855664 2.3893679339 2.2054604741
C 0.6166034122 4.1510147501 -0.0926211347
C 2.9901856958 0.1288384000 -2.6563743829
H 3.5335326962 -0.1568057661 1.3417141158
H 4.6472409392 0.5860559492 0.1812596474
H 4.3187973440 -1.1552927482 0.1036947405
H 2.5923801982 -3.6018324232 0.4230062440
H 1.5267699581 -4.0573627064 -0.9198400788
H 1.1013064193 -4.5066864450 0.7440594790
H 1.6163860527 -1.3373676934 2.4451546856
H 0.0404929436 -0.5732787471 2.1536419074
H 0.1269513153 -2.2533996078 2.7286975252
H -2.5710313970 -2.4505359400 2.4405034555
H -4.1921417441 -2.3375432438 1.7296331078
H -3.1756530933 -3.7528758228 1.3983740110
H -3.4995875350 -3.1959091313 -1.6962909586
H -2.9813286477 -1.6338115081 -2.3554824576
H -4.4614578138 -1.7394098381 -1.3821119251
H -0.9129543247 1.9781962543 -2.3598224510
H -0.6880068491 0.2343346897 -2.1279190579
H -2.2750251165 0.8724781181 -2.6163893257
H -3.4499453898 2.5977175573 1.1236558318
H -2.8609343818 3.4992623713 -0.2857426693
H -4.1082093331 2.2542185186 -0.4888401682
H 1.8318129690 1.3618866898 2.5703363136
H 2.7267469483 2.8340828581 2.1466905593
H 1.1453095780 2.9538010959 2.9422018077
H 0.1178779474 4.1321273996 -1.0683795161
H 1.5670649290 4.6832521228 -0.2078763379
H -0.0122459207 4.7218440067 0.5992507928
H 3.4292542537 -0.8388488453 -2.9218512135
H 2.1317678762 0.3060336609 -3.3140154605
H 3.7358944073 0.9070266168 -2.8510360828
