33
CONF38
C -0.7651719358 -2.4679293980 1.8688506624
C -1.2866396839 -2.5830708388 0.4407095327
C -2.4051607077 -1.6093467667 0.0982046293
S -1.9591205718 0.1865111254 0.3161457352
P -0.8218098781 0.4815799619 -1.4301752704
O -0.7204183731 -0.7055481327 -2.3037834465
O -1.3542499352 1.7844749915 -2.1699409629
C -1.4771325658 3.0666618591 -1.4762103891
C -0.4127936516 4.0177481531 -1.9718451047
O 0.6134926717 1.0732740148 -0.8680797185
C 1.3576419434 0.3243210243 0.0154785823
C 1.9044461197 -0.8977164942 -0.3621086001
C 2.6705353504 -1.6326306288 0.5343675318
C 2.8888341957 -1.1228655235 1.8079100526
C 2.3682746213 0.1019808323 2.2045290765
C 1.5976715291 0.8212086978 1.2983004065
Cl 0.9246261893 2.3554851961 1.7745508514
Br 3.9257616362 -2.1279754317 3.0560238674
H -1.5715003229 -2.6031338393 2.5984367230
H -0.0018843878 -3.2263168300 2.0656260963
H -0.3126825072 -1.4870360780 2.0437518287
H -0.4718230359 -2.4533553699 -0.2783397608
H -1.6909145603 -3.5908069507 0.2715420714
H -3.2588448493 -1.7314762573 0.7746816373
H -2.7496699481 -1.7398237763 -0.9295079403
H -2.4848934054 3.4223927369 -1.7074377068
H -1.4033355899 2.9166187636 -0.3929709260
H -0.4835414287 4.1436851179 -3.0552939275
H -0.5504279307 4.9950913384 -1.4980436950
H 0.5833906080 3.6467024859 -1.7206690278
H 1.7101747343 -1.2643582921 -1.3642560686
H 3.0915922390 -2.5868516372 0.2426555580
H 2.5455714361 0.4925061576 3.1983250981
