46
CONF55
C -4.2316708944 -0.2777243311 -1.9028673065
C -3.5608162492 -0.5924971440 -0.5868199751
C -2.3740071370 -1.5018723934 -0.5371995777
C -2.1933377824 0.0083520504 -0.2556836984
C -1.4276393400 0.8271395103 -1.2074850593
O -1.3088295522 0.6341980783 -2.4032529653
O -0.8272519918 1.8518301999 -0.5449260301
C 0.0910233092 2.6965314815 -1.2854281858
C 1.4298329111 2.6786442414 -0.6013982057
C 1.9650828334 1.4716093941 -0.1517688159
C 3.2066403702 1.4662190256 0.4747310930
C 3.9427186080 2.6375567413 0.6294859168
C 3.4111674543 3.8330330670 0.1568420827
C 2.1546585071 3.8612346054 -0.4436265391
O 3.8011576403 0.2915326408 0.9022709015
C 3.0396245505 -0.6639165273 1.5520749308
C 1.9727386091 -0.3344366151 2.3869771542
C 1.2997553371 -1.3533877644 3.0557627413
C 1.6901221913 -2.6829211780 2.9061890598
C 2.7677094519 -2.9925955450 2.0783060497
C 3.4438994323 -1.9869773465 1.3939823808
C -1.8136637537 -2.1273615717 -1.7466825873
C -0.6415025288 -2.7590142668 -1.7692475566
Cl -0.0263690615 -3.5559714106 -3.1942761273
Cl 0.4250956344 -2.8374022430 -0.3946586393
C -4.5192312389 -0.6608881456 0.5830872866
H -3.5256058683 -0.1761258267 -2.7268416411
H -4.9447342252 -1.0731623432 -2.1458037981
H -4.7899860728 0.6599957764 -1.8144753281
H -2.2600774230 -2.0919388383 0.3694868785
H -2.0348897519 0.2689207830 0.7850487718
H -0.3289017924 3.7058069750 -1.2955425279
H 0.1620312739 2.3289096743 -2.3137075940
H 1.4144678159 0.5438941663 -0.2723808219
H 4.9105118877 2.6016882568 1.1181832249
H 3.9735890582 4.7532052911 0.2786467169
H 1.7336498450 4.8015275589 -0.7863387764
H 1.6733524748 0.7001310577 2.5141543700
H 0.4677388749 -1.0999886596 3.7054674115
H 1.1594462230 -3.4705182243 3.4306525595
H 3.0812528854 -4.0244843403 1.9539054313
H 4.2798782572 -2.2137193209 0.7404801330
H -2.3809079967 -2.1072386503 -2.6717108598
H -5.0319493803 0.2981760858 0.7118176026
H -3.9995481528 -0.9051617110 1.5136473487
H -5.2762239252 -1.4308322485 0.3979461676
