39
CONF21
C -2.6883441261 1.2847545798 2.0649162902
C -2.9014510245 0.3086168189 0.9071936010
C -3.4927993527 1.0321278682 -0.3013523395
C -1.5861688387 -0.4570990865 0.5583203454
C -1.0506043138 -1.2483098247 1.7689958117
C -1.8768101273 -1.4575042795 -0.4861672517
N -2.1389217046 -2.3300866772 -1.1962155713
N -0.5062428379 0.4411192736 0.1235727098
C -0.2423282524 0.7902893838 -1.1668894734
O -0.9974482868 0.6273822158 -2.1093325041
C 1.1203160080 1.4720600977 -1.3688489372
C 0.9885578101 2.9788497201 -1.2360204491
O 2.0932953247 1.0549841249 -0.3955418970
C 2.5044120891 -0.2465433911 -0.4228080474
C 3.4289669167 -0.6333675410 0.5592624748
C 3.9039397509 -1.9341490421 0.6297118235
C 3.4398545370 -2.8692905161 -0.2887995225
C 2.5166311763 -2.5194338220 -1.2624590084
C 2.0520096656 -1.2092709109 -1.3273258019
Cl 4.0314394982 -4.5142185588 -0.1987856686
Cl 3.9857628786 0.5419393930 1.7234253760
H -1.9096190992 2.0142054967 1.8172142998
H -2.4178962504 0.7868014212 2.9994451135
H -3.6129087030 1.8401993247 2.2450787283
H -3.6084050877 -0.4701841477 1.2239300256
H -4.4716476615 1.4425463092 -0.0355006745
H -3.6154279859 0.3648907536 -1.1575468463
H -2.8518122570 1.8612676364 -0.6153285834
H -1.8394679997 -1.8821802453 2.1788692803
H -0.7110795175 -0.5622536336 2.5494687536
H -0.2140003257 -1.8825300453 1.4639837092
H 0.2586391469 0.5524923261 0.7744740184
H 1.4570307296 1.2051404258 -2.3780952904
H 1.9471175877 3.4594097459 -1.4448064565
H 0.2435949334 3.3389099949 -1.9495883477
H 0.6713106409 3.2471541408 -0.2244475796
H 4.6210128418 -2.2098643167 1.3926552043
H 2.1499298442 -3.2584976020 -1.9641880469
H 1.3195620500 -0.9603575218 -2.0862077837
