53
CONF7
C -3.8251624536 -0.0574253409 -0.6388338413
C -2.6702871068 0.9277928549 -0.8294836587
N -1.5156014290 0.2079083911 -0.2512122313
C -1.9633332099 -0.9678252311 0.5281840132
C -3.4607012475 -0.7383773728 0.6889119990
N -3.7273296485 0.1733785966 1.8077507794
C -5.1483249283 0.5506697309 1.8661112995
C -5.5004430576 1.3745798216 0.6326922927
C -5.2195171152 0.5708031051 -0.6400829137
C -0.2228530009 0.6213530468 -0.3246755889
C 0.1462044708 1.9716016259 -0.5814902246
F -0.8322486947 2.8998565533 -0.7315011189
C 1.4362394796 2.3971983658 -0.6818035056
C 2.4964234422 1.5031889170 -0.4667492778
C 3.8575571505 1.9584153593 -0.6251785979
O 4.1341026930 3.1644426111 -0.9032673424
C 4.8773900999 0.9561895451 -0.4792435169
C 4.5285132340 -0.3160147976 -0.0961576663
N 3.2628516870 -0.7192551900 0.1098828277
C 3.0664679758 -2.0251753439 0.7432231995
C 2.4666672371 -2.0663211196 2.1088052630
C 3.9309747114 -2.3722757366 1.9196943502
C 2.1975725203 0.1534719526 -0.1582137962
C 0.8619614181 -0.2867859622 -0.1843060511
O 0.5868606281 -1.6307886092 -0.1673036185
C 0.4215999372 -2.1611921473 -1.5018954551
C 6.3092961459 1.2718557490 -0.6728366784
O 6.5677487710 2.5483140854 -0.9724438792
O 7.2074350032 0.4471100679 -0.5726279921
H -3.7678843114 -0.8191249596 -1.4265329194
H -2.4902205757 1.1619944465 -1.8837441975
H -2.8742293503 1.8573593903 -0.2909273257
H -1.7943087976 -1.9069534161 -0.0099006794
H -1.4334475084 -1.0176631448 1.4855314268
H -3.9930774345 -1.7002000117 0.7929771558
H -3.4705581253 -0.2969517098 2.6700455881
H -5.8103720149 -0.3364485162 1.9117741778
H -5.3155933757 1.1335380494 2.7785211558
H -4.9150819975 2.3018707290 0.6439866628
H -6.5582054214 1.6586565491 0.6645141891
H -5.3490788423 1.1952977912 -1.5322165163
H -5.9548772484 -0.2409165355 -0.7116783133
H 1.6480878501 3.4372756615 -0.9008402795
H 5.2960361880 -1.0583735442 0.0893052077
H 2.8098866242 -2.8165124656 0.0477010535
H 1.7752053727 -2.8748795891 2.3166541380
H 2.2227944511 -1.1132356673 2.5672299749
H 4.2650950704 -3.4016983806 1.9880388986
H 4.6382856328 -1.6318324664 2.2777838866
H 0.1950521349 -3.2221814669 -1.3819143061
H 1.3480973878 -2.0365971315 -2.0751570685
H -0.4043711994 -1.6582608397 -2.0195069268
H 5.6626996982 3.0291442927 -0.9973488444
