47
CONF18
C 3.0783693109 -0.1885002060 -4.9919938154
C 3.2827142834 0.2079572633 -3.5840115561
C 2.4300801015 0.4315853446 -2.5350483031
C 3.3063225294 0.7879044442 -1.4598344821
N 4.5640212915 0.7793143609 -1.8233397543
O 4.5478402332 0.4226103315 -3.1820939294
C 2.9248661665 1.1034197512 -0.0702336733
C 2.8352912712 2.4242318595 0.3902578724
C 2.3332160878 2.7285418604 1.6514667222
C 1.9007295950 1.6974854929 2.4745090088
C 1.9838929856 0.3724734210 2.0631611525
C 2.4970866356 0.0944765268 0.8056939854
Cl 2.5647626856 -1.5716879329 0.2751381340
Cl 3.3034915453 3.7334769868 -0.6647236854
C 0.9666634616 0.2402255952 -2.5382943362
O 0.3864626823 -0.4747963371 -3.3477401728
N 0.2937602216 0.9141879673 -1.5519516512
C -1.0622501357 0.5787475599 -1.2255942205
C -1.2593884532 -0.6835750435 -0.3229960088
N -1.5824617106 0.2197528806 0.7963474221
C -1.6125345809 1.3589963461 -0.0065214325
O -1.9731734468 2.4829745575 0.2180371736
C -2.6226243055 -0.1793357129 1.7195517118
C -3.0879846820 -1.6241379361 1.2923541450
S -2.7915647922 -1.6581802171 -0.5560286635
C -4.5734545455 -1.8373182172 1.5593233058
C -2.2469012540 -2.7112881762 1.9653671004
C -2.1383303731 -0.1536540765 3.1615925916
O -0.9911511288 -0.1516094356 3.5302755762
O -3.1973844975 -0.1517113955 4.0097448035
H 3.5925966743 -1.1333394039 -5.1953827196
H 2.0122513491 -0.3169746571 -5.1768399750
H 3.4914863052 0.5696092971 -5.6648467497
H 2.2652141480 3.7625140310 1.9664322959
H 1.4790820522 1.9242733598 3.4473194864
H 1.6252877800 -0.4274096576 2.6977031199
H 0.8212581929 1.4412025854 -0.8718266487
H -1.7108032606 0.5980960424 -2.1044748191
H -0.3718601436 -1.3063292734 -0.1815000082
H -3.4691856907 0.5140544129 1.6331118469
H -4.8818902251 -2.8269967614 1.2104900631
H -5.1800176294 -1.0834707943 1.0503733163
H -4.7699636265 -1.7811877490 2.6341950641
H -2.4351836284 -2.7291472675 3.0457495434
H -2.5151712069 -3.6880535527 1.5572067443
H -1.1756218222 -2.5545669909 1.8112115452
H -2.8378463606 -0.1548405789 4.9114610807
