38
CONF20
O -1.2639708581 -0.4192200062 2.4251434893
P -0.0801637336 -0.2261048306 1.5662613082
O 0.7998908312 -1.5211346203 1.1962024371
C 0.2681116701 -2.4654415828 0.2968939307
C 0.8195941242 -2.5294014743 -0.9744959101
C 0.3265426298 -3.4774141534 -1.8670386689
C -0.7030176862 -4.3353219124 -1.4840113447
C -1.2384875638 -4.2514783065 -0.2008278067
C -0.7522504240 -3.3122583677 0.7064377110
O 1.0173415387 0.7094461891 2.2559374631
C 2.1866980356 1.1129677440 1.5800729543
C 2.1571771775 2.2807901868 0.8318766467
C 3.3319472099 2.7051475382 0.2156651447
C 4.5060464935 1.9681367182 0.3556524464
C 4.5094833129 0.8014504883 1.1173648361
C 3.3427259334 0.3629238253 1.7388808133
O -0.3593751866 0.4045148145 0.1122264825
C -1.6349319734 0.8461897222 -0.2750069093
C -2.0900322583 2.0861777003 0.1477831789
C -3.3355804455 2.5234794680 -0.2969984280
C -4.0980481839 1.7279169832 -1.1496790674
C -3.6165756154 0.4864779486 -1.5606326198
C -2.3745821263 0.0340722794 -1.1219650542
H 1.6135242927 -1.8440974393 -1.2516373962
H 0.7471613149 -3.5404024258 -2.8654344758
H -1.0857677972 -5.0700447983 -2.1845972936
H -2.0370867709 -4.9207605173 0.1024055291
H -1.1534857037 -3.2351378977 1.7109610057
H 1.2332566802 2.8410575217 0.7378397395
H 3.3259220639 3.6168303852 -0.3730017692
H 5.4183984592 2.3046443795 -0.1256149683
H 5.4230736076 0.2272801665 1.2328999177
H 3.3242339049 -0.5404004005 2.3384599104
H -1.4806369560 2.6909478522 0.8114467862
H -3.7077670948 3.4905208257 0.0255320381
H -5.0669197045 2.0748719331 -1.4933276970
H -4.2079628442 -0.1367302892 -2.2236360444
H -1.9790989115 -0.9305431577 -1.4244215612
