31
CONF7
C 5.0756665321 0.5999058405 -2.2266640465
O 3.8833753303 0.2614207697 -1.4665188529
C 3.0804342242 1.2882034876 -1.1776097552
O 3.2153261080 2.4231538440 -1.5783363291
C 1.8896084802 0.8344538625 -0.3820541976
C 1.9171640348 0.5881245096 0.9963303343
C 0.7780710946 0.1713307278 1.6794585757
C -0.4110982531 -0.0058120187 0.9959296636
C -0.4426008629 0.2388662355 -0.3782936394
C 0.6984511992 0.6586039528 -1.0656795153
O -1.5674758791 0.1071348822 -1.1406966344
C -2.7029163841 -0.4357708113 -0.5621670199
C -2.8388581425 -1.8170862484 -0.4170068677
C -4.0091523455 -2.3601067071 0.0995859324
C -5.0350915536 -1.4940569901 0.4590270908
C -4.9224628607 -0.1160604544 0.3158226503
C -3.7428757199 0.4077681835 -0.1986717064
Cl -6.5160476870 -2.1708059429 1.1084931996
Cl -1.5333625835 -2.8715232975 -0.8881322244
N 3.1424411690 0.8026659007 1.7506485815
O 3.1800016614 0.4358393160 2.9220970910
O 4.0814483527 1.3549834068 1.1746837857
H 5.6108698541 -0.3398009243 -2.3513678476
H 5.6768744617 1.3189402999 -1.6654153641
H 4.7948807104 1.0192382155 -3.1951220554
H 0.8266809754 0.0023541103 2.7477858509
H -1.3019186462 -0.3200405991 1.5268797879
H 0.6418540009 0.8337007468 -2.1346436061
H -4.1138966171 -3.4322856364 0.2119840789
H -5.7372220972 0.5385817862 0.6006255615
H -3.6181691652 1.4780795575 -0.3234725189
