70
CONF9
C 0.5865257996 -1.2327640165 2.4258196792
C 0.3291915602 -2.5024430080 3.2633606185
C -0.5714100107 -2.1471612819 4.3995935147
C -0.7821624455 -2.6310946393 5.6634750302
N -1.8091280949 -1.9034098163 6.2633315430
C -2.2610068439 -0.9370813326 5.3910065758
C -3.2403954226 0.0521805260 5.4770230511
C -3.3996552085 0.8696566114 4.3629438482
C -2.6200262257 0.7305197660 3.1961950779
C -1.6481816147 -0.2585213458 3.1047951555
C -1.4930201307 -1.0816131949 4.2195824868
C -0.7204686138 -0.5327296365 1.9363735612
C -0.3632853453 0.7523800989 1.1787494675
C 0.6516204378 0.4842084708 0.0646140220
C 1.8911346128 -0.2314052469 0.6683884290
N 1.5495503204 -1.4787838057 1.3417368969
C 1.2054792297 -2.5487863151 0.3948187408
C 2.3845239853 -2.9065389627 -0.4601085287
C 2.3449011987 -2.9837878259 -1.7873690926
C 1.1303897755 1.7818623418 -0.5589121885
O 1.3888548521 2.7309715817 0.1849207628
N 1.3191569496 1.8265215737 -1.9324468567
C 0.9395326274 0.6892588189 -2.7912581607
C -0.5458066103 0.7129589737 -3.1525589103
C -0.9923129325 -0.5849579732 -3.8182196780
N -0.9652450660 -1.7366206426 -2.9042401795
C -2.0866106719 -1.7013794244 -1.9667204824
C -1.0043866967 -2.9883529200 -3.6589680276
C 1.6911734097 3.0157612559 -2.6718898012
O 1.6204306703 3.0064370612 -3.8946309890
N 2.1278234006 4.0636338602 -1.9441718203
C 2.4003830514 5.3389978860 -2.5957723600
C 1.1322126400 6.1391082059 -2.8853791295
H 1.0799541297 -0.5121908431 3.0981686460
H -0.1640543542 -3.2657078202 2.6471816788
H 1.2892756185 -2.9164379907 3.5901171189
H -0.2977129230 -3.4330806260 6.2020914157
H -2.1390108521 -2.0454813799 7.2010068358
H -3.8504627830 0.1914502962 6.3635956415
H -4.1499208211 1.6533752615 4.3947519175
H -2.7923729815 1.4184324522 2.3751858805
H -1.2318151013 -1.2258474687 1.2472940523
H -1.2662838503 1.2040566132 0.7514079214
H 0.0547895235 1.4819831208 1.8816911253
H 0.1965543053 -0.1794159528 -0.6724479551
H 2.6276139238 -0.4402272446 -0.1156267674
H 2.3539221905 0.4496957038 1.3942417243
H 0.9333363002 -3.4378235338 0.9750512516
H 0.3450586791 -2.3163811004 -0.2598869781
H 3.3058758111 -3.1199326407 0.0815014534
H 1.4309542720 -2.7487469361 -2.3282789119
H 3.2154105909 -3.2789843309 -2.3645902172
H 1.2118115023 -0.2446649765 -2.2979638715
H 1.5360280109 0.7668845531 -3.7020136894
H -1.1431910566 0.9107916190 -2.2540817253
H -0.7260988791 1.5503469865 -3.8349235592
H -0.3089246028 -0.8022881813 -4.6496991026
H -1.9987650514 -0.4539325500 -4.2627923040
H -3.0674181899 -1.7529552743 -2.4792753158
H -2.0678253055 -0.7867454776 -1.3667911725
H -2.0178710698 -2.5505922038 -1.2781349609
H -0.9507015365 -3.8382501868 -2.9699213152
H -1.9264611172 -3.0942850273 -4.2632133730
H -0.1451980771 -3.0449876999 -4.3356016207
H 2.0194508553 3.9920364520 -0.9355116835
H 3.0683484898 5.9029530073 -1.9359319877
H 2.9390244459 5.1390879074 -3.5268903604
H 1.3831420800 7.0922057541 -3.3618999837
H 0.5842595250 6.3498281737 -1.9618404542
H 0.4794942352 5.5788055722 -3.5600509163
