37
CONF29
C -4.0136324127 -1.4690988109 -2.0002745004
C -3.6119789005 -1.2143991894 -0.5657289578
O -2.4840427137 -0.3092830992 -0.5751847360
C -2.0951394042 0.1132518127 0.6869961924
C -0.9915404193 1.2008419471 0.5850374255
C 0.2445527473 0.3392243118 0.6964198930
C 1.5754760305 0.6176822735 0.4448898454
C 2.5078962048 -0.3805425733 0.7312887743
C 2.1436250722 -1.6122319548 1.2629686618
C 0.7986162835 -1.8909479803 1.5130403224
C -0.1244159860 -0.9001536791 1.2149394060
O -1.4726550833 -1.0046738960 1.4170430555
O 3.8727519390 -0.0898669147 0.5386829300
S 4.5937989272 -0.6363754454 -0.8631809453
O 6.0102547060 -0.3432850935 -0.6381444646
O 4.1595546152 -2.0123254773 -1.1256164859
C 3.9188505549 0.4556924417 -2.1147515765
C -1.0561280158 2.0268861048 -0.6969471556
C -1.0841829881 2.1151002293 1.8203204659
H -3.1896132040 -1.9234765744 -2.5582240534
H -4.3023869636 -0.5368158246 -2.4945119927
H -4.8660545719 -2.1541271412 -2.0265304126
H -4.4315790743 -0.7515082987 0.0025510762
H -3.3257073469 -2.1472763023 -0.0643580755
H -2.9590371016 0.4125305894 1.2945788362
H 1.8999981273 1.5773881586 0.0544582617
H 2.9091932647 -2.3493221432 1.4771294690
H 0.4909240247 -2.8461377848 1.9240838022
H 4.4000681156 0.1766255400 -3.0557087796
H 2.8405142685 0.2916924812 -2.1689984853
H 4.1595172683 1.4829793693 -1.8351151451
H -2.0141469300 2.5508122210 -0.7683937483
H -0.2588694625 2.7764935590 -0.6814339579
H -0.9306817011 1.4020411759 -1.5832509450
H -1.0748214998 1.5289839311 2.7448611887
H -0.2317604641 2.8002899688 1.8363850175
H -2.0072175889 2.7033324860 1.7864068818
