52
CONF109
C 1.6452913134 1.5919003971 1.6723885686
N 2.1203689060 0.2154242384 1.5307794664
C 3.1381081656 -0.0618600955 2.5531807002
C 3.5847823763 -1.5170974578 2.5226353632
C 4.1274254850 -1.8704817334 1.1411412256
C 3.0868337034 -1.5202469779 0.0818735608
C 2.6479588181 -0.0543842434 0.1803321583
C 1.6282139319 0.2856292018 -0.9166377518
C 0.2790555678 -0.4158185509 -0.6975234471
N -0.8410423021 0.3683482019 -1.2163132307
C -0.8696193388 0.6989824590 -2.5865971647
C -0.1348466113 -0.0138318071 -3.5388481325
C -0.1565973096 0.3643152280 -4.8779104557
C -0.9381772634 1.4342848440 -5.2967775971
C -1.7093829754 2.1245905039 -4.3660499838
C -1.6606364492 1.7734927138 -3.0217903349
S -2.5523675489 2.7230908531 -1.8117315937
C -2.9859438181 1.3951842162 -0.7151586040
C -2.0567194363 0.3572234319 -0.5120289245
C -2.3824225133 -0.6526217102 0.3986868372
C -3.5653619272 -0.5672450027 1.1249409193
C -4.4866947200 0.4454807107 0.9240600437
C -4.1931589169 1.4212990686 -0.0257701280
S -3.9657761870 -1.8786890570 2.3313877436
O -5.3858066423 -1.6336746785 2.8007906441
C -2.8676304202 -1.2218272070 3.6672552744
H 2.4130828313 2.3422185952 1.4000396029
H 0.7592605556 1.7691659762 1.0553501263
H 1.3590601125 1.7653926827 2.7143271347
H 2.7081512703 0.1794508360 3.5323926447
H 4.0238545058 0.5950352505 2.4164991007
H 2.7270576659 -2.1593238537 2.7593755914
H 4.3436310828 -1.6808339890 3.2961509371
H 4.3941688229 -2.9316505244 1.0841660929
H 5.0459335549 -1.2974021108 0.9526690637
H 3.4805675020 -1.7038632719 -0.9249266618
H 2.2071480217 -2.1638970294 0.2138345986
H 3.5415520692 0.5820176581 -0.0037409946
H 1.4558279775 1.3653472857 -0.9581889879
H 2.0746059627 0.0147977312 -1.8778544619
H 0.2885412203 -1.4403672222 -1.1025225064
H 0.1348451905 -0.5008574973 0.3822441061
H 0.4579298465 -0.8682048678 -3.2355825135
H 0.4342022054 -0.1942682592 -5.5963758088
H -0.9607382995 1.7260256848 -6.3409289960
H -2.3410608993 2.9507056002 -4.6763740765
H -1.7225323817 -1.5024974580 0.5381597643
H -5.4131115222 0.4513126047 1.4888266759
H -4.8972154684 2.2241558343 -0.2205081199
H -1.8303844260 -1.2165774505 3.3207446318
H -3.2064500642 -0.2113421819 3.9089401879
H -2.9837822134 -1.8860066551 4.5269683253
