41
CONF341
C -1.2436169993 3.5100623659 -1.5709125457
C -1.6726201476 3.3279736099 -0.1109896371
C -2.5932328179 4.4623416958 0.3302511159
N -0.5331044989 3.2509259034 0.8259309821
C 0.2592037665 2.0171580855 0.7482663524
C -0.3996890743 0.9403142023 1.6153216664
O -0.6485430899 1.4531772575 2.9211409647
C 0.4865182544 -0.2803511195 1.7898832259
O 0.6531754176 -0.8548852842 0.4917423951
C 1.3492162610 -2.0223699942 0.3810295009
C 1.9444623693 -2.6786660882 1.4595229800
C 2.6292616991 -3.8743950903 1.2442931851
C 2.7247357483 -4.4130344679 -0.0324385827
C 2.1308841495 -3.7421094728 -1.1012099156
C 1.4407511705 -2.5474729323 -0.9213207725
C 0.7857492235 -1.8395538640 -2.0744639320
C -0.6995080605 -2.0623856002 -2.2024641500
C -1.4457504537 -2.8461305414 -1.4291461422
H -0.5730729235 2.7112471942 -1.9015595086
H -2.1145724584 3.5101357093 -2.2344809255
H -0.7246897724 4.4685909824 -1.6931017455
H -2.2207546198 2.3807083482 -0.0211078589
H -2.0606392543 5.4204538602 0.2936212103
H -2.9422377192 4.3038511140 1.3545780301
H -3.4624475223 4.5368711232 -0.3303948242
H 0.0667932243 4.0557155410 0.6788503409
H 0.3913764670 1.6325948811 -0.2743956076
H 1.2557440962 2.2231540962 1.1592399221
H -1.3436169688 0.6141708969 1.1462916365
H -0.8606345951 2.3914593487 2.7669647238
H 0.0023233452 -0.9945814738 2.4693292701
H 1.4584223688 0.0130618786 2.2133358614
H 1.8827400962 -2.2709664116 2.4612064379
H 3.0887850150 -4.3797400180 2.0880655664
H 3.2580921089 -5.3427150061 -0.1996579408
H 2.2005106640 -4.1541049117 -2.1046720711
H 0.9635623351 -0.7584164442 -2.0016164693
H 1.2636206429 -2.1588797027 -3.0101407311
H -1.1700983533 -1.5194547177 -3.0223828324
H -1.0149739301 -3.4026859211 -0.6006781217
H -2.5121246663 -2.9504286512 -1.6017310853
