44
CONF93
C -4.6165335895 0.1041582804 2.4982299412
N -3.4479113794 -0.0618705983 1.6256238678
C -2.8402550316 1.2385638008 1.2626823676
C -3.7964651635 1.8537406114 0.2030503384
C -4.4617824455 0.6166623313 -0.4546425902
C -3.8241876511 -0.5874436953 0.2929234080
C -2.5378471415 -1.0690894603 -0.3918560986
C -1.5888508003 0.1042656931 -0.5861297795
C -1.4521672965 0.9514061421 0.6749621434
O -0.2848913723 -0.4595487048 -0.9468014586
C 0.5497103304 0.3098150379 -1.6587056787
O 0.2793606833 1.4195384395 -2.0748914152
C 1.9133505187 -0.3425087057 -1.8421305392
C 1.8358224415 -1.8429193130 -2.0994528164
O 1.0512454044 -2.0315982321 -3.2832849735
C 2.7806545372 -0.0214993042 -0.6370769145
C 3.9106224571 0.7853611399 -0.7911760683
C 4.7179413957 1.0909483625 0.3018181050
C 4.4026421588 0.5939704689 1.5639819623
C 3.2762404992 -0.2101724551 1.7260250232
C 2.4683267968 -0.5155440945 0.6340980372
H -4.2943636812 0.5355683045 3.4517404496
H -5.4068621376 0.7514083410 2.0815463331
H -5.0559314634 -0.8782435534 2.7004571411
H -2.7388366862 1.8666210561 2.1534580666
H -4.5424877430 2.4914821476 0.6845511883
H -3.2536860579 2.4747226175 -0.5160692582
H -4.2812887647 0.5622774317 -1.5324389674
H -5.5449932017 0.6283251419 -0.3072210576
H -4.5166538506 -1.4277967676 0.4041081203
H -2.7673678873 -1.5256073611 -1.3610581336
H -2.0615910339 -1.8255133793 0.2420040234
H -1.9162907630 0.7251065754 -1.4247306978
H -0.8579616968 0.4025993583 1.4146683992
H -0.9348854886 1.8881589108 0.4416286865
H 2.8575804684 -2.2237927635 -2.2385944063
H 1.3842867783 -2.3577031315 -1.2423861412
H 5.5935097446 1.7183170637 0.1657147534
H 5.0301023064 0.8323065182 2.4171107030
H 3.0226953747 -0.6001314850 2.7070783346
H 1.5879635899 -1.1344452498 0.7743521283
H 4.1590414549 1.1747122446 -1.7744299691
H 2.3537914197 0.1384255978 -2.7205753111
H 0.9642353079 -2.9808614200 -3.4323406674
