65
CONF754
C -4.9824767235 2.4001864416 -0.8735760480
C -4.0592543332 2.3677274211 -2.0904678451
C -2.5598705784 2.5562475579 -1.7541151152
C -2.2345859978 3.9594404364 -1.2521047668
C -2.1308284259 1.5033566221 -0.7537206989
O -1.8365304052 1.7171933574 0.4073352584
O -2.1449192157 0.2776883851 -1.3162546072
C -1.7939321794 -0.8720858161 -0.4849950545
C -3.0504757797 -1.6763211702 -0.2034138334
C -2.7255741402 -2.8757252976 0.7008864810
C -1.4753770440 -3.5690321885 0.2447432748
C -0.5877154672 -3.0532067814 -0.6264982873
C -0.7679034997 -1.6869027791 -1.2549691152
C 0.5967138736 -0.9805461285 -1.4027022618
C 1.4671524842 -1.8300565346 -2.3534348561
C 1.5249897514 -3.2529498678 -1.8621217919
C 0.5952714662 -3.7862724410 -1.0506783438
C 2.8679145277 -1.2536993534 -2.5780777563
C 1.2814581772 -0.7271439694 -0.0401452094
C 1.7748083576 0.7131216307 0.1070564092
C 2.3210584071 1.0078861834 1.4927988573
C 3.5658162777 0.2246243143 1.8553805127
C 4.1239701379 0.7350404784 3.1659374667
C 4.5148459514 2.1971281929 2.9916155749
C 3.4931908300 3.0527296352 2.2808777992
O 3.5185758247 4.2682474068 2.3268456625
O 2.5580747760 2.4663568320 1.5139642652
O 5.2589630840 -0.0658585043 3.5129364386
C -2.6211045343 -2.4785407130 2.1845486806
H -4.7464207761 1.5899898786 -0.1741093414
H -4.9058956804 3.3465831443 -0.3299979053
H -6.0244948239 2.2769129069 -1.1831628858
H -4.1845945258 1.4172702599 -2.6195528465
H -4.3372260274 3.1626944210 -2.7923128913
H -1.9958801929 2.3618246272 -2.6749890890
H -2.5282953444 4.6953320013 -2.0064154695
H -2.7624255939 4.1869995487 -0.3227684230
H -1.1628911162 4.0680387310 -1.0628267858
H -1.3718851221 -0.4912763906 0.4472368455
H -3.8014737771 -1.0360651658 0.2730326363
H -3.4634614817 -2.0277843208 -1.1569885264
H -3.5552340102 -3.5921540482 0.6201016923
H -1.2829731652 -4.5569671014 0.6635416335
H -1.1649607046 -1.8377979849 -2.2715583954
H 0.4134879658 -0.0133737289 -1.8888473477
H 0.9608983976 -1.8301212215 -3.3326342609
H 2.3749979910 -3.8569556290 -2.1754926169
H 0.7014103302 -4.8096666158 -0.6953143339
H 3.4115554311 -1.8553038233 -3.3137653771
H 2.8077409520 -0.2267737777 -2.9527809936
H 3.4553738071 -1.2472924428 -1.6540718932
H 0.5883142106 -0.9439875478 0.7826075605
H 2.1116317987 -1.4293799665 0.0861814288
H 2.5511149021 0.9328590323 -0.6363685739
H 0.9387653667 1.3974894379 -0.0808759323
H 1.5397358457 0.8313409594 2.2444659851
H 4.3208593685 0.3171480617 1.0630675173
H 3.2956452600 -0.8314029706 1.9510050202
H 3.3521773455 0.6468703015 3.9462810189
H 5.4208491495 2.2418083309 2.3704330320
H 4.7510187474 2.6824235494 3.9429935520
H 5.5844336983 0.2341764139 4.3715986133
H -2.3892790646 -3.3515791117 2.8028763308
H -3.5670515412 -2.0511482483 2.5331361413
H -1.8278240905 -1.7393658819 2.3386236267
