60
CONF443
C 6.1164807451 4.1604582537 -1.6882065563
C 6.2954290960 2.6776543050 -2.0024228064
N 5.5458003910 1.8146767324 -1.0841652503
C 6.2189161597 1.4293887825 0.1603249748
C 7.0139716996 0.1300183763 0.0369247943
C 4.2633612018 1.4808325227 -1.4115074769
O 3.6941002142 1.9280829512 -2.4159002489
N 3.6297893999 0.6034521879 -0.5344614069
C 2.3174078977 0.1259708269 -0.6962464437
C 1.2789860891 0.9165211546 -1.1756727809
C -0.0326608022 0.4317074116 -1.2717133228
C -0.3047218066 -0.8973008312 -0.8729558420
C 0.7375010078 -1.6869081871 -0.3770737997
C 2.0264490942 -1.1831205348 -0.2949917386
O -1.5717671167 -1.3557133399 -1.0482905167
C -1.9428744543 -2.6577100540 -0.5598131297
C -2.1327078890 -2.7039940745 0.9627375546
C -2.9802181069 -1.5483440405 1.4916145553
N -4.3257787832 -1.6309520817 0.9137683091
C -5.4148814460 -0.9438837419 1.6572751734
C -5.0702249947 0.5195078392 1.9749841096
C -5.7111459742 -1.7087489702 2.9506455759
C -6.6474478433 -0.9916543764 0.7497636320
O -2.7481047931 -3.9589413191 1.2722752399
C -1.0498463900 1.3939440355 -1.7930754012
O -0.6773453739 2.3764272494 -2.4315819082
C -2.5162974492 1.2028768356 -1.5133419710
H 6.7136265160 4.7658414425 -2.3775323350
H 6.4410672617 4.3876253346 -0.6677010896
H 5.0667965863 4.4498920687 -1.7924104653
H 7.3518340675 2.3968411232 -1.9257214044
H 5.9702633818 2.4639414215 -3.0234159138
H 6.8949497551 2.2493544437 0.4258311566
H 5.4879200343 1.3688387488 0.9736171786
H 6.3651664981 -0.7192186837 -0.2006128761
H 7.5270066011 -0.0847957324 0.9793405402
H 7.7670541322 0.2133851336 -0.7524785211
H 4.2127776578 0.0332971829 0.0585420884
H 1.4625742475 1.9405604270 -1.4678694055
H 0.5622276961 -2.7089902430 -0.0669927873
H 2.8197354901 -1.8193982580 0.0880898825
H -2.9020394979 -2.8632775084 -1.0433934550
H -1.2270275965 -3.4204092658 -0.8862674973
H -1.1640400605 -2.6923334975 1.4735052822
H -3.0438146782 -1.6648037495 2.5780326616
H -2.4634440246 -0.5953029040 1.2962151121
H -4.2984985040 -1.2287762924 -0.0199214436
H -5.9102048933 1.0093953251 2.4786266808
H -4.8547388757 1.0707908784 1.0522913884
H -4.1970843685 0.5899611902 2.6316626121
H -5.9461335848 -2.7549754569 2.7292271733
H -6.5703864315 -1.2578237119 3.4567540075
H -4.8673131263 -1.6809492239 3.6465808056
H -6.9116805079 -2.0278754527 0.5146982141
H -6.4573637417 -0.4587631078 -0.1894871994
H -7.5008235697 -0.5167385933 1.2426875235
H -3.6951581225 -3.8083458485 1.1039756447
H -3.0316557086 2.1477953612 -1.6944421458
H -2.6917111173 0.8543715707 -0.4927881526
H -2.9220509025 0.4366381761 -2.1821215074
