48
CONF1
C 0.4600716882 -2.4857253663 -2.9313889513
C 0.8876004434 -1.0825423507 -2.5141809533
C 0.2145583797 -0.6210560039 -1.2234700975
C 0.5336533330 0.8491206795 -0.9178982762
O 0.9470187723 1.6339370790 -1.7362494480
O 0.1928559055 1.1454444055 0.3495050692
C 0.3048416167 2.5306757196 0.7720807357
C -1.0682672978 3.1672199196 0.8815764993
C -1.8277610386 3.2963713341 -0.4496827927
C -2.4775452279 2.0305309921 -0.9234844105
C -2.4025290075 1.5488606911 -2.1624197950
N 0.4629600548 -1.5216637925 -0.0817827496
C 1.8749583202 -1.8505036212 0.2284574400
C 2.6650847081 -0.7072403710 0.7502179132
C 2.8787763597 -0.1925048484 1.9919669499
C 3.6559469192 0.9917636145 1.8136807381
C 3.8605970752 1.1208255256 0.4757115020
O 3.2694068957 0.0895796602 -0.1921943822
C -0.3659484184 -1.5572171531 1.0119887754
O -0.0016720663 -1.7777225318 2.1509293845
N -1.7602323059 -1.3646037885 0.7468586312
C -2.5472156217 -1.8439420286 -0.2907714136
C -3.8185304893 -1.4347719183 0.0011198835
N -3.8446677541 -0.7147382572 1.1795555055
C -2.6067247836 -0.7042894649 1.6070927618
H 0.9681330731 -2.7857777539 -3.8518908223
H 0.6890300964 -3.2304960804 -2.1622754271
H -0.6180817232 -2.5258422639 -3.1217416779
H 1.9757762051 -1.0060632312 -2.4213818111
H 0.6102478562 -0.3568335817 -3.2832783523
H -0.8675486701 -0.5998663015 -1.3981051186
H 0.9402579751 3.0638563841 0.0592855852
H 0.8020478702 2.4903988667 1.7452863929
H -1.6772335105 2.6077996170 1.6030676886
H -0.9138432101 4.1661579381 1.3088609705
H -1.1654446507 3.6958246151 -1.2271648287
H -2.6261491699 4.0372145704 -0.3001457635
H -3.0883387616 1.5050867398 -0.1880344214
H -2.9478936816 0.6536393729 -2.4464170069
H -1.8005133311 2.0353360748 -2.9260827631
H 1.8604249706 -2.6467072175 0.9736085095
H 2.3385576583 -2.2369026396 -0.6828420193
H 2.4974290048 -0.6050931367 2.9129645502
H 4.0198218475 1.6574595471 2.5817293319
H 4.3837928465 1.8381892411 -0.1358970279
H -2.1414186783 -2.4618724794 -1.0758613402
H -4.7201267021 -1.6288462900 -0.5624176410
H -2.2325971058 -0.2420758857 2.5099139221
