37
CONF150
C -0.1840683223 0.1781410993 -3.3007449949
C -1.2840837820 -0.7737361794 -2.8838177949
O -0.9464372721 -1.5005633265 -1.6583622352
P -1.0510370202 -0.7645516436 -0.2517928493
O -2.1228345258 0.2454953245 -0.0918040734
O -1.0315368423 -2.0003195566 0.7383388138
C -1.8956982381 -2.0120276133 1.9284061529
C -3.2322874161 -2.6320393370 1.5968696410
O 0.4483642777 -0.1246537393 -0.1351074452
P 1.0890623672 0.6073152390 1.1802516998
O 0.3222182293 0.3715473220 2.4195689535
O 2.5713595770 0.0588335377 1.2172248397
C 3.4104033954 0.0287059639 0.0131610254
C 3.5458910915 -1.3955990894 -0.4715699258
O 1.2826756975 2.1106859856 0.6883559004
C 0.0949981269 2.9550198968 0.4884554303
C -0.2612689292 3.6847823470 1.7629917835
H -0.4330083726 0.6015796971 -4.2791242445
H 0.7724977907 -0.3460441916 -3.3818396548
H -0.0752619392 1.0028873438 -2.5905673390
H -2.2341607416 -0.2529345581 -2.7276119941
H -1.4279888607 -1.5640565873 -3.6235840337
H -1.9926862264 -0.9916883009 2.3060282289
H -1.3359219556 -2.6034602768 2.6557641995
H -3.8363704426 -2.6935517027 2.5080440352
H -3.7724413953 -2.0218677888 0.8673953770
H -3.1056444591 -3.6415331596 1.1958960102
H 4.3705568664 0.4476618564 0.3246085559
H 2.9781733999 0.6809339319 -0.7525029911
H 2.5750016003 -1.7970986525 -0.7737223710
H 4.2182865315 -1.4213598181 -1.3352480901
H 3.9642365410 -2.0318278083 0.3127787333
H 0.3867013525 3.6452984382 -0.3068573391
H -0.7344630382 2.3340109680 0.1311147512
H 0.5800025962 4.2902804006 2.1113642692
H -1.1111836424 4.3473342043 1.5698422587
H -0.5420452093 2.9783994933 2.5477971345
