25
CONF2
C 2.2276983731 0.1174791757 -1.4928675764
C 0.8708263292 0.2262869936 -1.7106377892
C 0.0035479267 -0.7176459399 -1.1475268302
C 0.4952357487 -1.7736752226 -0.3755505813
C 1.8547453943 -1.8843185923 -0.1618679437
C 2.7496796755 -0.9418565381 -0.7144819393
N 4.0920030644 -1.0689053059 -0.5339200067
S -1.7252391235 -0.5850804788 -1.4494751679
O -2.4281523308 -1.6099143524 -0.6579925692
O -2.0188525987 -0.4598757812 -2.8876038346
N -2.0780736498 1.0084009089 -0.8542963398
C -2.1483337049 1.2348597555 0.5173765932
N -3.1537448021 1.8389222612 1.0893046267
C -2.9047748597 2.0305560990 2.4302910460
C -1.7171432076 1.5592879566 2.8953495920
S -0.8062010860 0.8530807647 1.5917318685
H 2.9060814040 0.8494698337 -1.9202211760
H 0.4820413396 1.0453940792 -2.3069824657
H -0.1867715142 -2.4938012456 0.0622556321
H 2.2434352286 -2.6999345936 0.4402023070
H 4.4313843103 -1.6964881565 0.1775257189
H 4.6900243165 -0.2892864994 -0.7570774517
H -2.8938303537 1.3762479566 -1.3437394520
H -3.6536379532 2.5196669348 3.0426197841
H -1.3319477309 1.5611301033 3.9057208751
