35
CONF1
C 0.3161038254 2.3185557736 0.3469552103
C 1.1370116012 2.1503145885 1.6128938034
O 1.3961999385 0.7940827070 1.9619492529
C 0.2746879490 0.0925346783 2.4978100353
C 0.5956318037 -1.3867610520 2.5310189276
O 0.5660292733 -1.9881713814 1.2383217835
C 1.8148300199 -1.9366337675 0.5449967816
C 1.6107381900 -2.3999078104 -0.8803557141
O 0.9300523412 -1.4451306371 -1.6895819188
C -0.4834029013 -1.6121679915 -1.7263682287
C -1.0567135502 -0.5246748066 -2.6126060844
O -1.0255064467 0.7679272726 -2.0109025644
C -2.1473705707 1.0184193623 -1.1748041218
C -1.9522406572 2.3275097998 -0.4345700488
O -1.0750768840 2.2325727082 0.6797780297
H 0.5230443866 3.3097347163 -0.0929221612
H 0.5984127809 1.5476956820 -0.3823362032
H 2.1240234913 2.5967799774 1.4504605874
H 0.6482600259 2.6846892312 2.4443550334
H -0.6196805046 0.2535418659 1.8835369881
H 0.0600140291 0.4489333115 3.5218089486
H -0.1746897232 -1.8940358745 3.1248358828
H 1.5694792231 -1.5546004898 3.0176746881
H 2.5445988322 -2.6044302054 1.0382225893
H 2.2166594385 -0.9165361342 0.5432279207
H 1.0860627935 -3.3685877416 -0.8936262474
H 2.5991301274 -2.5411600284 -1.3356703593
H -0.9103291930 -1.5665006028 -0.7147956567
H -0.7372871245 -2.5963113703 -2.1596456118
H -0.4533003318 -0.4556561698 -3.5241920512
H -2.0885185983 -0.7887185160 -2.8976995422
H -2.2896937257 0.2123113931 -0.4365692442
H -3.0649984265 1.0838207544 -1.7884458053
H -1.6106719775 3.1024003718 -1.1400268595
H -2.9214889319 2.6381597765 -0.0266335408
