47
CONF6
C -6.8072593479 -1.6485318631 -2.3861235445
O -6.1621191116 -0.3691664548 -2.1330367610
P -4.6263801161 -0.3203358697 -1.6921852005
S -3.3749985214 -1.4356243465 -2.6725059712
O -4.3537608713 1.2542205325 -1.6691697445
C -4.0280047356 1.9564674681 -2.9020875071
O -4.7584369767 -0.6267966773 -0.1042001578
C -3.6491887073 -0.9770426738 0.6711681257
C -3.6056746325 -2.2575049921 1.2010056404
C -2.5301800387 -2.6211384211 2.0053829082
C -1.5202270913 -1.6974986146 2.2823656531
C -1.5895352149 -0.4055573131 1.7533411657
C -2.6528774268 -0.0442574276 0.9363708510
S -0.2051686109 -2.1912889135 3.3901393437
C 1.2323418743 -1.4293000180 2.6468274983
C 1.4905812313 -1.5460602165 1.2779224589
C 2.6378153787 -0.9827870030 0.7356589966
C 3.5281432129 -0.3227919364 1.5761345665
C 3.2977983999 -0.2133031253 2.9386976383
C 2.1378766458 -0.7643800629 3.4752270852
O 4.7165953191 0.2105268054 1.0714222869
P 4.7229694460 1.4565106941 0.0313328535
S 3.3687525577 2.8163542649 0.3260859825
O 4.7003818324 0.6770866642 -1.3636808521
C 4.5691460447 1.4181475958 -2.6101784085
O 6.2542048524 1.9072662171 0.1160910228
C 6.7028927942 2.7599634721 1.2066222831
H -6.8073585065 -2.2557216751 -1.4766051952
H -6.2933960328 -2.1731310364 -3.1954878660
H -7.8291408209 -1.4079150954 -2.6776132552
H -4.8661612989 1.8962611302 -3.6013678363
H -3.8545266826 2.9917373752 -2.6103742177
H -3.1259472889 1.5298706115 -3.3477668195
H -4.3945509328 -2.9648128210 0.9690493016
H -2.4746040165 -3.6277230376 2.4068668995
H -0.8149991389 0.3204599861 1.9767492308
H -2.7163335742 0.9558593513 0.5215353625
H 0.7957633543 -2.0743446567 0.6335377709
H 2.8483167600 -1.0675559584 -0.3249738582
H 4.0085824461 0.3140049627 3.5656350902
H 1.9346554301 -0.6647818222 4.5363281246
H 4.5459200712 0.6639756779 -3.3960185091
H 3.6398732824 1.9932902507 -2.6065596749
H 5.4289271112 2.0794664154 -2.7461380989
H 7.7667203456 2.9195716250 1.0339808759
H 6.1653410788 3.7111170571 1.1824972853
H 6.5472291474 2.2571940653 2.1651431728
