47
CONF82
C 1.9879433709 3.0780839999 1.9049158748
C 0.8871662891 2.0478754119 1.7922596636
C -0.4402097845 2.2810382918 2.4731602581
C -0.3267003339 2.4625563800 0.9566306805
C -1.0121185115 1.4943211956 0.0903056924
O -1.4111615295 0.3900533894 0.3946907884
O -1.1400701716 2.0083340637 -1.1737128562
C -1.7161891017 1.0918917104 -2.1495864236
C -2.3544781812 1.9396137305 -3.1540090075
N -2.8579947823 2.5848084701 -3.9681702694
C -0.6505090514 0.2003203155 -2.7414042138
C -0.5789955087 -1.1249376574 -2.3194682762
C 0.4449330073 -1.9444606039 -2.7818836747
C 1.3685623527 -1.4184423606 -3.6844714566
C 1.2995896141 -0.1082874011 -4.1231560958
C 0.2856217456 0.7110747083 -3.6417615460
F 2.3527176060 -2.2215148986 -4.1379719143
O 0.5650025575 -3.2669557753 -2.4433972401
C 0.2656617332 -3.6400277829 -1.1351028436
C 0.7030534251 -2.8891272200 -0.0476309535
C 0.4269923567 -3.3471644218 1.2373028443
C -0.2657294305 -4.5415595906 1.4304143310
C -0.6842854500 -5.2830900852 0.3277456562
C -0.4242554701 -4.8337959885 -0.9648456372
C -0.7080440171 3.4609910643 3.2975377237
C -1.4374465105 3.4685440856 4.4137179845
Cl -2.2054295225 2.0583468061 5.0909307053
Cl -1.7057015276 4.9233440380 5.3403150437
C 1.3921425871 0.6246762478 1.7328578431
H 2.7047025950 2.9400374945 1.0889413974
H 2.5224455663 2.9464587807 2.8521438782
H 1.6147946222 4.1028100209 1.8565366173
H -0.9564979287 1.3701080092 2.7599199078
H -0.2995436052 3.4792585903 0.5799215658
H -2.4921551454 0.4885865895 -1.6651762527
H -1.3059547124 -1.5204898274 -1.6189226738
H 2.0406031274 0.2572924810 -4.8255629146
H 0.2294100534 1.7442887190 -3.9690230794
H 1.2491785669 -1.9644134296 -0.2028495191
H 0.7648071939 -2.7675599776 2.0908368111
H -0.4754001499 -4.8928551247 2.4352593705
H -1.2230093463 -6.2146930550 0.4691402975
H -0.7475255315 -5.3950745071 -1.8351617257
H -0.2904581533 4.4145525886 2.9886273267
H 2.0141507516 0.4798503251 0.8421510319
H 0.5788761814 -0.1019775240 1.7124680202
H 2.0115084604 0.4273098399 2.6141673356
