33
CONF23
O -4.2433113720 3.3167990367 -0.6309551373
C -3.7012648638 2.0933795191 -0.3961467442
C -4.5011220301 0.9738326128 -0.1684178488
C -3.8896295155 -0.2523136779 0.0639798848
O -4.6506065548 -1.3332280269 0.2546360598
C -2.4700779392 -0.3620202246 0.0777230332
C -1.8357161689 -1.6469824848 0.1928434588
O -2.4676479737 -2.7051730224 0.3555932294
C -0.3312348944 -1.6496440736 0.0618607641
C 0.2544695642 -0.3359073771 0.5670793383
O -0.3473612382 0.7795353251 -0.1423605345
C -1.7045296468 0.8098828166 -0.1423497313
C -2.3052964636 2.0313275577 -0.3828941375
C 1.7416087978 -0.2452176073 0.3897704670
C 2.5859203697 -0.3988808042 1.4850585528
C 3.9691651470 -0.3793654334 1.3126060209
C 4.5039001794 -0.1929467767 0.0481311187
O 5.8501060155 -0.1473116285 -0.2281519588
C 3.6584666067 -0.0273734109 -1.0598458384
O 4.1716971797 0.1663114257 -2.3059424795
C 2.2843886453 -0.0603635480 -0.8834738644
H -5.2050037134 3.2478933614 -0.6034286880
H -5.5846947516 1.0325893980 -0.1795179874
H -4.0197053375 -2.1006549649 0.3548121038
H 0.0833218234 -2.4961113645 0.6158509431
H -0.0727516080 -1.7865073029 -0.9971360500
H 0.0030735462 -0.2180110983 1.6323052846
H -1.7105547938 2.9219777670 -0.5386832398
H 2.1717022499 -0.5326185984 2.4792707324
H 4.6297589768 -0.4984529678 2.1676988779
H 6.3522297118 -0.2512709556 0.5868953628
H 5.1357735376 0.1661297002 -2.2385012767
H 1.6449274189 0.0806961406 -1.7483098955
