38
CONF6
C -6.7259074118 -2.2109207348 -0.0062056182
C -5.6455965420 -1.1692504598 0.0950563304
C -4.3955305891 -1.3816539868 -0.4776923777
C -3.3820208842 -0.4158647904 -0.3922857147
C -3.6222479109 0.7850740050 0.2802433876
C -4.8761517558 0.9926627952 0.8520975586
C -5.8803464983 0.0368989952 0.7669062681
N -2.1578583408 -0.7379721331 -1.0058665165
C -1.0367649994 0.0263186024 -1.0896666343
O -0.8586515508 1.1402716209 -0.6424050147
O -0.0863057610 -0.6769910869 -1.8035615572
C 1.1752279324 -0.0830275797 -1.9172277764
C 1.5520155570 0.4172452764 -3.1524382282
C 2.8371336172 0.9430456596 -3.2749835737
C 3.7024996973 0.9652890865 -2.1915775259
C 3.2959043789 0.4528802290 -0.9495156511
C 2.0121437583 -0.0834752202 -0.8107418306
N 4.2247547492 0.5106742515 0.0963146250
C 4.0794008800 0.0614035153 1.3808279554
O 3.0966606120 -0.4788610973 1.8567143128
O 5.2221670844 0.3115624828 2.0669706977
C 5.2055898378 -0.1149864990 3.4483387194
H -6.3757795680 -3.0983253455 -0.5385075512
H -7.5985354603 -1.8140611933 -0.5360672310
H -7.0649355910 -2.5167989431 0.9891697165
H -4.1987962930 -2.3134574421 -1.0025402853
H -2.8512029727 1.5376237442 0.3556122300
H -5.0632974616 1.9257014750 1.3752063723
H -6.8500281088 0.2206609936 1.2207373837
H -2.1036052957 -1.6456737148 -1.4467328376
H 0.8601831589 0.3936281996 -3.9865771752
H 3.1669340265 1.3422650460 -4.2284816622
H 4.7004906743 1.3794705495 -2.2992932391
H 1.6693851190 -0.4883568596 0.1303332420
H 5.1169013689 0.9311595487 -0.1217533675
H 4.4132468702 0.4007142984 3.9962149534
H 6.1831688417 0.1597987322 3.8427420137
H 5.0581218050 -1.1959014499 3.5109652008
