47
CONF84
C -1.9755575620 3.3815833928 0.2999774725
C -2.6063934981 2.6247234292 1.4702537426
C -2.8415162193 1.1371229142 1.1870716549
C -3.8434709440 0.9103087726 0.0737465975
O -3.9631019844 -0.5368211535 -0.0957819239
C -4.3780008550 -0.9780944340 -1.2826734585
O -4.8156057692 -0.2844677761 -2.1782166719
C -4.2712144506 -2.4987225822 -1.4098001979
C -5.6146875258 -3.1415344858 -1.1002559927
O -3.3199700804 -3.0679340717 -0.5053929905
C -2.0253263766 -2.6228755466 -0.5656719057
C -1.2192937348 -2.9726157429 0.5210887355
C 0.0949169041 -2.5328771979 0.5822536457
C 0.5923582179 -1.7411996413 -0.4441007013
C -0.1834577579 -1.4129645432 -1.5414500475
C -1.5022014746 -1.8585639211 -1.6107954711
O 1.9278921777 -1.3115476726 -0.3978911981
C 2.1913975334 -0.1338228854 0.2284730766
N 1.1990929679 0.5522207852 0.7745436793
C 1.5008919225 1.7087364262 1.3798553904
C 2.7937317435 2.2035327830 1.4503378754
C 3.8312954005 1.4636452514 0.8667747212
C 3.5340653356 0.2718831025 0.2443722349
C 3.1023202954 3.5005707901 2.1198828789
F 3.6216269452 4.4098029839 1.2494347698
F 4.0292761960 3.3545004749 3.1052092130
F 2.0136738759 4.0708415798 2.6816666155
H -2.6611981325 3.4694126514 -0.5485261390
H -1.0729514439 2.8681798587 -0.0513972413
H -1.6918696040 4.3952292358 0.5991826448
H -3.5551082507 3.0992081036 1.7526917692
H -1.9504854016 2.7008964372 2.3450848830
H -3.2003060872 0.6385456154 2.0948862484
H -1.8911115008 0.6633888466 0.9071565983
H -4.8330201611 1.3116855688 0.3194941339
H -3.5144814632 1.3368779294 -0.8771675673
H -3.9874760481 -2.7081274706 -2.4493054177
H -5.5407943851 -4.2229418149 -1.2371091426
H -5.9100155525 -2.9284775849 -0.0691741941
H -6.3748749213 -2.7501205617 -1.7801791049
H -1.6414234570 -3.5734005122 1.3197118366
H 0.7254958112 -2.7816833351 1.4293719802
H -2.0993164567 -1.5899125889 -2.4742478931
H 0.6698467241 2.2513513944 1.8228281237
H 4.8549386530 1.8227550422 0.9038546190
H 4.2965242240 -0.3404036629 -0.2221365836
H 0.2321976152 -0.8008981988 -2.3350396966
