45
CONF24
C 8.0443594847 0.4951632240 2.8038187635
C 6.9924578411 -0.4233208042 2.1858268820
C 5.6647360690 0.2885455168 1.9295007097
C 4.6058513353 -0.6167636513 1.3023087964
C 3.2786717686 0.0971223213 1.0509590841
C 2.2273838930 -0.7986960161 0.3978666258
C 0.9013003623 -0.0829277394 0.1524950074
C -0.1405988069 -0.9776929174 -0.5399859310
C -1.4559739328 -0.2839403125 -0.7770635399
C -2.4018992634 -0.2625756411 0.2422676544
N -3.5614181000 0.3957001843 -0.0202697413
C -3.8065950647 1.0317042857 -1.2364323951
N -5.0201738654 1.5940114986 -1.1730043963
C -5.4407577930 1.2752484513 0.0678574943
N -4.6097884015 0.5511702649 0.8280479636
N -2.9096286681 1.0284382151 -2.2221834669
C -1.7668903599 0.3874906244 -1.9910666415
C -0.7607559496 0.3804025199 -3.1209482283
C -1.1326225430 1.2647469237 -4.3041617410
N -2.3096647823 -0.8739346586 1.4547331082
H 7.6997489409 0.8957448214 3.7632512449
H 8.2557938482 1.3456054824 2.1468207842
H 8.9857692351 -0.0335623772 2.9805723281
H 6.8195116149 -1.2837911921 2.8455007079
H 7.3700759474 -0.8336864040 1.2400721553
H 5.8375651943 1.1533039587 1.2736201391
H 5.2824801704 0.6955019214 2.8762177070
H 4.4355387705 -1.4843073044 1.9550880494
H 4.9875964374 -1.0185538734 0.3533672117
H 3.4523775204 0.9741081071 0.4121941689
H 2.8877230129 0.4851369069 2.0019407869
H 2.0564805438 -1.6826202173 1.0289130238
H 2.6155445002 -1.1779414836 -0.5577861824
H 0.4984226430 0.2892738002 1.1050455173
H 1.0695082994 0.8095599486 -0.4638153945
H 0.2699811577 -1.3293322873 -1.4908577838
H -0.2992674225 -1.8861839426 0.0573000354
H -6.4049573121 1.5799274077 0.4560302249
H -0.6348443747 -0.6580233084 -3.4598418785
H -1.2481116053 2.3061912787 -3.9943870911
H -1.3920884274 -1.0886151803 1.8031750497
H -3.0070048801 -0.6087614067 2.1350681329
H -0.3518267091 1.2107832295 -5.0684522276
H 0.2184225447 0.6766932842 -2.7233273500
H -2.0806084052 0.9524700897 -4.7460698277
