20
CONF45
C -0.1430362332 -0.3312167195 0.6207043044
O 0.0230216430 -1.4069960885 -0.3380611945
C 1.3655438305 -1.6356502883 -0.5266122625
O 1.7797448512 -2.4815433674 -1.2937900990
C 2.1225779642 -0.7335531497 0.3171755900
O 3.4768965765 -0.7097598026 0.3626027289
C 1.2544774503 0.0355042413 1.0008341386
O 1.4385466106 1.0220465831 1.8858451866
C -0.9274643437 0.8192552064 -0.0279728130
O -0.2214638917 1.3678868755 -1.1324333251
C -2.3334845663 0.3700593474 -0.3942562457
O -3.0778453672 1.5279884818 -0.7766329102
H -0.7035756437 -0.7236493545 1.4792727558
H 3.8095564659 -1.3910447253 -0.2419028848
H 2.3857743241 1.1792877214 2.0198001984
H -0.9947911619 1.6203396285 0.7189253971
H -0.2401072600 0.7199525855 -1.8506203224
H -2.7885986019 -0.1227270847 0.4781464494
H -2.2828422109 -0.3585842857 -1.2171863626
H -3.9429302400 1.2324040895 -1.0838386311
