45
CONF9
C 1.6371064874 -3.9621069372 -1.9357537734
C 2.1031180037 -2.5143474351 -1.9254400407
C 0.8905196072 -1.5779509767 -1.9480658274
O 0.3382868840 -1.2976342341 -3.0093047286
N 0.4724492107 -1.1424892186 -0.7336797597
C -0.6112673753 -0.2285797295 -0.5717599482
C -1.8099462591 -0.5999928010 0.3659094967
N -1.4665260952 0.5690837687 1.1879856749
C -0.4068721100 0.9688190783 0.3848600971
O 0.3497673633 1.9096808077 0.4509747397
C -2.5498920824 1.3620194704 1.7220344324
C -3.6660042675 1.3698210165 0.6112651394
S -3.5496742292 -0.3334178684 -0.1761321560
C -5.0776064149 1.5592017287 1.1571689470
C -3.3401458098 2.4532270766 -0.4168996251
C -3.0345422855 0.7698237946 3.0361633181
O -2.9960716381 -0.4080682308 3.3138976218
O -3.5256959183 1.7233820740 3.8427383074
O 2.9075786057 -2.3460520076 -0.7488688282
C 3.6426649016 -1.1903469076 -0.6194919954
C 4.4045091031 -1.0998500174 0.5490186845
C 5.1744880609 0.0311741428 0.7846313368
C 5.1923797346 1.0807964251 -0.1352369769
C 4.4302869728 0.9813200832 -1.2940528183
C 3.6504960068 -0.1480970493 -1.5481636321
H 2.5025000386 -4.6272559258 -1.9863372752
H 1.0635718638 -4.1840987014 -1.0311978526
H 1.0053398395 -4.1365012191 -2.8099190115
H 2.6938352650 -2.3012845213 -2.8244746883
H 0.9914023340 -1.4356344622 0.0838042803
H -0.9511481900 0.1128477446 -1.5540749844
H -1.7187932159 -1.5633552852 0.8730011318
H -2.2075846356 2.3876546570 1.8914466885
H -5.3492125020 0.7825273751 1.8768262488
H -5.7979068960 1.5338817267 0.3348469442
H -5.1528705893 2.5373943590 1.6425557682
H -3.4369421272 3.4403649069 0.0494732372
H -2.3256633068 2.3540448357 -0.8129059968
H -4.0388069962 2.3919264105 -1.2551191556
H -3.8692935447 1.3015089054 4.6502273983
H 4.3803362216 -1.9210929294 1.2581885316
H 5.7635005536 0.0932470851 1.6945800881
H 5.7928943500 1.9646447552 0.0520293688
H 4.4311846879 1.7902084635 -2.0182225480
H 3.0642505891 -0.1905700383 -2.4585266583
