21
CONF6
C -1.8948794910 -0.0505948010 -0.6836028813
C -1.1893425215 0.7268455100 0.4289111393
C 0.1477696472 1.3520284965 0.0305129775
C 1.0959850538 0.3128733888 -0.6150836630
C 0.9980627870 -1.0572897502 0.0732154346
C -0.4380229866 -1.3603525911 0.5309171071
O -1.3225664226 -1.3796238675 -0.5882442004
O -0.9081706034 -0.3282667376 1.3822836187
O 1.8696466115 -1.0041680212 1.2085379679
O 0.8074499013 0.1161633922 -2.0018711591
O 0.7594407320 1.9389483945 1.1825659919
H -2.9714133355 -0.1172419746 -0.4953786092
H -1.7072161529 0.3612338697 -1.6778461018
H -1.8298309918 1.4631380933 0.9193521055
H -0.0211524209 2.1685176286 -0.6818473934
H 2.1249658095 0.6769576339 -0.4843980082
H 1.3162901574 -1.8327325836 -0.6377060290
H -0.4988017598 -2.3139258384 1.0686881856
H 1.8191114037 -1.8522271762 1.6694431385
H 0.9609307793 0.9564166514 -2.4527844121
H 0.8817437132 1.2233002772 1.8243342934
