47
CONF444
C 5.3459639068 -1.2632701918 -1.4558343881
C 4.0445724369 -0.8386899698 -0.8442876457
C 3.0753590830 -1.8086108220 -0.4539483710
C 3.3535987661 -3.2650215963 -0.6606336387
C 1.8686626165 -1.4176547641 0.1075597261
C 1.5713010028 -0.0659259633 0.3140278470
N 0.3883877162 0.3756543277 0.8888418395
C -0.6111752293 -0.5927367135 1.3976400371
C -1.6804815634 -1.0157619987 0.3853018555
O -1.0151521140 -1.5692084855 -0.7518550922
C -2.6155085936 0.1309805198 -0.0302948997
O -3.2936426143 0.6569399023 1.1100260457
C -3.6956297700 -0.2862852436 -1.0333616137
O -4.4918338241 0.8611220795 -1.3651698548
C -4.6105778863 -1.4018501136 -0.5319240424
O -5.6315612891 -1.6818551997 -1.4928640730
C 0.1696410581 1.7177719523 1.0868547366
N -0.9552289406 2.1098719898 1.6596384619
C -1.1885865907 3.4436709227 1.8568701159
O -2.2265006234 3.8602634476 2.3644049038
N -0.2064854210 4.3646148327 1.4588436480
C 0.9947058526 4.0730162450 0.8577954828
O 1.7941896481 4.9366815168 0.5285687277
C 1.2100109780 2.6165644949 0.6552040403
N 2.3303758599 2.2340947542 0.1062141983
C 2.5373506930 0.9081024831 -0.0707063923
C 3.7548301108 0.4913265958 -0.6473500676
H 5.9066292036 -1.9144896423 -0.7761156642
H 5.9638917010 -0.3950715659 -1.6915251851
H 5.1803764965 -1.8324174138 -2.3772891304
H 2.5215119028 -3.8808998812 -0.3160105429
H 4.2600361848 -3.5669670521 -0.1234808255
H 3.5325925792 -3.4783129397 -1.7207089386
H 1.1486808431 -2.1840105370 0.3541790689
H -0.0703595024 -1.4743226449 1.7411783124
H -1.0944207148 -0.1407218950 2.2643414304
H -2.2716558034 -1.7813482554 0.9103571448
H -1.6323039803 -2.1357051453 -1.2307635805
H -2.0135551325 0.9142073721 -0.5179068339
H -2.6534536801 1.2687375292 1.5314437747
H -3.2251525640 -0.5997303544 -1.9722858220
H -4.6947504130 1.2944835135 -0.5212205922
H -5.0489307065 -1.1158315068 0.4355020658
H -4.0522049726 -2.3343732795 -0.3955920883
H -6.0174041085 -0.8258790076 -1.7277575734
H -0.4173253296 5.3426292939 1.6222397291
H 4.4612133365 1.2662187909 -0.9281456324
