46
CONF1
C 1.2282660666 -2.4386901617 2.2911913088
C 1.1834980702 -2.8064982333 0.8127709916
C -0.2213452527 -3.0666343222 0.3021532056
O -1.0346140882 -1.8877399087 0.4525721062
C -0.4920717182 -0.7672691610 -0.1040524125
C 0.8869166832 -0.6754911752 -0.3843462204
N 1.7385167038 -1.7102764350 -0.0144865170
C 3.0414711283 -1.6691253152 -0.3109032929
C 3.6206878160 -0.6205728557 -0.9908203482
C 2.8215601001 0.5033931784 -1.4005636665
O 3.3124449599 1.4923891863 -2.0161180393
C 1.4086459648 0.4394537585 -1.0733121954
C 0.5471533338 1.4896793277 -1.4179767682
C -0.7707782004 1.4084474816 -1.0627195330
C -1.3574904277 0.3000439741 -0.4040020592
N -2.6998562897 0.3335394621 -0.0703657957
C -3.7066542091 0.4630487935 -1.1316652152
C -4.9309711886 1.1893596578 -0.5977039593
N -5.4717988355 0.4897026372 0.5717242193
C -4.4442276209 0.4141990516 1.6144016595
C -3.2223670727 -0.3475356672 1.1140423701
C -6.6598309838 1.1785776653 1.0743866937
F -1.5751631027 2.4629221873 -1.3333820132
C 5.0730064858 -0.6857023325 -1.2755252735
O 5.7829057716 -1.6238647895 -0.9447279695
O 5.5678956371 0.3676201049 -1.9307904001
H 0.8275742848 -3.2672050095 2.8816317912
H 2.2580984292 -2.2505651279 2.6052481023
H 0.6298986191 -1.5455300145 2.4913991453
H 1.7919439605 -3.6951448476 0.6177242593
H -0.7076830548 -3.8437838785 0.8929615365
H -0.2015157611 -3.3575424968 -0.7556461153
H 3.6389596229 -2.5141704821 0.0165487016
H 0.9339074076 2.3680478376 -1.9204482454
H -3.9982135517 -0.5408942564 -1.4846966808
H -3.2900045622 1.0106480035 -1.9784505897
H -4.6525861414 2.2335081679 -0.3493589187
H -5.6993205453 1.2210153010 -1.3791514369
H -4.1350398492 1.4251960003 1.9486318615
H -4.8580041865 -0.1154785977 2.4807822324
H -2.4564077576 -0.3551358387 1.8931981780
H -3.5082745463 -1.3870429988 0.8939144365
H -6.4432881886 2.2159592942 1.3931897636
H -7.4249743422 1.2135046649 0.2916844063
H -7.0665073282 0.6339330922 1.9330175672
H 4.7875532811 1.0055392350 -2.0916462312
