35
CONF162
C -4.0016660349 -2.2107943102 2.8970866290
C -3.6688332511 -1.7757608521 1.4924743180
O -2.2803376186 -1.2882019645 1.5066528778
P -1.6746598998 -0.6622184029 0.1740565721
S -1.6060396506 -1.7444757159 -1.4347920925
O -2.4078142175 0.7492577593 0.0667364429
C -2.7470452966 1.3866270544 -1.2159372454
C -3.2771986562 2.7611220586 -0.8941343071
O -0.2102716994 -0.3323636254 0.8536993920
C 0.8139763924 0.1312177833 0.0974502614
N 0.6875375449 1.1412793729 -0.7937201530
C 1.9385720573 1.2580404163 -1.2226557689
N 2.7589017831 0.3785595973 -0.6197975150
N 2.0253355940 -0.3739817542 0.2490155550
C 4.2117418961 0.1660817549 -0.7624296180
C 4.4832726707 -1.2594047584 -1.2295678598
C 4.9139785419 0.5060281813 0.5477138783
Cl 2.4529641691 2.3920390700 -2.3996762500
H -3.3322404299 -3.0105076784 3.2251556901
H -5.0283364039 -2.5881965085 2.9155441013
H -3.9276145051 -1.3715393173 3.5937030857
H -4.3182054383 -0.9607596731 1.1555139219
H -3.7288984614 -2.6067485939 0.7824824841
H -1.8438517106 1.4317910478 -1.8293295399
H -3.4956909822 0.7621296239 -1.7109268604
H -4.1620234126 2.6992834706 -0.2546887551
H -3.5576793097 3.2580394807 -1.8276914048
H -2.5152660982 3.3657148420 -0.3945223735
H 4.5236555361 0.8704281714 -1.5387565392
H 3.9490513081 -1.4765438061 -2.1585861374
H 5.5556965959 -1.3740544035 -1.4075662270
H 4.1795286949 -1.9803761194 -0.4657082348
H 4.6066121358 -0.1838352756 1.3386263171
H 4.6890869626 1.5298433751 0.8590140236
H 5.9937603949 0.4122793980 0.4055613421
