52
CONF45
C 1.3375130706 -2.3856796434 -2.0227394650
C 1.5906568522 -0.9333105166 -1.6872490097
C 2.7833755422 -0.3381568843 -2.4388593689
C 3.0289820410 1.1021422768 -1.9944397679
C 3.1581904926 1.1917258361 -0.4700616179
C 2.0790216280 0.3905294935 0.2703363182
O 1.8633856004 -0.8846729827 -0.2592205165
O 0.8649776361 1.1861079104 0.2729710856
C -0.0308211421 0.8025118232 1.2385616314
C -1.2132438457 0.2052219104 0.8908266195
O -2.1026762019 -0.2016118794 1.8408748104
C -1.8433986894 -0.0348601159 3.1703872069
C -2.7957360465 -0.5162634775 4.0546676360
C -2.5609376410 -0.3287489112 5.4177108060
C -1.4122909372 0.3180787262 5.8908931679
C -0.4760818052 0.7883659416 4.9857998111
C -0.6750243157 0.6162276723 3.5877027800
C 0.2866324317 1.0807631970 2.6228711964
O 1.3431914510 1.6802609688 2.9609157822
O 0.6321485934 1.4073505084 5.4279845778
O -3.4357065593 -0.7607169740 6.3581894464
C -1.6905485055 -0.0740229428 -0.4591844149
C -1.4673007358 0.8404177203 -1.4985207891
C -1.9048741631 0.5584569819 -2.7808587013
C -2.5785683659 -0.6476746914 -3.0417758713
C -2.8168088987 -1.5484558157 -2.0083627431
C -2.3829133791 -1.2637930702 -0.7200911059
O -2.9613100064 -0.8426774847 -4.3334144746
O -1.6693562055 1.4614231294 -3.7747723336
O 4.4397571880 0.6419198229 -0.1550848087
O 1.9208626715 1.8695743138 -2.4751630772
O 2.5836759189 -0.3952722508 -3.8506915885
H 2.2236053770 -2.9911692111 -1.8036571843
H 0.4948817044 -2.7648412333 -1.4371610535
H 1.0967319799 -2.4860747151 -3.0835018505
H 0.6963458637 -0.3335181828 -1.8982912759
H 3.6748869781 -0.9362404330 -2.2180434541
H 3.9663695642 1.4633814244 -2.4399637642
H 3.0904929287 2.2439678395 -0.1599581875
H 2.3955444877 0.2255137004 1.3058019476
H -3.6888922238 -1.0115810049 3.6898995038
H -1.2597828449 0.4478882473 6.9562740828
H 1.1488374110 1.6522260143 4.6059482642
H -4.1935107268 -1.1882740204 5.9344791236
H -0.9504028087 1.7747001832 -1.3174738634
H -3.3377120200 -2.4777267048 -2.2221061688
H -2.5599257986 -1.9776885045 0.0759545574
H -3.4177371359 -1.6904439114 -4.4247916212
H -2.0404153895 1.1219503304 -4.6023974652
H 4.6211250168 0.8163086391 0.7775046146
H 2.1713883034 2.8013171753 -2.4663100904
H 1.9733950085 0.3251430235 -4.0684313282
