110
CONF157
C -3.6264059360 -0.2198035677 1.3464907409
N -4.6490536993 0.2302838690 2.3159624244
C -4.3256073458 1.6297412964 2.6739712351
C -3.4742168657 2.1505878562 1.4999224654
C -3.4758278703 1.0147586626 0.4455860348
C -2.2390688404 1.0024120256 -0.4094246094
C -0.9154963976 0.8578833790 -0.0348234713
C 0.1081382608 0.8914454288 -0.9868053942
C -0.2611897308 1.1024552244 -2.3350483585
O 0.7756867372 1.1181018691 -3.2177278003
C 0.4984430706 1.4021934255 -4.5945736800
C -1.5897676873 1.2766716857 -2.7294942399
C -2.5776048999 1.2009092044 -1.7447089762
N -3.9472957704 1.2780595912 -1.9240985817
C -4.4695755621 2.2197669404 -2.9100760228
C -4.6306071965 1.1775385409 -0.6183119929
C -5.6900816036 0.0250215597 -0.5832942875
O -6.5579323645 0.1956429775 0.5311967432
C -5.0073527546 -1.3473697358 -0.5411051908
O -5.9938785447 -2.3796818579 -0.5997644160
C -4.0214126651 -1.5463061186 0.6729588530
C -2.7741881525 -2.2739099983 0.0903036111
C -1.6781990231 -2.6635787230 1.0791888261
C -4.6273037128 -2.4518585464 1.7229614330
C -4.9394306308 -2.0801804274 2.9639442574
C -4.8076855759 -0.6721034677 3.4488242358
C -6.5630085710 0.0912059921 -1.8578934297
N -7.7161403470 0.7702051121 -1.7048438196
O -6.2048826888 -0.3998513395 -2.9294746770
C 1.5811934008 0.6678646317 -0.6250726775
C 1.8065729998 0.8161592229 0.9180249772
C 3.2787773922 0.5993221632 1.2546065675
C 3.5697255055 -0.7866343639 1.8434520617
N 4.9818018298 -1.1056345235 1.6964553489
C 5.8193012017 -0.0883221897 2.3344605892
C 5.4905800915 1.4016449745 2.0665234728
O 5.8781202726 1.7726408985 0.7200375013
C 6.2047384173 2.3094662417 3.0799070302
C 7.7306115721 2.2196421262 3.0726326245
C 3.9720091150 1.6392799608 2.1277330820
C 5.3413174486 -1.6138598098 0.3646958504
C 4.7048826669 -1.0239786985 -0.9376863828
C 3.2618699818 -1.3975300489 -1.1782083785
C 2.0417322479 -0.7252486676 -1.0702405267
N 1.0212091603 -1.6248336337 -1.3439669842
C 1.5265821752 -2.8553467779 -1.6497192350
C 0.8763213921 -4.0361717369 -2.0077743799
C 1.6709754368 -5.1439432512 -2.2742258052
C 3.0750486146 -5.0677250970 -2.1913732848
C 3.7135951056 -3.8867574229 -1.8362644590
C 2.9372595371 -2.7499033267 -1.5551722847
C 2.4249882799 1.7760213091 -1.2901457721
O 3.4226289235 1.6284383147 -1.9609493932
O 1.9294409268 2.9850325609 -0.9688795007
C 2.6627916841 4.1172594590 -1.4948736000
H -2.6690058059 -0.3701955214 1.8740680687
H -3.7567644386 1.6675309164 3.6141973885
H -5.2528505535 2.1956341443 2.8173605970
H -2.4444058816 2.3184125092 1.8280582579
H -3.8467911521 3.0875361892 1.0795874022
H -0.6784737148 0.7218834005 1.0138379210
H 1.4678855407 1.4037048055 -5.0938089139
H -0.1414505072 0.6279733433 -5.0329759148
H 0.0231120630 2.3835573928 -4.7036722129
H -1.8481854964 1.4378066715 -3.7676660222
H -5.5592390278 2.1806464150 -2.9207811508
H -4.1545722451 3.2520649577 -2.6877411141
H -4.1209055243 1.9515951336 -3.9114649588
H -5.1895571035 2.1033267608 -0.4208361354
H -5.9423214223 0.2257490000 1.3449721536
H -4.4347598044 -1.4432707620 -1.4680084078
H -6.5804106988 -2.2385349436 0.1583784719
H -3.1534830497 -3.1790339387 -0.4022220980
H -2.3530915323 -1.6425919540 -0.7012642240
H -1.1383987327 -1.7931116323 1.4648238262
H -0.9429344605 -3.3047287783 0.5819386680
H -2.0846994163 -3.2160266754 1.9325052918
H -4.7460317018 -3.4937001844 1.4346634978
H -5.3036852458 -2.8124403539 3.6801763941
H -3.9503253063 -0.5936171830 4.1469002098
H -5.7002107570 -0.3801074420 4.0183805897
H -8.3535905800 0.8488814719 -2.4820850243
H -7.9994791824 1.0768273177 -0.7875029264
H 1.1885227024 0.0704264106 1.4300421073
H 1.4535604699 1.8053522176 1.2258326258
H 3.8214611280 0.6473626081 0.3162012086
H 2.9729212339 -1.5614519975 1.3500399406
H 3.3013413286 -0.7886420687 2.9133002887
H 5.7335371538 -0.2299556026 3.4244717037
H 6.8665557643 -0.2808471306 2.0710841300
H 6.7685405795 1.4349474511 0.5608444777
H 5.8964153610 3.3403495924 2.8631369041
H 5.8260664630 2.0707775931 4.0815730120
H 8.1562379506 2.9509130409 3.7663933939
H 8.1409216601 2.4348425955 2.0799786166
H 8.0833140990 1.2303674784 3.3798086003
H 3.7670698538 2.6590540250 1.7754522703
H 3.6350602097 1.5707394646 3.1703526194
H 6.4298287433 -1.5286451483 0.2659800982
H 5.1053114512 -2.6888288412 0.3551477119
H 5.2860534906 -1.4850656639 -1.7494096204
H 4.8847977898 0.0459873120 -1.0172943229
H 0.0468749895 -1.3676993263 -1.3697283934
H -0.2065521117 -4.0838409406 -2.0754111787
H 1.2027468302 -6.0825663367 -2.5542162065
H 3.6667896751 -5.9512959527 -2.4110182380
H 4.7975953087 -3.8484585037 -1.7819594171
H 2.6689322336 4.0861205493 -2.5873367424
H 2.1288817991 4.9974452922 -1.1387626875
H 3.6887109390 4.1097186063 -1.1181404937
