54
CONF6
C -6.1961152401 1.1460133655 0.1035377704
C -4.6876947946 1.1463386717 0.3167916600
C -3.8591409136 1.2616712020 -1.0161100392
N -2.5892930846 0.6174797043 -0.7368507220
C -2.4551110612 -0.1792630436 0.4955169513
S -4.1705739880 -0.5062964398 1.0407711638
C -1.6757406117 -1.2470889415 -0.3360978878
C -1.8400693313 -0.2558317746 -1.5127941468
O -1.5095549028 -0.2252174392 -2.6751611088
N -0.3711687906 -1.6775440951 0.0625587986
C 0.6644123788 -0.8110576737 0.1495022506
O 0.5689477282 0.3764353169 -0.1525096809
C 1.9614523033 -1.4127920462 0.7100609069
C 1.8895797793 -1.4898574196 2.2196567692
C 1.5261258148 -0.3735289672 2.9774370935
C 1.4537793762 -0.4628096751 4.3638925221
C 1.7421882752 -1.6666603250 5.0052530908
C 2.1027812786 -2.7815458355 4.2533142858
C 2.1742016840 -2.6940181907 2.8647321983
C 3.1134114172 -0.5563338238 0.2096737637
O 3.7623382320 0.2250176291 0.8568768704
O 3.3042355920 -0.7989432048 -1.1147883194
C 4.2780869999 -0.0224392799 -1.7712290367
C 3.9175227972 1.2183438253 -2.2743217123
C 4.8710326140 1.9531934789 -2.9748308266
C 6.1548687399 1.4428348692 -3.1598951361
C 6.4906161888 0.1927332127 -2.6438900020
C 5.5470276483 -0.5531509772 -1.9403676678
C -4.5736836698 0.5784493058 -2.1781614253
O -4.5390658712 -0.6081874290 -2.4129800671
O -5.2814170546 1.4705374819 -2.8896922286
C -4.2786605423 2.2868961645 1.2504439222
H -6.4984331302 2.0829406557 -0.3748770404
H -6.7013661733 1.0823429605 1.0709632160
H -6.5268058704 0.3082031836 -0.5166753901
H -3.7420508109 2.3254996925 -1.2493300318
H -1.8606813394 0.3066365813 1.2744907236
H -2.3039843185 -2.1214574381 -0.5273611970
H -0.2413043901 -2.6402803449 0.3381281477
H 2.0924581650 -2.4190210567 0.2975680841
H 1.2998905012 0.5658086058 2.4821794144
H 1.1701016886 0.4091482379 4.9449585180
H 1.6838874579 -1.7348053008 6.0870243339
H 2.3271077508 -3.7226965492 4.7455640388
H 2.4523416634 -3.5651401271 2.2783592684
H 2.9116353809 1.5941903902 -2.1185973042
H 4.6070045133 2.9259421986 -3.3771414510
H 6.8932783111 2.0191540899 -3.7076847476
H 7.4892057921 -0.2071271098 -2.7877357704
H 5.7855229844 -1.5284681251 -1.5292639190
H -5.7736987190 0.9942095501 -3.5815801406
H -4.5910991336 3.2413086648 0.8117566382
H -3.1971934677 2.3205955463 1.4084966698
H -4.7711365510 2.1696370533 2.2187024278
