38
CONF4
C -6.3809378224 0.4297930253 1.4570252644
C -6.3531505396 -0.7383150664 0.4944776123
O -5.5652061522 -0.4216339371 -0.6899628369
C -4.2237773073 -0.5771428003 -0.5685234140
O -3.6597366178 -1.0120483172 0.4202423187
N -3.6260846169 -0.1760545072 -1.7338643094
C -2.2634808580 -0.1810032482 -2.0546666137
C -1.2624097099 -0.5880184058 -1.1648404357
C 0.0555088362 -0.5514366881 -1.5936314710
C 0.4300081345 -0.1298341209 -2.8601831760
C -0.5778583831 0.2785373816 -3.7297935774
C -1.9095630855 0.2545550489 -3.3403273245
O 1.0200993088 -1.0376223863 -0.7050424705
C 1.9050414706 -0.1163089077 -0.1830194638
O 1.8347568976 1.0790526357 -0.3793689131
N 2.8195192287 -0.7854790660 0.5693408363
C 3.8864092478 -0.2518203305 1.3129687253
C 4.6827511175 -1.1678522053 2.0142572048
C 5.7582438155 -0.7243492736 2.7715397635
C 6.0580395480 0.6349246822 2.8435822820
C 5.2643802706 1.5406506612 2.1459976111
C 4.1815726507 1.1144966175 1.3807291297
H -5.3807420927 0.6443397145 1.8423622245
H -6.7754266561 1.3249194477 0.9677619918
H -7.0307584788 0.1842024227 2.3028958769
H -5.9466122356 -1.6401385841 0.9593047676
H -7.3471866425 -0.9534262444 0.0969566112
H -4.2524271351 0.1550407205 -2.4540001501
H -1.4970221261 -0.9253902917 -0.1660019619
H 1.4739853979 -0.1212055025 -3.1517598744
H -0.3217188028 0.6161860300 -4.7287064251
H -2.6847443920 0.5715210959 -4.0313438097
H 2.7091982494 -1.7893839761 0.6037899399
H 4.4529681640 -2.2284889381 1.9609877498
H 6.3641476528 -1.4480201999 3.3077760629
H 6.8986238891 0.9816051107 3.4353541228
H 5.4849994678 2.6027587326 2.1921000928
H 3.5754597996 1.8305849350 0.8449451035
