38
CONF9
C 1.9119772923 2.2122883648 -1.8553022679
S 1.7903710997 2.1634592658 -0.0595743385
O 2.4258361380 3.3520035328 0.5082353540
O 0.4240465475 1.7836427979 0.3003851199
N 2.8681189630 0.8913386172 0.3971417229
C 2.9164051598 -0.4475206391 0.0480699747
O 3.8110859305 -1.1615774750 0.4494489091
C 1.7807528620 -1.0252127804 -0.7525537791
C 1.9872191283 -1.6025625513 -2.0084986024
C 1.0014779343 -2.3554220933 -2.6366603599
C -0.2352551768 -2.4981963649 -2.0336943623
C -0.4631132403 -1.8888448316 -0.8015599210
C 0.5433622180 -1.1817345277 -0.1444131371
O -1.7112663739 -2.0473959447 -0.2563839020
C -2.1168237506 -1.1004754126 0.6653403108
C -2.4147788717 0.2045986321 0.2682869149
C -2.8337903271 1.1390886043 1.2066113574
C -2.9767526686 0.7520894479 2.5329222943
C -2.7089799414 -0.5574116829 2.9295639452
C -2.2743882667 -1.4816687698 1.9924630999
C -3.4292761626 1.7372839189 3.5747007373
F -4.5707070261 1.3226445670 4.1786721769
F -2.5026990904 1.8796995559 4.5525563130
F -3.6660063231 2.9603097588 3.0597752692
Cl -2.2847789995 0.6586540868 -1.4053931510
N 3.2403102264 -1.3563241715 -2.7253637458
O 3.8792451680 -0.3559353418 -2.4010681613
O 3.5538065368 -2.1324102311 -3.6163909258
H 1.5253662662 1.2738547454 -2.2570516687
H 1.2877870325 3.0528134170 -2.1698137983
H 2.9560577083 2.3633027464 -2.1324062721
H 3.6738284806 1.2284202479 0.9154864851
H 1.2073167535 -2.7883597516 -3.6079606214
H -1.0381367737 -3.0457106309 -2.5130349788
H 0.3611373933 -0.7503900800 0.8322120505
H -3.0446006775 2.1542387840 0.8958636154
H -2.8302123463 -0.8482464049 3.9671422416
H -2.0439436325 -2.5043313900 2.2697813892
