52
CONF3
C 0.1885793155 -2.7484106523 -2.7994966644
C 1.0582303407 -1.9460882584 -1.8743811344
C 0.7777779808 -1.6916810410 -0.5871039515
C -0.4489907561 -2.0999501432 0.1220468223
C -0.8304951533 -1.4967436790 1.4916783065
C -0.4405675511 -2.9642382599 1.3571863815
C 0.8722748246 -3.4707937239 1.9048991602
C -1.5841444169 -3.9434633505 1.5143188673
C 0.0312936571 -0.5015733764 2.1549104717
O 1.2428716299 -0.4810620703 2.2022825638
O -0.7435121733 0.4565944209 2.7459646885
C -0.0040891543 1.5466158394 3.3439773217
C 0.6232547297 2.4400425008 2.3060476844
C -0.0593699776 2.7045798948 1.1212896856
C 0.5321776689 3.5130651159 0.1560566608
C 1.7759985218 4.0979769496 0.3750372248
C 2.4361327598 3.8489264962 1.5720784139
C 1.8742710967 3.0113496020 2.5304267341
O -0.1015766333 3.8349464307 -1.0264943379
C -0.9207985654 2.9058068059 -1.6394533073
C -2.0483418171 3.4044483925 -2.2846725969
C -2.8763847566 2.5332616766 -2.9842295971
C -2.5877158303 1.1722944251 -3.0316323572
C -1.4550225383 0.6888768675 -2.3812491432
C -0.6100781627 1.5480701077 -1.6880080221
C 2.3232103468 -1.4309281474 -2.4995858363
H -0.7482460480 -3.0730044439 -2.3426644765
H -0.0443776679 -2.1794035970 -3.7087366971
H 0.7247927961 -3.6476689506 -3.1284145424
H 1.5079868467 -1.1330246151 -0.0080768272
H -1.3250922969 -2.2366823980 -0.5067819896
H -1.8889595844 -1.3003490538 1.6239109736
H 1.1399039878 -4.3992238533 1.3883329065
H 0.7769756061 -3.6928772785 2.9734968816
H 1.6820058691 -2.7544634368 1.7782227059
H -1.7585001859 -4.1671405306 2.5727996365
H -2.5139432644 -3.5511260497 1.0915287273
H -1.3479929643 -4.8843038237 1.0044266016
H -0.7575089191 2.0855283121 3.9265234774
H 0.7612372243 1.1504759158 4.0180239231
H -1.0330410687 2.2625940381 0.9409907862
H 2.2074963638 4.7289764006 -0.3938119656
H 3.4117765188 4.2912945339 1.7458253411
H 2.4166372295 2.7847404191 3.4429848240
H -2.2573771117 4.4673277697 -2.2322785161
H -3.7549514771 2.9226607494 -3.4887685481
H -3.2385119347 0.4938279540 -3.5728401229
H -1.2090733798 -0.3672195376 -2.4123111712
H 0.2733063937 1.1624982792 -1.1898442677
H 2.0927791180 -0.7535965653 -3.3325343697
H 2.9181774905 -2.2523786268 -2.9185983536
H 2.9395169931 -0.8893836562 -1.7780344708
