36
CONF227
C 0.6050238522 0.3851871729 -4.5794148788
C -0.7969523786 0.3893464092 -4.0120812458
O -0.7518781319 0.4584985049 -2.5468834335
C -0.5375020852 -0.6905000843 -1.9006971268
O -0.4783614580 -1.7883299556 -2.4117845082
C -0.3111007755 -0.4068583337 -0.4205964554
S -0.7343868102 -1.9882390846 0.4856480976
P -1.0751425090 -1.2561644151 2.4166125467
S -1.4486824835 -2.7331716747 3.6304659819
O 0.1458106443 -0.2863347918 2.8255089403
C 1.4367371437 -0.8494241437 3.1777455818
O -2.2257708038 -0.1597855763 2.1829809872
C -2.7300133413 0.5998070296 3.3216126246
C 1.1170462063 0.0409305063 -0.2181485228
C 2.1833680496 -0.7879261122 -0.5772949007
C 3.4931662342 -0.3542906957 -0.4056292173
C 3.7484183861 0.9095789387 0.1252828030
C 2.6875518365 1.7392173092 0.4793320147
C 1.3751395765 1.3077249373 0.3058342772
H 0.5489000045 0.3952396960 -5.6722686894
H 1.1563822137 1.2715146126 -4.2532291705
H 1.1521247888 -0.5098736590 -4.2714172760
H -1.3491017944 1.2863311599 -4.2968994764
H 2.0778490075 0.0033031654 3.4008825630
H 1.8443148863 -1.4124148771 2.3325582315
H 1.3367390691 -1.4945863380 4.0544707057
H -3.1089251508 -0.0819401965 4.0878838446
H -3.5411910944 1.2104230849 2.9264990132
H -1.9390526383 1.2345061862 3.7282664426
H 1.9866156950 -1.7766565765 -0.9820417873
H 4.3164297974 -1.0044486699 -0.6842341526
H 4.7714213291 1.2450557256 0.2632456686
H 2.8797472788 2.7231764390 0.8954955979
H -1.3639639473 -0.4987446687 -4.3007970585
H -1.0023448795 0.3732176054 -0.0944413698
H 0.5467249086 1.9506916595 0.5879175479
