43
CONF44
C 1.5495674133 1.2458009641 2.3512469564
C 2.2547011275 -0.0842340091 2.4516037431
O 2.8979231404 -0.3237732373 1.1575248468
C 3.4152712732 -1.5360623778 0.9661043893
O 3.4509246856 -2.4216720384 1.7971742487
C 4.0258343499 -1.7026305827 -0.4255199887
C 5.5270312975 -1.4622092343 -0.3522672350
O 3.5049751846 -0.7743573135 -1.3802257095
C 2.1688977138 -0.8249927711 -1.6754952379
C 1.6939772754 0.2195664383 -2.4742173398
C 0.3511166352 0.2775132382 -2.8178325815
C -0.5068470706 -0.7118341144 -2.3579515533
C -0.0505005948 -1.7611941441 -1.5804705846
C 1.2978648049 -1.8240548320 -1.2339072614
O -1.8587663545 -0.6719086971 -2.7405394390
C -2.7318111606 -0.0755973321 -1.8907530931
C -4.0926240024 -0.0754325934 -2.3278783186
N -5.0390208458 0.4641856704 -1.6073312404
C -4.6709611367 1.0286316697 -0.4157448924
C -5.6590284552 1.6202691719 0.3961696583
C -5.2776731755 2.1828774477 1.5906422905
C -3.9393496930 2.1878543962 2.0260877833
C -2.9682616764 1.6123229102 1.2384120344
C -3.3100742321 1.0216124076 0.0049378822
N -2.3383123507 0.4523120799 -0.7665715150
Cl -6.4924558456 2.9252637263 2.6209899293
H 2.2581614253 2.0526441589 2.1450746084
H 1.0491458616 1.4585751163 3.3003807350
H 0.7942912048 1.2242100425 1.5599071054
H 1.5594658331 -0.9065797880 2.6434981667
H 3.0312976536 -0.0889947069 3.2224473337
H 3.8273340223 -2.7343961755 -0.7429691876
H 5.7323795857 -0.4381318043 -0.0284198152
H 5.9774387407 -2.1605807809 0.3566760544
H 5.9692569278 -1.6244893876 -1.3380039268
H 2.3862659468 0.9837218054 -2.8113878883
H -0.0323601549 1.0882750691 -3.4283791643
H -0.7418809393 -2.5235639554 -1.2371480246
H 1.6398654299 -2.6512872928 -0.6234274247
H -4.3498027811 -0.5339982185 -3.2809604247
H -6.6910726515 1.6188035568 0.0643488237
H -3.6819253077 2.6431121491 2.9756492091
H -1.9302586863 1.6044232574 1.5547418362
