27
CONF6
C -4.2428189598 0.8415537241 0.1577679524
C -3.6997961471 -0.3772819552 -0.5830389778
C -2.2912030717 -0.9143601760 -0.1738303791
C -1.0900869261 0.0831397331 -0.2669221418
C 0.3106380198 -0.6320183515 -0.2412579110
C 1.4877561376 0.3358362509 0.1384547936
C 2.8946428840 -0.2131789300 -0.2808916056
C 4.0903493558 0.4812211810 0.4517843285
F 4.1506844678 0.1030089458 1.7327361964
F 5.2314142173 0.1264279151 -0.1535837804
F 3.9639451578 1.8143633080 0.3915243732
F 3.0595526884 -0.0231722975 -1.6071830015
F 2.9627961382 -1.5372081699 -0.0100443154
F 1.4783157869 0.5256015560 1.4775868449
F 1.3002302329 1.5267668382 -0.4744891587
F 0.5557037432 -1.1467654457 -1.4682634416
F 0.2838073490 -1.6382983712 0.6612684795
F -1.1719296901 0.7878667423 -1.4161067670
F -1.1536187559 0.9294733006 0.7881566619
F -2.3803209056 -1.3438532168 1.1103878161
F -2.0099792468 -1.9837947308 -0.9673285334
F -3.6901392408 -0.1512786038 -1.9300102778
F -4.5480649072 -1.4307560945 -0.3551503664
O -3.5796968216 2.0330414806 -0.2063405443
H -4.1091630035 0.6879596730 1.2325070124
H -5.3188140775 0.8711933901 -0.0610873266
H -3.8745455299 2.2861834279 -1.0909364884
