51
CONF100
C 1.6370113187 0.6318866862 0.1628563082
C 2.4014467786 -0.6581457836 0.3031249246
C 2.2368495292 -1.6854607319 -0.6482007803
C 2.9779312626 -2.8636059658 -0.5603350720
C 3.9059617564 -3.0397181533 0.4599750126
C 4.0686088213 -2.0414667705 1.4098775835
C 3.3179428217 -0.8586546663 1.3549710239
C 3.5265573911 0.1470625022 2.4264083079
C 4.8160835840 0.6094268677 2.7171625194
C 5.0287906051 1.5254489483 3.7438299950
C 3.9559393645 1.9881857872 4.5025903674
C 2.6692037927 1.5280408988 4.2277736496
C 2.4561219905 0.6172494534 3.1976745123
C 1.2730196831 -1.5240186793 -1.7837457455
O -0.0747797462 -1.4286405107 -1.2229102681
C -0.9548974139 -0.6289563500 -1.8617977119
O -0.7137941710 -0.0396841300 -2.8989253910
C -2.2223321666 -0.5673705251 -1.1022356278
C -3.4553009866 0.0036695375 -1.8049592579
C -2.8140466969 0.7637442986 -0.6586378813
C -2.1194105437 2.0590755641 -1.0112464924
C -3.4659467150 0.7797958934 0.7059852290
C -4.7269015396 -0.7004872702 -1.6525564233
C -5.6627145652 -0.8369910731 -2.5978176032
C -5.5226544962 -0.2703586670 -3.9910768418
F -4.4338443605 -0.7818902244 -4.6250194752
F -5.3503315340 1.0774442879 -3.9620546315
F -6.5849956340 -0.5150289074 -4.7761612615
Cl -7.1463392743 -1.7081836429 -2.2783054781
H 1.5278600508 0.9134899298 -0.8885758086
H 2.1411872940 1.4472576484 0.6838978553
H 0.6258757409 0.5483170514 0.5777297748
H 2.8277027842 -3.6426725122 -1.3024147539
H 4.4864469040 -3.9546213083 0.5226336735
H 4.7720781086 -2.1778674596 2.2259936619
H 5.6544138302 0.2555682795 2.1238885709
H 6.0343708777 1.8798840455 3.9491745419
H 4.1210807776 2.7013882192 5.3041522104
H 1.8285582677 1.8761538884 4.8203135049
H 1.4527552342 0.2541537733 2.9966323033
H 1.2954503733 -2.3923960217 -2.4478735109
H 1.4700921748 -0.6256144590 -2.3746481166
H -2.3824442644 -1.3911663425 -0.4146541750
H -3.2281912145 0.4214377565 -2.7795894683
H -1.3252741117 2.2679493447 -0.2855608326
H -1.6823296238 2.0348975360 -2.0105011644
H -2.8431409633 2.8797302130 -0.9670506409
H -4.2642495811 1.5296147960 0.7309281310
H -2.7202302830 1.0536699602 1.4595690356
H -3.8866125744 -0.1873070440 0.9881376812
H -4.9285780808 -1.1576898498 -0.6884256520
