25
CONF1
C 2.7646924745 1.3049563855 0.6380591939
C 2.3624468220 -0.1065244799 1.0607135940
N 2.1505299822 -1.0025648105 -0.0681478222
C 1.0329674692 -1.0065326107 -0.8266348929
N -0.0057289510 -0.2531278047 -0.4390389019
C -1.0742880052 -0.3391761943 -1.2437700147
N -1.1648421797 -1.1028472340 -2.3644157096
C -0.0604464970 -1.7796402395 -2.6046861178
N 1.0673800458 -1.8073026559 -1.9243573750
Cl -0.0968779574 -2.7951134040 -4.0449697066
N -2.1637840286 0.4028683738 -0.9498698552
C -2.3154140876 1.1719156385 0.2778949271
C -2.7234949694 0.3149909805 1.4745467741
H 1.9808660972 1.7523632117 0.0212235168
H 2.9140505213 1.9365760596 1.5195217139
H 3.6956035202 1.2932482414 0.0630266752
H 3.1380393812 -0.5548101576 1.6908764472
H 1.4390066917 -0.0745926718 1.6464237960
H 2.9291672016 -1.5121200734 -0.4540281429
H -2.9664820081 0.2314538808 -1.5339013775
H -1.3655516467 1.6746212419 0.4813526543
H -3.0656398645 1.9468109925 0.0869136320
H -3.6787332499 -0.1863260460 1.2913073536
H -2.8290558617 0.9375658085 2.3686644679
H -1.9644111964 -0.4466926337 1.6714326725
