40
CONF36
C 1.8580962248 3.4648817738 -1.3215151618
C 0.8417214401 2.3563362120 -1.1943657445
O 1.4928443324 1.0701612352 -1.4660692495
P 1.8705471462 0.0066967907 -0.3404771762
S 1.9182860415 0.6185131333 1.5025019499
O 3.1941807439 -0.6657834249 -0.9291104863
C 4.4472760678 0.0960739280 -0.8872120428
C 5.4966456887 -0.7316973507 -1.5868002034
O 0.9418248996 -1.3210909549 -0.6405392156
C -0.4111187189 -1.3225932902 -0.4453610012
N -1.0283184956 -0.1706732073 -0.2671816103
C -2.3636237076 -0.2311164703 -0.0901015195
N -3.0864012923 -1.3481586034 -0.0901477369
C -2.4332867857 -2.5153802366 -0.2803972185
C -3.2625203705 -3.7591424339 -0.2733875718
C -1.0584987436 -2.5532854321 -0.4659429134
C -3.0439554003 1.0924221074 0.1672053481
C -2.7584989698 1.5191457521 1.6183151657
C -4.5423259637 1.0716175628 -0.1185621973
H 1.3586993723 4.4278705782 -1.1742426107
H 2.3194720837 3.4618407039 -2.3130401151
H 2.6399779835 3.3604698225 -0.5633212200
H 0.3908568488 2.3248869782 -0.1995581146
H 0.0484373307 2.4325256867 -1.9417000698
H 4.7031350512 0.2768946260 0.1618062336
H 4.2876554109 1.0560261736 -1.3910821944
H 5.6327097546 -1.6921541273 -1.0825015824
H 6.4474861464 -0.1910242424 -1.5663227243
H 5.2212924107 -0.9108047281 -2.6295231166
H -3.7575302959 -3.8675118414 0.6974182784
H -2.6573898887 -4.6461935657 -0.4671107747
H -4.0500143720 -3.6846149562 -1.0299336159
H -0.5150189646 -3.4774943430 -0.6176689860
H -1.6827956074 1.5687894417 1.8115259587
H -3.1924944597 2.5054306790 1.8091374343
H -3.2055257514 0.8044391332 2.3180837006
H -5.0637608937 0.4010743575 0.5701153613
H -4.9514708058 2.0788164558 0.0060774127
H -2.5584898647 1.8195617221 -0.4961147450
H -4.7495026937 0.7370979476 -1.1392753208
