82
CONF1
C -3.7022531030 3.7719707782 -0.3680893158
C -3.9738591380 2.7150326740 -1.4023275041
C -4.0642553937 3.0195545247 -2.7020163882
C -4.2053693960 1.3049552306 -0.9138931042
C -5.6020480451 1.1882549520 -0.1992086429
C -5.3577210088 0.4570647571 1.1410181861
C -4.0425122497 -0.2993980220 0.9178487953
C -3.2237948273 0.7652522411 0.1515443176
C -1.8448775106 0.2543840731 -0.2719073388
C -1.0465170497 1.2404741945 -1.1218508206
C 0.2656695915 0.6210470877 -1.6066724488
C 1.1212970407 0.1159984462 -0.4385789050
C 2.5919901062 -0.2758381024 -0.8448249620
C 3.2660513684 0.9869073511 -1.4340865095
C 4.7829878101 0.8581895792 -1.5695769669
C 5.4488164900 0.5132506279 -0.2466591861
C 4.8919200460 -0.7794779148 0.3979994820
C 3.3411089498 -0.6215192058 0.4776901646
C 2.6333026650 -1.7544739652 1.2226651470
C 1.2213253081 -1.3282020670 1.6273830503
C 0.3314985177 -0.9147660289 0.4375835224
C -1.0107607356 -0.2176044856 0.9682623578
C -1.8599327332 -1.2030270097 1.8167599892
C -3.2605786707 -0.6783611092 2.1761293243
C -0.6884011723 0.9812807347 1.8923607958
C -0.0024802258 -2.1958410131 -0.3532520800
C 5.3641780913 -2.0282049867 -0.3623498037
C 5.4631544595 -0.8592211770 1.8264252458
O 6.8822788092 0.4839393616 -0.3943887641
C 2.6490166771 -1.3855334632 -1.9177207227
C -4.3323883313 -1.5430262776 0.0516203749
O -5.1502699179 -2.5133993317 0.7298564859
H -4.4025318381 3.6975636054 0.4722424135
H -2.6963918669 3.6544512886 0.0524943538
H -3.7762075198 4.7735770244 -0.7987865604
H -3.9525076300 4.0418814423 -3.0537846281
H -4.2444309047 2.2493580137 -3.4480442780
H -4.1912294935 0.6445216950 -1.7895994954
H -6.0458518421 2.1752205150 -0.0395534379
H -6.2951172925 0.6335695035 -0.8390140013
H -5.2206630096 1.1834665547 1.9517047197
H -6.1852543845 -0.2029642877 1.4188719890
H -3.0850092323 1.5817411905 0.8717777660
H -2.0132387138 -0.6275639295 -0.9013306268
H -1.6458516997 1.5490491142 -1.9848882564
H -0.8383609901 2.1526441753 -0.5461570693
H 0.8164093362 1.3694804409 -2.1846147477
H 0.0313960721 -0.1945913789 -2.3018573697
H 1.2819026393 0.9858624955 0.2103989292
H 3.0448131517 1.8441414842 -0.7817939142
H 2.8450339212 1.2171476515 -2.4183938608
H 5.0469059463 0.0990906859 -2.3180556057
H 5.1992537677 1.8052771285 -1.9333190943
H 5.2628691053 1.3330273749 0.4624728616
H 3.2024097096 0.2773493968 1.1044789461
H 3.1840813939 -2.0135984367 2.1321123967
H 2.6090539003 -2.6662961359 0.6152684531
H 1.3238293224 -0.4834426655 2.3175961676
H 0.7353998920 -2.1391451033 2.1835954405
H -1.9839539533 -2.1506112481 1.2868979704
H -1.3209927829 -1.4380617897 2.7413924943
H -3.7932947230 -1.4362265213 2.7660527786
H -3.1874770101 0.2081054431 2.8183070346
H -1.5735257540 1.5965936821 2.0644882609
H 0.0820714508 1.6459866439 1.4992205647
H -0.3569782955 0.6318245321 2.8740312965
H 0.9073136729 -2.7022164919 -0.6688114726
H -0.5940602293 -2.0141184202 -1.2527581043
H -0.5503593616 -2.9064205357 0.2701558547
H 5.1996759875 -1.9646473623 -1.4396673548
H 6.4349614372 -2.1864881846 -0.1927596000
H 4.8428920382 -2.9180158300 0.0036769034
H 6.5468093454 -0.7123799397 1.7973172969
H 5.2744427120 -1.8335473220 2.2858063468
H 5.0260395641 -0.0854474856 2.4684833517
H 7.0864534823 -0.1348187780 -1.1077665213
H 3.5184275943 -1.2612873878 -2.5673402122
H 2.7111989093 -2.3909362803 -1.4977208426
H 1.7670440172 -1.3486721154 -2.5629211478
H -4.9016395568 -1.2593930015 -0.8380303881
H -3.4072175691 -2.0199498658 -0.2913598120
H -4.6051215454 -2.9397529115 1.4017402534
