37
CONF34
C 4.2916527803 -2.8887907268 -0.3718201449
C 3.4005844393 -1.9613922552 0.4514562447
C 2.0958778803 -1.6198810447 -0.2703535986
C 1.2269783864 -0.6814767550 0.5652186559
C -0.1739190756 -0.3558705644 -0.0325397487
C 0.0008809373 0.3273183525 -1.4283056666
N -1.2388197512 0.8798967122 -1.9343146173
C -1.6785242998 2.1539783488 -1.8688091050
N -2.9171858585 2.2355428349 -2.3362959876
C -3.1967683258 0.9437877398 -2.6695633785
N -2.2124450889 0.0836405504 -2.4408166559
C -0.8727018740 -1.6315514026 -0.2102114581
N -1.3737937991 -2.6658310581 -0.3306628908
C -0.9793448938 0.5669437581 0.8852785727
C -0.4000864306 1.7515177246 1.3491101123
C -1.1258628268 2.6468961980 2.1255404952
C -2.4478291871 2.3511881475 2.4341233514
Cl -3.3740441031 3.4794118583 3.4133696188
C -3.0523447497 1.1867005311 1.9833527525
C -2.3102661418 0.3016047566 1.2068654140
H 5.2192185960 -3.1231545433 0.1592601272
H 4.5580433916 -2.4264727992 -1.3285723884
H 3.7784099757 -3.8322414982 -0.5874051442
H 3.1655775323 -2.4307687425 1.4153934644
H 3.9410078322 -1.0334428521 0.6796308979
H 1.5499156865 -2.5473883881 -0.4859158473
H 2.3361876821 -1.1595173370 -1.2366006335
H 1.7540183855 0.2670834767 0.7067343022
H 1.0621759335 -1.1118952061 1.5594616651
H 0.7105766394 1.1510184162 -1.3151593968
H 0.3926578670 -0.3837961137 -2.1581892336
H -1.0700274667 2.9657802029 -1.4919578983
H -4.1404199446 0.6279356671 -3.0961592262
H 0.6249561473 2.0044657364 1.1008543648
H -0.6671792973 3.5626661846 2.4804726770
H -4.0858223238 0.9693564338 2.2272790751
H -2.7913354270 -0.6032616398 0.8502505307
