37
CONF5
C -4.0436922280 2.3508423928 0.6556873340
C -4.9794442639 1.1786748470 0.9182473671
N -4.6440384499 -0.0011485080 0.1004374584
S -4.1292700003 -1.4366474001 0.7247568548
O -4.0694533245 -2.3980991844 -0.3717531503
O -4.8296406320 -1.6582440908 1.9858696912
C -2.3100555964 -1.2031800963 1.2981240135
C -1.2832492400 -1.0958854576 0.1306491418
C 0.0981283989 -0.4909566698 0.5690284363
C 1.2548266211 -0.7878084665 -0.4500204749
C 2.4906570957 0.1641661218 -0.2688033763
C 3.7988281438 -0.3955942226 -0.9312008478
C 4.8917719023 0.7043799694 -1.1568202809
C 6.3273639960 0.1322349367 -1.3977214712
F 7.1221828163 1.1269264529 -1.8134851449
F 6.2958057205 -0.8213401185 -2.3392638066
F 6.8355586961 -0.3774714673 -0.2714043302
F 4.9494881680 1.5107999542 -0.0715303222
F 4.5563448512 1.4384129807 -2.2385312258
F 4.3103393086 -1.3574669808 -0.1309536253
F 3.4876768969 -0.9368468375 -2.1305646739
F 2.1998098974 1.3600072129 -0.8289708454
F 2.7198075148 0.3354270100 1.0522038437
F 1.6611023389 -2.0647697995 -0.2780924173
F 0.7775296152 -0.6357639988 -1.7057223506
F -0.0402404012 0.8512391654 0.6896791184
F 0.4367100693 -1.0109149502 1.7687460803
F -1.0822547038 -2.3235067643 -0.3841280771
F -1.8061289478 -0.2882577269 -0.8318717027
F -2.2639205433 -0.0733926220 2.0488778677
F -2.0025067861 -2.2557297695 2.0718977853
H -4.0750684492 2.6519888474 -0.3967927844
H -4.3547202090 3.2121985048 1.2539858989
H -3.0112567621 2.1054612456 0.9153552097
H -4.9542442595 0.8733282630 1.9676551553
H -6.0156743951 1.4582580542 0.6922343608
H -4.3190731605 0.1586790772 -0.8458044079
