39
CONF5
C 1.1832773158 4.3647639517 0.6334530967
C 1.9357011848 3.0887336926 0.8026416810
C 2.0241332541 1.9664201806 0.0118268164
C 2.8667228778 0.9323777345 0.5438970498
C 3.4268273896 1.2969668712 1.7379739659
S 2.9110819186 2.8656733872 2.2270033186
C 3.0168505326 -0.4347116876 -0.0013755085
O 2.1628076152 -1.0384753646 -0.6114462322
O 4.2184563821 -0.9588608093 0.3258159204
C 4.4123865837 -2.3225258385 -0.1090232158
S 1.3198740285 1.9027878404 -1.6260398759
O 0.7658744469 3.2142943264 -1.9408167977
O 2.2657500835 1.2403904585 -2.5210123993
N 0.0135027911 0.7935873845 -1.5130798253
C -0.9407723245 0.9491713075 -0.5303717967
O -1.0825785657 1.9238260339 0.1699038600
N -1.7897261556 -0.1833165611 -0.4188471178
C -1.7192716062 -1.3975019346 -1.1139027696
O -0.9358819166 -1.7590880576 -1.9746626314
N -2.7819637646 -2.1205905207 -0.5783474240
C -3.3857355338 -1.3202183306 0.3594390215
N -2.8367976239 -0.1542119625 0.5011026918
O -4.4402186861 -1.7915115560 1.0136121999
C -5.0090442822 -0.8663739988 1.9729736769
C -3.1445019417 -3.4683978829 -0.9757275273
H 1.5795819361 4.9416387406 -0.2061753744
H 0.1355119290 4.1452698790 0.4153149389
H 1.2476165830 4.9699149508 1.5408409857
H 4.0827651724 0.7021743824 2.3568954025
H 3.6662093317 -2.9777064935 0.3481825668
H 4.3279401880 -2.3859481993 -1.1965716857
H 5.4166477560 -2.5897522076 0.2183878616
H 0.2173354896 -0.1488600614 -1.8565575692
H -4.2663784413 -0.6148183993 2.7345505288
H -5.3339056010 0.0451042530 1.4646590658
H -5.8549830957 -1.3945047326 2.4099493353
H -4.1580777196 -3.4884660946 -1.3856805296
H -3.0855002791 -4.1490205956 -0.1219189726
H -2.4315159456 -3.7782348747 -1.7426063428
