45
CONF222
C 5.6378055744 -1.3143351677 4.2649459167
C 4.8981319578 -1.3515416796 2.9291067687
C 5.6208453871 -0.5559812651 1.8407972723
C 4.9877514681 -0.6636813776 0.4512112153
C 3.5743796198 -0.0856781711 0.3589628425
C 3.0171614638 -0.1158273240 -1.0650604502
C 1.6475775203 0.5501995786 -1.2145144407
C 0.5154107357 -0.1904089811 -0.4810323477
C -0.8168223747 0.4970725522 -0.6196845425
C -1.1101707264 1.5711024966 0.2152276801
N -2.3122472661 2.1758507026 0.0253977266
C -3.2134044705 1.7676296910 -0.9570445256
N -4.2949563537 2.5533706282 -0.8795093581
C -3.9957920206 3.3865808893 0.1375545112
N -2.8097709516 3.2200859660 0.7363057572
N -2.9425342490 0.7530447502 -1.7776311941
C -1.7743946780 0.1389706868 -1.6075108437
C -1.4839261222 -1.0183009179 -2.5378440682
C -2.5164608214 -1.2185879096 -3.6395514942
N -0.3036494341 2.1074668522 1.1690867452
H 5.1062750633 -1.8813510698 5.0350878294
H 5.7477517856 -0.2848635494 4.6229024973
H 6.6425580811 -1.7396602034 4.1689535309
H 3.8831472785 -0.9596652338 3.0686820106
H 4.7836060918 -2.3925934739 2.5977335486
H 6.6604357952 -0.9049244887 1.7842755064
H 5.6699805535 0.5013030717 2.1377184940
H 4.9664810773 -1.7179240038 0.1415324410
H 5.6280357135 -0.1441736911 -0.2738339651
H 3.5854764309 0.9536811232 0.7208148150
H 2.9109585971 -0.6446655516 1.0298339449
H 2.9581533322 -1.1572978825 -1.4117597324
H 3.7278918455 0.3887128959 -1.7321872844
H 1.7004188522 1.5855424987 -0.8529338189
H 1.3824245556 0.6145577010 -2.2767453469
H 0.4511876164 -1.2133245008 -0.8631940795
H 0.7678922450 -0.3009328332 0.5820098589
H -4.6692002553 4.1653023572 0.4740438607
H -1.4049644364 -1.9330180940 -1.9330142689
H -2.6003926893 -0.3270164366 -4.2654463327
H 0.4634282990 1.5534103877 1.5082969935
H -0.7428518907 2.7431040637 1.8187876764
H -2.2273462147 -2.0641750275 -4.2706210792
H -0.4885502384 -0.8747456132 -2.9784725895
H -3.5059072577 -1.4135008970 -3.2214721518
