47
CONF125
C -4.5626022584 0.8270527417 1.7817752219
C -3.6839362334 -0.2228198272 1.1408497056
C -4.2935051241 -1.2757458381 0.2444549391
C -3.5175894478 -0.1153664557 -0.3780467086
C -2.2195231836 -0.4006063553 -1.0044674238
O -1.5429261906 -1.3976767601 -0.8739925137
O -1.8303491013 0.6631721619 -1.7766418782
C -0.4956442000 0.5403774661 -2.3397637138
C -0.4803848991 1.4248021727 -3.5039292984
N -0.4345593879 2.1230974816 -4.4221386555
C 0.5591937895 0.9251325767 -1.3278270760
C 1.4819110611 -0.0281359205 -0.9027228672
C 2.4259128482 0.3051464245 0.0590111786
C 2.4229814814 1.5954802377 0.5892774638
C 1.5202128133 2.5554508648 0.1684115360
C 0.5822968435 2.2160916012 -0.7994521122
F 3.3273423943 1.9028602606 1.5397360114
O 3.2789785232 -0.6603870756 0.5369430039
C 4.6464620322 -0.4740022830 0.3749662787
C 5.4649688992 -1.2272424056 1.2115149067
C 6.8451560256 -1.1248744138 1.0774721206
C 7.4030123620 -0.2761367238 0.1219133904
C 6.5669092524 0.4671103830 -0.7068501605
C 5.1814418534 0.3725106841 -0.5909504816
C -5.7352201321 -1.3621403088 0.0006327797
C -6.4352046915 -2.4946311694 -0.0729116194
Cl -5.7457277826 -4.0835009147 0.1150388279
Cl -8.1548489487 -2.5079660330 -0.3683624035
C -2.5107065865 -0.6380861446 1.9982862409
H -3.9530933563 1.6893228228 2.0710640040
H -5.0257963532 0.4201952623 2.6874816229
H -5.3541140090 1.1810160640 1.1183733389
H -3.7500473333 -2.2155275926 0.2328813455
H -4.0922531383 0.6755669609 -0.8478193200
H -0.3344736357 -0.4875139606 -2.6834306103
H 1.4741438892 -1.0370141558 -1.3019547049
H 1.5551266729 3.5481919911 0.6034870046
H -0.1346220076 2.9590078158 -1.1344564280
H 5.0147468683 -1.8789306488 1.9528203801
H 7.4871089020 -1.7095226874 1.7288880154
H 8.4804171890 -0.1965494440 0.0238310331
H 6.9896751719 1.1267070652 -1.4581902929
H 4.5334265232 0.9458574625 -1.2455875101
H -6.2939436420 -0.4412447489 -0.1360513624
H -1.9209108177 -1.4308092983 1.5362921489
H -2.8820743876 -0.9991064764 2.9630737750
H -1.8573682565 0.2213872253 2.1867009482
