31
CONF8
C 3.5326282181 -0.0108583947 -2.8658091915
O 2.9136741447 -0.2013096928 -1.5641761688
C 2.0898714980 0.7752269295 -1.1755557382
O 1.7521290354 1.7225302370 -1.8504559186
C 1.5224017021 0.4918589134 0.1854755898
C 2.2498768600 0.6045988665 1.3731690641
C 1.6756585482 0.2991693091 2.6070789440
C 0.3593513313 -0.1097940637 2.6637546384
C -0.3763955356 -0.2145898027 1.4802879155
C 0.1971970696 0.0817150682 0.2434232198
O -1.6668883253 -0.6379393669 1.6202240274
C -2.4951041864 -0.6295019073 0.5097862103
C -3.0999012526 0.5524800776 0.0797968704
C -3.9836157092 0.5424436098 -0.9928140478
C -4.2497621468 -0.6707959124 -1.6163967930
C -3.6630944291 -1.8599952202 -1.1994490645
C -2.7791212236 -1.8287438208 -0.1278400166
Cl -5.3645564970 -0.6922108965 -2.9691398687
Cl -2.7457660666 2.0532215830 0.8919748269
N 3.6199754216 1.0931553052 1.3442511242
O 4.3078910630 0.9587235552 2.3527811169
O 4.0153107744 1.6325679389 0.3093783558
H 2.7650198993 0.0406534768 -3.6407762132
H 4.1702043045 -0.8815763424 -3.0086058137
H 4.1237649799 0.9078501669 -2.8598282222
H 2.2599402938 0.4080075281 3.5121322174
H -0.1161937961 -0.3392878715 3.6103418270
H -0.3737194320 -0.0177195914 -0.6730659322
H -4.4527077485 1.4600512236 -1.3261819110
H -3.8878758775 -2.7937838931 -1.7004687780
H -2.3001935262 -2.7361470069 0.2242077491
