15
CONF18
C -1.8748049414 0.7120369655 0.2684267508
C -0.6511444542 -0.2001717356 0.3115818127
C 0.6419309162 0.3840857810 -0.3273668655
C 1.9718130163 -0.3431716549 0.0447749408
F 2.9598054856 0.1165895058 -0.7401069743
F 1.8573495913 -1.6660824593 -0.1441402851
F 2.3066671372 -0.1129960943 1.3206132992
F 0.7751806501 1.6805640443 0.0584891449
F 0.5233475993 0.3480639024 -1.6775801161
F -0.9189933041 -1.3836786814 -0.3152765428
F -0.3752561639 -0.4817646904 1.6248695978
O -2.3092619289 0.9668586962 -1.0528344456
H -1.6542349526 1.6250875220 0.8319902403
H -2.6644793846 0.1594275596 0.7895308491
H -1.8655874409 1.7585761599 -1.3821889213
