63
CONF36
C 2.1384564167 -2.4014559243 0.5671795251
C 1.1151990948 -3.1217006830 -0.3064384034
N 0.2826996789 -2.1518893612 -1.0249667166
C 1.1215564165 -1.3607533379 -1.9331419760
C 2.1527524524 -0.5524212059 -1.1529490298
C 3.0080537453 -1.4858103617 -0.2954918835
N 3.9898726772 -0.7509302273 0.5011169097
C 3.7552159994 0.1989000891 1.4923981353
C 2.5903728731 0.7329570514 2.0309034820
C 2.7202629471 1.6935588781 3.0384443315
C 3.9724496723 2.1070572634 3.4964865371
C 5.1466602182 1.5718133220 2.9609349217
C 5.0166540927 0.6215441534 1.9619176835
N 5.9656602191 -0.0827133992 1.2443415529
C 5.3617840228 -0.9349700120 0.3382663769
O 5.9189503877 -1.6977421678 -0.4490052632
C -0.8190827764 -2.8092132795 -1.7422107420
C -1.9423376644 -1.8305916412 -2.0861863780
C -2.6583115931 -1.2957254255 -0.8406533623
C -3.2516316716 0.1078943041 -1.0598387106
C -4.2189184173 0.5451348090 0.0267646725
C -4.1595231838 0.0524634088 1.3326418638
C -5.0362550945 0.5081710287 2.3169321067
C -5.9723327094 1.4643773163 1.9695671466
C -6.0716726021 1.9799277590 0.6878285448
C -5.1855690361 1.5109798394 -0.2760364229
F -6.8343119187 1.9147128968 2.9219056207
C -2.1366844102 1.1312878446 -1.2210652249
C -1.8889687220 1.7365657357 -2.4542418062
C -0.8372188740 2.6374013510 -2.6208788469
C -0.0424677344 2.9202994154 -1.5255587890
C -0.2563422368 2.3521259625 -0.2802099758
C -1.3095056750 1.4547204959 -0.1399772341
F 0.9896377670 3.7951898409 -1.6732913720
H 2.7716518564 -3.1328179758 1.0817105908
H 1.6079918955 -1.8197435570 1.3287039435
H 0.4679008860 -3.7416581097 0.3235614845
H 1.6414700734 -3.8001303709 -1.0099322953
H 1.6377041577 -2.0201077507 -2.6617495289
H 0.4908055377 -0.6731590932 -2.5053366786
H 1.6323633114 0.1784709491 -0.5258234777
H 2.7937750685 0.0011602518 -1.8483392146
H 3.6044518838 -2.1153527534 -0.9670680885
H 1.6074343546 0.4273250619 1.6947880039
H 1.8223498224 2.1229407471 3.4708643814
H 4.0385339084 2.8541002012 4.2805807993
H 6.1248334694 1.8847942750 3.3103761232
H 6.9659475729 -0.0104054270 1.3429539465
H -1.2211716414 -3.5955543291 -1.0901526717
H -0.4557183998 -3.3084110295 -2.6610339379
H -1.5327464173 -0.9965501423 -2.6671418241
H -2.6611499608 -2.3325922193 -2.7444931682
H -3.4580221433 -1.9858471798 -0.5450923917
H -1.9414005516 -1.2561264581 -0.0124410014
H -3.8137658396 0.0925757233 -2.0026437377
H -3.4253606364 -0.6997385729 1.6005077083
H -4.9953051925 0.1273403068 3.3318320064
H -6.8250553569 2.7248404303 0.4547863463
H -5.2459155483 1.9053347899 -1.2870770965
H -2.5220029487 1.4991663228 -3.3045915221
H -0.6379448984 3.1077303406 -3.5778239892
H 0.3902368388 2.6053282701 0.5535409187
H -1.4869920552 1.0009590589 0.8310479868
