47
CONF40
C -7.1258946226 -1.7834300230 -1.2187266192
O -5.8766149937 -1.8554699800 -1.9735294144
P -4.9312960717 -0.5773590459 -2.0953365022
S -3.3205356186 -0.9346995586 -3.1082868725
O -5.9467013449 0.5380548704 -2.6224863298
C -5.4681196501 1.8881902931 -2.8789519063
O -4.6951326917 -0.0300737477 -0.5739802840
C -3.6490183493 -0.5033226188 0.2187618160
C -2.6350185151 0.3872799106 0.5519790503
C -1.6067082719 -0.0361644160 1.3822631900
C -1.5818649271 -1.3549272893 1.8461970367
C -2.6050828753 -2.2379274393 1.4987001901
C -3.6544493485 -1.8083406681 0.6909806658
S -0.2997009681 -1.9256518583 2.9548393780
C 1.1943109570 -1.3669981381 2.1448982594
C 1.3395332725 -1.3978806262 0.7550659231
C 2.5344524271 -0.9943073069 0.1739576989
C 3.5841294127 -0.5918272771 0.9892731818
C 3.4667320393 -0.5765214357 2.3718965782
C 2.2586364555 -0.9542824248 2.9497903997
O 4.7936705317 -0.2456297014 0.3784670224
P 5.3139615758 1.2898554644 0.3316070828
S 3.9452064852 2.6469835657 0.0962246563
O 6.4499953584 1.1849688992 -0.7883259097
C 6.0863512526 1.2165624843 -2.1968735823
O 6.1914071266 1.3465310611 1.6662271925
C 6.7582285152 2.6113948604 2.1117465838
H -7.4951700601 -2.8072318714 -1.1716450207
H -7.8388264355 -1.1441256798 -1.7431388211
H -6.9365532026 -1.4038549297 -0.2112420091
H -6.3316642389 2.4409966980 -3.2470926703
H -5.0979343117 2.3369183671 -1.9533369675
H -4.6802774464 1.8660043278 -3.6364102980
H -2.6633335109 1.4020169283 0.1697385260
H -0.8180672526 0.6556078934 1.6589821278
H -2.5841329849 -3.2631195994 1.8529200003
H -4.4553463611 -2.4879329063 0.4194083367
H 0.5207388557 -1.7273700793 0.1245285932
H 2.6605788730 -0.9995643221 -0.9034285378
H 4.3007003941 -0.2585824107 2.9880717442
H 2.1471360682 -0.9235726243 4.0288078892
H 5.5969416921 2.1641867099 -2.4352093906
H 7.0246362143 1.1250972410 -2.7430615782
H 5.4279787665 0.3763408776 -2.4343789865
H 7.4523885375 2.9981373323 1.3610352438
H 5.9590914661 3.3322484934 2.3017356221
H 7.2906366969 2.3827918802 3.0343837024
