47
CONF71
C -3.6516554614 1.4899702080 0.8238218697
C -2.3111247016 1.8982034609 1.3913485078
C -2.0882360560 3.3140861409 1.8720587284
C -1.4944080449 2.8716802826 0.5363731531
C -0.0367177387 2.7160636345 0.4353623928
O 0.7671340282 2.6973640446 1.3416516388
O 0.3242489082 2.5506344055 -0.8763611098
C 1.7211272689 2.2241552851 -1.0692686660
C 1.9814534223 2.4506017386 -2.4909968151
N 2.2237789424 2.5985913330 -3.6101469645
C 2.0241231457 0.7890200344 -0.6842573042
C 1.1392075293 -0.2184240525 -1.0591629003
C 1.4139833623 -1.5309708448 -0.6910963118
C 2.5642786074 -1.8476128290 0.0321917061
C 3.4429087796 -0.8287418073 0.3831438080
C 3.1801818596 0.4929654146 0.0324750834
O 0.4588353857 -2.4690495681 -1.0171369379
C 0.8548775450 -3.7740482563 -1.2789915345
C 1.9048604828 -4.0509470597 -2.1508363948
C 2.2102324584 -5.3783585363 -2.4352258430
C 1.4707854338 -6.4134832202 -1.8645657421
C 0.4174179936 -6.1160261888 -1.0030484975
C 0.1054676487 -4.7925261469 -0.7019633505
C -3.1491295721 4.3234307015 1.8659213004
C -3.3206757498 5.2645687453 2.7947630585
Cl -4.6159387649 6.4308682987 2.7079993381
Cl -2.3002060855 5.4566048523 4.1934990448
C -1.6094114008 0.7913954520 2.1443348576
H -4.1066026250 2.2689496954 0.2089663676
H -4.3409975834 1.2434376179 1.6388818582
H -3.5292594070 0.5973104315 0.2018341519
H -1.3505914467 3.4020728225 2.6638374799
H -1.9862768228 3.2078816931 -0.3701665503
H 2.3501843784 2.9087674348 -0.4883783569
H 0.2367723434 0.0026114489 -1.6198327754
H 2.7631793879 -2.8733279479 0.3223723332
H 4.3339292416 -1.0683459962 0.9542190454
H 3.8591382035 1.2869095007 0.3261738749
H 2.4697460616 -3.2399723459 -2.5989019630
H 3.0262639859 -5.6022946161 -3.1151557935
H 1.7130786337 -7.4459642539 -2.0935559502
H -0.1644119481 -6.9160535720 -0.5562370999
H -0.7088032406 -4.5415496641 -0.0303598714
H -3.8586314725 4.3239186307 1.0441883107
H -0.6627181535 1.1196646549 2.5761573691
H -1.4149592611 -0.0551157483 1.4757719635
H -2.2564380042 0.4410853848 2.9553461696
