49
CONF12
C 1.7663006789 2.8871242454 -3.1292702316
C 1.2400549485 2.3662739073 -1.7963716655
C 2.3910952635 1.8560294780 -0.9080492937
C 1.9083389745 1.3977951661 0.4432154817
C 1.6837684497 0.0512518260 0.7268736956
C 1.1537781515 -0.3699557729 1.9468489243
C 0.8474789966 0.5814215276 2.9204961586
C 1.0721531635 1.9381774458 2.6581362381
C 1.5901169367 2.3322567374 1.4373210741
O 0.3413426592 0.2968164777 4.1518683497
C 0.0718935409 -1.0737388962 4.4496527763
N 0.2966532169 1.2608777335 -2.0049597870
C -1.0701758348 1.6595001055 -2.3370855109
C -1.8621520516 0.3765281543 -2.6377601913
C -1.9476505625 -0.4924210007 -1.3909942050
C -1.2608682734 -1.6932970327 -1.3087551286
C -1.2728415318 -2.4653601430 -0.1439445829
C -2.0002808595 -2.0352897561 0.9781407185
C -2.6853445997 -0.8195478962 0.8904420113
C -2.6671317494 -0.0658603786 -0.2698880183
O -2.1282229478 -2.7516557582 2.1196553517
N -0.5794561924 -3.7092183712 -0.1938742718
C 0.1160969285 -4.3329268490 0.7819980630
O 0.2027337734 -3.9642337976 1.9539183871
O -1.2540339036 -0.3014747830 -3.7293630496
H 2.4437339358 3.7325335631 -2.9718716667
H 0.9540596829 3.2277531976 -3.7779944123
H 2.3099316162 2.0949960332 -3.6544170804
H 0.7492914756 3.1985568908 -1.2546933685
H 2.8925263681 1.0325324090 -1.4316773488
H 3.1223563564 2.6647609354 -0.7960859733
H 1.9281075095 -0.6992511502 -0.0218895988
H 0.9859384833 -1.4268462776 2.1175749196
H 0.8354486420 2.6622648962 3.4305320321
H 1.7577918541 3.3897854222 1.2485882996
H -0.6935504721 -1.4809705957 3.7787401797
H -0.2987287137 -1.0853766607 5.4754825090
H 0.9821404995 -1.6829418246 4.3825618430
H 0.2456599434 0.7273675388 -1.1388327197
H -1.0669466886 2.2806349028 -3.2406710638
H -1.5629159340 2.2342230145 -1.5327501734
H -2.8778946797 0.6476237478 -2.9542369192
H -0.7076551363 -2.0413143569 -2.1762569692
H -3.2445218933 -0.4967734679 1.7621239629
H -3.2202880011 0.8687712329 -0.3040095004
H -1.3048121101 -3.2829226062 2.2449979342
H -0.5000208990 -4.1166417725 -1.1147899083
H 0.6198605767 -5.2475323222 0.4230202137
H -0.3031598085 -0.1303057965 -3.6220356630
