45
CONF41
C -3.3252672497 1.0288301043 0.2947228803
C -2.8966266829 0.3556922206 1.5638871717
N -3.7065186116 0.0362247905 2.5122272473
O -5.0241153752 0.3813831762 2.1978611388
C -5.8817460294 -0.0187929145 3.2773035581
C -1.4690450646 0.0841450636 1.8499491602
C -0.6200495760 -0.4791222629 0.8763614251
C 0.7270727220 -0.6674152610 1.1869254351
C 1.2487982312 -0.3314045524 2.4267826814
C 0.4070879477 0.2281990011 3.3798269291
C -0.9365251763 0.4415875555 3.0913974932
O 1.5421662180 -1.3435367153 0.2803987543
C 2.2735947003 -0.5963849906 -0.5953483240
N 2.9208968241 -1.3319641203 -1.4895710797
C 3.6467559600 -0.6298951956 -2.3676326820
C 3.7243234085 0.7608834175 -2.3571799573
C 2.9946316712 1.3893824883 -1.3545415760
N 2.2616158052 0.7198496169 -0.4554029688
O 3.0361301098 2.7274834039 -1.2984092236
C 2.2652547922 3.3755910138 -0.2597212848
O 4.3379198446 -1.2768120565 -3.3159568858
C 4.2542128063 -2.7205458033 -3.3396384944
C -1.1855249929 -1.0058575231 -0.3999725712
O -2.1643639885 -1.7233474070 -0.4504905663
O -0.4939589306 -0.5967332800 -1.4714586508
C -0.9469922463 -1.1177669618 -2.7485235650
H -2.4718824211 1.2627441581 -0.3432221755
H -3.8402433064 1.9631175835 0.5435785309
H -4.0338292560 0.4060176333 -0.2590401932
H -5.6011750568 0.4910028560 4.2052332562
H -6.8865084071 0.2827575295 2.9751485121
H -5.8445378456 -1.1039684621 3.4202377356
H 2.2991816702 -0.5115230269 2.6276832979
H 0.8027831558 0.5075017074 4.3507022091
H -1.5872777209 0.9037789495 3.8246621778
H 4.3114629293 1.3121770534 -3.0789790955
H 2.6158463741 3.0667493211 0.7283155115
H 1.2034504213 3.1388754242 -0.3654841552
H 2.4358691595 4.4413001327 -0.4090436628
H 3.2210179943 -3.0425144717 -3.4916299954
H 4.6403069995 -3.1431634327 -2.4088109465
H 4.8759258638 -3.0223434062 -4.1820200475
H -1.9715063541 -0.7915055662 -2.9416404091
H -0.8968890026 -2.2088879441 -2.7443634891
H -0.2617233303 -0.7009284128 -3.4851230164
