55
CONF9
C 4.9685128992 0.9739346573 2.4118127703
C 4.8388895714 0.4160337761 0.9819521440
C 5.4986749614 1.3682863674 -0.0135113851
C 3.3973801957 0.0821034578 0.6757109125
C 2.6860446022 0.6610382521 -0.3117784953
C 1.2797601288 0.3882644946 -0.5728738839
C 0.6374807600 0.9957021997 -1.5885976198
C -0.8128022092 0.7974685372 -1.8857465983
C -1.5415210372 0.1203005704 -0.7239192233
C -0.7587657481 -1.1275994541 -0.2213207578
C 0.5716334931 -0.5687304088 0.3667352490
C 1.5696199868 -1.6342713722 0.8391148143
C 2.7553516567 -0.9738383604 1.5403499256
C -1.5538413288 -1.8033131940 0.9146794215
C -3.0184868469 -2.0629726880 0.5694821313
C -3.7263046577 -0.7567800442 0.2172758713
C -3.0708177257 -0.0628009059 -1.0024265108
C -3.4256649605 -0.8278752179 -2.2839866249
C -3.6759212888 1.3397628102 -1.1415934534
O -4.2786154268 1.7519233183 -2.1137814956
O -3.4743720246 2.0965910151 -0.0443977678
C -4.0103552188 3.4398615981 -0.1008551942
C -0.4460502651 -2.1441786805 -1.3290427347
H 6.0190401235 1.1727125403 2.6474848308
H 4.4124327728 1.9143971740 2.4996828730
H 4.5800902678 0.2758771504 3.1585592500
H 5.3913578454 -0.5370891055 0.9571464243
H 5.0204340157 2.3541647493 0.0065807191
H 6.5530094761 1.5043327367 0.2464969272
H 5.4476397785 0.9842378775 -1.0371585131
H 3.1543896359 1.3993550093 -0.9585719444
H 1.1953059051 1.6718930001 -2.2361412126
H -1.2787023351 1.7700231764 -2.1035017993
H -0.9216949905 0.2130956915 -2.8113427628
H -1.4979904283 0.8192789552 0.1222021142
H 0.2947857509 0.0132922089 1.2624961649
H 1.0829357435 -2.3443564609 1.5150948813
H 1.9452422831 -2.1996084984 -0.0220843068
H 3.5074750227 -1.7271186403 1.8098002760
H 2.4216854067 -0.5284644124 2.4897385862
H -1.5197707390 -1.1515295340 1.8000489772
H -1.0654918002 -2.7438611392 1.1934388178
H -3.5198206396 -2.5219351425 1.4295481667
H -3.0990513110 -2.7833778488 -0.2527638928
H -4.7875999565 -0.9317022661 0.0018326677
H -3.6734568450 -0.0878437607 1.0836349314
H -4.5059573398 -0.7814083154 -2.4452850225
H -3.1468647976 -1.8776984908 -2.2100607014
H -2.9423880650 -0.4037005649 -3.1662887273
H -3.7485289496 3.8954540553 0.8535224939
H -5.0952147777 3.4093222072 -0.2279659879
H -3.5583206835 3.9925056294 -0.9281571618
H 0.0766981548 -3.0077042890 -0.9072801929
H 0.1955546383 -1.7108841731 -2.1026155794
H -1.3470549654 -2.5205695492 -1.8132391022
