55
CONF18
C -2.7388588696 1.0719920523 -2.0750459752
C -2.4474966274 0.7216065824 -0.5902048245
C -3.0641876764 1.8932656314 0.2144269727
C -3.5153851710 1.5697291013 1.6355830448
C -4.3892638394 0.3482297263 1.6797341477
O -5.2800493258 0.2052531413 2.5219402344
C -4.0660413429 -0.7047131776 0.7274897954
C -3.1469754428 -0.5782998045 -0.2551562397
C -2.7198410966 -1.7718190892 -1.0467508323
C -1.2154822161 -1.9790814272 -0.8146532865
C -0.4139857695 -0.7336036286 -1.2135518370
C -0.8810712451 0.5467550190 -0.4566047135
C -0.2804587654 0.5849937958 0.9622759981
C 1.2451710449 0.4212475974 0.9208545081
C 1.7478739254 -0.8603194148 0.2519235779
C 1.1033444196 -0.9714658713 -1.1487321069
C 1.9028905676 0.0014195576 -2.0460575867
C 3.2830593253 0.1898482441 -1.3745755939
C 3.2650726207 -0.7423984867 -0.1506163034
C 4.1615564333 -0.3818311043 1.0007568351
O 4.5089819838 -1.2137984333 1.8318514462
C 4.6646815076 1.0376256653 1.1635398475
O 5.3987756700 1.1931763739 2.3588969810
C 1.5288588873 -2.0720119598 1.1574152431
O -0.5418363911 1.8217988286 1.6488652743
H -2.3723902092 2.0857893766 -2.2694435030
H -3.8177069065 1.0576809328 -2.2588589214
H -2.2651248486 0.3977033281 -2.7881817934
H -3.9561634665 2.2140723123 -0.3390113275
H -2.3733975755 2.7402230256 0.2161254392
H -2.6527716492 1.3674948008 2.2806560480
H -4.0556832902 2.4126516805 2.0778232332
H -4.5716329801 -1.6570485791 0.8763012119
H -3.2840622599 -2.6564743134 -0.7383463398
H -2.8997971933 -1.6135771499 -2.1172448133
H -0.8666078851 -2.8338649010 -1.4052305196
H -1.0633859782 -2.2353111570 0.2379122821
H -0.6265920563 -0.5702001250 -2.2776892655
H -0.4534409430 1.4184966131 -0.9767960491
H -0.7403034422 -0.1853387388 1.5938306920
H 1.6306567125 1.2968681067 0.3791132800
H 1.6194266364 0.4886670345 1.9501406857
H 1.2901710494 -1.9931973746 -1.5067076679
H 1.3864687983 0.9625589338 -2.1314504923
H 1.9895943598 -0.4015426035 -3.0589182428
H 4.1141575592 -0.0613668582 -2.0390140127
H 3.4174691309 1.2339841963 -1.0801967189
H 3.5608831305 -1.7552067088 -0.4540568644
H 3.8151047376 1.7360511229 1.1386398109
H 5.2906630647 1.2692890618 0.2854946397
H 5.4466794892 0.3007392918 2.7465969742
H 2.1910875876 -2.0201268876 2.0263738427
H 1.7421575154 -3.0020005590 0.6193907849
H 0.5049389721 -2.1212500021 1.5328160356
H -0.1097315502 2.5266374167 1.1476218686
