54
CONF468
C 4.2126763550 -0.6602874902 -1.7851447715
C 4.5079592804 0.6744703857 -1.1042703768
C 3.5332043848 1.7348094146 -1.5523096848
C 2.3530719307 1.3833198566 -2.2192888652
C 1.4566096285 2.3591310624 -2.6566003122
C 1.7184913653 3.7031662750 -2.4313837053
C 2.8833804178 4.0416298101 -1.7610889810
C 3.7851224106 3.0898742059 -1.3260250890
F 3.1490871340 5.3504645991 -1.5285536898
O 2.0158960293 0.0805077084 -2.4960575295
C 2.7173486455 -0.9200097623 -1.7310379947
C 2.3147431996 -2.2783070596 -2.3076467159
C 0.8004183287 -2.4947745763 -2.3883189283
N 0.1995085740 -2.4960845957 -1.0400713675
C -0.4896319754 -1.2402804235 -0.6896007534
C -0.7170863641 -1.1846045639 0.8164809346
C -1.3251928608 0.1568413301 1.2381172914
C -1.4290270524 0.3373836624 2.7451141308
C -2.3393779749 -0.7312395153 3.3436168734
C -3.5995612773 -0.8690973433 2.5291685132
C -3.6637638387 -0.3591964122 1.2253166794
O -2.6179776806 0.2897183394 0.6150992302
C -4.8358085687 -0.4634333684 0.4737385254
C -5.9579735694 -1.0843365378 1.0031934185
C -5.8808301849 -1.5963619389 2.2887146893
C -4.7334759169 -1.4963698627 3.0510940419
F -6.9693087827 -2.2081546659 2.8182811250
O 0.5178182960 -1.3241742147 1.5148180071
O 2.9110362019 -3.3048579333 -1.5181879995
H 4.7429359085 -1.4823708695 -1.2983380386
H 4.5203000515 -0.6322937442 -2.8381714312
H 4.4390777094 0.5549839219 -0.0145649840
H 5.5313324094 1.0020609302 -1.3172985743
H 0.5559690787 2.0464757060 -3.1742009998
H 1.0358507376 4.4774854823 -2.7616074801
H 4.6902024320 3.4034396226 -0.8150772335
H 2.3734738828 -0.8604995381 -0.6834544611
H 2.7345179533 -2.3689034564 -3.3183573548
H 0.3436202567 -1.7412189201 -3.0438137794
H 0.6460739272 -3.4773465133 -2.8483973129
H -0.4633128022 -3.2588945756 -0.9671677393
H -1.4495672027 -1.1231418570 -1.2156101936
H 0.1516402053 -0.4014442143 -0.9809611810
H -1.4124089389 -1.9946001608 1.1053008244
H -0.7232237250 0.9636223548 0.8035761643
H -1.8438371267 1.3341819917 2.9340142928
H -2.5961080363 -0.4798309622 4.3781602066
H -4.8502580787 -0.0465619717 -0.5274614438
H -6.8773202220 -1.1736051254 0.4361119985
H -4.7225181280 -1.8994374720 4.0590893606
H 0.9993987581 -2.0161504983 1.0373621029
H -0.4294897614 0.2962752417 3.1834680363
H -1.8102128089 -1.6927077785 3.3820528490
H 2.3132178426 -3.4216551377 -0.7638560443
