47
CONF74
C -5.1344652174 0.6774036160 -3.4890916069
C -3.9496026119 1.3466496981 -2.7951068823
C -3.9750997076 1.1628594453 -1.2777100477
C -2.7817238950 1.8179994560 -0.5829298878
C -2.7751779975 1.6539864810 0.9444875997
C -3.8006375447 2.5772188846 1.6252929747
C -4.1517470992 2.1800739414 3.0593984595
C -1.3925865806 1.9382287689 1.5090339151
O -0.4912609966 0.8999536837 1.0385867055
C 0.8103137928 1.0367193606 1.3890847204
O 1.2239499037 1.9670726342 2.0651839049
C 1.6080461152 -0.0641964227 0.8482259164
C 2.9364000367 -0.1196830078 1.0743207198
C 3.8720922735 -1.1253836032 0.6162912091
C 3.5003674762 -2.2340172659 -0.1620126269
C 4.4306490163 -3.1724175792 -0.5809624305
C 5.7783644030 -3.0191597857 -0.2237936045
C 6.1720923127 -1.9212834608 0.5531606362
C 5.2318723474 -0.9957579518 0.9621573360
O 6.7665899681 -3.8745510492 -0.5803992821
C 6.4144155293 -5.0155144558 -1.3791163787
H -6.0827180335 1.0900775970 -3.1268314070
H -5.0980832570 0.8208923850 -4.5736840018
H -5.1439142004 -0.4005279417 -3.2924869198
H -3.0101290722 0.9387965585 -3.1913581934
H -3.9429076638 2.4198016770 -3.0281056489
H -3.9800959946 0.0887448687 -1.0438556173
H -4.9172895088 1.5688902998 -0.8866746619
H -2.7564298459 2.8918631226 -0.8211490106
H -1.8616113980 1.3850970219 -0.9948114883
H -3.0302957517 0.6114029538 1.1873963935
H -3.4175588582 3.6071695326 1.6019495445
H -4.7182235628 2.5813420199 1.0273784354
H -4.5630701114 1.1651880495 3.0886392376
H -4.9021186932 2.8582900717 3.4775411362
H -3.2807035563 2.2069527910 3.7215181134
H -1.0226464717 2.9122752478 1.1654522714
H -1.3819786642 1.9307609830 2.6033628268
H 1.0786319971 -0.8117787659 0.2671850533
H 3.3671456394 0.6840902071 1.6705052712
H 2.4636306993 -2.3729172406 -0.4506685255
H 4.1027494983 -4.0126236182 -1.1801867469
H 7.2177937036 -1.8153226861 0.8224906943
H 5.5456359422 -0.1473123383 1.5638128163
H 7.3463947847 -5.5559115455 -1.5438496811
H 5.9925079103 -4.7033966772 -2.3409270629
H 5.7024312354 -5.6580460667 -0.8493658768
