57
CONF80
C -3.7687486961 1.5627103614 -2.7243696997
C -3.0399891087 0.2142984388 -2.7880952758
C -1.9173004716 0.0929620547 -1.7865843670
C -1.8945954059 -0.8237251483 -0.7848322625
C -3.0524738291 -1.6944012579 -0.4593396612
C -2.8775848952 -3.0813524791 -0.3496821717
C -3.9462076459 -3.9119393069 -0.0297306419
C -5.2084508810 -3.3696125624 0.2098386972
C -5.3908969915 -1.9908815799 0.1267368089
C -4.3228959371 -1.1615950716 -0.2044308143
C -0.6883783937 -1.0472240759 0.0501648650
C -0.7819844185 -1.0788549357 1.4488219739
C 0.3470953489 -1.2151535463 2.2415138222
C 1.6078404319 -1.3577374523 1.6505794517
C 1.7148837025 -1.3918340797 0.2570409729
C 0.5736213726 -1.2333844374 -0.5218472893
O 2.6568004500 -1.4967275180 2.5130323343
C 3.9900652408 -1.2528399052 2.0235440279
C 4.2203754564 0.1880470467 1.5881863874
N 3.8191155874 1.1824242384 2.5838563764
C 4.6535850021 1.1163570296 3.7851058624
C 3.8976485604 2.5217097520 1.9959526533
C -0.8129705793 1.0711991386 -1.9627122192
C -0.4171041892 1.8885965698 -0.8943112621
C 0.5991089955 2.8249173278 -1.0476860961
C 1.2444022730 2.9643701122 -2.2760580620
C 0.8501242536 2.1696981820 -3.3505890657
C -0.1759387957 1.2407914261 -3.1988076863
H -4.5547051617 1.6093991701 -3.4842330673
H -3.0757121849 2.3915097956 -2.9005418655
H -4.2304667752 1.7142594725 -1.7433983982
H -3.7515384305 -0.6046562760 -2.6588873524
H -2.6114289901 0.1013266693 -3.7933443833
H -1.8933710437 -3.5061424805 -0.5260996711
H -3.7937631935 -4.9850378012 0.0366298409
H -6.0410517582 -4.0166049523 0.4679695127
H -6.3660994036 -1.5575357512 0.3276784054
H -4.4657746366 -0.0865160838 -0.2496091821
H -1.7531028098 -0.9602860730 1.9214742589
H 0.2727326747 -1.2059973593 3.3245410869
H 2.6706879239 -1.5436741199 -0.2298536078
H 0.6682207832 -1.2495926368 -1.6031026776
H 4.6331106696 -1.5249478459 2.8632302095
H 4.2302999253 -1.9272899235 1.1920945610
H 3.6558453623 0.3919023673 0.6716701632
H 5.2962939460 0.2706762024 1.3273436271
H 4.5327419493 0.1530913604 4.2893059876
H 4.3444827949 1.9000783368 4.4837292683
H 5.7280204777 1.2585012991 3.5582983795
H 4.9266918894 2.7897937263 1.6877582174
H 3.5549515201 3.2645282480 2.7236304453
H 3.2511232014 2.5778800976 1.1133532329
H -0.9155834170 1.7798917196 0.0641052721
H 0.8864356399 3.4500329668 -0.2073687364
H 2.0417289469 3.6912187300 -2.3963140158
H 1.3443589533 2.2715647786 -4.3121800761
H -0.4642770889 0.6218086238 -4.0431775966
