119
CONF214
C -10.8812696197 3.3740755234 2.8693234725
C -10.7024720001 3.8504456504 1.4285735197
C -11.8515579946 3.3621881406 0.5450942288
C -9.3393480256 3.3881732651 0.8702776889
C -9.1797155385 3.8731247915 -0.5774857595
O -9.0324065392 5.0810096143 -0.7702062722
N -9.2174242952 2.9863283936 -1.5990526964
C -9.2876887522 3.5124750040 -2.9786383294
C -9.7845239653 2.3310038691 -3.7949015940
C -9.0159079626 1.8408408004 -4.9854538401
C -10.3472284856 2.5257906939 -5.1706561044
C -10.3944073619 1.3577400664 -2.8026645996
C -9.5082263767 1.5310226686 -1.5606420045
C -8.2637859408 0.6862485971 -1.6465746704
N -7.9700555120 -0.1293561528 -2.6459647385
C -6.7596569276 -0.6793740791 -2.3316646378
C -6.3020349237 -0.2030367808 -1.1167902312
N -7.2896465416 0.6645267619 -0.6885833458
C -5.0893461913 -0.4998934229 -0.3755648259
C -3.9596312148 -0.9819675721 -1.0690546030
C -2.8229072179 -1.2822118168 -0.3576036880
C -2.7396109352 -1.1092085084 1.0330545279
C -3.8453700492 -0.6292891351 1.7229899395
C -5.0099894902 -0.3357994287 1.0179748195
C -1.3997398187 -1.4983574063 1.4815648873
C -0.6463695849 -1.9044855735 0.3702095969
C -1.4990598091 -1.7979158038 -0.8725827325
F -1.6315525870 -3.0098765215 -1.5151073481
F -0.9442549351 -0.9484808124 -1.8072912627
C 0.6567815502 -2.3336117374 0.4828515636
C 1.2586403965 -2.3619822024 1.7549126202
C 0.5023168787 -1.9523845611 2.8644834306
C -0.8169143689 -1.5239053759 2.7426627596
C 2.6554820588 -2.8077225718 1.9156318010
C 3.6122479752 -2.4654415239 0.9546481851
C 4.9093162782 -2.9157091176 1.1554596087
C 5.2856761388 -3.6909667588 2.2791671928
C 4.3246010192 -4.0314916710 3.2309354002
C 3.0274750204 -3.5858324217 3.0368651864
N 6.6369823064 -3.9865379361 2.2285324601
C 7.0628049647 -3.4146574056 1.1235282464
N 6.0719261436 -2.7586677154 0.4342303191
C 8.4667449111 -3.4609848416 0.5966845967
C 9.4617242410 -4.1458142763 1.5453177837
C 10.8058602953 -4.3054298834 0.7955833343
C 11.3785567465 -2.8523968041 0.7465871543
C 10.2464784750 -2.0482928140 1.4072203520
C 9.7756949907 -2.9942324749 2.5165498667
N 9.0781029880 -2.1012184717 0.4899974830
C 8.7899011296 -1.2924124534 -0.5457521083
O 7.8791312674 -1.5429098649 -1.3510140303
C 9.5901710782 0.0006767243 -0.7252147779
C 8.7119222805 1.2199260533 -0.3699322430
C 8.1425416635 1.0927625938 1.0441528588
C 9.5129059328 2.5118037400 -0.5231757177
N 10.0305510685 0.0507133069 -2.1098148480
C 11.3338680090 -0.1727346072 -2.4421923807
O 12.2683183498 -0.2329951438 -1.6636599574
O 11.4538717584 -0.2913902774 -3.7930236605
C 12.8053930238 -0.4778277193 -4.2510935114
N -8.2456908909 3.9690830452 1.6405744645
C -7.1750035430 3.2248647265 2.0025229710
O -7.1038873998 2.0013827863 1.9167978168
O -6.1883300047 3.9954885442 2.5095464341
C -5.0070131543 3.2709570138 2.9121385765
H -10.0653760973 3.7165105866 3.5109546828
H -11.8212808074 3.7524492533 3.2823644931
H -10.9121110740 2.2789231440 2.9137636755
H -10.6936290458 4.9485570134 1.4048589384
H -11.7649835047 3.7316670476 -0.4814946790
H -11.8892378348 2.2663120925 0.5186263435
H -12.8081830554 3.7110336675 0.9444732776
H -9.2576184203 2.3036138634 0.9762686661
H -9.9843563016 4.3596137508 -2.9872504693
H -8.3103461270 3.8824233087 -3.3087743937
H -8.1209159917 2.3880251549 -5.2653979771
H -8.9580585122 0.7685086725 -5.1295829312
H -11.1987921925 1.9167733363 -5.4587418423
H -10.3524849637 3.5327147951 -5.5776453058
H -11.4163689466 1.6636048558 -2.5461601061
H -10.3997113010 0.3289933822 -3.1642206005
H -10.0564749016 1.2925417147 -0.6445915886
H -6.2875845827 -1.4110789142 -2.9721781632
H -7.2665829134 1.1958037923 0.1811838843
H -3.9845276527 -1.0944257035 -2.1479183245
H -3.8184310711 -0.4940587775 2.7999723937
H -5.8733038410 0.0249062987 1.5644302237
H 1.2040457365 -2.6742270941 -0.3903534579
H 0.9728669270 -1.9454850045 3.8423957321
H -1.3693524100 -1.2077777730 3.6220110081
H 3.3493426902 -1.8440608103 0.1049306152
H 4.5907343817 -4.6386097826 4.0893818900
H 2.2583502469 -3.8692239897 3.7476702640
H 6.2463462600 -2.2486954048 -0.4254310044
H 8.4572648951 -3.9174446939 -0.4021909872
H 9.0579729670 -5.0553338802 1.9874825764
H 11.4699974137 -4.9733550560 1.3509643290
H 10.6679577992 -4.7337875469 -0.2015281460
H 12.2981473306 -2.7577769622 1.3325676372
H 11.5929030007 -2.4948153761 -0.2633946461
H 10.4875363263 -1.0289295106 1.7065479098
H 10.5815801326 -3.2353824640 3.2146975778
H 8.8995411577 -2.6353648048 3.0601297238
H 10.4961851961 0.0132842621 -0.1142367411
H 7.8751619637 1.2259817312 -1.0822389952
H 8.9483040701 1.0492233932 1.7870156109
H 7.5249321986 1.9635536443 1.2821640700
H 7.5203814972 0.2001275494 1.1629832769
H 10.3377034617 2.5429543132 0.1983750634
H 8.8735994029 3.3810143707 -0.3408533321
H 9.9373993383 2.6035317468 -1.5261442012
H 9.3286601102 -0.1287742963 -2.8141175603
H 13.4281868951 0.3759233578 -3.9708212429
H 13.2347051267 -1.3893114886 -3.8265180745
H 12.7328370921 -0.5585886677 -5.3358077230
H -8.1060451681 4.9640917335 1.5221109059
H -4.3075606024 4.0339277830 3.2525383840
H -5.2430514058 2.5772350445 3.7234423243
H -4.5902331602 2.7149507094 2.0679967633
