30
CONF7
C -3.9914370119 1.0016147202 0.1549415014
C -3.3189412335 -0.3713396071 0.2900326796
C -3.8194864000 -1.0979625819 1.5459762971
C -1.8088592768 -0.2552614925 0.2822882050
C -1.0397718668 -0.8808510858 -0.6997619092
C 0.3504543088 -0.7950179556 -0.7229235897
C 1.0172654683 -0.0432612942 0.2511751430
C 0.2559315428 0.5865412638 1.2487206399
C -1.1266662944 0.4740679996 1.2633719092
N 2.4119471918 0.0802329135 0.3372227315
C 3.3854424898 -0.0168811306 -0.6311373842
N 4.6229548580 0.0226306704 -0.2973513642
C 5.6097155245 -0.0012635778 -1.3740523458
O 2.8729871344 -0.1139017997 -1.8854322197
H -5.0797632137 0.8907695882 0.1020526571
H -3.6520077803 1.5191289695 -0.7479473334
H -3.7594862623 1.6345479108 1.0186334801
H -3.5999457662 -0.9732760354 -0.5835571294
H -4.9071337305 -1.2217610452 1.5087103715
H -3.3616998446 -2.0881404806 1.6368583234
H -3.5761316100 -0.5253495808 2.4478438665
H -1.5364550119 -1.4677763496 -1.4686642453
H 0.9053189498 -1.3180728970 -1.4897719099
H 0.7611337450 1.1676322344 2.0158963957
H -1.6816177300 0.9744669183 2.0522338467
H 2.7784276244 0.3554109254 1.2361512368
H 5.4856425770 0.8280425286 -2.0896894654
H 5.5972053856 -0.9453153660 -1.9427779923
H 6.6085461045 0.0952970303 -0.9407919628
H 3.5964299218 -0.2292931003 -2.5182503429
