23
CONF1
C -2.2851488346 -0.7931437812 -1.8551214237
C -3.6064457294 -0.8668407362 -1.4363237483
C -4.0010246813 -0.2808770388 -0.2362227356
C -3.0615274843 0.3967500117 0.5432974747
C -1.7375338759 0.4873312851 0.1293374926
C -1.3632342632 -0.1191977738 -1.0648446978
O -0.0738878010 -0.0015499913 -1.5513137778
C 0.9857840900 -0.2130580692 -0.7022549491
C 0.9389269097 -1.1498664210 0.3246672624
C 2.0725828289 -1.3463716207 1.1007405580
C 3.2577941446 -0.6371591551 0.8688814168
C 3.2665405890 0.2864451089 -0.1839902046
C 2.1424463686 0.5094652330 -0.9663348998
Br 4.8201194141 1.3067218818 -0.5949458829
Br 4.7929166625 -0.9148126776 1.9426582336
Br 1.9480516835 -2.6401969529 2.4927499050
Br -3.5327486054 1.2370600043 2.1860925515
Br -5.8243774934 -0.4403988165 0.2879127535
H -1.9703261327 -1.2529445522 -2.7848543761
H -4.3367567939 -1.3918285796 -2.0408848832
H 0.0399029106 -1.7226517616 0.5149936412
H 2.1573631039 1.2315210657 -1.7730784729
H -1.0119007380 1.0263588732 0.7272674368
