47
CONF74
C -6.3537421154 -1.9507162270 2.4103419330
O -5.6944647697 -2.6488292793 1.3166719006
P -4.2588020067 -2.1645930599 0.8084840153
S -2.9160597519 -1.7707189051 2.1542751100
O -3.9164644205 -3.2842108165 -0.2790169925
C -3.3628115791 -4.5629373418 0.1447424272
O -4.6811866750 -0.9282088640 -0.1557039512
C -3.7654051066 0.0355580565 -0.5778066676
C -2.6754439811 -0.3171107298 -1.3676422637
C -1.8144593398 0.6787031386 -1.8080813857
C -2.0368818725 2.0098073367 -1.4432551225
C -3.1374679049 2.3450869231 -0.6543080475
C -4.0127927072 1.3526501095 -0.2226332715
S -0.9613499926 3.3096537140 -2.0372214825
C 0.6366137517 2.8094592712 -1.4059706234
C 0.7818787345 2.0767918190 -0.2253582188
C 2.0509715547 1.7554868368 0.2418486710
C 3.1637187428 2.1870200380 -0.4682938995
C 3.0390210401 2.9306394526 -1.6332307727
C 1.7680940705 3.2349626321 -2.1079685297
O 4.4474488471 1.9222592297 0.0280005600
P 5.1953940938 0.5196646053 -0.2893259718
S 5.3684633972 -0.0069928890 -2.1453992264
O 4.3549347345 -0.4589062214 0.6676470666
C 4.6038727807 -1.8921742559 0.6313772609
O 6.6116963404 0.7605360270 0.4056631924
C 6.6867259147 1.1210766927 1.8192826124
H -5.7363879127 -1.9995785829 3.3107248302
H -7.2958865251 -2.4752229437 2.5658115365
H -6.5420188273 -0.9102025569 2.1316254705
H -2.4254805328 -4.4031974192 0.6833874051
H -4.0820245634 -5.0924441658 0.7751160505
H -3.1833188609 -5.1210898363 -0.7734350217
H -2.5132066992 -1.3531345517 -1.6449934121
H -0.9661604517 0.4194976029 -2.4329447454
H -3.3062327364 3.3770497482 -0.3658448696
H -4.8693721195 1.5921253419 0.3979112822
H -0.0897118388 1.7556362528 0.3344606559
H 2.1770679338 1.1882276482 1.1570135543
H 3.9260094938 3.2526549296 -2.1673927549
H 1.6602624091 3.7995478973 -3.0286815130
H 3.9250712485 -2.3255265561 1.3654281199
H 4.3876073164 -2.2830229793 -0.3659963218
H 5.6413506665 -2.1028281406 0.9060817359
H 7.7480498858 1.1114704636 2.0650454196
H 6.2711604450 2.1197729599 1.9706717904
H 6.1517187936 0.3863078117 2.4259384828
