44
CONF6
C -2.3083464167 -1.2883566449 1.0181050127
C -2.2433784261 -0.4878290097 -0.2911873508
C -1.5964773239 -1.3205495945 -1.3978513025
C -0.0972607243 -1.5417163008 -1.1369269192
C 0.6619840703 -0.2237228300 -0.8944250260
C -0.0046033700 0.6224969099 0.2109090749
C -1.4638083827 0.8366665766 -0.1572010127
C -2.3585918632 1.7108001967 0.7365036785
C -3.8008321400 1.2658640494 0.3627684446
C -3.6330910901 0.0764921056 -0.6180881688
O -4.6464774020 -0.9265578881 -0.5030438200
C 0.7771375710 1.9206888250 0.3877479473
C 2.1714346930 1.6171807904 0.9258404791
C 2.8537359476 0.4745663577 0.2077023534
C 2.1490865288 -0.4111263091 -0.6252885269
C 2.8712189028 -1.4463256015 -1.2342236514
C 4.2325574358 -1.6241452392 -1.0336191101
C 4.9152686086 -0.7423515853 -0.1993268443
C 4.2256533616 0.2982638325 0.4117952011
O 6.2589101367 -0.9450994445 -0.0220950144
H -1.3192081263 -1.6158186157 1.3440827711
H -2.9265279609 -2.1779743550 0.8706676448
H -2.7523549743 -0.7099484852 1.8328726239
H -2.1026918316 -2.2878065757 -1.5029253096
H -1.7153685568 -0.7880222846 -2.3524178596
H 0.0519057572 -2.2053635811 -0.2759329935
H 0.3240912134 -2.0624498562 -2.0022046135
H 0.5680701715 0.3690259499 -1.8216918065
H 0.0498573016 0.0665437875 1.1599491230
H -1.4691740463 1.2951023242 -1.1617984822
H -2.1506273653 1.5199001406 1.7954088430
H -2.1952563895 2.7781096513 0.5636125670
H -4.3793851483 2.0762934900 -0.0910929633
H -4.3554893570 0.9219785083 1.2415537491
H -3.6085507148 0.4510668171 -1.6545192882
H -5.4816576290 -0.5351376826 -0.7821879647
H 0.2561460258 2.5960973737 1.0755704357
H 0.8445677537 2.4353079119 -0.5813956420
H 2.8095123215 2.5074377809 0.8786129163
H 2.0924597578 1.3559123891 1.9910734040
H 2.3616727418 -2.1417646043 -1.8918017399
H 4.7709335767 -2.4342000458 -1.5141762824
H 4.7595407074 0.9911033624 1.0607081761
H 6.6034149510 -0.2706328088 0.5758050565
