39
CONF47
C 3.7635073335 1.4679182243 -2.4546248547
C 2.4345568321 1.5131646391 -1.7047624108
C 2.4753833255 0.7026480716 -0.4098835645
C 1.1762104791 0.7514408166 0.3633335469
C 1.1371751146 -0.0720895232 1.6390108242
O -0.2579710777 -0.3797810088 1.7837875473
C -0.8355207181 -0.3809164745 0.4792247372
C -1.1847182208 -1.8155806072 0.0191242210
N -0.0774766912 -2.7209497048 0.2311262683
C 0.2695106755 -3.3518675520 1.3778831382
N 1.4154831097 -3.9929589875 1.2223994618
C 1.7378094302 -3.7067431784 -0.0713371160
N 0.8705877023 -2.9354329058 -0.7144097773
O 0.1414107947 0.1117143131 -0.4124853460
C -2.0846339854 0.4997177004 0.4764463111
C -3.1311062586 0.3768714056 1.3972013600
Cl -3.1059957744 -0.8186327410 2.6832692394
C -4.2525633630 1.1983524714 1.3486442326
C -4.3337808614 2.1599987834 0.3510868895
Cl -5.7421166277 3.1952586128 0.2855947884
C -3.3242682236 2.3092862901 -0.5893411137
C -2.2176211241 1.4744951794 -0.5141869263
H 4.5756700690 1.8768792758 -1.8436836251
H 4.0289472655 0.4380083756 -2.7153528026
H 3.7179373811 2.0464681947 -3.3817999030
H 1.6344609318 1.1207694909 -2.3423511337
H 2.1729110417 2.5542259755 -1.4727776814
H 3.2734951579 1.0833368118 0.2426477852
H 2.7033655322 -0.3479340126 -0.6306388946
H 0.8786482082 1.7930092231 0.5719493726
H 1.4524615702 0.4780335577 2.5291479738
H 1.7307376313 -0.9919290278 1.5332910735
H -2.0481734213 -2.1812738856 0.5789247841
H -1.4241853455 -1.7930982353 -1.0467229726
H -0.3338347661 -3.3029665389 2.2744254928
H 2.6285167159 -4.0823173400 -0.5578979341
H -5.0450966194 1.0870705274 2.0776364754
H -3.4020445052 3.0610433639 -1.3653493463
H -1.4176784963 1.5747611970 -1.2385502105
