48
CONF6
C -1.4985199103 1.6239465941 -3.0348718306
Si -2.1901519563 0.9761922422 -1.4430631734
O -3.8447112144 0.9982214607 -1.4231241407
O -1.7844128289 -0.6004052596 -1.2764313028
Si -1.7390263365 -1.7310720841 -0.0673525219
C -1.5821299611 -3.3903584421 -0.8937416603
C -3.2587866011 -1.5864740453 0.9980039599
O -0.4434717546 -1.4166511405 0.8968924138
Si 1.1443537734 -1.6949243539 1.2345747555
C 1.3231143397 -1.8602321360 3.0784025808
C 1.7695365532 -3.2025057843 0.3334978543
O 2.0137714336 -0.3676286942 0.7752886830
Si 2.1477280710 0.6061959489 -0.5509340307
C 3.8208678337 1.4156563913 -0.4771455457
C 1.8909037731 -0.3737895298 -2.1151409754
O 0.9998161213 1.7872924723 -0.4997058691
Si -0.2185430366 2.4698301432 0.3711723063
C -0.0717355908 2.0831519618 2.1849524464
C -0.1998895742 4.2972855922 0.0222305250
O -1.6610199861 1.8530161713 -0.1607847220
H -1.7962958330 2.6668132722 -3.1886400416
H -1.8598117766 1.0360931505 -3.8848917830
H -0.4047226421 1.5799950151 -3.0237982430
H -4.2674964032 1.8629605114 -1.4744018937
H -0.7268137831 -3.4096467790 -1.5773126405
H -1.4495470203 -4.1887175999 -0.1560924035
H -2.4855576998 -3.6082646310 -1.4740597954
H -4.1697035232 -1.7323867263 0.4081243443
H -3.2426833759 -2.3374513723 1.7955005514
H -3.3090352563 -0.5963174655 1.4651061905
H 0.9452237599 -0.9680135505 3.5892902469
H 2.3743348806 -1.9929256492 3.3562425327
H 0.7623833632 -2.7268237512 3.4451766130
H 2.8320995587 -3.3545284613 0.5544908862
H 1.6594299553 -3.1015088844 -0.7507407138
H 1.2254757275 -4.0990779216 0.6499474506
H 4.6204207102 0.6687180077 -0.5272799795
H 3.9527368226 2.1131825395 -1.3112100677
H 3.9352851134 1.9764438558 0.4573271517
H 0.8944914328 -0.8302170795 -2.1304531166
H 1.9766811539 0.2776412054 -2.9919953260
H 2.6376264685 -1.1697087007 -2.2076501520
H 0.9029390978 2.3930681001 2.5772577648
H -0.1882885186 1.0091487107 2.3597089273
H -0.8498010464 2.6088895127 2.7496052033
H -1.0377347442 4.7988885380 0.5182008177
H 0.7300710320 4.7534072576 0.3790270031
H -0.2794003109 4.4835915781 -1.0547592931
