36
CONF72
C 3.1296657319 3.5313617975 -1.5315248264
C 2.4831667576 2.5051713017 -0.5915419753
C 1.4700943236 1.6531480797 -1.2916880791
C 1.5265413100 0.3242923886 -1.3998552781
C 0.5111687052 -0.5215498554 -2.1015295872
C -0.1661754724 -1.5515926146 -1.1832207750
C -1.0402941741 -1.0016783492 -0.0414206467
C -2.0753973858 -2.1193430579 0.2026140620
C -2.3914271642 -2.6488398664 -1.1960269060
C -1.1024763742 -2.4660557146 -1.9686364936
O -0.8503307114 -2.9513409518 -3.0557677926
C -0.2567749143 -0.6347008978 1.2129826833
C -1.1123746453 -0.0050150507 2.2808713469
O -2.1384996878 0.6170688514 2.0860610180
O -0.5749959160 -0.1799665191 3.5041122913
C -1.2838980089 0.4535998763 4.5989890780
H 3.8346359767 4.1695853772 -0.9897332859
H 2.3691065109 4.1755889564 -1.9854736628
H 3.6717381649 3.0291238780 -2.3392545139
H 1.9928404182 3.0438880462 0.2316536289
H 3.2535334547 1.8675789282 -0.1420398407
H 0.6302165498 2.1824935399 -1.7479487404
H 2.3620662642 -0.2091567542 -0.9405557650
H 0.9895595939 -1.0783453347 -2.9183233767
H -0.2609412292 0.1163889684 -2.5497065841
H 0.6053421412 -2.2156126690 -0.7568692860
H -1.5627535897 -0.1089075526 -0.4114590871
H -2.9572626746 -1.7584789382 0.7366595576
H -1.6134695869 -2.9115612849 0.8054412557
H -3.1426328959 -2.0175640464 -1.6932901484
H -2.7470294040 -3.6812551130 -1.2463692123
H 0.2561102659 -1.5109854367 1.6236379966
H 0.5210255096 0.1025588175 0.9723414283
H -1.3179029082 1.5355440101 4.4501699959
H -0.7127894671 0.2074148814 5.4931998792
H -2.2993851824 0.0571417266 4.6704252615
