42
CONF92
C -6.5177238693 2.8545170715 -0.0288432273
C -5.9377576801 2.4660967975 1.3269977854
C -4.6242921632 1.7115238734 1.2302300760
O -4.7245089060 0.5297131591 0.4318693721
C -3.9383978468 0.7226606224 -0.7477664309
C -2.8979537211 1.7403838025 -0.2993296107
O -3.6323371015 2.5458009732 0.6224701806
C -1.7033174518 1.1080614688 0.4029540797
O -0.9679307525 0.4091859324 -0.5994087064
C 0.1616719438 -0.2587717674 -0.2155123980
C 0.8331763818 -0.9439371455 -1.2338257780
C 1.9874513211 -1.6539972542 -0.9526734813
C 2.4838147940 -1.6748355441 0.3503158152
C 1.8253471587 -0.9988090234 1.3635741846
C 0.6557685192 -0.2898915375 1.0879125918
O 3.5944117782 -2.4376290924 0.6791864509
C 4.7870726904 -2.1753936367 0.0396968738
C 5.7296507125 -3.2019308991 0.0561477950
C 6.9734777323 -2.9965992597 -0.5262481419
C 7.2810927407 -1.7787886103 -1.1291688707
C 6.3313156573 -0.7623056908 -1.1363850921
C 5.0814244635 -0.9486870776 -0.5528385689
H -7.4480927553 3.4151615093 0.0966501211
H -6.7402631733 1.9638735454 -0.6233996988
H -5.8169061053 3.4811404963 -0.5872943900
H -6.6396293142 1.8293584628 1.8781807922
H -5.7594300766 3.3544430328 1.9451835179
H -4.2846057495 1.3973744997 2.2314556629
H -3.5040373411 -0.2373099229 -1.0395882919
H -4.5504051661 1.1213981351 -1.5689718812
H -2.5532940332 2.3826148788 -1.1165880743
H -2.0477692867 0.4137632026 1.1844833043
H -1.0895633484 1.8949834406 0.8627543791
H 0.4269139371 -0.9144883753 -2.2389371869
H 2.5102520627 -2.1930088391 -1.7358420552
H 2.2261265094 -1.0331594369 2.3707959732
H 0.1522062477 0.2298976841 1.8933707757
H 5.4719045040 -4.1438719994 0.5278744992
H 7.7057810790 -3.7976449278 -0.5132232290
H 8.2520469683 -1.6239711201 -1.5868023973
H 6.5618599108 0.1937617446 -1.5959438199
H 4.3454499360 -0.1526312791 -0.5535128048
