47
CONF95
C -0.1656666983 2.4646818898 3.5049067530
C 0.1002993414 2.9340151928 2.0925773046
C 1.1467490731 3.9905509443 1.8296800853
C 1.4532368706 2.5271669207 1.5015119003
C 1.5657238672 2.1369497409 0.0904547493
O 1.1681892603 2.7470619038 -0.8785663974
O 2.1909997942 0.9198513986 -0.0079704759
C 2.2350618630 0.3772785242 -1.3522784000
C 3.3225300840 -0.6014336977 -1.3418471512
N 4.1646443044 -1.3907918419 -1.3705225246
C 0.9188984012 -0.2626684741 -1.7342871773
C 0.3570942749 -1.2263876236 -0.8954639741
C -0.8624996903 -1.7963831630 -1.2233085568
C -1.5035819874 -1.3946215856 -2.3977923832
C -0.9507597114 -0.4545953318 -3.2452287298
C 0.2718278605 0.1192775591 -2.9057907637
F -2.6982848419 -1.9436210612 -2.6962475619
O -1.4588124776 -2.6791950299 -0.3544556920
C -1.7001094106 -3.9759656466 -0.7923798576
C -2.6472968439 -4.6945666990 -0.0684402544
C -2.9106922157 -6.0133126901 -0.4224490684
C -2.2396523012 -6.6074264207 -1.4909106959
C -1.2941151109 -5.8721716304 -2.2010053056
C -1.0125522678 -4.5514179197 -1.8564434511
C 1.9029492190 4.6350693621 2.9053392840
C 2.2683031349 5.9171639888 2.9256981708
Cl 1.9053735117 7.0590660618 1.6600833427
Cl 3.1680416631 6.6076071024 4.2526681732
C -1.1305447457 2.9450179753 1.2157471370
H 0.7442538377 2.3808855605 4.1022606527
H -0.6457853288 1.4810894888 3.4793896654
H -0.8468330861 3.1622887141 4.0045302100
H 0.9522274021 4.5986895509 0.9516663175
H 2.1089933706 1.9925111811 2.1801814460
H 2.4900517510 1.1678683505 -2.0671074609
H 0.8519533477 -1.5391824819 0.0188378026
H -1.4827542465 -0.1664913777 -4.1452793983
H 0.7107636851 0.8724355924 -3.5515252733
H -3.1644191860 -4.2163426100 0.7568212316
H -3.6497618818 -6.5765936441 0.1387010557
H -2.4512631874 -7.6353003792 -1.7658679787
H -0.7612270991 -6.3259089434 -3.0308039204
H -0.2674492794 -3.9861152998 -2.4064454019
H 2.2019666090 4.0355400736 3.7599343320
H -0.9255582419 3.3399675563 0.2199838206
H -1.8987543314 3.5684019968 1.6851665174
H -1.5317580698 1.9300570379 1.1159079944
