36
CONF103
C 3.9141543696 -3.3436601042 -0.4407433187
C 2.9300160970 -2.6974266701 -1.3827423514
O 1.8900257537 -2.0738852592 -0.5556925247
C 0.9320139194 -1.4180437175 -1.2104181600
O 0.8401168348 -1.3352345697 -2.4173544195
C -0.0064733851 -0.7533626084 -0.2085089197
S -1.5584997784 -0.3289846559 -1.1391940157
P -2.7775093552 0.2504918523 0.4946216184
S -2.7623662309 -0.9294620188 2.0418353861
O -4.1759534270 0.4740282613 -0.2705529617
C -5.0069974005 -0.6588543470 -0.6511004459
O -2.3988766313 1.7493988240 0.9147777754
C -2.3900238551 2.8353960413 -0.0584899194
C 0.6634016922 0.4491145799 0.4148200914
C 1.0478661042 1.5398328481 -0.3696512038
C 1.6690136848 2.6364126269 0.2167703073
C 1.9110055777 2.6527266935 1.5904035756
C 1.5361681203 1.5638711302 2.3727327947
C 0.9160930499 0.4624807276 1.7869361327
H 4.3703215590 -2.6005424437 0.2190536213
H 3.4281514300 -4.1112978419 0.1675470271
H 4.7066711577 -3.8179308043 -1.0266711483
H 2.4465401040 -3.4240273024 -2.0419758986
H 3.3903875462 -1.9144344484 -1.9923633044
H -0.2657813897 -1.4793272351 0.5679062603
H -4.4965531745 -1.2651245335 -1.4040040870
H -5.9154284749 -0.2261318025 -1.0690186576
H -5.2420743491 -1.2608635786 0.2301132076
H -1.9312119949 3.6802734158 0.4544760405
H -3.4138255106 3.0746035395 -0.3536695286
H -1.7919728037 2.5565089808 -0.9302692375
H 0.8483582589 1.5344510977 -1.4376649499
H 1.9618619397 3.4818065237 -0.3978854747
H 2.3901120121 3.5126015423 2.0478125330
H 1.7220712864 1.5705096410 3.4421719410
H 0.6191980574 -0.3859141995 2.3959919288
