36
CONF43
C 2.8140190703 2.4305136031 0.3155543816
C 2.6566303016 2.1805212805 -1.1912160412
C 1.2676633575 1.7431766139 -1.5403458737
C 0.9419357811 0.5616450857 -2.0683753380
C -0.4555454857 0.1214975831 -2.3701216907
C -0.8996484404 -1.0982287599 -1.5422236780
C -0.9494594346 -0.9024905202 -0.0163853902
C -2.0896076780 -1.8299310433 0.4517989316
C -3.1322055898 -1.7307491227 -0.6614049011
C -2.3171548528 -1.5228597430 -1.9198273807
O -2.7225454948 -1.6490803289 -3.0601038987
C 0.3822813512 -1.1999147816 0.6869768957
C 0.2770526597 -0.9961389995 2.1741618613
O 0.2859688135 -1.8773091721 3.0125071621
O 0.1462528094 0.3107364442 2.4765934918
C -0.0053076152 0.6222474742 3.8840822268
H 2.6441794713 1.5081216594 0.8805043860
H 2.0912618354 3.1761889358 0.6637833454
H 3.8187385021 2.7962920404 0.5493212218
H 3.3768227183 1.4237115853 -1.5235345103
H 2.8941593227 3.1089952616 -1.7283448219
H 0.4687282559 2.4507370544 -1.3060074331
H 1.7338935491 -0.1579523871 -2.2884205899
H -0.5469289897 -0.1486882961 -3.4301330737
H -1.1526967140 0.9473737732 -2.1802607751
H -0.2500035905 -1.9563940013 -1.7803214394
H -1.2327618964 0.1403488362 0.1825557622
H -2.4796149635 -1.5482263869 1.4338230933
H -1.7135677816 -2.8584225483 0.5204460166
H -3.7443075962 -0.8245712525 -0.5393656174
H -3.8141626974 -2.5794498720 -0.7550043914
H 0.6728966771 -2.2385659134 0.5064603442
H 1.1606662734 -0.5378906298 0.2954286741
H -0.1060335781 1.7058083609 3.9309581036
H 0.8763552063 0.2937389769 4.4395260184
H -0.8979532713 0.1352085757 4.2838385267
