39
CONF22
C 4.2445532680 0.9752978832 -2.3442108212
C 3.1670820456 1.2900533529 -1.3093228089
C 1.9444781173 0.3827449374 -1.4596983412
C 0.8517103752 0.7271452504 -0.4708278675
C 1.1830824842 0.4768740948 0.9921522431
O -0.1045622613 0.2435722371 1.5760733362
C -0.9582341753 -0.2742676603 0.5642344794
C -1.2410708091 -1.7668636130 0.8492857256
N -0.0187197272 -2.5402536166 0.8588909769
C 0.6914001648 -2.9997479255 -0.1985171041
N 1.8242044827 -3.5466219710 0.2098302422
C 1.7581083384 -3.3822316801 1.5619860263
N 0.6650898001 -2.7755417226 2.0060338688
O -0.2636574280 -0.1677683403 -0.6661599111
C -2.2625439800 0.5232155052 0.5600549126
C -3.2223473665 0.4304785467 -0.4544550067
Cl -3.0166482188 -0.6216541356 -1.8464988534
C -4.3990678578 1.1726151424 -0.4244809801
C -4.6291840901 2.0167091791 0.6524792474
Cl -6.1062342388 2.9526576686 0.6948887844
C -3.7125572581 2.1280894055 1.6885782560
C -2.5450439085 1.3800755323 1.6270687955
H 4.5828492382 -0.0618711966 -2.2518915520
H 3.8617774138 1.1117103232 -3.3610233229
H 5.1155287338 1.6256098106 -2.2228562394
H 2.8581450835 2.3395533717 -1.4027996466
H 3.5874370430 1.1783371787 -0.3012116994
H 2.2327180287 -0.6659467233 -1.3116334252
H 1.5402718178 0.4683703918 -2.4754881381
H 0.5082864566 1.7651988968 -0.6111692650
H 1.6292427896 1.3359220157 1.4995132561
H 1.8290755322 -0.4059735076 1.1112161376
H -1.7116449688 -1.8534169665 1.8310725131
H -1.9132641553 -2.1666184190 0.0865167914
H 0.3425244459 -2.9081252472 -1.2179717133
H 2.5271310608 -3.7272457166 2.2406391868
H -5.1189957673 1.0896221891 -1.2285707464
H -3.9058686899 2.7879231968 2.5256159861
H -1.8150516028 1.4623731203 2.4226565551
