30
CONF29
C 3.7059509684 1.1127979631 0.4701925456
C 2.7170014959 0.3432792809 -0.4032357066
C 1.9459698205 -0.7149458338 0.3849045866
C 1.0208243049 -1.5859167817 -0.4711850452
C -0.0553664394 -0.8181881386 -1.2498469497
C -0.9773135430 0.0347911789 -0.3835009740
C -1.7616144347 -0.7545672436 0.6820141026
C -3.0318058398 0.0858714357 0.9839384657
C -3.0325620763 1.2345171246 -0.0549062279
C -2.0902697782 0.7487548978 -1.1601864349
H 4.4470269055 0.4378214546 0.9119360889
H 4.2443357796 1.8729321299 -0.1040402189
H 3.1885028366 1.6189279733 1.2926261101
H 3.2517505944 -0.1417661779 -1.2312280490
H 2.0146796234 1.0491717965 -0.8635784816
H 2.6650075466 -1.3674154455 0.8983551726
H 1.3686729206 -0.2231047368 1.1797214051
H 0.5347795171 -2.3278823055 0.1751423372
H 1.6306902652 -2.1555743531 -1.1850660214
H -0.6714234592 -1.5419894674 -1.8018519928
H 0.4175622156 -0.1815288321 -2.0089194124
H -0.3818995168 0.8096341461 0.1227171765
H -1.1665354093 -0.9521032957 1.5787206488
H -2.0411527459 -1.7301391932 0.2638844455
H -3.0308353544 0.4743549078 2.0064083037
H -3.9312559191 -0.5289581294 0.8826568308
H -2.6236639126 2.1476776841 0.3931857610
H -4.0361734702 1.4744608046 -0.4183742755
H -2.6034667116 0.0223638647 -1.8062749634
H -1.7174168561 1.5567232652 -1.7985509397
