45
CONF229
C -6.5724178166 -1.9129197846 0.0348980055
O -5.8173100457 -0.6864401993 -0.0281242334
N -4.4714346997 -0.9789418760 -0.0604771699
C -3.7229199862 0.0796043592 -0.1126717343
C -4.1526784589 1.4524966705 -0.1266477233
C -5.3642371465 2.0917484333 -0.2656304341
C -5.1102565045 3.4823651712 -0.1387751353
C -3.7712541842 3.6117945415 0.0810356407
O -3.1703010571 2.3965393499 0.0915019579
C -2.2505608307 -0.2318364385 -0.2302938264
O -1.5134026646 0.3862126840 -0.9932863168
N -1.8139060224 -1.2554693443 0.5452482642
C -0.4756100283 -1.7465287610 0.4442515024
C 0.7254583466 -0.8280800582 0.8269249369
N 1.2558570767 -1.0364635167 -0.5186088088
C 0.2011362351 -1.8353394747 -0.9489880091
O -0.0172454381 -2.4205074264 -1.9798972270
C 2.5786232765 -0.8764038437 -0.9241695419
C 3.5603527267 -0.6338712418 -0.0253060247
C 3.3121081829 -0.5398903863 1.4569760422
S 1.8753349976 -1.5050663285 2.0787679527
C 4.9879814870 -0.3908935167 -0.4166469369
O 5.4565849394 0.8208690882 0.2332017328
C 6.3580214235 0.6763194207 1.2502119589
O 6.7835520622 -0.3970102843 1.6488996860
N 6.6770173035 1.8847504152 1.7647787347
C 2.8218718158 -0.9390436985 -2.3943373542
O 3.7896596897 -1.4604402666 -2.9088933811
O 1.8474119217 -0.3175972886 -3.0796612253
H -7.6178558526 -1.6022190131 0.0600460570
H -6.3794998907 -2.5233280865 -0.8522426939
H -6.3203951401 -2.4692366012 0.9427627871
H -6.3150121525 1.6196026801 -0.4453180514
H -5.8302528650 4.2845312835 -0.2007388185
H -3.1221138361 4.4588244741 0.2428119875
H -2.4744341826 -1.7441634814 1.1311451563
H -0.4130152736 -2.7174432810 0.9450030703
H 0.4770950531 0.2167531861 1.0339582473
H 4.1846023491 -0.9317645831 1.9910563916
H 3.1952882804 0.5084987935 1.7568708511
H 5.6154955046 -1.2302736384 -0.0977050995
H 5.1135139049 -0.2313274465 -1.4856608948
H 7.4413608831 1.9284780309 2.4180151194
H 6.4034609365 2.7271342112 1.2852411223
H 2.0343250080 -0.4150545505 -4.0295267758
