53
CONF77
C -2.4610633317 4.7237285630 -0.4897739649
C -0.9930226950 4.3872137437 -0.3849061431
O -0.8810651081 2.9821194575 -0.0216557805
C 0.3870599884 2.5169329873 0.0971315066
O 1.3636357844 3.2338058423 -0.1018345458
C 0.4281400076 1.1130207434 0.4822900691
C 1.6306867672 0.4689935444 0.5309533734
N 1.7010243440 -0.8134526021 0.9995263519
C 0.6562600202 -1.4578811236 1.6169692275
C -0.5853036907 -0.8880834459 1.6023833828
C -0.8668763696 0.3618986487 0.7696654803
C -1.5745219955 -0.0129250223 -0.5337782079
C -0.8887826106 -0.8198205206 -1.4516840334
C -1.4500527253 -1.2155268070 -2.6575842776
C -2.7403481972 -0.8040381697 -2.9838419458
C -3.4510466230 -0.0034361740 -2.0990125036
C -2.8666128053 0.3802000696 -0.8926738485
Cl -3.8518979674 1.3971254898 0.1600118442
C -1.6821908493 -1.5169118684 2.3299591514
O -1.6359165051 -2.5443638523 2.9958671767
O -2.8324593761 -0.8084490179 2.1888411910
C -3.9859528091 -1.3494801141 2.8619893052
C 1.0409712005 -2.7456582143 2.2803863417
C 2.9786846844 1.0598999450 0.1407139396
O 3.9960256363 0.0708552680 0.1050154074
C 4.0448545731 -0.6585887116 -1.1334212273
C 4.7377078307 -1.9783665016 -0.8665852719
N 3.9093443841 -2.8162098455 0.0193927628
H -2.9487429505 4.1175509813 -1.2578168199
H -2.5640928158 5.7785766307 -0.7617633340
H -2.9730287776 4.5596690190 0.4622631573
H -0.4916129742 4.9859052863 0.3826935745
H -0.4725110239 4.5439014242 -1.3351272994
H 2.6045020433 -1.2902744510 0.9471817644
H -1.5314338823 1.0170862284 1.3331609367
H 0.1181311326 -1.1417166214 -1.2014589013
H -0.8843261025 -1.8413339760 -3.3401509026
H -3.1971077911 -1.1016237136 -3.9221477673
H -4.4562708127 0.3260342542 -2.3373275837
H -4.8016596060 -0.6642490420 2.6313877741
H -4.2117335853 -2.3520310271 2.4887663567
H -3.8159505291 -1.3928705814 3.9412080404
H 0.9093779211 -2.6725137269 3.3629672082
H 0.4020885130 -3.5638669862 1.9426468127
H 2.0844261470 -2.9840795384 2.0631028981
H 2.8964318100 1.5846072920 -0.8171188510
H 3.2744563242 1.7993510438 0.8915965921
H 3.0260664888 -0.8356600453 -1.5134925204
H 4.5934783059 -0.0726478122 -1.8848182608
H 4.9671885829 -2.4512083933 -1.8342938065
H 5.6922680279 -1.7769523378 -0.3672217654
H 4.4694240769 -3.5639202807 0.4137552717
H 3.1833498094 -3.2703343242 -0.5271492363
