26
CONF5
C 3.6269048959 -0.0953024920 0.1666498101
C 2.1265836091 -0.1082505948 0.1441415888
C 1.4017812559 -0.9234037440 0.9199285276
C -0.1005204087 -0.9340064980 0.9686279625
C -0.7093011997 0.3196888200 0.3147372076
C -0.0092668756 0.5685106257 -1.0286708945
C 1.4738114800 0.8623782417 -0.8071113594
C -2.2124381169 0.2161588266 0.1960511863
C -3.0147540857 0.9224636197 0.9999228639
C -2.7657965167 -0.7055809855 -0.8551936688
H 4.0338501072 -0.3587649132 -0.8179757410
H 4.0003650272 0.9107071091 0.3985472185
H 4.0274042866 -0.7927638407 0.9075031504
H 1.9176790897 -1.6220415445 1.5786560435
H -0.4819517720 -1.8404011366 0.4754374551
H -0.4350183211 -0.9988896170 2.0120734286
H -0.4832854978 1.1719573365 0.9706390825
H -0.1119412721 -0.3228829997 -1.6610422631
H -0.4862336269 1.4004293544 -1.5598943153
H 2.0102859702 0.8392091248 -1.7653078835
H 1.6063891317 1.8842248298 -0.4198140919
H -2.6079958527 1.5994993882 1.7469840465
H -4.0967352859 0.8416170007 0.9342932884
H -2.3308633826 -1.7087755737 -0.7817057136
H -2.5270162429 -0.3350027013 -1.8591958272
H -3.8519362004 -0.7907774352 -0.7716004163
