51
CONF26
C 0.7460213026 -1.0958145605 -2.5476483673
C 1.2900691645 -0.7833019675 -1.1931809891
C 1.2422130798 -1.6247060122 -0.0921774725
N 1.9106421671 -1.0252911444 0.9298103590
N 2.4078548045 0.1682310213 0.5595343503
C 2.0305709715 0.3301986405 -0.7247804104
C 2.4182471810 1.5420639147 -1.4503663613
C 3.5948457928 2.2311555954 -1.1160656820
C 3.9512797488 3.3938215157 -1.7892365891
C 3.1477074235 3.8883803985 -2.8166320862
C 1.9788918215 3.2118946333 -3.1580310665
C 1.6153177961 2.0516733784 -2.4811213695
C 2.0498721262 -1.4970372989 2.2957836376
O 0.7360211871 -2.8728413489 0.0324541082
C -0.7312037754 -2.9362698484 0.0120271835
C -1.2930885675 -2.4613144434 1.3210732874
C -1.2641445086 -3.3233664839 2.4203162050
C -1.6880507076 -2.9057901936 3.6760972275
C -2.1694549279 -1.6091728858 3.8479987724
C -2.2335069504 -0.7437396049 2.7631775164
C -1.7867620756 -1.1620177639 1.5085734506
N -1.8708081207 -0.2730952664 0.4001237044
C -1.3931850662 1.0143151176 0.4284776588
O -0.6954124185 1.4452806933 1.3326247849
O -1.7608112130 1.7100788751 -0.6632312388
C -1.3077580778 3.0868045164 -0.6719108340
O -2.7337041886 -0.6589103920 -0.6388706552
C -4.1093551807 -0.3786770367 -0.2863109153
H 1.4032943313 -0.7141555839 -3.3345025713
H -0.2482270745 -0.6609690349 -2.7087812337
H 0.6563985897 -2.1790344545 -2.6758432326
H 4.2305566896 1.8420147836 -0.3277734923
H 4.8660707805 3.9122637752 -1.5178326891
H 3.4305820954 4.7936220191 -3.3446700363
H 1.3399024867 3.5940470342 -3.9484400798
H 0.6851815598 1.5552463804 -2.7348290146
H 1.4050338082 -0.9191486664 2.9667278961
H 3.0906168846 -1.3948002787 2.6122993042
H 1.7564721129 -2.5467794348 2.3320356831
H -1.1013539333 -2.3631015018 -0.8386244071
H -0.9513355572 -3.9946846115 -0.1384597894
H -0.8874077000 -4.3331221435 2.2821111542
H -1.6507369122 -3.5905651608 4.5170524995
H -2.5139914102 -1.2771240579 4.8220130511
H -2.6255600271 0.2607330753 2.8786450297
H -0.2196199832 3.1312274444 -0.5916303091
H -1.7689912598 3.6385011048 0.1509097137
H -1.6348526272 3.4854019215 -1.6316689540
H -4.2528335127 0.6960484357 -0.1332116629
H -4.3994628774 -0.9381141927 0.6099249761
H -4.6920452843 -0.7200589966 -1.1439602508
