55
CONF141
C -5.5802354639 -3.7259817302 -0.7211289960
C -4.3970340686 -2.9022151512 -1.1674882844
O -4.1532478039 -1.9085189217 -0.1279242423
C -3.1092465790 -1.0801855135 -0.3528622071
O -2.3957774842 -1.1181366045 -1.3421577443
N -2.9925320546 -0.2071890738 0.6963776862
C -1.9905454953 0.7482501206 0.9010987341
C -0.7927869469 0.7600231500 0.1819832302
C 0.1930918049 1.6839587884 0.5110288289
C -0.0367238612 2.6713379117 1.4706781972
C -1.2457888369 2.6755346376 2.1654442711
C -2.2028689421 1.7082828400 1.9017520141
S 1.2148443551 3.8979973685 1.7751663804
C 1.8506504963 4.0317843294 0.1152208248
C 2.3015546507 5.2583731780 -0.3725620202
C 2.8028944748 5.3385320264 -1.6674555804
C 2.8220034150 4.2097736578 -2.4858018011
C 2.3588373376 2.9889733639 -2.0062616801
C 1.8981344674 2.8936606705 -0.6961144330
N 1.4602520068 1.6504243280 -0.1431651305
C 2.3522918228 0.5881043425 -0.0470701174
O 3.4431190905 0.6265479617 -0.6082661746
C 1.9490435582 -0.6088540180 0.7849817011
C 1.6677696214 -1.8261935883 -0.1093126610
N 1.2349883100 -2.9845018981 0.6769289102
C 1.3622368854 -4.2167113826 -0.1154674419
C 0.9170875159 -5.4129852572 0.7084376018
O -0.4432687032 -5.2735106775 1.1365477832
C -0.5872991647 -4.0725858211 1.9037147390
C -0.1678249964 -2.8542477052 1.1006918405
H -5.7929349755 -4.4844993643 -1.4798815770
H -6.4691898807 -3.1008422242 -0.5992914606
H -5.3695759771 -4.2333605548 0.2244718055
H -4.5931493363 -2.3805329568 -2.1093225158
H -3.4946672903 -3.5110328691 -1.2825897156
H 0.9210533351 -1.5685973502 -0.8847240994
H -1.4393495188 3.4355105704 2.9154875681
H -3.1353981222 1.7088689387 2.4577134955
H 2.2548215093 6.1408366491 0.2575596993
H 3.1592284427 6.2917595755 -2.0440643894
H 3.1939578328 4.2799039339 -3.5025293346
H 2.3656782042 2.1048117639 -2.6328636633
H 2.8098099145 -0.8370678135 1.4215195821
H 1.0979776632 -0.3883985437 1.4290736878
H 2.5936148428 -2.0906839260 -0.6317490815
H 0.7549105526 -4.1650998282 -1.0408714159
H 2.4112019276 -4.3517525636 -0.4053576113
H 0.9659462200 -6.3269054227 0.1096099507
H 1.5710793275 -5.5240520124 1.5886171057
H -1.6440219362 -3.9992720166 2.1769924312
H 0.0178968983 -4.1447773046 2.8219290927
H -0.2943786205 -1.9625037092 1.7253637114
H -0.8342432821 -2.7513712713 0.2216234874
H -0.6088377034 0.0387788098 -0.6007773418
H -3.7204270579 -0.2555824325 1.3956143751
