45
CONF12
C 3.0918796659 4.7139312083 -0.0490738607
C 3.4208503514 3.2848553679 0.3796182188
C 2.5369101861 2.2485455040 -0.3131227494
C 2.8616918848 0.8140291084 0.1109705481
C 2.0154330200 -0.2784196359 -0.5614855292
C 0.6813896788 -0.6044265400 0.1408130308
C 0.0113131195 -1.8211246537 -0.5202139817
C -1.2639870664 -2.2842214325 0.1814627965
C -1.8747569721 -3.5265138224 -0.4645039792
C -3.1526614295 -4.0009655393 0.2272601615
C -3.7491351955 -5.2458514943 -0.4273330438
C -0.2436995705 0.5908108161 0.1976647915
C -0.8111726304 1.1185140405 -0.9682952263
C -1.6232677690 2.2469863763 -0.9204484638
C -1.8874936111 2.8717876609 0.2986936904
C -1.3404173911 2.3487817745 1.4675127994
C -0.5301909616 1.2154080246 1.4137220437
H 3.2328100345 4.8391732378 -1.1285437742
H 3.7280526198 5.4447659989 0.4604731895
H 2.0480852534 4.9572750260 0.1805763800
H 4.4757839698 3.0664598698 0.1652408880
H 3.2999971545 3.1895624592 1.4672951323
H 1.4864927789 2.4775136042 -0.1012598022
H 2.6593638833 2.3358031615 -1.4024527397
H 3.9202243599 0.6273391875 -0.1132672278
H 2.7624429041 0.7253803346 1.2026860790
H 2.5941204177 -1.2102050961 -0.5928751035
H 1.8164462139 -0.0025868336 -1.6065679503
H 0.9197782647 -0.8800702345 1.1780868228
H -0.2107987877 -1.5892175429 -1.5709210409
H 0.7363560277 -2.6460125571 -0.5323074143
H -1.0407327318 -2.4928758180 1.2376735160
H -2.0029667646 -1.4715727746 0.1756500253
H -1.1365406621 -4.3411257445 -0.4581031517
H -2.0924990097 -3.3153206031 -1.5212418273
H -3.8910059348 -3.1881228777 0.2169417141
H -2.9345079039 -4.2074556506 1.2835549553
H -3.0371538822 -6.0784228220 -0.4017992746
H -3.9982004029 -5.0526806197 -1.4768178418
H -4.6629876828 -5.5689222848 0.0814626110
H -0.6046242970 0.6511039366 -1.9272990535
H -2.0492207479 2.6444467489 -1.8372235694
H -2.5173800909 3.7553158251 0.3355991671
H -1.5432906140 2.8232679381 2.4232511008
H -0.1007286946 0.8150584420 2.3288217416
