34
CONF89
C -4.4407520779 -1.9532824028 1.3741974753
C -4.0470650502 -0.7625123309 0.5379134062
O -2.5800593449 -0.7857229806 0.4145212721
P -1.8368155695 0.3259905363 -0.4452291571
S -2.2385160576 0.5045343924 -2.3293771275
O -1.9850517683 1.6165465152 0.4791327629
C -1.6363373300 2.9624160029 0.0022321302
C -0.1388923708 3.1573189951 -0.0592477442
O -0.2669817665 -0.1848856312 -0.3004167309
N 0.1817701739 -0.2400797689 1.0294047376
C 1.4434654609 -0.5229588085 1.0919975586
C 1.9065320463 -0.5320589993 2.4526729411
N 2.3120738564 -0.5526637958 3.5356338099
C 2.4333910647 -0.7975129436 0.0368846362
C 3.7535089465 -0.3667549799 0.2371787951
C 4.7192187343 -0.6033088282 -0.7316468164
C 4.3854052340 -1.2952985253 -1.8935450104
C 3.0813390730 -1.7485058776 -2.0841531533
C 2.1020344022 -1.4993120437 -1.1316959250
H -5.5291528401 -1.9640090764 1.4846901746
H -4.1312096746 -2.8849427473 0.8932598839
H -3.9912550282 -1.8963487901 2.3690920396
H -4.4730601973 -0.8111441333 -0.4694438184
H -4.3342433877 0.1817641936 1.0111647817
H -2.1011549079 3.6227360693 0.7366030852
H -2.1119812812 3.1142939731 -0.9717860978
H 0.3174975620 2.5180254808 -0.8210842714
H 0.3215858146 2.9430361895 0.9093722983
H 0.0697323537 4.1995292088 -0.3204270805
H 4.0188131773 0.1666114717 1.1448838477
H 5.7341137644 -0.2532870750 -0.5754201138
H 5.1423685158 -1.4884622704 -2.6468632551
H 2.8233094258 -2.3022005077 -2.9808536530
H 1.0963688672 -1.8675498139 -1.2837340746
