55
CONF346
C -9.1921446271 -0.5341135831 -0.6678519868
C -7.7409923675 -0.9251932194 -0.8098716706
O -6.9484769314 0.1798161909 -0.2836465417
C -5.6075204953 0.0070552457 -0.3334680947
O -5.0548577081 -0.9867112780 -0.7753883525
N -4.9934236325 1.1158318116 0.1848691300
C -3.6211778253 1.3662108554 0.3022899172
C -2.6353537195 0.4301636073 -0.0226412111
C -1.2980051420 0.7664889003 0.1511555887
C -0.9185101726 2.0344314219 0.5911432055
C -1.9051677188 2.9698530681 0.9027977819
C -3.2426059360 2.6327412699 0.7762672301
S 0.8120294077 2.4327235872 0.7376635085
C 1.4016297264 1.5039940944 -0.6617127253
C 2.4646981218 1.9709040158 -1.4333701008
C 2.8957004380 1.2283612100 -2.5280829051
C 2.2372997465 0.0521293151 -2.8834844271
C 1.1659780931 -0.4058351166 -2.1234313741
C 0.7798638751 0.2905022171 -0.9807925014
N -0.2677454630 -0.1840303110 -0.1321244387
C -0.1681448997 -1.3245099768 0.6587193226
O -1.0514011622 -1.6125117721 1.4595705993
C 1.0923496415 -2.1520358590 0.5381440407
C 2.2451444730 -1.4807952715 1.3036179250
N 3.5345118592 -2.1116894350 1.0143901381
C 4.6280532366 -1.2865000284 1.5474409854
C 5.9664428704 -1.9330281684 1.2355545835
O 6.0512094438 -3.2456632231 1.8031943961
C 4.9896520773 -4.0609937949 1.2936090142
C 3.6296271731 -3.4565031732 1.5994844239
H -9.8187447073 -1.3426179763 -1.0550902701
H -9.4102833129 0.3741445071 -1.2364496076
H -9.4521328449 -0.3681190139 0.3812859173
H -7.4619546988 -1.0867716712 -1.8557023915
H -7.5030190935 -1.8277476114 -0.2385217789
H 2.3224186273 -0.4315049229 0.9970611484
H -1.6279893630 3.9628957034 1.2410739082
H -4.0058646562 3.3635052328 1.0259260186
H 2.9447764364 2.9106546636 -1.1798419807
H 3.7291285170 1.5882400105 -3.1222951538
H 2.5501948847 -0.5051420270 -3.7599520731
H 0.6354830195 -1.3109574435 -2.4003221197
H 0.8535764874 -3.1268191998 0.9668483667
H 1.3948940342 -2.2947708064 -0.5005616762
H 2.0164219073 -1.4877145052 2.3867269251
H 4.5890831728 -0.2948670061 1.0794307968
H 4.5354938024 -1.1516812769 2.6432053272
H 6.1080656183 -1.9929185980 0.1441586677
H 6.7825472020 -1.3488681923 1.6701605685
H 5.1080272200 -4.1825318156 0.2045468249
H 5.0864391116 -5.0388647203 1.7736674402
H 3.4782388431 -3.4241100367 2.6966599183
H 2.8580584443 -4.1046167480 1.1698272750
H -2.8962050090 -0.5524328029 -0.3847552215
H -5.6106936072 1.8564030669 0.4874357190
