46
CONF17
C 5.6444121870 0.4326375853 0.9496071568
C 4.1420987335 0.6827966843 0.8954370110
C 3.3725041997 -0.1483913556 1.9772221032
N 2.0174917249 -0.3015588719 1.4632064412
C 1.9155150189 -0.6196685663 0.0279596066
S 3.4812564308 -0.0095394221 -0.7258591675
C 0.6178052063 0.2624579914 -0.0237485496
C 0.9268335835 0.5501082230 1.4515529987
O 0.4419774331 1.2401467336 2.3304652788
N -0.6418295497 -0.3383899860 -0.3224861208
C -1.4153272035 0.1263840934 -1.3667057503
O -0.9840663223 0.8939531659 -2.2073851237
C -2.8193466690 -0.4015408259 -1.3784439991
C -3.7002969420 -0.1231000552 -0.3232471093
C -5.0387318264 -0.5177989178 -0.3867371764
C -5.4798835616 -1.2015100203 -1.5127165724
C -4.6292503418 -1.5052097606 -2.5682469583
C -3.2931122574 -1.1005874474 -2.4993342478
O -2.3683464983 -1.3651118690 -3.4538031581
C -2.8015500257 -2.0255459195 -4.6400023093
O -3.1567253331 0.5560030126 0.7269516335
C -4.0169443538 0.9430595055 1.7975575450
C 3.5518857932 0.4446550799 3.3847030501
O 4.6269409619 0.3177434855 3.9207953355
O 2.5526009572 1.0994064630 3.9726824710
C 3.8271168307 2.1735427827 1.0048038315
H 6.1451320434 0.9561649577 0.1299750772
H 6.0425069079 0.8058379363 1.8971636736
H 5.8717516148 -0.6333464101 0.8708178164
H 3.8264666288 -1.1446701472 2.0229619368
H 1.7655654721 -1.6792277134 -0.1983802009
H -5.7289858568 -0.2963106781 0.4161221915
H -6.5187512784 -1.5107959991 -1.5674998425
H -5.0065355421 -2.0487521762 -3.4239420606
H -3.1827388639 -3.0311079888 -4.4205067886
H -1.9165721326 -2.1018890601 -5.2723300731
H -3.5718496807 -1.4421775709 -5.1593610140
H -4.4500372406 0.0675622890 2.2972910978
H -4.8190193440 1.6003816937 1.4404894989
H -3.3823526515 1.4862477993 2.4984172993
H 4.2781689572 2.7119219012 0.1679134530
H 4.2373868205 2.5788744956 1.9375320106
H 2.7517704806 2.3719963303 0.9831797548
H 1.7235557642 1.1640757769 3.4300719231
H 0.7552745604 1.1446398888 -0.6586510179
H -1.1182623396 -0.8417620057 0.4105484969
