43
CONF146
C 5.0613357842 -2.3569224267 0.3649882038
O 3.9020417356 -2.0650071649 -0.4274202834
C 3.3369284018 -0.8290294562 -0.3086194278
C 2.2064941143 -0.6177427334 -1.0999381144
C 1.6012614310 0.6251591902 -0.9909606449
C 2.0885835787 1.6512762430 -0.1424455826
C 3.2219516966 1.4171772819 0.6344893062
C 3.8389420742 0.1758049070 0.5484380988
N 1.2853989427 2.7818061907 -0.2466293905
C 0.3517233758 2.4291044887 -1.0956974397
N 0.4823587562 1.1605284664 -1.5914830184
S -0.9766654956 3.5108964482 -1.6590167679
O -1.4299311043 2.9143664127 -2.9871633610
C -2.2612864781 3.0463073905 -0.3392616494
C -2.6097746711 1.5984060935 -0.3520159673
N -3.4957388103 1.2418171163 -1.2981387681
C -3.8163697160 -0.0482623289 -1.4150644540
C -3.2803686625 -1.0629587661 -0.6260839450
C -3.6699743956 -2.4981395952 -0.8038157456
C -2.3738228434 -0.6685444139 0.3624637259
O -1.8737684291 -1.6372130419 1.1990359967
C -0.5094391595 -2.0123533251 0.9062115414
C -2.0286091796 0.6772020383 0.5419324462
C -1.1352713052 1.0791472094 1.6806791919
H 5.3341748874 -3.3827931054 0.1163597599
H 5.8904215803 -1.6852925940 0.1142140654
H 4.8354609258 -2.2858587726 1.4351644377
H 1.8296706688 -1.4013097982 -1.7474039701
H 3.6133989082 2.1837079253 1.2951499938
H 4.7168922806 -0.0134303604 1.1525900165
H -0.1265987868 0.7256182892 -2.2706573358
H -1.8217867575 3.4113576017 0.5915573724
H -3.1153903973 3.6687210640 -0.6201061227
H -4.5440341248 -0.3003420183 -2.1863521971
H -2.7901735875 -3.1279037837 -0.9688457580
H -4.3448665630 -2.6087014541 -1.6555922995
H -4.1726207380 -2.8801098625 0.0910002805
H -0.2504631942 -2.8006402239 1.6146479221
H -0.4337059756 -2.3916937618 -0.1195631655
H 0.1718265186 -1.1638061376 1.0304358366
H -0.0892855092 1.1789537513 1.3723831748
H -1.4431143309 2.0361706332 2.1073372431
H -1.1758067527 0.3245269867 2.4689240873
