46
CONF52
C -0.4181394285 3.5962107292 0.0591389613
C -1.4006245970 2.9844381944 -0.9373013113
C -1.5385317240 1.4738668245 -0.7460761312
C -2.5069273787 0.8720260286 -1.7461099820
O -2.5646652564 -0.5802194325 -1.5757444498
C -3.3958747762 -1.0484184461 -0.6427610067
O -4.1925811147 -0.3861794792 -0.0090285393
C -3.2871988400 -2.5655580574 -0.4853927077
C -4.2703389674 -3.2512174273 -1.4218308050
O -1.9846483435 -3.0608056515 -0.8134598239
C -0.9225945071 -2.6155317057 -0.0740119400
C -1.0344057832 -1.8495659079 1.0887925296
C 0.1196224023 -1.4362903140 1.7527067720
C 1.3588839700 -1.7970684336 1.2547628667
C 1.4841808523 -2.5705441895 0.1073151136
C 0.3383689820 -2.9787134864 -0.5587511613
O 2.5132873980 -1.4209698631 1.9579076400
C 3.1346086174 -0.2742061053 1.5831723425
C 4.3027458255 0.0543643321 2.2864684907
C 5.0311803301 1.1860685620 2.0122451979
C 4.5825144900 2.0382377635 0.9888705626
C 3.4185041735 1.7306682912 0.2738458797
C 2.6996001111 0.5825003974 0.5713665086
C 5.3154924699 3.2144261543 0.6828997315
N 5.9121486742 4.1762256611 0.4311748396
F 4.7129022242 -0.7800350630 3.2626119372
H -0.3218874111 4.6761417522 -0.0886586256
H -0.7491974298 3.4231399462 1.0889942828
H 0.5759771230 3.1494924542 -0.0519965099
H -2.3850511588 3.4564495261 -0.8252988297
H -1.0672833237 3.1919489424 -1.9622450033
H -0.5589577529 0.9926722227 -0.8633739707
H -1.8864844957 1.2591721814 0.2720653397
H -3.5140534115 1.2843242743 -1.6404151315
H -2.1599751902 1.0082942624 -2.7728256548
H -3.5352315476 -2.8004438246 0.5571346999
H -4.2212201034 -4.3324102727 -1.2720902406
H -5.2852532235 -2.9108435393 -1.2026874107
H -4.0302725438 -3.0190421840 -2.4629091309
H -1.9968037621 -1.5625156008 1.4948277059
H 0.0500752984 -0.8342822420 2.6527837253
H 2.4683369034 -2.8413138494 -0.2610015212
H 0.4052307105 -3.5769822800 -1.4612470143
H 5.9288499327 1.4029951619 2.5797729255
H 3.0778788635 2.3916938558 -0.5146025092
H 1.7978129782 0.3477997635 0.0179840394
