65
CONF299
C -5.1130298873 2.4850084901 -1.1012449489
C -3.8390127026 3.3267144389 -1.1085510010
C -2.6043667499 2.5374452960 -1.5598284088
C -1.3486302074 3.4214120302 -1.6025248084
C -2.3412358880 1.3892890319 -0.6094222252
O -2.2729910689 1.5053495870 0.6004603308
O -2.1567763950 0.2276827619 -1.2664214707
C -1.8119333655 -0.9520388888 -0.4729334161
C -3.0641619721 -1.7701873507 -0.2111700715
C -2.7292410419 -2.9889111031 0.6630661521
C -1.4686288817 -3.6555120782 0.1957903416
C -0.5872406381 -3.1132179813 -0.6660921062
C -0.7875004146 -1.7389422404 -1.2721440624
C 0.5669647905 -1.0144509831 -1.4185585505
C 1.4474433709 -1.8412526012 -2.3784843313
C 1.5337045881 -3.2653878849 -1.8964843354
C 0.6095274069 -3.8215247047 -1.0938642763
C 2.8326690725 -1.2308268286 -2.6083140536
C 1.2495072230 -0.7592334380 -0.0543266827
C 1.6410836945 0.7077851702 0.1268314316
C 2.1672149829 1.0157179471 1.5168171238
C 3.4499965149 0.2944929793 1.8799572941
C 3.9864090755 0.8305851084 3.1956126275
C 4.2968593363 2.3124282454 3.0269948071
C 3.2324393549 3.1154780724 2.3171644171
O 3.1952527859 4.3305185420 2.3677355030
O 2.3263177912 2.4847212430 1.5509603852
O 5.1311586242 0.1127935313 3.6642695492
C -2.6357265673 -2.6280592733 2.1566570405
H -5.0292071795 1.6448286396 -0.4023857636
H -5.9775195009 3.0832549397 -0.7984674784
H -5.3167717890 2.0756055409 -2.0966721998
H -3.9564925385 4.1789489783 -1.7881741484
H -3.6482464235 3.7372262366 -0.1099111304
H -2.7857039845 2.1200244531 -2.5561869517
H -1.1406337597 3.8356785720 -0.6109072139
H -0.4725476734 2.8545990514 -1.9331742036
H -1.5063014455 4.2502134833 -2.2989655069
H -1.3863369655 -0.6030925619 0.4705710712
H -3.8204086550 -1.1484741747 0.2808133705
H -3.4732072617 -2.1006037691 -1.1738416570
H -3.5499232006 -3.7128699978 0.5602735188
H -1.2614046050 -4.6467192814 0.5995803979
H -1.1934116220 -1.8755926876 -2.2871386859
H 0.3694719567 -0.0467643980 -1.8971382644
H 0.9353527690 -1.8451565571 -3.3547002637
H 2.3955392372 -3.8516246358 -2.2111711389
H 0.7322372068 -4.8459056398 -0.7467131905
H 2.7442318012 -0.2041990588 -2.9784344506
H 3.4259302327 -1.2122119245 -1.6882799975
H 3.3870455247 -1.8151984534 -3.3498510186
H 0.5841759748 -1.0511767795 0.7680753787
H 2.1295443643 -1.4025389685 0.0425977553
H 2.3988348089 0.9943393592 -0.6136068066
H 0.7609307920 1.3386370252 -0.0499372353
H 1.3945953446 0.7913102290 2.2646614539
H 4.1983034070 0.4243996589 1.0849719618
H 3.2320535326 -0.7735922183 1.9751405744
H 3.2288038648 0.6958253874 3.9771117997
H 5.1988603710 2.4150617566 2.4052669810
H 4.5073567480 2.8024296875 3.9810144026
H 5.8250050095 0.1930414051 2.9953534950
H -2.3913659046 -3.5124864424 2.7536094371
H -3.5895807847 -2.2250938791 2.5126008410
H -1.8552833839 -1.8800010956 2.3320624005
