47
CONF87
C -2.5308438613 2.8792776643 2.2952145836
C -2.4802174078 2.7023979671 0.7771405242
C -2.6064034960 1.2453324202 0.3205580145
C -3.9751164238 0.6574194331 0.6181240308
O -4.0197421517 -0.7367951101 0.1779741771
C -4.3096841997 -0.9623638119 -1.1057698270
O -4.6622743554 -0.1230072409 -1.9088164440
C -4.2062600500 -2.4475607079 -1.4603413197
C -5.5296433241 -3.1423138843 -1.1807786266
O -3.2083606866 -3.1225238558 -0.6861945343
C -1.9295417427 -2.6297342575 -0.7350352099
C -1.0838133732 -3.0396896191 0.2987909491
C 0.2198931753 -2.5679810260 0.3587288425
C 0.6666668590 -1.6871063991 -0.6167446295
C -0.1498902729 -1.2961023279 -1.6632238901
C -1.4590075687 -1.7683100494 -1.7285307087
O 1.9938621891 -1.2330846333 -0.5711102884
C 2.2332248630 -0.0343886312 0.0248335303
N 1.2309730280 0.6327611857 0.5764601208
C 1.5084830197 1.8107882304 1.1502952599
C 2.7866396458 2.3471127048 1.1830279377
C 3.8357817968 1.6238289947 0.6000025059
C 3.5630553217 0.4107064642 0.0078556850
C 3.0673582192 3.6543756850 1.8451662417
F 1.9403294366 4.3285143175 2.1660101161
F 3.8118363161 4.4726807086 1.0553315100
F 3.7754125199 3.5005359214 2.9991853411
H -1.7696260500 2.2589178624 2.7823648456
H -3.5051988737 2.5985408093 2.7073352902
H -2.3440627810 3.9211658223 2.5729126557
H -1.5275843552 3.0930637170 0.4006268689
H -3.2687472824 3.3020514449 0.3042269989
H -1.8401020424 0.6342752467 0.8144774721
H -2.4260385939 1.1817016964 -0.7587623910
H -4.1769345797 0.6001457523 1.6889452159
H -4.7737915384 1.2163140976 0.1220486466
H -3.9717130425 -2.5066524873 -2.5301614220
H -5.7737994428 -3.0829543320 -0.1168161026
H -6.3252528857 -2.6666770588 -1.7595501603
H -5.4584995910 -4.1918739456 -1.4764413696
H -1.4662953688 -3.7130007374 1.0585246238
H 0.8816142600 -2.8633311090 1.1661769938
H -2.0891009140 -1.4493709610 -2.5501406683
H 0.6698427458 2.3382285550 1.5975168130
H 4.8488004404 2.0131930682 0.6104225594
H 4.3349574514 -0.1879749720 -0.4607718446
H 0.2261264490 -0.6135366320 -2.4181973051
