41
CONF36
C 6.3378650359 -0.1397199122 0.5734508662
C 5.0066154680 0.4164849217 0.1264980771
O 4.4579389999 1.1614284994 1.2487455852
C 3.2479237648 1.7391886468 1.0268880317
O 2.6278852342 1.6459321401 -0.0232795819
N 2.8589702319 2.4539543100 2.1158059362
C 1.4981287743 2.9436482684 2.2535660941
C 0.6186055283 1.9928506900 3.0605348461
O 0.5534238710 0.6822378818 2.4793728211
C -0.2264672822 0.4830004614 1.3740684334
C -0.1110057998 -0.7830438256 0.7866936358
C -0.8667195761 -1.1098116826 -0.3274648587
C -1.7465936394 -0.1692762293 -0.8581555350
C -1.8682361064 1.0864410887 -0.2871618253
C -1.1036768976 1.4230088736 0.8307533102
O -2.4609949953 -0.4504872305 -2.0205346728
C -3.4511734514 -1.4086964367 -1.9636873939
C -3.9158866274 -1.8787841232 -3.1925600166
C -4.9397123513 -2.8182769998 -3.2220059028
C -5.4991594599 -3.2952625525 -2.0365021225
C -5.0258798042 -2.8161051997 -0.8180001458
C -4.0024383012 -1.8712380409 -0.7692523427
H 7.0266851373 0.6648418023 0.8461438514
H 6.7824211439 -0.7114844868 -0.2462918966
H 6.2149925037 -0.8061944374 1.4318775163
H 4.3042358100 -0.3781013978 -0.1451375696
H 5.1142158858 1.0928905585 -0.7275253155
H 3.4129959601 2.3484823600 2.9533831381
H 1.0960564071 3.0962738250 1.2492052736
H 1.5078611950 3.9138170440 2.7641899769
H 1.0561612321 1.8297868448 4.0495728021
H -0.3839553201 2.4167078325 3.1970128926
H 0.5851969358 -1.4978280783 1.2131849585
H -0.7774065681 -2.0883332536 -0.7886663132
H -2.5555148602 1.8075327269 -0.7174146201
H -1.2103796299 2.4133119866 1.2553761192
H -3.4703976308 -1.5012485492 -4.1072035373
H -5.2987678704 -3.1828824392 -4.1795772632
H -6.2956269445 -4.0313338020 -2.0636955324
H -5.4563053107 -3.1749795379 0.1120108964
H -3.6418796973 -1.4987324413 0.1829398932
