37
CONF406
C -1.5897639430 -2.6696350371 -2.9627221174
C -1.0909949667 -1.2867193501 -3.3211276940
O -0.2555724396 -0.7142678140 -2.2636880463
P -0.9500234965 -0.2393186453 -0.9097650233
O -2.3132316563 0.3233258866 -1.0111271073
O -0.7613781919 -1.4752311638 0.0801700466
C -1.7632459945 -1.7655165457 1.1176637257
C -1.0534948153 -2.4937181942 2.2311109109
O 0.1994753877 0.8210074882 -0.4610765805
P 0.6146005347 1.2154289159 1.0714951297
O -0.4632912566 0.9984452714 2.0569057652
O 1.9290248790 0.3906071584 1.3734004064
C 3.0344175864 0.3132146364 0.4100181389
C 3.1056237558 -1.0842070417 -0.1584077063
O 1.1536312811 2.6974660046 0.8587640328
C 0.1838179339 3.7649959005 0.5753597507
C -0.2516515034 4.4362228276 1.8570473838
H -2.2896062047 -2.6351412805 -2.1223206396
H -0.7570717796 -3.3293643919 -2.7038849513
H -2.1166911352 -3.0933793815 -3.8236425124
H -0.4304165147 -1.3124974026 -4.1903327869
H -1.9176405488 -0.5971422229 -3.5194454545
H -2.5416817491 -2.3789137711 0.6524653934
H -2.1983151147 -0.8265401804 1.4658816698
H -0.2860001458 -1.8526096750 2.6722440739
H -1.7779930083 -2.7553990200 3.0085230916
H -0.5887854249 -3.4136142174 1.8650352674
H 3.9301772914 0.5678563077 0.9821118546
H 2.8943160944 1.0649003323 -0.3729493060
H 2.2068751331 -1.3194523613 -0.7345102643
H 3.9726544477 -1.1594631162 -0.8225652464
H 3.2153712554 -1.8204676294 0.6422792038
H 0.7184775212 4.4521292250 -0.0846222164
H -0.6664636476 3.3451285625 0.0256759980
H 0.6113941183 4.8394277488 2.3937887185
H -0.9291820256 5.2622236222 1.6177317732
H -0.7773608688 3.7302182523 2.5045157149
