53
CONF17
C 1.7459961198 1.0086256170 -0.5193745698
C 0.6561791012 0.7088140546 0.4956451501
N -0.5247291413 0.1413057763 -0.1733563063
C -0.1134979974 -1.0898938079 -0.8654252893
C 0.9776785028 -0.7954060966 -1.8809477527
N 2.1584711369 -0.2165704687 -1.2228140362
C 3.2261918729 0.0635236329 -2.1968277714
C 4.6047892624 0.1231695629 -1.5600611306
O 4.9905798513 -1.1973507130 -1.1594620308
C 5.4323359848 -1.3347647404 0.1923326116
C 4.3143943614 -1.1232133168 1.2086062995
O 3.1632667796 -1.9043999505 0.9047850934
C -1.5896225440 -0.1419127611 0.8023464040
C -2.8026537932 -0.7804563873 0.1408074525
C -3.3963404263 -1.9033796859 0.7168260236
C -4.5355462008 -2.4737506283 0.1508555351
C -5.0884114862 -1.9278445169 -1.0039978326
C -4.4956544545 -0.8085501917 -1.5885081925
C -3.3635138299 -0.2363450368 -1.0180211655
C -2.0394856715 1.1159240897 1.5284552336
C -2.3621226488 1.0480668200 2.8835504954
C -2.8398299269 2.1621354832 3.5687330117
C -2.9851984296 3.3562720317 2.8758673955
C -2.6658412171 3.4592113920 1.5266374374
C -2.1965589149 2.3325747095 0.8603543146
Cl -3.5802044063 4.7795860626 3.7287119765
H 2.6071850624 1.4400846895 0.0013013202
H 1.3770679525 1.7619009468 -1.2413699670
H 1.0476355446 0.0157276798 1.2661321475
H 0.3788434808 1.6407725979 0.9969104612
H -0.9741456629 -1.5160208883 -1.3893154894
H 0.2487109465 -1.8481357823 -0.1426305327
H 0.5810144502 -0.1116983813 -2.6554921749
H 1.2715605375 -1.7298451138 -2.3721074667
H 3.2364880256 -0.7446241542 -2.9374407659
H 3.0319461643 1.0052785779 -2.7424495679
H 4.6251570198 0.8173085783 -0.7108294544
H 5.3249600354 0.4928693234 -2.3040365217
H 6.2669698717 -0.6479301341 0.4097357365
H 5.8018425876 -2.3633157416 0.2631070956
H 4.0504779710 -0.0563577076 1.2780083539
H 4.6848625565 -1.4279538050 2.1950345450
H 2.7573530684 -1.4581960336 0.1215773376
H -1.2256545841 -0.8504565194 1.5715718372
H -2.9616533401 -2.3368657399 1.6137518033
H -4.9858906116 -3.3484278106 0.6102411116
H -5.9730317274 -2.3721446535 -1.4495003896
H -4.9182004768 -0.3802245882 -2.4924914464
H -2.9026765701 0.6301543779 -1.4815330794
H -2.2416198951 0.1100134620 3.4184586194
H -3.0870891945 2.1006947064 4.6225447153
H -2.7787982829 4.4030423911 1.0050499717
H -1.9339862155 2.4089786700 -0.1896739607
