60
CONF4
C -5.7531710211 1.1332324741 3.1558220003
C -4.9525851563 1.5691130214 1.9308424158
C -5.8320229739 2.2273242109 0.8695616818
C -5.0300468344 2.7304936438 -0.3473385022
C -4.3271825416 1.6355749990 -1.0499354002
C -3.0014259366 1.2954468636 -1.1735790858
C -2.9668166666 0.0404925485 -1.8981369595
C -1.9731605582 -0.8094990254 -2.3955043719
C -2.3647374389 -1.9433235297 -3.0989858109
C -3.7178701778 -2.2367344184 -3.3231920367
C -4.7244033009 -1.3953329843 -2.8537560281
C -4.3067284057 -0.2782155118 -2.1549602407
O -5.1314785785 0.6860974948 -1.6222784327
C -1.8850387172 2.0921235291 -0.6469879392
O -1.9084179503 3.3233363440 -0.6515653666
C -0.7127440050 1.3647971952 -0.0888217371
C 0.5219386259 2.0157702634 -0.0321672586
C 1.6221318090 1.3722836263 0.5067829833
C 1.5468718441 0.0457239879 0.9717549810
C 0.2675544021 -0.5387930780 1.0011591954
C -0.8421748063 0.0894455629 0.4715511692
I 0.0388184308 -2.4579677171 1.8576890164
O 2.5847166811 -0.6227353520 1.5220051546
C 3.7083791349 -1.0153859321 0.6780333272
C 3.3278437609 -2.0386620717 -0.3758394110
N 2.3904241237 -1.5218078866 -1.3703888680
C 3.0391574260 -0.6022807823 -2.3142771737
C 2.0493913739 0.1356800166 -3.2072127351
C 1.6261718499 -2.5986567087 -2.0184717021
C 2.4298631986 -3.5751090079 -2.8843006295
I 3.3969751467 2.5114896638 0.7344206616
H -6.2465566875 1.9910833791 3.6257781085
H -6.5294752077 0.4122072168 2.8770624533
H -5.1097133633 0.6621700183 3.9052283231
H -4.4424390690 0.6992079854 1.4959226173
H -4.1630952037 2.2714995151 2.2304503623
H -6.3543837036 3.0875512163 1.3051216660
H -6.6029776322 1.5223345084 0.5359703701
H -5.7057756465 3.2262447548 -1.0555724473
H -4.2845391003 3.4642968464 -0.0339609895
H -0.9229772685 -0.5937470193 -2.2337731703
H -1.6055570711 -2.6162701061 -3.4851435237
H -3.9877521483 -3.1303949485 -3.8760343867
H -5.7754293713 -1.5991508268 -3.0256443774
H 0.5976003881 3.0316578503 -0.4023023103
H -1.8089210170 -0.3990517538 0.4961078737
H 4.1718948177 -0.1281263634 0.2400669443
H 4.4181169834 -1.4570355782 1.3812431615
H 2.8690969894 -2.9003265544 0.1223070124
H 4.2806844150 -2.3895090228 -0.8217864762
H 3.5886717706 0.1420904231 -1.7276466336
H 3.7932119894 -1.1209022539 -2.9361631670
H 1.5588311954 -0.5294803922 -3.9240871499
H 1.2771909352 0.6220822085 -2.6010187730
H 2.5747651599 0.9072960801 -3.7780067884
H 0.8399707970 -2.1411886104 -2.6284412317
H 1.1132585342 -3.1524145792 -1.2225487210
H 3.2125859541 -4.0754905006 -2.3050935743
H 2.9003148868 -3.0715305041 -3.7343664276
H 1.7623985813 -4.3462505131 -3.2823103770
