36
CONF1
C 5.6860601994 -0.4273979970 0.0710214598
C 4.9125236773 -1.5975937365 0.0717446353
C 3.5320095104 -1.5244931194 0.0608830606
C 2.8657270585 -0.2830378402 0.0488897615
C 3.6548749416 0.9017969772 0.0483111263
C 5.0610338857 0.8029720654 0.0594987696
C 3.0172361034 2.1855002335 0.0363830092
C 1.6651658044 2.2997083449 0.0253958879
C 0.8240681484 1.1403184193 0.0253842599
C -0.5677861341 1.2778658135 0.0139353253
C -1.4258450126 0.1784314485 0.0133502654
C -0.8343027154 -1.1261022794 0.0250647023
C -1.6753992012 -2.2854937262 0.0250097688
C -3.0274687486 -2.1712870922 0.0139547600
C -3.6651073376 -0.8875834202 0.0020132138
C -5.0712655706 -0.7887595439 -0.0092678288
C -5.6962929157 0.4416100839 -0.0208126939
C -4.9227582150 1.6118067757 -0.0214331123
C -3.5422448503 1.5387071826 -0.0104619421
C -2.8759613271 0.2972523236 0.0015183367
C 0.5575516601 -1.2636499295 0.0365033502
C 1.4156106877 -0.1642152151 0.0370989629
H 6.7694600351 -0.4917252137 0.0795774240
H 5.3993921485 -2.5676841397 0.0809010711
H 2.9637287817 -2.4473982525 0.0618591910
H 5.6466908793 1.7181968297 0.0588472398
H 3.6476857353 3.0703506854 0.0362697553
H 1.1913574806 3.2773283699 0.0163152932
H -0.9657548949 2.2867116942 0.0054035771
H -1.2015857186 -3.2631112549 0.0340949112
H -3.6579191752 -3.0561369498 0.0140058741
H -5.6569216539 -1.7039849171 -0.0086853732
H -6.7796922842 0.5059330125 -0.0294554245
H -5.4096263774 2.5818973152 -0.0305898190
H -2.9739641587 2.4616124280 -0.0113466461
H 0.9555208608 -2.2724962232 0.0449813889
