63
CONF29
C 1.1688231457 0.1440837404 1.9073342112
C -0.2244936832 -0.4676025122 2.0192241677
N -0.2719818875 -1.7825478389 1.3702752713
C 0.6664206817 -2.6995792283 2.0261968173
C 2.1009429579 -2.1936495102 1.9113630492
C 2.2009573683 -0.7976620946 2.5262715925
N 3.5581841936 -0.2564527779 2.4617868146
C 4.3176068300 0.0420774419 1.3329007387
C 4.0630762145 -0.0614826976 -0.0295477194
C 5.0719814686 0.3370345690 -0.9118332858
C 6.2962321764 0.8237769205 -0.4501647944
C 6.5574211744 0.9304059274 0.9182232312
C 5.5573616999 0.5353149708 1.7910318984
N 5.5070677669 0.5191465181 3.1724904250
C 4.2884592783 0.0368856137 3.6126484135
O 3.9232583244 -0.1044698505 4.7782546401
C -1.6252069215 -2.3557485780 1.3926273545
C -2.6601657745 -1.5214138885 0.6397599761
C -2.2552415901 -1.2075146138 -0.7984010332
C -3.2309067175 -0.2323689455 -1.4764405829
C -3.1986702175 1.1256674611 -0.7910526421
C -4.3139319378 1.6107036400 -0.1062775803
C -4.2818901464 2.8408820629 0.5497609668
C -3.1093014639 3.5722617006 0.5056408439
C -1.9789118426 3.1331075787 -0.1646165835
C -2.0367762015 1.9044048366 -0.8140815434
F -3.0619637514 4.7730488622 1.1445835725
C -3.0028706539 -0.0727995453 -2.9708179300
C -4.0688552316 0.3477404544 -3.7746264202
C -3.9136519977 0.5482972664 -5.1420424288
C -2.6642975991 0.3217525888 -5.6955662582
C -1.5815221126 -0.0948014559 -4.9438412488
C -1.7620880841 -0.2901087460 -3.5746658297
F -2.4988665510 0.5122805205 -7.0330553628
H 1.1899902858 1.1102193794 2.4237049160
H 1.3968228272 0.3232327409 0.8508216685
H -0.9412288679 0.2020397859 1.5332539074
H -0.5154765891 -0.5417902409 3.0882067450
H 0.4090990829 -2.8312519665 3.0981435610
H 0.5835883767 -3.6831956221 1.5498954855
H 2.3922083342 -2.1699756392 0.8559096856
H 2.7786156183 -2.8787128206 2.4326882230
H 1.9856348030 -0.8816201741 3.5986219131
H 3.1216744211 -0.4353043813 -0.4116798047
H 4.8926107317 0.2637240307 -1.9794903541
H 7.0582323579 1.1246490285 -1.1615240448
H 7.5049545553 1.3074975284 1.2882077098
H 6.2374662807 0.8130768750 3.8014370407
H -1.9748773774 -2.5063352214 2.4341038792
H -1.5616400657 -3.3500386778 0.9307035015
H -3.6045449528 -2.0805123256 0.6426997192
H -2.8643502997 -0.5893293300 1.1797318033
H -1.2459498714 -0.7821769508 -0.8024036541
H -2.2082138182 -2.1376061043 -1.3798310429
H -4.2460471826 -0.6303831509 -1.3503847808
H -5.2240371865 1.0181869323 -0.0761271628
H -5.1445451099 3.2221184130 1.0856437681
H -1.0804827504 3.7410017938 -0.1767783583
H -1.1595261074 1.5508819401 -1.3487260901
H -5.0409961740 0.5225332914 -3.3210610286
H -4.7393420227 0.8690246091 -5.7681892289
H -0.6207212410 -0.2650070599 -5.4177727981
H -0.9151135599 -0.6205795909 -2.9831469939
