48
CONF3
C -0.9815647886 -3.3976939439 -0.1388732868
O -1.1168571328 -2.5481548912 1.0082452379
N -1.5992334564 -1.3241916236 0.5923396754
C -1.6218621962 -0.4526876395 1.5446325976
C -1.2044867715 -0.6932661659 2.9465784745
C -1.9136781960 -1.5581669176 3.7784144443
C -1.5348943628 -1.7351501086 5.1038882090
C -0.4336770068 -1.0525905813 5.6116813902
C 0.3008362473 -0.2025160654 4.7913896564
C -0.0901646434 -0.0400698193 3.4751749796
O 0.6255923734 0.8606487890 2.6786721146
C 1.2055937622 0.3535363430 1.5657356105
C 1.3631059730 1.1982143031 0.4726846646
C 1.9005206500 0.6404235554 -0.6806418844
N 2.3023888121 -0.6224320256 -0.7301407830
C 2.1406043499 -1.3307833917 0.3884093239
N 1.6127496275 -0.9110255296 1.5338407506
O 2.0065232920 1.4442286885 -1.7692571062
C 2.1887584196 0.8291646511 -3.0018889015
C 3.3853611921 1.0327210874 -3.6710145769
C 3.5632954104 0.5046178553 -4.9445601230
C 2.5424365488 -0.2277071494 -5.5418271533
C 1.3391157148 -0.4286456393 -4.8736888102
C 1.1581618459 0.1060614471 -3.6037638482
Cl -0.3496133615 -0.1186054382 -2.7591829842
F 0.9459732838 2.4716994369 0.5028852148
C -2.0990938011 0.8871137513 1.1725085894
N -2.4550075782 1.6646596369 2.1410807357
O -2.8662094523 2.9579978833 1.8141687293
C -2.4431891994 3.4054769097 0.5179052501
C -2.7905300065 2.3562375617 -0.5092448859
O -2.1118413347 1.1369839638 -0.1589124177
H -0.2731538020 -2.9656597618 -0.8547389700
H -0.5995534499 -4.3438391500 0.2494446776
H -1.9513503959 -3.5503092478 -0.6244073982
H -2.7787221836 -2.0759674717 3.3786982043
H -2.1044823782 -2.4017058568 5.7423549470
H -0.1375412787 -1.1863028323 6.6467593729
H 1.1725519352 0.3295779931 5.1547915374
H 2.4777905840 -2.3655697349 0.3591473951
H 4.1640606195 1.6023954590 -3.1762447246
H 4.5007025987 0.6633000402 -5.4660789363
H 2.6759345510 -0.6443255640 -6.5342620710
H 0.5338176801 -0.9916265785 -5.3312780884
H -2.9784517353 4.3421125987 0.3410554902
H -1.3606385244 3.5870124947 0.5256356184
H -3.8719027626 2.1735476904 -0.5302369669
H -2.4381757730 2.6212610887 -1.5091537051
