47
CONF145
C -2.7394728066 1.7093457562 2.3175969433
C -2.3141327288 0.5187896538 1.4882040072
C -3.3247834089 -0.5389972446 1.1075422948
C -2.8647616184 0.4731410184 0.0593283006
C -2.0142205473 0.0021033818 -1.0423014195
O -1.4280053311 -1.0561452963 -1.1165019485
O -1.9299074768 0.9659771191 -2.0133830268
C -0.9642483158 0.6754328012 -3.0635073484
C -1.3635786124 1.5012733510 -4.2012391113
N -1.6481897650 2.1482492556 -5.1139707821
C 0.4380786372 0.9881766491 -2.5949801917
C 1.3370652083 -0.0556245078 -2.3858952219
C 2.5944319194 0.2135476964 -1.8666316300
C 2.9381397553 1.5304844195 -1.5671216929
C 2.0593014467 2.5787724327 -1.7754469385
C 0.7996515878 2.3016455735 -2.2934593764
F 4.1594009691 1.7731315174 -1.0537278125
O 3.5054877922 -0.8032079261 -1.6911516125
C 3.7535357277 -1.2248562151 -0.3911131780
C 2.9458073603 -0.8712775870 0.6858448397
C 3.2558613196 -1.3690075989 1.9504998100
C 4.3507630151 -2.2077574418 2.1368937263
C 5.1447307316 -2.5524256591 1.0429725967
C 4.8530232844 -2.0632104120 -0.2250869497
C -4.7162509639 -0.4923209233 1.5619536359
C -5.4425679080 -1.5493825512 1.9265062495
Cl -4.8532716435 -3.1887356480 1.9242222738
Cl -7.0972997239 -1.4011437850 2.4603311567
C -0.9006143891 0.0611393676 1.7660910228
H -2.0213692874 2.5249670820 2.1845828496
H -2.7509900261 1.4368893069 3.3787161298
H -3.7285759981 2.0826759238 2.0454168409
H -2.9000646854 -1.5284634088 0.9691587972
H -3.5466909412 1.2773941856 -0.1950643417
H -1.0434910964 -0.3779724081 -3.3548971068
H 1.0660842989 -1.0842309851 -2.5986914908
H 2.3655290063 3.5907610794 -1.5344818338
H 0.0976207533 3.1138992183 -2.4543851470
H 2.0857065942 -0.2254359796 0.5465745071
H 2.6271919869 -1.0958861113 2.7925058999
H 4.5845155028 -2.5909926401 3.1244355967
H 6.0016956017 -3.2054160034 1.1755035855
H 5.4622683039 -2.3206930444 -1.0850528462
H -5.2117103839 0.4725566863 1.6098130115
H -0.8017826973 -0.1731115696 2.8313271564
H -0.1907129341 0.8622966682 1.5296064908
H -0.6291972276 -0.8263550967 1.1920933918
