38
CONF3
C 3.4321346696 -0.7907109816 0.6161598970
C 2.4597251118 -1.6355471196 -0.1841183412
C 2.8128268939 -1.7469377750 -1.6517418957
O 1.1358243168 -0.9866301180 -0.1498510801
C 0.3941165288 -1.1756523344 0.9357067474
O 0.6761037086 -1.8979398348 1.8701888518
C -0.9065403373 -0.3360216163 0.9250915268
C -1.7051277739 -0.5578335182 -0.3555977096
C -2.4904176644 0.4534240677 -0.9029906932
C -3.2931922300 0.2132448364 -2.0146155726
C -3.3025743894 -1.0560987204 -2.5742572243
C -2.5410800338 -2.0889937830 -2.0398235585
C -1.7507663353 -1.8299163309 -0.9280985726
Br -4.3895369772 -1.3955751314 -4.1102208200
C -0.4752443492 1.1208549369 1.1320911907
C 0.1698206921 1.8336923027 0.1171762943
C 0.5834276533 3.1439045476 0.3193671220
C 0.3511541239 3.7400440996 1.5538591208
C -0.2863695244 3.0550885420 2.5773666923
C -0.6962681489 1.7422884268 2.3584402101
Br 0.9180367867 5.5437348473 1.8399111272
O -1.7028233633 -0.7883080172 2.0072405272
H 4.4268664075 -1.2451912655 0.5833425126
H 3.4960992976 0.2169295627 0.1939956547
H 3.1216975881 -0.7212267249 1.6613369259
H 2.3454940564 -2.6246550307 0.2709915212
H 3.7787497927 -2.2484009175 -1.7589324393
H 2.8863066061 -0.7541835227 -2.1057405378
H 2.0588257686 -2.3244488260 -2.1926353169
H -2.4840661085 1.4434493335 -0.4599719433
H -3.9029956064 1.0040490381 -2.4349598570
H -2.5673776935 -3.0772714443 -2.4830501859
H -1.1678069790 -2.6404819265 -0.4992201138
H 0.3437005289 1.3665530248 -0.8458574348
H 1.0767596645 3.6952248638 -0.4723124965
H -0.4652366798 3.5350548420 3.5322003603
H -1.2065727174 1.1967595966 3.1427796770
H -1.1336737920 -1.3822720461 2.5267499290
