35
CONF1
C -4.4398646943 0.0974578402 -0.5020369571
C -3.7009415380 1.1678026271 0.3045317321
C -2.2164024120 1.2135673207 -0.0704535569
C -1.5949101720 -0.1716661033 0.1289992115
C -2.3128455594 -1.2525947055 -0.6842465673
C -3.7968324786 -1.2770867395 -0.3040477740
N -0.1264310213 -0.1703686469 -0.0953891564
C 0.7036573675 -0.4696101513 1.0388286443
O 0.2163470757 -0.7031015742 2.1359455020
C 2.1134851902 -0.4666014286 0.7596167104
C 2.5799939090 -0.1638313940 -0.4705907584
C 4.0765316358 -0.1373822013 -0.5320662301
C 4.4603326719 -0.8511262318 0.7889782377
C 3.2358032410 -0.6975534618 1.7290372926
N 1.7385684771 0.1337638887 -1.4968553690
C 0.3457763774 0.1347060775 -1.3660389204
O -0.3571091033 0.3923752584 -2.3301406954
H -4.4068115744 0.3616431836 -1.5680347380
H -5.4966382741 0.0665257468 -0.2124324345
H -3.8016863424 0.9465955104 1.3764729620
H -4.1536871337 2.1520294162 0.1400259425
H -2.1068901587 1.5220415188 -1.1146228109
H -1.6851497313 1.9414048012 0.5545184167
H -1.6899073265 -0.4310289579 1.1879949658
H -2.2084402707 -1.0453653413 -1.7535183464
H -1.8493983422 -2.2256481411 -0.4820037039
H -3.9013523166 -1.5767415584 0.7483065647
H -4.3179822417 -2.0333262745 -0.9018249702
H 4.4797731376 -0.6333458467 -1.4219460368
H 4.4251066812 0.9047903345 -0.5546046049
H 4.6226168652 -1.9130489128 0.5815284347
H 5.3805974595 -0.4530297251 1.2222203865
H 3.3437421399 0.1589841082 2.4071967169
H 3.0736083121 -1.5785471406 2.3561894948
H 2.0735245213 0.3475658446 -2.4234431135
