21
CONF88
C 1.0242621826 -1.1904725016 0.2414638788
C 0.1591963813 0.0600522934 0.0450975361
C 1.1510431704 1.2218943570 -0.1820480080
O 0.5369224270 2.5100710869 -0.2600681407
C -0.7247993504 -0.1423181265 -1.1874791105
O -1.5051615224 1.0515966642 -1.4059169085
C -0.6700212352 0.3477192307 1.3090417248
O -1.7059014136 -0.6093405533 1.5538049100
O 0.1782020867 -2.3372652897 0.4600793249
H 1.6786014801 -1.0348744339 1.1101431388
H 1.6545463016 -1.3537450466 -0.6454411714
H 1.8553179423 1.2668043619 0.6573634117
H 1.7288988114 1.0117242012 -1.0965602261
H -0.2228882052 2.4071099850 -0.8566598627
H -0.0805386079 -0.3387150561 -2.0568716180
H -1.3906184013 -1.0007136528 -1.0425511875
H -1.9679664287 0.9543611349 -2.2467974331
H 0.0211674706 0.4026752068 2.1665009264
H -1.1637658374 1.3179512537 1.2150412575
H -1.2926863610 -1.4820935954 1.4551281922
H 0.7361894265 -3.0624212393 0.7667293600
