57
CONF42
C -0.2409775390 -2.1121507540 -1.7388855150
C -0.9811157819 -1.2225507934 -0.7569589048
C -1.8119041405 -0.1335505309 -1.4737570257
C -1.0418952986 0.7448602525 -2.4233571530
C -0.9165976020 0.4081172237 -3.7749521648
C -0.2033950153 1.2240668870 -4.6501895582
C 0.3897562906 2.3958247691 -4.1862479365
C 0.2633582070 2.7463469552 -2.8437398908
C -0.4465075222 1.9268202557 -1.9708043601
C -1.8883714476 -1.9637503752 0.2131197073
C -2.3967547121 -1.2900979830 1.3295901578
C -3.2580399766 -1.9297259889 2.2138026653
C -3.6364790765 -3.2524878650 1.9904178691
C -3.1449158090 -3.9258270082 0.8764365752
C -2.2759029252 -3.2865905535 -0.0066339360
O 0.0209361590 -0.4422459587 0.0270999434
P 1.1762520899 -1.0872920386 0.9070939839
O 0.9801890779 -2.4550554459 1.4348306166
O 1.4257608488 0.0706697805 2.0043126570
C 0.3525788056 0.4969503894 2.8051940364
C -0.0348939273 -0.2660265593 3.8974362043
C -1.0940791055 0.1855303193 4.6820037430
C -1.7411060690 1.3797690277 4.3726700295
C -1.3235048455 2.1353220710 3.2779334353
C -0.2681428391 1.6958963733 2.4830121589
O 2.5416293196 -1.0143171738 0.0628899413
C 2.9293845903 0.0614373579 -0.7528106593
C 3.0948314029 -0.2039626514 -2.1063368171
C 3.5538315314 0.8116760328 -2.9402486031
C 3.8406955521 2.0719604668 -2.4211142285
C 3.6737848316 2.3139731113 -1.0603525184
C 3.2196295915 1.3070546135 -0.2102452577
H -0.9449991078 -2.5687128510 -2.4393036474
H 0.3055769957 -2.9060362301 -1.2224141465
H 0.4612970228 -1.5074586510 -2.3155585248
H -2.2858536648 0.4808260063 -0.7018950809
H -2.6083655028 -0.6629145448 -2.0079191652
H -1.3867333457 -0.4994190363 -4.1442782930
H -0.1167502130 0.9468112783 -5.6965694613
H 0.9460475023 3.0331577058 -4.8667749375
H 0.7210120424 3.6592268612 -2.4747225308
H -0.5465368898 2.2067523047 -0.9258134767
H -2.1041296335 -0.2621827428 1.5201801995
H -3.6325809979 -1.3929580163 3.0801770953
H -4.3091675319 -3.7529999025 2.6798926953
H -3.4324163065 -4.9563057965 0.6914512744
H -1.9011006820 -3.8350038751 -0.8630537866
H 0.4781306341 -1.1952064386 4.1203075544
H -1.4139661494 -0.4028671993 5.5360150190
H -2.5676699606 1.7239879938 4.9855823985
H -1.8222492193 3.0683199444 3.0356992008
H 0.0678542401 2.2603569275 1.6196263289
H 2.8788041392 -1.1950909270 -2.4900701661
H 3.6836839445 0.6137132410 -3.9994392135
H 4.1931588276 2.8624768311 -3.0754479663
H 3.9020940348 3.2917203921 -0.6479148042
H 3.1028775813 1.4844582133 0.8518004432
