63
CONF113
C 1.8321568821 1.5714480242 1.3750719037
C 0.7601522128 0.6335699433 0.8281338764
N 1.1754944453 0.0449095354 -0.4530358530
C 2.3949509547 -0.7502586373 -0.2524608540
C 3.5454532187 0.1205428810 0.2429196030
C 3.1438555658 0.8070111523 1.5481303627
N 4.2127778609 1.6447496152 2.0895204932
C 4.7935400517 2.7789901155 1.5277134441
C 4.5690727661 3.4628924756 0.3389094720
C 5.3499452989 4.5934777612 0.0807621748
C 6.3246147310 5.0286519314 0.9799665308
C 6.5552062385 4.3450505662 2.1762697991
C 5.7812044794 3.2252415616 2.4308888509
N 5.7662178073 2.3508434080 3.5017470932
C 4.8112129998 1.3671183167 3.3185229680
O 4.5444500827 0.4406940590 4.0800105758
C 0.1138617406 -0.8062599128 -1.0111586330
C -1.0826448380 -0.0124453798 -1.5307387124
C -2.1159910555 -0.8815660750 -2.2527849783
C -2.8255077430 -1.9007253170 -1.3413903565
C -3.5383093558 -1.1997281800 -0.1966431323
C -3.0663127231 -1.3056958286 1.1127065648
C -3.6927306599 -0.6376258144 2.1639725284
C -4.8010564966 0.1368350960 1.8750130697
C -5.3075293521 0.2675994257 0.5917974656
C -4.6659760324 -0.4092704125 -0.4398545973
F -5.4243934567 0.7925873400 2.8907403783
C -3.7825001509 -2.8238644441 -2.0800537784
C -4.3254187379 -2.5265447692 -3.3315827598
C -5.2287152427 -3.3913214847 -3.9508578922
C -5.5779714185 -4.5563787805 -3.2951003857
C -5.0628488872 -4.8957682480 -2.0543315701
C -4.1652420756 -4.0186285353 -1.4576420509
F -6.4577459795 -5.4062988955 -3.8899667573
H 1.5087465524 1.9789410828 2.3391967948
H 1.9643206979 2.4099795078 0.6830036277
H -0.1667066755 1.1960249935 0.6848918926
H 0.5493235823 -0.1620443929 1.5738725863
H 2.2179408755 -1.5714587244 0.4732267106
H 2.6699104184 -1.2134105729 -1.2067396680
H 3.7899321276 0.8649040803 -0.5224022864
H 4.4344358841 -0.4983310561 0.4067873716
H 2.9894147482 0.0312767512 2.3083409424
H 3.8187336415 3.1448293158 -0.3736838291
H 5.1896975088 5.1412527835 -0.8420261273
H 6.9137514716 5.9101663020 0.7498334300
H 7.3101771393 4.6745263893 2.8821561872
H 6.3553131428 2.3937268759 4.3178852942
H -0.2104476936 -1.5546025124 -0.2617558301
H 0.5455529341 -1.3673894062 -1.8505560117
H -1.5801672945 0.5217880456 -0.7134397709
H -0.7126008422 0.7481133206 -2.2287204975
H -2.8652088522 -0.2186085890 -2.7011296570
H -1.6348467668 -1.4237965628 -3.0776343504
H -2.0616065977 -2.5455180872 -0.8919506902
H -2.1942172466 -1.9191540787 1.3205092043
H -3.3313825271 -0.7161948999 3.1836898864
H -6.1839327609 0.8809589355 0.4119960880
H -5.0561336371 -0.3237858271 -1.4502752492
H -4.0506619521 -1.6139747515 -3.8486655297
H -5.6516831650 -3.1649595985 -4.9237294230
H -5.3580859821 -5.8230614491 -1.5752165376
H -3.7528384538 -4.2649928639 -0.4826585285
