33
CONF34
C 4.6323336638 -3.6453534774 0.1002178982
C 4.6329046688 -2.1254265351 0.1950135399
C 3.3713090752 -1.4554198773 -0.2799888815
C 2.2921158780 -2.0955110316 -0.7443013829
C 3.3957795310 0.0306274004 -0.1838835087
O 4.3264383602 0.6603089248 0.2877699003
O 2.2849363322 0.6220329075 -0.6699223546
C 2.2351811894 2.0641410187 -0.5487506339
C 0.8655955582 2.5256898082 -1.0087786516
C -0.2553375267 2.3974013235 0.0025963224
C -0.6610630178 0.9502891554 0.4216894589
C -2.0603583090 0.8316476196 1.1133759605
C -2.2760709756 -0.5076616719 1.8931793703
F -3.5712539101 -0.6120842479 2.2250826441
F -1.9407449095 -1.5585408606 1.1306927351
F -1.5486366476 -0.5328972651 3.0159852910
F -2.2251577083 1.8415088369 2.0002981657
F -3.0281792375 0.9119292489 0.1727087992
F -0.6870520112 0.1681709230 -0.6861576003
F 0.2730675593 0.4635920322 1.2793320855
F -1.3832317711 2.9846550891 -0.5192864247
F 0.0597926159 3.0789326294 1.1474432751
H 5.5850667399 -4.0413168421 0.4618878660
H 4.4978894875 -3.9817193193 -0.9329993507
H 3.8331934228 -4.0840463074 0.7064504466
H 4.8145144163 -1.8122061867 1.2311157012
H 5.4736912634 -1.7126187836 -0.3773373801
H 1.4109388376 -1.5550383373 -1.0680640776
H 2.2661573027 -3.1777479937 -0.8092026553
H 3.0029311356 2.5002002569 -1.1942058127
H 2.4431765715 2.3553597604 0.4849671421
H 0.9204265564 3.5994466644 -1.2204731448
H 0.5743887246 2.0211425646 -1.9338099211
