52
CONF2
C 1.7967496297 0.6655900704 -0.2023727753
C 2.8783433190 1.4887469524 -0.9193716091
C 4.2115607407 0.8090919960 -0.5138813874
C 3.8295744064 -0.4485913137 0.3233484300
O 4.7857783418 -1.4827548463 0.0437097360
C 3.8729039303 -0.1421525004 1.7576623985
C 3.9711578411 0.0837281295 2.9394780072
C 2.3719161438 -0.7607810492 -0.1595667913
C 2.4619400440 -1.4124422524 -1.5478001920
C 1.5051832679 -1.6056094720 0.7722448577
C 0.0384027847 -1.5854768494 0.3149896839
C -0.5241213575 -0.1577116170 0.1854978435
C 0.3622722922 0.7292574678 -0.7168033548
C -0.1595762848 2.1626467805 -0.7170249286
C -1.6049537614 2.2079357252 -1.2089564200
C -2.5104299420 1.3026095296 -0.4292165426
C -3.7534187461 1.7191985244 -0.0950056569
C -4.6338691413 0.7742023775 0.5160966013
C -4.2603969758 -0.4582648822 0.9671649394
C -2.8235784907 -0.8482962674 0.9491998628
C -2.0396550434 -0.1405104550 -0.1993320925
C -2.3197350983 -0.8889922044 -1.5226346114
C -5.4624816768 -1.0140782285 1.4484278925
N -6.4917809109 -0.1989101649 1.2994151408
O -5.9579774187 0.9676343859 0.6947878907
H 1.7628122284 1.0110443291 0.8438349598
H 2.8523795046 2.5419327973 -0.6286843114
H 2.7352535831 1.4456167367 -2.0048939129
H 4.8641658392 1.4697699627 0.0603292733
H 4.7741688871 0.4657335527 -1.3860270565
H 4.5582577234 -2.2513837765 0.5851330429
H 4.0386146484 0.2932656425 3.9829543159
H 2.8421134442 -2.4338499294 -1.4561397554
H 3.1299317637 -0.8674067316 -2.2188639788
H 1.4807174393 -1.4610344217 -2.0239362263
H 1.5682475829 -1.1974464722 1.7885134954
H 1.8669082813 -2.6415713664 0.8117680805
H -0.0509389287 -2.1067879598 -0.6435957351
H -0.5543652972 -2.1572024685 1.0357389249
H -0.4719361356 0.3009665554 1.1875808940
H 0.3344233664 0.3528514253 -1.7498100843
H 0.4624890902 2.7959823585 -1.3589316964
H -0.0978994509 2.5704174935 0.3021824264
H -2.0022895706 3.2278496637 -1.1910925288
H -1.6160021142 1.8837659789 -2.2608835989
H -4.1015818767 2.7194739816 -0.3346568501
H -2.7161676639 -1.9315565626 0.8472702613
H -2.3713224566 -0.5738324898 1.9141081387
H -2.0622328634 -1.9474830782 -1.4277032400
H -1.7527584256 -0.4690545010 -2.3575108941
H -3.3855241503 -0.8222604138 -1.7655792094
H -5.6312726600 -1.9838696296 1.9028552414
