56
CONF189
C 0.1001693497 -4.3414049349 1.1463808001
C -0.8943743064 -3.9223522543 0.0634107643
C -0.3209324403 -4.0237830373 -1.3498199687
N -1.4786578645 -2.5976215637 0.3425328213
C -2.7822832137 -2.4157349888 0.7548100342
C -3.7731195448 -3.3510116190 1.0675508119
C -5.0073376900 -2.8692585477 1.4836872904
C -5.2573075712 -1.4889726297 1.5990224615
C -4.2755631511 -0.5604208897 1.2921347526
C -3.0237503035 -1.0173032825 0.8532108274
C -1.8111684543 -0.3555973028 0.4898985872
C -0.8862474392 -1.3490073465 0.1738983422
C 0.4875832156 -1.1700883862 -0.2637864043
C 0.8755194433 -0.1712843289 -1.0664756935
C 2.2996418589 0.1527706291 -1.3690822057
C 2.6676054802 1.5154954255 -0.7705907356
C 4.1316481257 1.9034620122 -0.9632443800
C 4.4676435697 3.2242463939 -0.2679177035
C 3.6487322080 4.4089904341 -0.7440022806
O 3.1905885975 5.2559607359 -0.0045386510
O 3.4738138327 4.5007956041 -2.0739251095
O 4.4676994759 2.0624992349 -2.3632168978
O 2.5492182281 0.1373819804 -2.8047589317
C -1.5829874678 1.0947463690 0.5374757763
C -0.5156740222 1.6368183355 1.2685752648
C -0.2852281090 3.0069811692 1.3017168351
C -1.1503521647 3.8346113838 0.6045704163
C -2.2318490309 3.3500430272 -0.1098258147
C -2.4398114405 1.9733461980 -0.1388591938
F -0.9308106577 5.1761380709 0.6295608294
H -0.3574682924 -4.2683446273 2.1371586366
H 0.4000169718 -5.3802192413 0.9788177194
H 1.0036646889 -3.7258500029 1.1338293037
H -1.7420607924 -4.6108358698 0.1127949826
H -0.0794005515 -5.0704414027 -1.5566441163
H 0.5926973716 -3.4371564152 -1.4671397817
H -1.0518782710 -3.6840871079 -2.0893098961
H -3.5986658455 -4.4195944182 1.0047467145
H -5.7928433142 -3.5757825790 1.7329069592
H -6.2324053849 -1.1515632701 1.9361423098
H -4.4680355891 0.5040404528 1.3876206805
H 1.2425059529 -1.8524841031 0.1210297446
H 0.1350407747 0.5115228142 -1.4835237860
H 2.9617588360 -0.6195519992 -0.9605563237
H 2.0097684183 2.2847867375 -1.1996986658
H 2.4639057435 1.4805656269 0.3062698323
H 4.7719119837 1.1197630846 -0.5335548959
H 4.3324789891 3.1251385480 0.8107225438
H 5.5234350860 3.4615454492 -0.4544218079
H 3.8551956653 3.6842112023 -2.4898654971
H 3.9513416209 1.3841121975 -2.8423552492
H 1.8335801383 0.6300029504 -3.2328176451
H 0.1470637892 0.9716707198 1.8126212630
H 0.5427877564 3.4307232993 1.8601708454
H -2.8872463301 4.0339663682 -0.6382888093
H -3.2695574950 1.5734153927 -0.7133890419
