33
CONF94
C -3.7099509077 -0.0767130749 1.5681115471
C -3.0474750921 -1.2584934741 0.8682046864
C -1.6772981648 -1.6246362673 1.4243734054
S -0.4075779703 -0.2682456204 1.3059737429
P -0.1480190543 -0.3135677084 -0.7785414723
O -0.3072128451 -1.6474968151 -1.3936207550
O -1.0748784196 0.7884003007 -1.4662870868
C -1.0379474863 2.1859192924 -1.0500181680
C -2.3091846923 2.8373426293 -1.5398469446
O 1.3098338878 0.4161171822 -0.9498701775
C 2.4570760486 -0.1527349652 -0.4354257204
C 2.9024931281 -1.3964658320 -0.8687135119
C 4.0866718313 -1.9268624868 -0.3726649535
C 4.8186797328 -1.1934945500 0.5525216186
C 4.3963831695 0.0520621816 0.9975454765
C 3.2048864394 0.5657528272 0.4989117868
Cl 2.6393903426 2.1178972623 1.0535006806
Br 6.4511150113 -1.9092057983 1.2369055917
H -4.7001723816 0.1195320762 1.1474882192
H -3.8313707971 -0.2694787607 2.6397115794
H -3.1090020010 0.8314360808 1.4590810607
H -3.6777379236 -2.1520433155 0.9723998281
H -2.9634324963 -1.0692841737 -0.2081142062
H -1.2584092917 -2.4966836489 0.9173009381
H -1.7288488730 -1.8301222458 2.4995219381
H -0.9601494562 2.2310466281 0.0434058761
H -0.1446553158 2.6446591939 -1.4860105371
H -2.3902147911 2.7597779285 -2.6270053011
H -3.1846419524 2.3627589822 -1.0884844437
H -2.3062471971 3.8964816375 -1.2651929004
H 2.3027242166 -1.9427769360 -1.5881623500
H 4.4338867462 -2.8966150534 -0.7064653869
H 4.9712845496 0.6157367302 1.7208933358
