41
CONF37
C 5.0737112222 -2.9593913914 -0.7645435399
C 3.8721191336 -3.1948808397 0.1184800121
O 3.1213687085 -1.9391181613 0.3171372424
C 2.2806140020 -1.5753005749 -0.6185188999
N 2.0060022791 -2.2652447409 -1.6959741215
C 1.1138075232 -1.7664518355 -2.5569353776
C 0.4318026696 -0.5839976074 -2.4506127057
C 0.7228196738 0.1483475923 -1.2930341310
N 0.2738265819 1.3110732452 -0.8099886905
C 0.9563541218 1.4189541574 0.3519630346
N 1.8020156237 0.4511730080 0.6777851683
N 1.6529802057 -0.3752998419 -0.3950406359
S 0.6379252151 2.7827294044 1.4863452075
O 0.4286970109 3.9773222796 0.6710057599
O 1.6416488280 2.7185496371 2.5464372817
N -0.8486606496 2.3714134110 2.2184064474
C -2.0314573701 2.5025976721 1.4420731837
C -2.6147011012 1.4064438168 0.7668475299
C -3.7778854248 1.5892671992 0.0159616382
C -4.3695113769 2.8410941411 -0.0747444811
C -3.8238817128 3.9218160262 0.6052675737
C -2.6736633045 3.7454507566 1.3661237698
Cl -2.0841582380 5.1055741105 2.2909443355
C -2.0324501546 0.0434221594 0.8954295530
O -1.3128660565 -0.3216747109 1.8131142384
O -2.4097094878 -0.7637810354 -0.1030132661
C -1.9698480725 -2.1427244872 0.0033537542
F 0.8943310545 -2.5460761973 -3.6234745799
H 5.6470163045 -3.8896051018 -0.8247620226
H 5.7179339667 -2.1835906862 -0.3426868102
H 4.7767238797 -2.6731634612 -1.7764206375
H 3.1876153727 -3.9423818177 -0.2872156497
H 4.1575563766 -3.4669757782 1.1350195899
H -0.2793452276 -0.2387547072 -3.1879209760
H -0.7629877961 1.4305074521 2.6140116817
H -4.2210808220 0.7404292844 -0.4890325888
H -5.2716584715 2.9765062237 -0.6609348957
H -4.2952475184 4.8971479449 0.5672087425
H -2.4325501480 -2.6115283922 0.8749480183
H -2.3027974239 -2.6195362500 -0.9170674413
H -0.8824098043 -2.1897017979 0.0940571853
