44
CONF12
C 3.9254447588 0.2075415326 -0.4618830840
C 3.6656705057 -1.0168182274 0.4190865851
C 2.8381232576 -2.1154122796 -0.3330138819
N 1.4367420118 -1.7642725236 -0.1757789756
C 1.0925288713 -0.6634340686 0.7426744745
S 2.5488133041 -0.5303755744 1.8481732936
C -0.1241764548 -1.5047928534 1.2511687051
C 0.4106669824 -2.6018532282 0.2840916824
O 0.1591106801 -3.7508655869 0.0564328600
N -1.4519938733 -1.0115871970 1.0677333200
C -1.9469146970 -0.7487565546 -0.1719736458
O -1.2968159395 -0.8939440018 -1.1978218557
C -3.3785307293 -0.1882003480 -0.1958332985
C -3.2728792637 1.3190073785 -0.3144388228
C -3.2183588642 1.9135024812 -1.5746104950
C -3.0667379713 3.2876397395 -1.7100698370
C -2.9679725067 4.0886037140 -0.5724627019
C -3.0156398627 3.5082483665 0.6943072543
C -3.1598070734 2.1334399822 0.8158704265
O -2.8260775375 5.4458083313 -0.6350124846
N -4.1171558610 -0.5751961642 1.0140507852
C 3.2690842352 -2.2156627345 -1.8020691968
O 4.3641821477 -2.6056068679 -2.1181159787
O 2.3592582497 -1.8210504297 -2.7094344863
C 4.9703313041 -1.5826625459 0.9631467270
H 4.5952429984 -0.0577059643 -1.2868935821
H 4.3992778684 0.9930284474 0.1306856027
H 3.0019867367 0.6121906181 -0.8868467889
H 3.0319236163 -3.0959706918 0.1199840859
H 0.8348079729 0.2793843065 0.2524414104
H 0.0131474068 -1.8279683778 2.2861856051
H -2.0821436584 -0.8883071701 1.8487135332
H -3.8145424649 -0.5749040636 -1.1285356122
H -3.2855642109 1.2926431356 -2.4626495081
H -3.0295384663 3.7357375163 -2.6999304126
H -2.9353021930 4.1445766629 1.5687673923
H -3.1882441357 1.6878276833 1.8050232810
H -2.8026178442 5.7200543615 -1.5587924138
H -4.9657463898 -0.0237187296 1.0809520104
H -4.3982169346 -1.5478658046 0.9497899399
H 1.5315506461 -1.5974189465 -2.2421736940
H 4.7874140040 -2.4219603689 1.6396433299
H 5.5827260944 -1.9325217888 0.1264815648
H 5.5269447720 -0.8104014780 1.5018806994
