55
CONF81
C -8.9193075258 -0.1628198120 -0.0456125597
C -7.5274057098 -0.0481072467 0.5274201531
O -6.5982946494 -0.1221923763 -0.5936464292
C -5.2869504778 -0.0536724423 -0.2665198427
O -4.8648664687 0.0713989399 0.8713878892
N -4.5356759545 -0.1455472565 -1.4076258780
C -3.1404585797 -0.1311383059 -1.5268207748
C -2.2745649591 -0.0376303575 -0.4339664242
C -0.9015810935 -0.0648596337 -0.6504664909
C -0.3716137416 -0.1255734166 -1.9385135197
C -1.2391249395 -0.1969275622 -3.0287966826
C -2.6085492198 -0.2175414551 -2.8239905932
S 1.3940087122 -0.1051559889 -2.1667548506
C 1.8070359918 0.9909838730 -0.8269938559
C 2.8693655229 1.8872121138 -0.9451802304
C 3.1576919673 2.7542124683 0.1031975721
C 2.3566165479 2.7673049903 1.2443707898
C 1.2866005310 1.8858511840 1.3558736587
C 1.0445460809 0.9560760831 0.3461982234
N 0.0042495145 -0.0166359968 0.4565455356
C 0.0095985607 -1.0741398484 1.3577613737
O -0.8276150533 -1.9681506243 1.2758519298
C 1.0698482202 -1.1195179625 2.4374955889
C 1.9548664304 -2.3551963214 2.2496605179
N 2.7540494582 -2.2828764719 1.0218915621
C 3.8678548079 -1.3316630237 1.1590203062
C 4.7014208237 -1.3061544987 -0.1105342040
O 5.2218436589 -2.6029010493 -0.4216561498
C 4.1398746540 -3.5303862426 -0.5683233647
C 3.3067601965 -3.6061150555 0.6987724512
H -9.0501641724 -1.1151253672 -0.5670498482
H -9.1247032861 0.6550185186 -0.7419555705
H -9.6461786481 -0.1127106977 0.7700997941
H -7.3021598868 -0.8644266052 1.2206041721
H -7.3752196702 0.9045268026 1.0443016743
H 2.5954205165 -2.4736234926 3.1435541424
H -0.8435831287 -0.2353507764 -4.0384312239
H -3.2770450050 -0.2816420668 -3.6774078020
H 3.4599780607 1.9057445993 -1.8557135279
H 3.9912745625 3.4428844978 0.0133911898
H 2.5578794101 3.4704649119 2.0454492657
H 0.6506368105 1.8924282439 2.2353924273
H 1.6746218569 -0.2171034278 2.4932014116
H 0.5379012248 -1.2180887760 3.3900105537
H 1.3123149299 -3.2401313480 2.1860730212
H 3.4807906679 -0.3218421724 1.3374564508
H 4.5159332299 -1.6047460364 2.0154163529
H 4.0909604457 -0.9434377311 -0.9532599995
H 5.5612493958 -0.6418469521 0.0157178324
H 3.5041386122 -3.2239816395 -1.4154804438
H 4.5867351487 -4.5037151200 -0.7897180303
H 3.9359187165 -3.9921488116 1.5252490842
H 2.4811996441 -4.3113439490 0.5445096999
H -2.6547842467 0.0294918951 0.5737786824
H -5.0587160823 -0.2435517406 -2.2666670006
