33
CONF40
C -5.0324477671 1.5462451871 0.0452960718
C -3.6035924896 1.1295616190 0.3618594686
C -3.5746400034 0.4138790532 1.7181919588
O -3.5847596024 1.0120224354 2.7614967173
O -3.6021080088 -0.9337874535 1.6618177643
O -3.1672400199 0.2756780949 -0.7030770170
C -1.8050696587 0.0727312226 -0.8443669751
C -1.4159621127 -0.5693885837 -2.0212165460
C -0.0801559524 -0.8464439729 -2.2523716401
C 0.8742942438 -0.4724967368 -1.3091035075
C 0.4970373930 0.1697174082 -0.1390550878
C -0.8509515295 0.4395108806 0.0998645487
O 2.1914771406 -0.7553740602 -1.6357424729
C 3.1404027342 -0.6500951855 -0.6484492000
C 3.2689260065 -1.6185770666 0.3521693180
C 4.2783700044 -1.5244238828 1.3034750337
C 5.1633694800 -0.4549299797 1.2360736145
C 5.0619952152 0.5131110855 0.2440547330
C 4.0418436481 0.4071131181 -0.6926993967
Cl 6.4365782523 -0.3355503805 2.4304584868
Cl 2.1670336959 -2.9642651969 0.4040577010
H -5.0556683668 2.0991418549 -0.8964597215
H -5.4122518478 2.1816392678 0.8483428005
H -5.6758072147 0.6664369270 -0.0453246717
H -2.9555497259 2.0110388325 0.4355256228
H -3.5522010472 -1.1991876396 0.7275208956
H -2.1748762177 -0.8462267124 -2.7447549638
H 0.2387629997 -1.3491357326 -3.1584304187
H 1.2392330542 0.4558822606 0.5975871289
H -1.1241068310 0.9229982675 1.0305860769
H 4.3733544559 -2.2784803517 2.0746235372
H 5.7653062386 1.3359598980 0.2077277149
H 3.9294038385 1.1456957289 -1.4789562506
