30
CONF131
C 4.2623337022 -0.0790642708 -0.2807177878
C 3.0830758907 -0.4829036591 -1.1638729313
C 1.7778842686 0.2012271505 -0.7569671624
C 0.5922307256 -0.2187437342 -1.6255574546
C -0.7030147524 0.5470100936 -1.3362810425
C -1.2208237016 0.4185131284 0.0944579791
C -1.5151957064 -1.0131677198 0.5588065180
C -2.3218749546 -0.8067885202 1.8472410831
C -3.1848571052 0.4551263603 1.5804476031
C -2.5705239134 1.1222903127 0.3229298583
H 5.1866111968 -0.5766633238 -0.5915621439
H 4.4307624304 1.0027879762 -0.3263650915
H 4.0737809080 -0.3426057773 0.7660680318
H 2.9458935489 -1.5718686111 -1.1215436895
H 3.3054575425 -0.2403947214 -2.2116070188
H 1.5697051711 -0.0288855904 0.2964247879
H 1.9049873828 1.2921564976 -0.8162342799
H 0.4181901555 -1.2962343902 -1.5006451362
H 0.8584429406 -0.0722966033 -2.6812441901
H -1.4880988043 0.1913456920 -2.0189155513
H -0.5495085429 1.6112324156 -1.5660198867
H -0.4849107819 0.8522268130 0.7875977941
H -0.6136552288 -1.6146542655 0.7144663439
H -2.1282554914 -1.5165969500 -0.2029645260
H -1.6308888997 -0.6187362351 2.6771536370
H -2.9239661090 -1.6796714315 2.1175547800
H -3.1702988522 1.1292036703 2.4423110902
H -4.2312042716 0.1873069683 1.4043073904
H -3.2105435765 0.9421435062 -0.5504103055
H -2.4617358493 2.2067052138 0.4267995993
