58
CONF37
C -0.3750930428 -2.0971176290 -2.5973160691
C -0.0346633591 -2.1183075927 -1.1166467466
O 0.4887867805 -0.8155913760 -0.7938251580
C 1.1579596087 -0.7716825332 0.4489732504
O 2.3965326902 -1.4547222981 0.3985592142
C 3.3136452917 -0.8051172185 -0.5047781449
C 3.5479723097 0.6251738751 -0.0743985116
N 2.2787137088 1.3737658290 -0.0433104733
C 2.5357713340 2.7523011283 0.3950529150
C 3.2460518645 3.5126167461 -0.6670425891
N 4.3159210592 4.2383740201 -0.4870997929
N 4.5749143308 4.7736166793 -1.7293611243
C 3.6859962380 4.3738102058 -2.6959533308
O 3.6526621247 4.6580613609 -3.8917861637
N 2.8225894266 3.5578539350 -1.9701247062
C 1.3334198004 0.7039502038 0.8637767847
C -0.0181916228 1.3763679932 0.9218291465
C -0.7286231607 1.3701178771 2.1229623910
C -2.0064109395 1.9187264987 2.2069671972
C -2.5474966250 2.4816963134 1.0660497431
F -3.7906455651 3.0278748816 1.1356870371
C -1.8744833149 2.5158266952 -0.1445265605
C -0.6051348717 1.9516852938 -0.2089407220
C -1.2494322056 -2.4256241777 -0.2654800099
C -1.3718635371 -3.6503131963 0.3789030483
C -2.5123457811 -3.9364748376 1.1323547277
C -3.5418450807 -3.0142834578 1.2437239069
C -3.4110399423 -1.7868171238 0.5923780964
C -2.2753509835 -1.4835219913 -0.1459074155
C -4.5314024082 -0.7952868826 0.7187014840
F -4.5721178763 -0.2291944802 1.9550115660
F -4.4367552802 0.2120464606 -0.1745352578
F -5.7415463738 -1.3820837163 0.5305978795
C -2.6131911606 -5.2799092385 1.7935880279
F -3.6609599387 -5.3694309438 2.6402451883
F -1.4967682760 -5.5766940555 2.5057805415
F -2.7580805484 -6.2759111522 0.8779332296
H 0.5260715898 -1.8986176406 -3.1840180471
H -1.1156914476 -1.3181468285 -2.8047804354
H -0.7896604951 -3.0627342959 -2.8992155406
H 0.7350132579 -2.8770212637 -0.9240898673
H 0.5749120176 -1.2869530603 1.2253560376
H 4.2436820261 -1.3759082073 -0.4540468778
H 2.9202012810 -0.8456268861 -1.5283442003
H 4.2293356212 1.1068257245 -0.7859827803
H 4.0330885939 0.6373748032 0.9205682649
H 3.1375445363 2.8036657156 1.3192866998
H 1.5757285645 3.2424007854 0.5955120496
H 5.3762116911 5.3678969823 -1.8750584427
H 2.0431531632 3.0507951746 -2.3615309845
H 1.7438843878 0.6660642930 1.8916501360
H -0.2805980964 0.9304428522 3.0098605361
H -2.5671544572 1.9156421551 3.1351543605
H -2.3397001103 2.9680361042 -1.0139112670
H -0.0611879179 1.9616796745 -1.1472601166
H -0.5755841132 -4.3848453698 0.2963709854
H -4.4303942692 -3.2391056951 1.8220486131
H -2.1763508154 -0.5176462030 -0.6298758050
