40
CONF11
C 4.3228152174 1.3507911445 1.4733690379
N 3.2073299503 0.5046659756 1.0592176797
C 3.6160491056 -0.8976203605 1.0608786814
C 2.0512740194 0.7311158971 1.9311054404
C 0.7771976301 0.0502710006 1.4373971700
C 0.4772273775 0.4171612085 -0.0160777047
N -0.7810753256 -0.1676405855 -0.4771930146
C -0.8597892872 -0.6862132574 -1.7878509799
C 0.0201718111 -0.2936835863 -2.8021550305
C -0.0596214771 -0.8663904924 -4.0682395510
C -1.0415484405 -1.8055637118 -4.3593490932
C -1.9558654758 -2.1665540978 -3.3742036395
C -1.8556574948 -1.6262063153 -2.0971472347
S -2.9483606700 -2.1707466911 -0.8041024009
C -3.1085449903 -0.6206809161 0.0475130791
C -1.9806453487 0.2108570810 0.1484239648
C -2.0898578307 1.4027693037 0.8735685227
C -3.2869134174 1.7135539081 1.5058025124
C -4.4048601672 0.8980257847 1.4128212033
C -4.3073932096 -0.2640918743 0.6528822777
Cl -3.3796739825 3.1975984041 2.4405675932
H 4.6712420437 1.1292211465 2.5018112205
H 4.0255467016 2.4039241948 1.4340571901
H 5.1675887810 1.2105420599 0.7911239987
H 2.8217370118 -1.5349128677 0.6607090815
H 4.4937896413 -1.0212711385 0.4188265023
H 3.8751817474 -1.2655053713 2.0738136560
H 1.8776695779 1.8152173497 1.9683897579
H 2.2571411483 0.4048920625 2.9715854989
H 0.8459564780 -1.0399770089 1.5187797407
H -0.0434346215 0.3516669207 2.0960089929
H 1.2762002831 0.0109080658 -0.6369137228
H 0.5095151512 1.5109857111 -0.1546589799
H 0.7684722085 0.4657446094 -2.6087549104
H 0.6444333555 -0.5575035195 -4.8337932553
H -1.1087419732 -2.2459644986 -5.3480118051
H -2.7426003013 -2.8833380830 -3.5866193838
H -1.2536751091 2.0847895614 0.9522695480
H -5.3284545069 1.1635280618 1.9116294578
H -5.1698261247 -0.9143648375 0.5492240082
