41
CONF7
C -0.0043212417 0.4987009070 -2.4570978198
C 0.2720260360 -0.8742691717 -1.9170873423
C 0.5724152821 -1.9324186212 -2.7780806005
C 0.8519374850 -3.2005071906 -2.2799665825
C 0.8367958917 -3.4337277996 -0.9092298588
C 0.5400166434 -2.4039197655 -0.0136873482
C 0.2621026872 -1.1317206422 -0.5376484778
N -0.0438562580 -0.0626737748 0.3745447556
C -1.3858734749 0.0595848152 0.9749438800
C -2.4396920178 -0.7591952031 0.2305539067
C -1.8269468622 1.5217091914 0.9567124007
O -1.6767115497 2.2884723392 0.0293034352
O -2.5085314539 1.8126820408 2.0750143828
C -3.0758706112 3.1461838449 2.1321456401
C 0.9378030532 0.6954633894 0.9383786379
O 0.6916529660 1.5079239102 1.8315744644
C 2.3660293415 0.4672760496 0.4269700226
O 3.2303576932 1.5212331011 0.7858328111
C 3.0160724357 2.6841111497 -0.0207580053
C 0.4998833081 -2.6641465863 1.4660323838
H -0.0722336579 0.4719017280 -3.5466479817
H -0.9293086480 0.9149308726 -2.0489097673
H 0.7950923020 1.1989175623 -2.1838346035
H 0.5855649589 -1.7535257425 -3.8492593940
H 1.0837602295 -4.0112297272 -2.9639901991
H 1.0561079023 -4.4245414396 -0.5221591952
H -1.3418128147 -0.2617449037 2.0225692613
H -2.5199139867 -0.4452123930 -0.8133451329
H -2.2032704205 -1.8248261808 0.2635323592
H -3.4065933352 -0.6079413065 0.7175236107
H -3.5990297906 3.1965366060 3.0859762894
H -3.7704837322 3.2958415960 1.3023091448
H -2.2789260533 3.8924132152 2.0900469995
H 2.7507441050 -0.4453565086 0.9000332509
H 2.3683247906 0.3014957203 -0.6596373796
H 1.9892074222 3.0583322991 0.0829672302
H 3.2145447618 2.4615582350 -1.0789352879
H 3.7150202738 3.4465312078 0.3287631191
H -0.5310468486 -2.6626082125 1.8392161827
H 1.0445955653 -1.9023636736 2.0324911897
H 0.9343678291 -3.6398704352 1.6928397292
