41
CONF6
C -4.0491003432 -3.1563940577 3.0111905327
C -3.3379144113 -2.2805860307 2.0292395899
C -3.7567108234 -0.9654544482 1.8006021573
C -3.0552030345 -0.2039022529 0.8783166787
N -2.0016059069 -0.7264266993 0.2221997700
C -1.6700457117 -1.9820190459 0.5144036048
N -2.2837973734 -2.7964983932 1.3851220088
N -0.5697973908 -2.5521059652 -0.1215814702
C 0.3255773678 -2.0277972781 -1.0455199881
O 1.2951547203 -2.6758650660 -1.4141342556
N 0.0154193147 -0.7619765323 -1.5057524537
S 1.1079294079 0.1522873474 -2.4225753217
O 0.4768315061 1.4769682016 -2.5043854758
O 1.4273024794 -0.5834059348 -3.6478617688
C 2.6132895206 0.2938261561 -1.4478708692
C 3.7069597210 -0.4688471292 -1.8391031042
C 4.9214287228 -0.3080365224 -1.1787858037
C 5.0382827421 0.6259874088 -0.1554753052
C 3.9426077910 1.3983227028 0.2188974009
C 2.7099340963 1.2328336489 -0.4128258089
C 1.5359264263 1.9990927643 0.1094149458
O 0.5229171941 1.4805316567 0.5318699047
O 1.7772435679 3.3135987550 0.1099416224
C 0.7152152247 4.1400699429 0.6598740029
C -3.4047500918 1.2116499073 0.5568476007
H -3.6359700730 -4.1654321931 3.0008160697
H -3.9543997894 -2.7397579996 4.0198958374
H -5.1181651426 -3.1954479708 2.7796262787
H -4.6084296698 -0.5544716325 2.3302507353
H -0.3495600899 -3.4963695594 0.1669574893
H -0.7206951791 -0.2517299745 -0.9807032758
H 3.6083536261 -1.1708883635 -2.6578928295
H 5.7754567562 -0.9065817174 -1.4765420833
H 5.9868414528 0.7612246312 0.3532459227
H 4.0334872964 2.1267596014 1.0175019639
H 0.5419739527 3.8761403594 1.7054495498
H -0.2001340473 3.9983859065 0.0809791687
H 1.0755550180 5.1635329116 0.5719328765
H -2.5525126956 1.8617011182 0.7823458115
H -4.2738011146 1.5459107730 1.1250992590
H -3.6110949217 1.3111704603 -0.5138524747
