40
CONF128
C 3.3594030712 -3.1165011667 -0.1068175857
C 2.5100195116 -1.8955044968 0.1649510063
O 3.2258598437 -0.6690599609 -0.2096338649
C 3.1490751998 -0.2964902461 -1.4899030048
O 2.5962588694 -0.9128704505 -2.3736727850
C 3.7738066851 1.0840033180 -1.6577958593
C 2.6644384019 2.1361637441 -1.8175170857
C 1.7517689537 2.0984667687 -0.6202061154
C 0.5841144003 1.3378096123 -0.6711627340
C -0.2409514955 1.1860576178 0.4378494932
C 0.1054918553 1.8347683571 1.6205640553
C 1.2563017798 2.5939899025 1.7211576568
C 2.0667475603 2.7101825028 0.5989120990
Cl 3.5279493913 3.6685046470 0.7486408836
F -0.7082582847 1.7476104991 2.6865610325
N -1.4029074635 0.3952949702 0.3687056391
C -1.6784152272 -0.6918872833 1.1712544387
O -1.0606534586 -1.1352046783 2.1241136561
N -2.8617163705 -1.1881864737 0.5922569591
C -3.1762293506 -0.4118942653 -0.5177614900
N -2.3048334526 0.5388658343 -0.6761203637
C -4.3471491506 -0.6346771781 -1.3933945828
C -3.5448975726 -2.3223566133 1.1083922763
F -3.6413015077 -3.2972097425 0.1521469029
F -4.8307602004 -1.9911028626 1.4415935637
Cl 4.8400892006 1.0842426648 -3.1335137253
H 2.8240404581 -4.0046373796 0.2429762395
H 4.3098584482 -3.0538748652 0.4302837324
H 3.5574377160 -3.2312180287 -1.1753026461
H 2.3158963956 -1.7644270342 1.2309352793
H 1.5625336187 -1.9188743927 -0.3803549660
H 3.1303907448 3.1175192040 -1.9339424781
H 2.0930687607 1.9111716241 -2.7217792681
H 0.3132782194 0.8329019515 -1.5929532116
H 1.4966961518 3.0905643479 2.6537237169
H -5.2783730722 -0.5560077431 -0.8244264477
H -4.3090362942 -1.6293235960 -1.8473332388
H -4.3422387373 0.1202451681 -2.1802584165
H -3.0195471769 -2.7108372513 1.9857429939
H 4.4203570324 1.3124857865 -0.8095878673
