22
CONF441
C 2.5099723211 -0.3980548015 0.5001484956
C 1.2293983656 0.4147294203 0.3423682439
C 0.0614881330 -0.4739508271 -0.0930134899
C -1.3028806824 0.2298927212 -0.0652870980
C -2.4374287735 -0.7905543421 -0.0601380139
O -3.7074512097 -0.1438620923 -0.2323577593
O -1.4137008153 1.0712682855 -1.2188879133
O 0.2953703638 -1.0715145046 -1.3677282882
O 1.4284160697 1.4536484464 -0.6205998144
O 3.6224840846 0.4609158556 0.7973032174
H 2.7536898413 -0.8924416286 -0.4446007259
H 2.3780518756 -1.1603709266 1.2801317172
H 0.9691989438 0.8519675075 1.3230862445
H 0.0128941308 -1.2975298459 0.6325655291
H -1.3661000351 0.8381935641 0.8528818421
H -2.3280083935 -1.4716593451 -0.9100133782
H -2.4102447378 -1.3727555745 0.8706602508
H -3.8986016722 0.3522318485 0.5750022951
H -2.3639852319 1.1756698126 -1.3786523253
H 0.1449355936 -0.3702633541 -2.0182072497
H 2.3210568993 1.7935282542 -0.4585839614
H 3.5014457337 0.8009117224 1.6939221871
