35
CONF779
C -1.8196235975 2.0433803128 0.2529215919
C -1.6517409287 2.7147825456 1.6110325155
C -0.3625757900 3.4653099335 1.8242455984
Br 0.0993532567 4.7085275341 0.3641333051
Br -3.2339685664 3.8906489200 1.8239407449
O -0.6324365734 1.3059220279 -0.1342863312
P -0.1968024429 -0.0256006457 0.6409823642
O -0.1099233525 0.0762625799 2.1163081369
O 1.1585804673 -0.3892147046 -0.1295865831
C 2.3988831297 0.1860093617 0.3334219277
C 2.6426303309 1.5468016628 -0.2876870507
C 3.8870299237 2.2314294359 0.2236224340
Br 3.6544928693 2.7269227200 2.1351299994
Br 2.8999460566 1.3400369550 -2.2519556621
O -1.2214837288 -1.1130880250 0.0681740798
C -1.5102938992 -2.3114318784 0.8224780948
C -1.1075340767 -3.5426999180 0.0418404657
C 0.3276158585 -3.5866032874 -0.4239923677
Br 1.5379046074 -3.6696530103 1.1488674940
Br -2.2166842367 -3.6896879190 -1.6105967846
H -1.9440076151 2.7969386656 -0.5262173850
H -2.6899111570 1.3790811288 0.2601763625
H -1.7345105104 1.9867352950 2.4220155106
H -0.3973760104 4.0656558340 2.7317734046
H 0.4653241207 2.7564649517 1.8892211378
H 3.1831480044 -0.5211646995 0.0514188643
H 2.3733974959 0.2826158688 1.4259252719
H 1.7696196805 2.1964875414 -0.1986599044
H 4.7681769205 1.5907438013 0.1786783843
H 4.0686764064 3.1687624725 -0.2972415084
H -0.9715954064 -2.2982524459 1.7778781205
H -2.5853366894 -2.3222031642 1.0176420664
H 0.6086104841 -2.6921222445 -0.9781112114
H 0.5353824824 -4.4854314754 -1.0000013009
H -1.3647491493 -4.4292049918 0.6257431384
