54
CONF23
C -6.0346666392 1.7812352071 0.4389805313
C -4.5138416281 1.6979950333 0.4188232145
C -3.9294167790 1.0926323541 -0.9114027631
N -2.6591365173 0.4988282367 -0.5387650078
C -2.3417082716 0.3454735822 0.8919374384
S -3.9465094031 0.5086527894 1.7558312217
C -1.7653596312 -1.0682731428 0.5637956254
C -2.0948206042 -0.7145444439 -0.9062108783
O -1.9757449513 -1.2608569209 -1.9779496747
N -0.4292955291 -1.4180040732 0.9362233818
C 0.6400925588 -0.7367795831 0.4641338022
O 0.5431018875 0.1790224804 -0.3498486599
C 1.9902672233 -1.1526951594 1.0673613539
C 2.2114554507 -0.4316215047 2.3789294954
C 2.1122942618 0.9601406512 2.4581158524
C 2.3046891547 1.6065447444 3.6749047677
C 2.5962565666 0.8705284674 4.8224772004
C 2.6942019467 -0.5162902644 4.7477637819
C 2.5002902884 -1.1652701906 3.5303435198
C 3.0622726422 -0.8586235400 0.0301005895
O 3.8953607280 0.0093519497 0.0800986964
O 2.9359517855 -1.7414299722 -0.9970275240
C 3.7998431626 -1.5703924351 -2.0955950150
C 4.9846446299 -2.2884144800 -2.1308076836
C 5.8051665659 -2.1613583581 -3.2497650091
C 5.4328808959 -1.3283243093 -4.3030691524
C 4.2356005534 -0.6174350793 -4.2417641217
C 3.4055885286 -0.7346056215 -3.1292338763
C -4.8671383821 0.0472198597 -1.5078893867
O -4.9256112810 -1.1108660618 -1.1617932546
O -5.6483613914 0.5959797089 -2.4519003068
C -3.8979429800 3.0797492126 0.6441078631
H -6.5052085629 0.7992765063 0.3376051205
H -6.3773533132 2.4253529401 -0.3770065977
H -6.3629051880 2.2273453859 1.3816419879
H -3.8102032312 1.9108569026 -1.6299351402
H -1.6000009288 1.0602173055 1.2595876577
H -2.4516429708 -1.8522081318 0.8957636050
H -0.2933209497 -2.1545617888 1.6132362917
H 1.9883760245 -2.2345093371 1.2392416296
H 1.8846410837 1.5372336796 1.5674839366
H 2.2257744497 2.6879690772 3.7275939059
H 2.7454763550 1.3771421315 5.7708178681
H 2.9203013005 -1.0964409369 5.6369431365
H 2.5755688162 -2.2474769455 3.4732533762
H 5.2539816158 -2.9312539043 -1.2993039821
H 6.7364835843 -2.7166332973 -3.2959658754
H 6.0750010220 -1.2340946625 -5.1726820826
H 3.9425732081 0.0305295044 -5.0615481668
H 2.4681809703 -0.1925123798 -3.0595341512
H -6.2734484819 -0.0799436300 -2.7685400588
H -2.8051725007 3.0500943786 0.6217757966
H -4.2180847663 3.4756809620 1.6108686451
H -4.2394230770 3.7603660979 -0.1439184147
