27
CONF98
C -3.7233554834 0.1275228259 -1.4868766388
C -3.5262152691 0.0428609875 0.0242179575
C -2.1453703143 0.5421451484 0.5564490544
C -0.9041452594 -0.1359862431 -0.1086308055
C 0.4351771404 0.0801127955 0.6783873721
C 1.7127912571 -0.1873846330 -0.1936324661
C 3.0024972232 -0.4272902027 0.6630035654
C 4.3367280446 -0.2590602447 -0.1352979552
F 4.2943953786 -0.9727687829 -1.2694089964
F 4.5615722669 1.0249211936 -0.4313468634
F 5.3482301841 -0.7058330776 0.6206871455
F 2.9736315501 -1.6848289101 1.1513040957
F 3.0304513608 0.4506019561 1.6924164947
F 1.9177808816 0.8794380461 -0.9992213362
F 1.5027796411 -1.2823133940 -0.9594445686
F 0.4485956984 -0.7612206731 1.7358688483
F 0.4821683043 1.3550457589 1.1228615136
F -1.1292954998 -1.4639781728 -0.2174163898
F -0.7663205261 0.3829461926 -1.3587029031
F -2.0720216223 1.8775993559 0.3273821695
F -2.0951415831 0.3239725740 1.8917403198
F -3.7330952623 -1.2186651370 0.4776430215
F -4.4611167386 0.8465889475 0.6340847553
O -5.0474920041 -0.2057653905 -1.8386437414
H -3.0700530214 -0.6027568282 -1.9713815632
H -3.4340739172 1.1353102035 -1.8189332613
H -5.6413923380 0.4403948229 -1.4375834725
