67
CONF13
C 5.5193539415 -1.9010481760 4.2413850628
C 4.1989986379 -1.5630442927 3.6241859807
O 3.2833033967 -0.9827079274 4.1689959144
O 4.1297106992 -2.0204149221 2.3482237049
C 2.9312008149 -1.7087376050 1.6334300164
C 2.9253367843 -0.2619340013 1.1689285146
O 3.8498552425 0.4879214010 1.4088038492
C 1.6884030174 0.1874143972 0.3879519519
C 2.0082010271 1.2640617521 -0.6993215858
C 1.1187882671 2.4656852545 -0.4026783197
C -0.0712825570 1.9091429014 0.4019854172
C 0.5867816245 0.8370979268 1.3099219079
C -0.4460088857 -0.1412445535 1.8785641716
C -1.5235996418 -0.6300108566 0.9185792156
C -2.2316224926 0.5193759555 0.2030439293
C -1.2149567064 1.4179636135 -0.5112904360
C -1.8895093686 2.6584195831 -1.1362315125
C -3.2823212056 2.4120441112 -1.7143118327
C -3.4368275547 0.9535448903 -1.9885979163
C -3.4822259069 0.5339377156 -3.2658763634
C -3.3660641058 -0.8755134646 -3.6338645606
O -3.4237591704 -1.2463157106 -4.8146575309
C -3.1615943057 -1.8113477864 -2.5335883443
C -3.1288502729 -1.4012353612 -1.2574367239
C -3.3568138228 0.0153979539 -0.8107219603
C -4.7525355298 -0.0359251095 -0.1060765239
F -4.2672038970 2.8532816944 -0.7859164048
F -2.8502779111 1.3140695146 1.2035225818
O -2.5063894454 -1.3745314186 1.6530361659
C 1.2550299640 1.5462143957 2.5030377086
O 1.6018205466 0.6370787207 -1.9289184169
C 1.6334343166 -0.7731890965 -1.7158309798
O 1.1665899567 -0.9194036973 -0.3540068663
C 0.6431197466 -1.4446884391 -2.6383165302
C 3.0474629556 -1.3193052969 -1.8825719571
H 6.3324885536 -1.5313655425 3.6109207219
H 5.6213260142 -2.9889335627 4.3058277459
H 5.5831378793 -1.4651754989 5.2372827236
H 2.9058128806 -2.3762309292 0.7700818860
H 2.0406875942 -1.9058613512 2.2414562802
H 3.0733269020 1.5155748511 -0.7337574805
H 0.8382608178 2.9726454193 -1.3285838757
H 1.6781367006 3.1841100369 0.2028046930
H -0.4938234864 2.6851189595 1.0508808721
H -0.9577568752 0.3652034448 2.7052686371
H 0.0497086765 -1.0178292012 2.3130475637
H -1.0711447594 -1.2525709670 0.1376318861
H -0.7960658136 0.8053741169 -1.3178038842
H -1.9780583936 3.4599138090 -0.3944871341
H -1.2562039182 3.0363801991 -1.9424641228
H -3.4499208088 3.0025730820 -2.6186633570
H -3.5548209992 1.2492775416 -4.0815090145
H -3.0587251627 -2.8627238136 -2.7872375220
H -3.0443968802 -2.1328185003 -0.4603723958
H -4.7244118671 -0.7718656047 0.6984473092
H -5.5025416987 -0.3339529977 -0.8432667554
H -5.0152932189 0.9379297622 0.3004513427
H -2.0565760620 -2.1366470706 2.0406058905
H 2.0489815977 2.2296192293 2.1936926785
H 0.4948644930 2.1195863158 3.0406165928
H 1.6887188326 0.8188689310 3.1961627441
H 0.9467283719 -1.2886289565 -3.6764949744
H -0.3572594480 -1.0341993305 -2.4876690159
H 0.6227666079 -2.5190710491 -2.4384432230
H 3.0675435128 -2.3902687258 -1.6635705524
H 3.7600620463 -0.8089935327 -1.2278558780
H 3.3688994451 -1.1670933318 -2.9163813333
