64
CONF119
C -0.5839408448 1.2521760337 -4.4305825216
C 0.9193978477 1.3481534092 -4.5804938578
O 1.5648203690 1.8682516133 -3.4145685941
C 1.6622629874 0.9431114554 -2.3312047465
C 1.6234543381 1.7836548873 -1.0703469797
O 1.8083745174 0.9012915003 0.0425624122
C 1.7268583942 1.4593814406 1.2851614394
C 1.5646817841 2.8192786517 1.5305495313
C 1.4913072143 3.2982056263 2.8424944002
C 1.5876917339 2.4183270493 3.9081930796
C 1.7509786421 1.0494013658 3.6740424942
C 1.8126720265 0.5591473784 2.3731481384
O 1.9475245433 -0.7575226846 2.0452091827
C 1.9657934638 -1.6974085717 3.1322913243
C 2.0244067808 -3.0878026706 2.5612082135
O 0.7594676639 -3.4231795466 1.9947523432
C 0.7637272340 -4.7476462467 1.4615422162
C -0.5886223255 -5.0739313127 0.8686804832
O -0.8417991259 -4.4541055159 -0.3955886251
C -1.4479506615 -3.1614946029 -0.3643952117
C -0.4127844264 -2.0780328092 -0.6595718133
O -1.0614320041 -0.8351099081 -0.9819883366
C -1.4668182046 -0.0207274220 0.0350730513
C -1.3616868013 -0.3032088301 1.3915680058
C -1.8012841755 0.6274960560 2.3378455824
C -2.3388662860 1.8391893476 1.9309757191
C -2.4487567165 2.1353332366 0.5676958365
C -2.0218339558 1.2125340636 -0.3807890556
O -2.0902435147 1.3846289169 -1.7315588693
C -2.5340473171 2.6521972984 -2.2362643553
C -2.4454986049 2.6078499623 -3.7473649857
O -1.0994531477 2.5730410019 -4.2228022145
H -0.8513869069 0.5985596630 -3.5923976317
H -1.0044453477 0.8188386441 -5.3529719591
H 1.1675216669 2.0441591395 -5.3888419078
H 1.3190011349 0.3563754153 -4.8410932397
H 2.6033829992 0.3759419219 -2.3954210248
H 0.8254765639 0.2342060311 -2.3228258806
H 0.6520222068 2.2918713214 -0.9948326947
H 2.4206315362 2.5392560579 -1.0950397098
H 1.4908764451 3.5188611899 0.7071063724
H 1.3622314559 4.3620355792 3.0130493854
H 1.5369947938 2.7799142082 4.9300570778
H 1.8196674056 0.3737164862 4.5173343383
H 1.0620527667 -1.5793992822 3.7452581654
H 2.8499863433 -1.5258556492 3.7606752612
H 2.8180417502 -3.1545984137 1.8004564151
H 2.2711095170 -3.7863180438 3.3766119622
H 1.5440274027 -4.8467186070 0.6899959089
H 0.9800781281 -5.4731883653 2.2637377863
H -1.3842884030 -4.8236722026 1.5849095370
H -0.6196464316 -6.1539131044 0.6847257334
H -2.2065737322 -3.1357782884 -1.1571932722
H -1.9510370244 -2.9908004137 0.5956218902
H 0.2968226461 -1.9521635812 0.1635754478
H 0.1363288026 -2.3513487772 -1.5656412174
H -0.9217244562 -1.2364675294 1.7239004016
H -1.7070105042 0.3940348286 3.3934997688
H -2.6766287601 2.5662474443 2.6623648738
H -2.8698364619 3.0839676796 0.2562796673
H -1.8980788748 3.4557091196 -1.8398845949
H -3.5759792278 2.8390803853 -1.9373654650
H -2.8973967396 3.5291565659 -4.1328049446
H -3.0206230386 1.7558103879 -4.1373479469
