45
CONF1
C 3.4881872707 2.2600775448 -0.0874527179
C 2.3956445629 1.2355242422 0.0240383932
C 1.0916254673 1.6172821300 -0.2661170488
C -0.0177112269 0.7632622308 -0.2057228584
C 0.2038262509 -0.5790416935 0.1398652753
C 1.5042054259 -0.9650329658 0.4635307688
C 2.6049974048 -0.1065546170 0.4222932453
C 3.9542922967 -0.6259357491 0.7788125834
O 4.9657768186 0.0447105606 0.6387838443
C 4.0691864015 -2.0368609127 1.3335696615
C -0.9093621677 -1.6196758260 0.1964378148
C -2.1545151727 -1.0780892481 -0.5147367954
C -2.5171378783 0.3478978933 -0.1200998973
C -1.3988416231 1.3448712188 -0.5299442855
C -1.6043111227 2.6501981405 0.2652459034
C -1.4513735953 1.6676014004 -2.0361427384
C -3.9003143590 0.6949348417 -0.6773235710
C -0.4932350627 -2.9175010930 -0.5183974422
C -1.2284089298 -1.9475994230 1.6673587482
H 4.2312232723 1.9691888573 -0.8343051728
H 4.0384267136 2.3657955179 0.8510465458
H 3.0618612838 3.2284817069 -0.3636954147
H 0.9362250688 2.6514266503 -0.5567773167
H 1.6672715550 -1.9951004128 0.7551291675
H 5.1086226016 -2.2061733087 1.6141698751
H 3.7785291547 -2.7772984530 0.5804711646
H 3.4235503816 -2.1800206319 2.2056140725
H -2.9992916627 -1.7472257908 -0.3051747762
H -1.9942424769 -1.1196074229 -1.6010062784
H -2.5828390355 0.3933744649 0.9761636242
H -0.9322454347 3.4449670866 -0.0664783554
H -2.6253106980 3.0184823448 0.1335207721
H -1.4325877446 2.4836736166 1.3333092883
H -0.6172901333 2.3181440756 -2.3132994339
H -1.3769059432 0.7629252941 -2.6472486874
H -2.3801610279 2.1858202154 -2.2927236762
H -3.9493891231 0.5156358282 -1.7564299181
H -4.6564364392 0.0593377426 -0.2059682811
H -4.1862401781 1.7343777478 -0.4944104569
H -1.3522571793 -3.5952584575 -0.5742950385
H -0.1529551195 -2.7080594598 -1.5373570166
H 0.3061948985 -3.4481491045 0.0065327138
H -1.5504587349 -1.0594438255 2.2181293490
H -2.0224132105 -2.7007680595 1.7265687443
H -0.3434111583 -2.3445949024 2.1745151303
