54
CONF452
C 0.8187650101 2.2371619673 1.8414386893
C 1.4523616891 1.5701564659 3.0702951575
C 1.9108025599 0.1797398362 2.7458735458
C 1.0651714119 -0.9153144726 2.7480704808
C 1.5653302435 -2.1831066330 2.3794113226
N 2.8624455072 -2.3122110401 2.0561815095
C 3.5971576641 -1.2016313702 2.0853418306
N 3.2075702751 0.0289034924 2.3967900108
N 0.7782703219 -3.2883161282 2.3606168298
C 1.2027590172 -4.5389390241 1.7468302050
C 1.4110405308 -4.4346165824 0.2357994663
O 0.2370322923 -3.9133359589 -0.3988445431
C 0.1758892800 -2.5495899009 -0.6144088262
C -1.0380565930 -1.9052705222 -0.3415646195
C -1.1669110903 -0.5317477446 -0.6245282878
C -0.0834231124 0.1884305458 -1.1574368274
C 1.1115206853 -0.4880848797 -1.4070620954
C 1.2491007327 -1.8425673889 -1.1504785590
C -0.1866719378 1.6393783131 -1.5532841595
C -0.8344025396 1.7764825681 -2.9396061409
O -0.9403646109 3.1206651025 -3.3873435299
C -2.0030165698 3.8450564412 -2.7759684171
C -2.0831721789 5.2056150560 -3.4361906671
C -2.4793919620 0.1376791496 -0.3090192967
C -2.1913110941 -2.6760377488 0.2389977210
Cl -0.6296017871 -0.7611940899 3.2025619326
H 1.5381114924 2.2798352192 1.0187782799
H 0.5005801128 3.2565276273 2.0787216536
H -0.0519574675 1.6704448837 1.4989722382
H 0.7312358277 1.5469225226 3.8930302554
H 2.3291879876 2.1366297663 3.3940447258
H 4.6474403017 -1.3220258256 1.8181433678
H -0.2140710032 -3.1199525396 2.4101940458
H 0.4272208642 -5.2798119435 1.9646278888
H 2.1381828662 -4.8770884584 2.2076105824
H 1.5766671608 -5.4348449221 -0.1787784874
H 2.2876219980 -3.8179799781 0.0266436606
H 1.9511209916 0.0586230876 -1.8277168918
H 2.1812359092 -2.3433135793 -1.3847858716
H 0.8133219768 2.0825522716 -1.6000713321
H -0.7504536001 2.2156217004 -0.8136662050
H -0.2099512622 1.2578609335 -3.6753629293
H -1.8246653519 1.2894697168 -2.9443282308
H -1.8294808444 3.9593452385 -1.6934966190
H -2.9504653002 3.2928994413 -2.9041132094
H -2.2739084824 5.0999619007 -4.5075476737
H -2.8905411783 5.7957053292 -2.9923521736
H -1.1429836772 5.7482612517 -3.3051796369
H -2.5246830014 1.1620110175 -0.6779000326
H -2.6485722137 0.1670157505 0.7749710669
H -3.3204033073 -0.4108773648 -0.7457091885
H -3.0095847760 -2.7739457465 -0.4847939172
H -1.8855324903 -3.6845765732 0.5192982267
H -2.6035680776 -2.1694257822 1.1182935637
