50
CONF11
C 4.8349085965 0.9723418641 2.3017878156
C 3.6532881667 0.1157538242 1.9574207802
O 2.9457788594 -0.4681424788 2.7313846794
O 3.4639099149 0.1003286147 0.5884808669
C 2.3008005862 -0.5199560551 0.1343796361
C 2.3775190384 -1.6080730390 -0.7352647533
C 1.2316284841 -2.1689889568 -1.3000153451
C -0.0384184611 -1.6742204865 -0.9690723480
C -0.0786281707 -0.6363763956 -0.0669575423
C 1.0475260660 -0.0255138675 0.4442951683
O 0.7426747617 1.0766670475 1.1921043131
C -0.6392134616 1.4197946998 0.8335439036
C -1.2885815264 0.0660510844 0.4741839351
C -1.8120282853 -0.6676306418 1.7229477021
C -2.2303815847 -2.0917349698 1.3730580532
N -3.1460360838 -2.1085815262 0.2285808776
C -2.6025099692 -1.4447641479 -0.9678681589
C -1.3399843070 -2.1035496477 -1.5982146919
C -2.3759507954 0.0431918363 -0.6027727890
C -2.0053836590 0.9019006525 -1.7674975603
C -1.2040360027 1.9572944852 -1.6478896795
C -0.6349330352 2.4443265408 -0.3527985804
O 0.7114056812 2.8826485800 -0.6534680929
C 1.2900942555 3.6741567122 0.2871717558
O 0.7033232986 4.1132418667 1.2472133518
C 2.7344962894 3.9058753292 -0.0492953265
C -3.6374080615 -3.4533917587 -0.0321929955
H 4.5014374419 2.0151020167 2.3417551198
H 5.6174565097 0.8966220565 1.5447620580
H 5.2110080144 0.6898818922 3.2845272345
H 3.3601583479 -1.9918045046 -0.9890613027
H 1.3336760111 -2.9859220394 -2.0081711818
H -1.0645028553 1.8856574063 1.7237097054
H -2.6715026450 -0.1132695333 2.1207999638
H -1.0316680644 -0.6910871160 2.4917811195
H -1.3291226723 -2.7090207354 1.1912575663
H -2.7516458273 -2.5402652779 2.2274653699
H -3.3990540642 -1.4846804833 -1.7238061302
H -1.3074859496 -1.8349104080 -2.6632119302
H -1.4483923279 -3.1941613590 -1.5720026048
H -3.3272880737 0.3958097482 -0.1767700739
H -2.4289732506 0.6565358362 -2.7398356573
H -0.9704179748 2.5779246240 -2.5091303376
H -1.1997222105 3.3259477736 -0.0197746521
H 3.1687002192 4.6037089037 0.6653790365
H 2.8310852333 4.2929197852 -1.0670779458
H 3.2614913667 2.9467917730 -0.0141304395
H -2.8413353190 -4.1964007567 -0.2305486765
H -4.3151587648 -3.4418154771 -0.8929875244
H -4.2026034169 -3.8062127779 0.8376901403
