43
CONF1
O 5.3291185996 2.4949715295 -2.8999405685
C 4.8490653402 1.2275646019 -3.0051349503
O 5.3903754210 0.3773300466 -3.6756021090
C 3.6106930179 1.0195708524 -2.2173495689
C 3.0275067206 2.0377930068 -1.4577685901
C 1.8714135503 1.7909437139 -0.7324758052
C 1.2990536142 0.5214183280 -0.7727073192
C 1.8565006827 -0.4972818569 -1.5456418797
C 3.0167809733 -0.2455973485 -2.2573054715
N 0.1026422734 0.2853434550 -0.0473041583
N -0.9354800959 1.1602457081 -0.1892738963
C -1.9432990429 0.5759916754 0.4567428480
N -1.5938623550 -0.6191089683 1.0178362350
C -0.3072148200 -0.7812933720 0.7083121363
C 0.4887453529 -1.9075058021 1.1615671955
C 1.8849430114 -1.8404649991 1.3001707050
C 2.6182939128 -2.9385432524 1.7100388223
C 1.9584782924 -4.1371283035 1.9943747872
C 0.5803571558 -4.2210374873 1.9065227958
C -0.1748745215 -3.1090386755 1.5200233917
O -1.5122328896 -3.2430356025 1.4999186718
C -3.2665330645 1.1664187836 0.5459313165
C -4.2729500730 0.5168349671 1.2763787088
C -5.5449228663 1.0516439740 1.3758703262
C -5.8312798893 2.2609057305 0.7384014996
C -4.8559466700 2.9234623305 0.0120433208
C -3.5685240257 2.3908555548 -0.0937165143
O -2.6695915060 3.0915103125 -0.8181432218
H 6.1296425342 2.5270404629 -3.4459078921
H 3.4830778690 3.0199593901 -1.4307007069
H 1.4087801751 2.5682471585 -0.1354972529
H 1.3830943660 -1.4716764279 -1.5814605108
H 3.4723467003 -1.0178268271 -2.8667950886
H 2.3939185214 -0.9062243232 1.0933116356
H 3.6943594984 -2.8635121544 1.8159921489
H 2.5263057369 -5.0072550600 2.3079964589
H 0.0507026117 -5.1345488943 2.1529455228
H -1.9063947345 -2.3488107161 1.3617282979
H -4.0296300151 -0.4179859150 1.7688920576
H -6.3093315183 0.5359087909 1.9458304718
H -6.8255203146 2.6903913239 0.8097870992
H -5.0627476087 3.8628052965 -0.4888382084
H -1.8158612209 2.6107190928 -0.8190519404
