45
CONF57
C -1.6656516569 2.3944020713 0.9685187422
O -1.6628986645 1.4637503830 -0.1422827116
C -2.8779496548 1.2107984587 -0.6720189578
O -3.9099598273 1.7794821517 -0.3673778060
N -2.7864935398 0.1752629533 -1.5783696189
C -1.5640614714 -0.3218592251 -2.1328507516
C -1.1358067985 0.1490084123 -3.3728202774
C 0.0218907493 -0.3655555715 -3.9428815620
C 0.7447477796 -1.3462996795 -3.2669233496
C 0.3097588559 -1.8128056575 -2.0300098462
C -0.8530350795 -1.3117831176 -1.4450790833
C -1.3721251536 -1.8272549633 -0.1242572772
O -0.4621694601 -2.7380312181 0.5189118602
C 0.5950076500 -2.1781556207 1.1428948152
N 0.8198499058 -0.8701209739 1.1650003140
N 1.9646746761 -0.7416789565 1.8961603131
C 2.4414937600 -1.9515883728 2.3099581845
C 1.5779356587 -2.9140234074 1.8422986038
C 2.5352695218 0.5324751961 2.0884910277
C 3.4038520347 0.7577043090 3.1589882821
C 3.9759698483 2.0109981337 3.3364165569
C 3.6578523004 3.0343841282 2.4514563795
C 2.7856490794 2.8278841444 1.3896095885
C 2.2276525488 1.5694543413 1.2043475213
Cl 4.3713416989 4.6261417876 2.6839507487
O -3.8908890815 0.0830733009 -2.4407345588
C -4.6031669646 -1.1444526024 -2.1785943643
H -0.6271541707 2.4507165638 1.2927654205
H -2.0190513946 3.3744157448 0.6405198449
H -2.2986350333 2.0168028203 1.7750725044
H -1.7161257532 0.9131597253 -3.8795647651
H 0.3602124866 0.0009553345 -4.9065155819
H 1.6506876405 -1.7530346867 -3.7048638711
H 0.8750160253 -2.5825135757 -1.5158350439
H -2.2841426503 -2.4106639874 -0.2834974031
H -1.6009954920 -1.0023372994 0.5574315542
H 3.3567703152 -2.0430184343 2.8749247107
H 1.6417251154 -3.9827301219 1.9727938686
H 3.6278922598 -0.0301717882 3.8689347491
H 4.6483496928 2.1881536239 4.1679348812
H 2.5483069472 3.6338965828 0.7045956093
H 1.5600961587 1.3896452025 0.3704944533
H -4.9819286115 -1.1556027195 -1.1511858906
H -5.4324616019 -1.1461037775 -2.8888736236
H -3.9573005380 -2.0119188188 -2.3579345865
