37
CONF333
C -7.9049207368 1.0652072533 0.3007286918
C -6.4288362407 0.7126347046 0.1958892083
N -5.6131370905 1.9291055932 0.4168960809
S -4.1913599238 1.9197776174 1.2311044677
O -4.2916359431 0.9860537945 2.3548923015
O -3.7530744223 3.3072755236 1.3909863302
C -2.9179258645 1.1190189101 0.0340825918
C -1.5949559962 0.7024742356 0.7481941033
C -0.4002911211 0.4639558155 -0.2422151432
C 0.7712404825 -0.3680421144 0.3929071206
C 2.1250521361 -0.2146577338 -0.3911818686
C 3.1462234469 -1.3610475350 -0.0890851405
C 4.6471083491 -1.0907133400 -0.4760951928
C 4.9532841238 -0.6873756268 -1.9513417565
F 6.2793162370 -0.6967656739 -2.1330097437
F 4.4948975147 0.5442910143 -2.2087508662
F 4.3917239467 -1.5529993457 -2.8046404772
F 5.3033605572 -2.2501034069 -0.2324537726
F 5.1471872180 -0.1326591152 0.3319862389
F 3.1447998548 -1.5967862430 1.2455880984
F 2.7482380761 -2.4790801495 -0.7320556909
F 1.8665231705 -0.2255661037 -1.7208079134
F 2.6791736934 0.9701362258 -0.0555276262
F 0.9652541778 0.0509302749 1.6630146503
F 0.4141677355 -1.6711962052 0.4054689741
F -0.8625035478 -0.2034667791 -1.3242198819
F 0.0777705226 1.6659207084 -0.6352459193
F -1.2462686284 1.6831238689 1.6117348054
F -1.8241812928 -0.4374097773 1.4377307917
F -3.5003957961 0.0318494712 -0.5117483686
F -2.6578876062 2.0146576419 -0.9408403521
H -8.5039979531 0.1688942118 0.1159352791
H -8.1439077431 1.4487544947 1.2961782857
H -8.1817320248 1.8187754323 -0.4427794620
H -6.1512113495 -0.0147834327 0.9625859979
H -6.1985185026 0.2834439518 -0.7851875797
H -5.6507560037 2.6429715927 -0.3067107875
