45
CONF25
C -4.8935939030 3.4033465656 1.9430476566
C -4.7445026352 1.9328571968 1.7192752475
C -3.7214482056 1.3609800750 1.0742822412
C -3.6319995095 -0.0905826868 0.8507069624
C -2.3122817439 -0.8828318399 1.0223197305
C -2.9710671711 -0.7079891757 -0.3486687994
C -2.3266152784 0.1593284030 -1.4044566752
C -3.6038718132 -1.9651248256 -0.9067665373
C -1.0557021616 -0.2140687803 1.3762843973
O -0.7047938454 0.9186097063 1.1036129201
O -0.2643921768 -1.0692045359 2.0909023718
C 1.0393314695 -0.5543600410 2.4642353660
C 1.9515633120 -0.4749143064 1.2734437260
C 2.4793125933 0.7247514323 0.8095906308
C 3.2946389940 0.7711674728 -0.3131030174
C 3.6173641600 -0.3723911141 -1.0336413375
C 3.1034434414 -1.5739924544 -0.5573619258
C 2.2936235252 -1.6235884560 0.5656768816
F 1.8297615311 -2.8162679182 0.9794944219
F 3.3970266595 -2.7216016843 -1.1939930597
C 4.5212176055 -0.3291985304 -2.2289757416
O 5.8557127902 -0.5694905946 -1.7762833028
C 6.7735269020 -0.5607131487 -2.8726830440
F 3.7742253575 1.9647011181 -0.7069356404
F 2.2142027696 1.8732207966 1.4527393023
H -4.0527160636 3.9590362696 1.5180175506
H -4.9557828372 3.6329373693 3.0139198072
H -5.8204615462 3.7777774823 1.4913022162
H -5.5385215902 1.2975497772 2.1153365086
H -2.9238827208 1.9874811343 0.6850018901
H -4.4822617180 -0.6473740823 1.2400116296
H -2.4225013800 -1.8668629461 1.4647504875
H -1.5715222258 -0.4180527966 -1.9494140262
H -1.8453069225 1.0460039292 -0.9941886031
H -3.0904853037 0.4766982020 -2.1228705133
H -2.8520462721 -2.5797769888 -1.4141890305
H -4.3755896556 -1.6988858724 -1.6377870842
H -4.0681558070 -2.5645549814 -0.1187011343
H 0.9356684225 0.4233658279 2.9363394939
H 1.4167760054 -1.2784683837 3.1881959832
H 4.4532448800 0.6518663051 -2.7184607453
H 4.2195278998 -1.0987872666 -2.9534074649
H 6.5264145366 -1.3483044337 -3.5985739534
H 6.7668964526 0.4125592038 -3.3836334601
H 7.7660239724 -0.7468507196 -2.4577252426
