47
CONF31
C 5.6910081762 1.4753923436 -1.9401737135
C 4.1842895339 1.5598572139 -1.7142684247
C 3.6598678342 0.5578670958 -0.7384649562
N 4.4418648914 -0.3357479646 -0.1190952696
N 3.6381152014 -1.0753025635 0.6619621289
C 4.2169728926 -2.1402497256 1.4737509080
C 2.3361507289 -0.6829843108 0.5890554568
C 1.2550689254 -1.3961813089 1.3100275408
O 1.3232765780 -2.6118950750 1.5184179091
N 0.2226353610 -0.6165735108 1.7030947756
C -1.0119790110 -1.1470770110 2.2697764187
C -2.1939995261 -0.9291820768 1.3534995234
C -2.1366047835 -1.3122328772 0.0101984904
C -3.2288391490 -1.1284608388 -0.8255814496
C -4.4239097882 -0.5572271435 -0.3592063590
C -4.4698255287 -0.1780792902 0.9839051607
C -3.3710562605 -0.3580465127 1.8261305577
C -5.6018669840 -0.3725681474 -1.3185255910
C -6.0255274521 -1.7465135211 -1.8728461629
C -5.1686825108 0.5360354578 -2.4854381818
C -6.8161294747 0.2656938768 -0.6341671742
C 2.3340106318 0.3782114944 -0.3148416356
Cl 0.9737966612 1.2897490878 -0.8855088612
H 5.9771794907 0.4939029299 -2.3283586062
H 6.0022940246 2.2346594244 -2.6624180714
H 6.2396499206 1.6415704873 -1.0089040348
H 3.9113576344 2.5628934115 -1.3615162243
H 3.6525277125 1.4270617057 -2.6653793679
H 3.7784372724 -2.1275909398 2.4725654887
H 5.2891364547 -1.9510218249 1.5350645161
H 4.0344016663 -3.1155415147 1.0157010729
H 0.2544596490 0.3722075728 1.5018701992
H -1.2018449777 -0.6756539030 3.2403243585
H -1.2260032020 -1.7550521643 -0.3856076372
H -3.1469495530 -1.4390156630 -1.8626747140
H -5.3649744274 0.2727860542 1.3961260959
H -3.4371256088 -0.0459156147 2.8654139551
H -6.3313467314 -2.4132984305 -1.0596156945
H -5.2113552340 -2.2277359528 -2.4224186743
H -6.8722711434 -1.6266228970 -2.5577278865
H -6.0046101554 0.6754411002 -3.1797935719
H -4.8600984170 1.5192505709 -2.1145526346
H -4.3334860960 0.1024873332 -3.0430906116
H -6.5831796075 1.2624117632 -0.2451219257
H -7.1856626763 -0.3523724354 0.1907890943
H -7.6254017094 0.3710820208 -1.3635554577
H -0.8493213468 -2.2154329941 2.4422798385
