22
CONF401
C 2.0092701142 -0.6598390351 -0.4059979560
C 1.3132793369 -0.3630629911 0.9126513577
C -0.0000951155 0.4273681388 0.7690748461
C -0.9901648882 -0.2051047606 -0.2110206360
C -2.3173470824 0.5462843159 -0.2099450370
O -3.2554231253 -0.0433101876 -1.1206685843
O -1.1773014376 -1.5660839314 0.2062981025
O 0.2630553973 1.7896209878 0.4062562852
O 2.1817308023 0.3311624952 1.8182097630
O 2.2359931875 0.5795016112 -1.1064940498
H 1.3858084355 -1.3363126186 -1.0055759167
H 2.9647079525 -1.1596069843 -0.1964275921
H 1.0873171331 -1.3264510270 1.3807531870
H -0.4673064766 0.4704749877 1.7619773486
H -0.5679184739 -0.1758020330 -1.2283975501
H -2.7257282770 0.5682159366 0.8107015167
H -2.1554567606 1.5743229195 -0.5449342583
H -3.6470542575 -0.8109144925 -0.6866235476
H -1.6399443225 -2.0293300939 -0.5033165054
H 0.7926865527 1.7522892069 -0.4086952648
H 2.1610107272 1.2634486948 1.5573004683
H 2.5488807790 0.3731288660 -1.9951258816
