40
CONF7
C -3.1670210846 -3.2930792715 2.6503444095
C -2.7122385135 -2.0526126983 1.9354022009
C -1.4584211496 -1.4914767077 2.2085653824
C -1.0158050233 -0.3597494447 1.5395569933
C -1.8208738301 0.2463878370 0.5649974977
C -3.0801501092 -0.3000153942 0.2960002480
C -3.5155474069 -1.4326027330 0.9746567755
C -1.3992904170 1.4593776933 -0.1338152944
C -2.1165487607 2.6160503623 -0.3890608212
C -1.1930309321 3.4809831110 -0.9952479578
N 0.0112508824 2.9309849680 -1.1310586550
N -0.1275511380 1.6955345228 -0.6061384404
C 0.9745372154 0.8003584492 -0.6711605487
C 2.2337146506 1.2526576873 -0.2829397950
C 3.3159208394 0.3854638382 -0.3425615904
C 3.1130540483 -0.9192774890 -0.7832960035
C 1.8585525964 -1.3726611550 -1.1822231596
C 0.7799386752 -0.5006879394 -1.1322256530
S 4.5143003912 -2.0436305664 -0.8566666524
O 5.5321528960 -1.5514019519 0.0840385461
O 3.9952050530 -3.4156726913 -0.7485506314
N 5.2012212186 -1.9271290867 -2.3875130718
C -1.4507128337 4.8602576158 -1.4958258185
F -2.1746379801 4.8512717188 -2.6486776716
F -2.1737202765 5.5790591868 -0.6004992952
F -0.3163153333 5.5423627205 -1.7474315971
H -2.9672259504 -3.2229132566 3.7239325507
H -4.2354002917 -3.4671621868 2.5026536324
H -2.6268614298 -4.1714356619 2.2780610395
H -0.8242806978 -1.9447425116 2.9656514619
H -0.0484053268 0.0664305431 1.7861676404
H -3.7135391322 0.1597036529 -0.4565094540
H -4.4948253699 -1.8454781191 0.7494508836
H -3.1437074878 2.8109780413 -0.1219192719
H 2.3580944104 2.2674698041 0.0765118880
H 4.3001075567 0.7160783492 -0.0308013716
H 1.7227632119 -2.3899442679 -1.5313851881
H -0.2037437107 -0.8275522393 -1.4488458866
H 5.5305125817 -0.9799462639 -2.5679938547
H 4.5385281540 -2.2122389468 -3.1069382717
