54
CONF1
C -1.9735465381 1.5484307530 0.5617488501
C -1.7256254046 0.1528611306 -0.0299334582
C -1.1694323421 0.2653783110 -1.4420362294
C 0.2563798716 0.8471669081 -1.4617120852
C 1.2355075839 0.0691289540 -0.5498968137
C 0.6557589335 -0.0646485642 0.8885981412
C -0.7379321464 -0.6782001817 0.8100168382
C -1.5061211228 -0.9715102934 2.1033161667
C -2.9827467765 -1.1137150409 1.6394338801
C -3.0176945389 -0.7426741855 0.1359332972
C -4.2855635164 -0.0103033860 -0.2758522311
O -4.8427902162 0.7809655799 0.4642331117
C -4.8356504110 -0.2488729374 -1.6642572502
O -5.9050221929 0.6143358732 -1.9531996700
O -2.9629881196 -1.9004904555 -0.7083799415
C 1.5611254113 -0.8995747834 1.7925337642
C 2.9874602473 -0.3412585771 1.8226662670
C 3.5001236479 -0.2523352744 0.4199642323
C 4.5278763221 -1.0177538191 0.0126416186
C 5.0146046104 -1.0483987735 -1.3683187500
O 5.9297899860 -1.7893358862 -1.7218818505
C 4.3551188256 -0.1178673053 -2.2892545711
C 3.3257378484 0.6477262567 -1.9050336457
C 2.7206313433 0.6384601442 -0.5274199964
C 2.7495443592 2.1057889386 -0.0332662215
O 0.6861213126 0.9223919322 -2.8232652519
H -1.0402474604 2.1047669152 0.6723131788
H -2.4601822288 1.5119313355 1.5380757866
H -2.6233198517 2.1296960884 -0.0980389045
H -1.1462063055 -0.7296122081 -1.9055225464
H -1.7911926572 0.9069532659 -2.0770043344
H 0.2222830210 1.8923982169 -1.1345816354
H 1.3174298673 -0.9528195056 -0.9583868467
H 0.5738583898 0.9362745653 1.3330688821
H -0.5989439241 -1.6355266817 0.2774422985
H -1.1445559408 -1.8712209765 2.6076383671
H -1.3976157985 -0.1408514806 2.8091475427
H -3.3688210929 -2.1301332815 1.7622988363
H -3.6476172499 -0.4487427116 2.1943482012
H -4.0201706807 -0.1278187200 -2.3949133306
H -5.1406854827 -1.3055260851 -1.7267611142
H -6.0791183290 1.1030323061 -1.1318158819
H -2.3315024339 -2.5239166209 -0.3352683369
H 1.5896100009 -1.9341733517 1.4222663036
H 1.1482197254 -0.9277724038 2.8069411598
H 2.9774411520 0.6481122708 2.2983843759
H 3.6412018224 -0.9825895257 2.4206790787
H 5.0455785787 -1.6701935368 0.7117401604
H 4.7641201999 -0.0565965493 -3.2936242043
H 2.8964905232 1.3593681232 -2.5998386788
H 2.2276109088 2.2368491242 0.9167436865
H 2.2854848631 2.7629768435 -0.7735171283
H 3.7863116091 2.4281796436 0.0982673875
H 0.7538713843 0.0212595010 -3.1643101108
