61
CONF12
C -1.8621056402 -0.2462726903 -2.9998804893
C -0.9989687028 -1.1650933796 -2.1241305981
C -1.5557189560 -1.2994684738 -0.7276644240
C -2.2989330900 -2.4362150168 -0.3955301538
C -2.8884683399 -2.5843605141 0.8568614624
C -2.7232002046 -1.5615480687 1.7965920662
C -1.9885633236 -0.4136984719 1.5083523370
C -1.3974439129 -0.2843977742 0.2316087342
C -0.6065654432 0.9164694628 -0.0834681219
C -1.1056885971 2.2592775145 -0.2931407920
O -2.2668483150 2.7025666793 -0.2959050350
N 0.0254102506 3.0500178703 -0.4856467014
N 1.1792217480 2.2757740467 -0.4266679490
C 0.7484295383 0.9965367557 -0.2277228388
O 1.6590211533 -0.0153095943 -0.2191546126
C 2.0031491317 -0.5517831000 1.0247360181
O 1.6717582639 -0.0218167560 2.0511956654
C 2.7784933967 -1.8401056538 0.8526471861
C 1.7761835709 -2.9034533034 0.3549471010
C 3.3543193266 -2.2541119667 2.2088628156
C 3.9071431632 -1.6558408984 -0.1749385728
C 2.3442939219 2.6398602897 -1.2382893609
C 2.0170890782 2.8910213474 -2.7105213568
O 1.5474775434 4.2136626893 -2.9683652635
C 0.2112204908 4.4569951977 -2.5292443604
C 0.0381484660 4.4018363533 -1.0128661508
C -1.7940658987 0.6878619973 2.5260982956
C -2.3404798000 0.4165351361 3.9239749446
C -3.6960174614 -3.8065198252 1.1999376527
H -1.4431650494 -0.1646628529 -4.0078867512
H -2.8815728054 -0.6372726932 -3.0810120871
H -1.9183156190 0.7587987824 -2.5697432117
H -0.9488378082 -2.1596432864 -2.5800232046
H 0.0239146564 -0.7770789465 -2.0942573817
H -2.4183607078 -3.2220992881 -1.1382341064
H -3.1765295905 -1.6790377158 2.7760584397
H 0.9534167043 -3.0295589310 1.0663536189
H 2.3008224058 -3.8590495098 0.2585077081
H 1.3610367263 -2.6311964552 -0.6191134225
H 3.9033067691 -3.1924464290 2.0893713305
H 2.5613797755 -2.4064554819 2.9456601688
H 4.0432651062 -1.4951413611 2.5912201246
H 4.5906103327 -0.8578483307 0.1324092445
H 3.5140891597 -1.4204220227 -1.1663998965
H 4.4750979647 -2.5888051870 -0.2400862125
H 3.0413855660 1.8021927666 -1.1496129082
H 2.8248835930 3.5233650288 -0.8053900605
H 2.9424313607 2.7901018145 -3.2852137130
H 1.2929479297 2.1426011398 -3.0716971963
H -0.0318100569 5.4673016041 -2.8719274418
H -0.4816403134 3.7428682883 -3.0024970402
H 0.8098298488 4.9944363601 -0.5092426793
H -0.9379393280 4.8221136873 -0.7519621019
H -2.2502329175 1.6044144826 2.1293718221
H -0.7201610478 0.9025852488 2.5865922031
H -3.4261168530 0.2753594452 3.9163694390
H -2.1205267916 1.2648058598 4.5785861622
H -1.8862438896 -0.4761075447 4.3669968827
H -3.3669586124 -4.2409616025 2.1495744858
H -4.7563457889 -3.5527040002 1.3129979805
H -3.6119527497 -4.5688725212 0.4215517247
