43
CONF76
C -0.8500316583 2.5282721213 0.2402948043
C 0.3089382011 1.8816673130 0.9959277280
C 0.6567311551 2.6793560243 2.2528035177
C -0.0085975281 0.4208744308 1.4091492641
C -0.2294782291 -0.4863138186 0.2346235586
C 0.8663302164 -1.0162486685 -0.4704453250
C 0.6184055395 -1.7640746981 -1.6279439211
N -0.5962014406 -2.0289493040 -2.0864678330
C -1.6402135376 -1.5622419021 -1.4081109546
C -1.5129677982 -0.7788427049 -0.2596478130
C -2.7405427512 -0.2936360112 0.4519701481
O -3.0149184069 -0.5682331002 1.6004665659
O -3.4953582919 0.4531457079 -0.3604220656
C -4.7370691813 0.9522558496 0.2139167765
C -2.9906161497 -1.9570254782 -1.9731362420
F -2.9600919416 -3.2702371777 -2.3655075533
F -3.2406448027 -1.2132764357 -3.1070795833
C 1.7526781425 -2.2985658126 -2.4962521784
F 1.3288305225 -3.2456105056 -3.3487380238
F 2.2981628859 -1.3041057238 -3.2397017172
F 2.7480792128 -2.8401171700 -1.7594913714
C 2.2495400014 -0.7807011246 0.0165594691
N 3.0203539310 0.1027590847 -0.4702537880
C 4.2878807980 0.1894078799 0.2646299198
C 4.5454127131 -1.1213196590 1.0254540077
S 2.8634946948 -1.7922227173 1.3704364788
H -1.0770485951 2.0030781889 -0.6931262248
H -1.7571484294 2.5393937055 0.8576729090
H -0.6041303130 3.5643667412 -0.0132020267
H 1.1871717410 1.8622290901 0.3392735309
H 1.5054282449 2.2340656016 2.7822606895
H -0.1989399677 2.7062075172 2.9379207874
H 0.9157066673 3.7106456711 1.9930837799
H -0.8871697209 0.4244242421 2.0580771204
H 0.8302979505 0.0425755782 2.0005250864
H -4.5140359397 1.5816658285 1.0778246231
H -5.2038447694 1.5312328226 -0.5806204122
H -5.3693206142 0.1127249130 0.5104876034
H -3.8296763246 -1.8284835814 -1.2848781556
H 5.1077770352 0.4027871533 -0.4277562688
H 4.2053368172 1.0383329559 0.9582138957
H 5.0765184940 -0.9599730758 1.9650999918
H 5.0849714166 -1.8512902436 0.4161094822
