45
CONF13
C 2.4419576087 -1.7015680597 -2.5823166217
C 2.3500805493 -0.8900289862 -1.2954499706
C 0.9236028531 -0.3829342149 -1.0956487896
O 0.4051088842 0.3419955608 -1.9448551564
N 0.2833219718 -0.7758455074 0.0274521882
C -1.0582508354 -0.3714588020 0.3087780440
C -1.4165380496 1.1382483130 0.5404523650
N -2.3821786253 1.0306111062 -0.5585775614
C -2.0988175535 -0.2997868130 -0.8362059207
O -2.5701891147 -1.0758121451 -1.6346821021
C -3.6632716648 1.6767414035 -0.4034437420
C -4.0400188131 1.5343359063 1.1187732929
S -2.3920455233 1.6560101783 2.0137613805
C -4.9576992282 2.6367773449 1.6365096036
C -4.6709268102 0.1609332071 1.3475038024
C -3.5774632756 3.1281432064 -0.8498655743
O -2.5799573462 3.8110405773 -0.7792659213
O -4.7588893466 3.5602891769 -1.3186997223
O 2.7155766486 -1.6822117342 -0.1555806281
C 4.0395037042 -1.8307988660 0.1689493076
C 5.1023849499 -1.2698526669 -0.5415587696
C 6.4070096969 -1.4890498306 -0.0967561396
C 6.6616565632 -2.2566087234 1.0345154717
C 5.5899202837 -2.8150948435 1.7327308082
C 4.2853912371 -2.6069871502 1.3063700451
H 1.7716576287 -2.5643557585 -2.5268411926
H 2.1547409611 -1.0798503623 -3.4327968520
H 3.4639064935 -2.0557819874 -2.7352520198
H 2.9800627956 0.0075250727 -1.3482742100
H 0.7749278927 -1.3621854091 0.6864021156
H -1.4588391069 -0.9883309361 1.1180795642
H -0.5960735388 1.8388538174 0.3691622074
H -4.4147167181 1.1575111560 -1.0066424219
H -5.1581732357 2.4811206559 2.7001356716
H -5.9129812075 2.5975661172 1.1033480672
H -4.5205376154 3.6307923394 1.5104159484
H -5.6405555480 0.1161745732 0.8384196088
H -4.0419353016 -0.6487533483 0.9677586387
H -4.8287855115 -0.0037296374 2.4164046279
H -4.6774484792 4.5032675487 -1.5473140622
H 4.9416335229 -0.6744363126 -1.4318888535
H 7.2295216028 -1.0505749753 -0.6536559221
H 7.6806031959 -2.4205956331 1.3687991855
H 5.7697200891 -3.4174148997 2.6180146371
H 3.4440035065 -3.0340154630 1.8428347574
