50
CONF6
C -3.7350712193 -0.9806482706 -1.8897187983
C -2.6221814312 -1.8682527462 -2.3946052917
C -1.2145803789 -1.3585585643 -2.5024477680
C -1.5588828900 -2.4076136218 -1.4294134520
C -1.5607614680 -2.1527902451 0.0190546098
O -1.5363666265 -3.0269852770 0.8611485633
O -1.5874899161 -0.8266383620 0.3359576946
C -1.5977953162 -0.5286156586 1.7568313594
C -2.2246804710 0.7894594415 1.8638113934
N -2.7065625507 1.8323236596 1.9800945351
C -0.2034467553 -0.5192423822 2.3440082652
C 0.7501753836 0.3530601598 1.8201604004
C 2.0251376860 0.3667438340 2.3769097706
C 2.3532026104 -0.4879216816 3.4294517822
C 1.3940254013 -1.3591272342 3.9297176202
C 0.1078722909 -1.3768867515 3.3958546113
O 3.0449848092 1.1568963601 1.8957970862
C 2.7773200212 2.4116900505 1.3696154088
C 1.8012635126 3.2533600447 1.8978420709
C 1.6383094289 4.5223189108 1.3484879556
C 2.4478222420 4.9525168122 0.2990184330
C 3.4356350098 4.1051506288 -0.1987616689
C 3.6034158078 2.8304831588 0.3314640674
C -0.8754340518 0.0384441362 -2.1697015857
C 0.3429945566 0.5756756995 -2.0860823358
C 1.6653842327 -0.1304112644 -2.1842585248
F 2.4407964734 0.1129366135 -1.1000365847
F 2.3761409104 0.2717158528 -3.2680040873
F 1.5221447026 -1.4674659798 -2.2728690341
Cl 0.5418599678 2.2939240601 -1.7873516810
C -3.0694757319 -2.8507149841 -3.4556797273
H -4.5431625117 -1.6003669446 -1.4878181314
H -3.4235798552 -0.2867030108 -1.1088112127
H -4.1405368732 -0.3997767063 -2.7253096611
H -0.6230206290 -1.7926722053 -3.3023232598
H -1.2153967653 -3.4143074707 -1.6433167621
H -2.2236929223 -1.2584062692 2.2823723950
H 0.5014390100 1.0138602628 0.9962207489
H 3.3564443552 -0.4583184857 3.8410632594
H 1.6500040273 -2.0252534060 4.7469797401
H -0.6445915852 -2.0531320253 3.7873877528
H 1.1785740453 2.9263331489 2.7236024238
H 0.8761502951 5.1801807099 1.7544109508
H 2.3138811881 5.9432109745 -0.1224953531
H 4.0755921047 4.4318728609 -1.0124269535
H 4.3600911645 2.1544104615 -0.0519411555
H -1.7043466523 0.7231301671 -2.0138333643
H -3.4792557577 -2.3063173461 -4.3133617934
H -2.2385040187 -3.4696743453 -3.8045970404
H -3.8518449868 -3.5078963752 -3.0620976929
