24
CONF232
C 2.6698965813 0.9470080200 0.6097283864
C 1.2532791235 0.5080793201 0.9434144548
C 0.5317595644 -0.0167444603 -0.3060783323
C -0.9528543940 -0.2868289282 -0.0400709210
C -1.6713016807 -0.7513600199 -1.3357219500
C -3.1445335252 -0.8905677531 -1.0674146236
O -3.9684678752 -0.2927610113 -1.7351673149
O -1.4317719332 0.1447730377 -2.3989201752
O -1.1214891495 -1.2699432515 0.9751377120
O 1.1842466874 -1.2458073717 -0.6597154708
O 0.5883676942 1.6659023095 1.4699045953
O 3.3804892646 1.3572722227 1.7800595969
H 3.2254824552 0.1142046142 0.1732714588
H 2.6236386385 1.7648430664 -0.1273511807
H 1.2879932069 -0.2886196397 1.6990188611
H 0.6185777900 0.7234252692 -1.1113706959
H -1.4283955166 0.6339891894 0.3153987193
H -1.2897925324 -1.7606283617 -1.5785922537
H -3.4362819855 -1.5516440738 -0.2331059964
H -2.3062027591 0.4375508731 -2.7102196518
H -0.5248151295 -2.0021836634 0.7556039529
H 1.1315953350 -1.3585013026 -1.6169938820
H -0.0602958582 1.3783830932 2.1235549874
H 2.8408755007 2.0401585200 2.2013227133
