82
CONF16
C -3.7846803527 3.7561641590 -0.4115687497
C -4.0232420917 2.6707115826 -1.4245633887
C -4.1128822923 2.9454436895 -2.7309143072
C -4.2208687309 1.2659956813 -0.9067426512
C -5.6075590610 1.1297237725 -0.1777274067
C -5.3268496152 0.4620031806 1.1867104384
C -4.0005122575 -0.2782583685 0.9748799750
C -3.2116160444 0.7702373843 0.1545157706
C -1.8454973896 0.2493703357 -0.2906057327
C -1.0742398325 1.2189322387 -1.1897874683
C 0.2956344484 0.6729406062 -1.6139763492
C 1.1353438632 0.1307744495 -0.4453687564
C 2.5952110466 -0.2881240649 -0.8565037035
C 3.3021286735 0.9656895900 -1.4232702758
C 4.8164723507 0.8010276950 -1.5412907321
C 5.4438402329 0.4399778212 -0.2040809255
C 4.8741244418 -0.8553079792 0.4062963232
C 3.3223626928 -0.6847555065 0.4657357177
C 2.5966299514 -1.8434416905 1.1518989895
C 1.1796384562 -1.4349456586 1.5566654873
C 0.3200329658 -0.9088196662 0.3882220865
C -0.9809962538 -0.1656805658 0.9443403434
C -1.7833103973 -1.0885641490 1.9031594133
C -3.2009336724 -0.5918180511 2.2382107228
C -0.6150198153 1.0866031404 1.7767257944
C -0.0738735047 -2.1368381293 -0.4653251240
C 5.3427708138 -2.0981815535 -0.3654954024
C 5.4189526254 -0.9654325253 1.8445929033
O 6.8738611197 0.3020461458 -0.3303398791
C 2.6252577975 -1.3837478387 -1.9425524966
C -4.2726167544 -1.5627581944 0.1647728724
O -5.0956058780 -2.5045140835 0.8772552232
H -3.8937465623 4.7461510687 -0.8613022547
H -4.4794155926 3.6741169078 0.4325611983
H -2.7740568421 3.6815931438 0.0074401212
H -4.0244943134 3.9626294316 -3.1034993916
H -4.2682372837 2.1554217638 -3.4616006437
H -4.1993001514 0.5895745210 -1.7699792259
H -6.0879341349 2.1047901263 -0.0547764441
H -6.2831173814 0.5229331221 -0.7883481098
H -5.1898432461 1.2259657169 1.9623006550
H -6.1367185544 -0.1998195261 1.5084082973
H -3.0493783532 1.6087367519 0.8453941785
H -2.0233126960 -0.6534358124 -0.8861310797
H -1.6668782564 1.4243907492 -2.0875213863
H -0.9519693699 2.1838023673 -0.6831673675
H 0.8408280696 1.4720091466 -2.1263329366
H 0.1362441462 -0.1112154117 -2.3627795492
H 1.3102523925 0.9738855209 0.2348486189
H 3.0918315623 1.8203047805 -0.7638685542
H 2.8948937221 1.2150736971 -2.4088917386
H 5.0789438063 0.0384216472 -2.2840053413
H 5.2568263671 1.7424036869 -1.8963670374
H 5.2233379411 1.2533171816 0.5104203217
H 3.1799377382 0.1913239206 1.1228021715
H 3.1326895926 -2.1447870420 2.0570341280
H 2.5797980335 -2.7282597025 0.5061809781
H 1.2764372090 -0.6685394175 2.3333634282
H 0.6718069554 -2.2895742306 2.0209659594
H -1.8627081409 -2.0982933818 1.4904419693
H -1.2207955763 -1.1918083323 2.8384384595
H -3.7097304958 -1.3414169336 2.8588933909
H -3.1551179837 0.3181035272 2.8490397261
H -1.4961471696 1.4759176791 2.2921858330
H -0.2082097369 1.9069362838 1.1855561536
H 0.1153720159 0.8430940787 2.5518550239
H 0.7687341360 -2.8233046921 -0.5550465013
H -0.3895563228 -1.8835888117 -1.4784001470
H -0.8862501626 -2.6996253186 0.0011347625
H 6.4116120932 -2.2588697003 -0.1975003431
H 4.8124142778 -2.9869779769 -0.0096584078
H 5.1836840972 -2.0199964779 -1.4416731502
H 6.5062609524 -0.8503029019 1.8401821917
H 5.1925561028 -1.9391258456 2.2873765791
H 4.9911153189 -0.1870077227 2.4872927241
H 7.2082610417 1.1330736098 -0.6896382903
H 2.5869498260 -2.3948104743 -1.5348285156
H 1.7840960667 -1.2723293912 -2.6316321570
H 3.5336684628 -1.3161043229 -2.5444994150
H -4.8290885367 -1.3264981580 -0.7468009240
H -3.3395709961 -2.0505347022 -0.1385185265
H -4.5549340594 -2.9041975058 1.5687820528
