57
CONF2
C 1.7057122053 -0.6634225733 0.7212529759
C 2.5884235594 -0.8482745636 1.9595531886
C 4.0213184636 -0.9240739845 1.4072441299
O 4.8580342937 -0.0595475317 2.1854119620
C 3.9481806889 -0.4837134576 -0.1133618705
C 4.0985966837 -1.6993096450 -1.0166348418
O 5.0477929594 0.3564331229 -0.4625012593
C 2.5535506310 0.2168245753 -0.2165896174
C 2.6894082274 1.6586720551 0.3084921269
C 1.8817909776 0.2269738916 -1.5900024736
C 0.4331105960 0.7282793274 -1.4893150180
C -0.4098998740 -0.0684247387 -0.4749507900
C 0.2761153330 -0.1646863967 0.9097695596
C -0.5170183443 -1.0922128586 1.8315353579
C -1.9716891395 -0.6551940772 1.9491448619
C -2.6495405092 -0.5464335214 0.5835313197
C -4.1329348673 -0.1728485814 0.7628299420
C -4.7311586550 0.1088936105 -0.5656178006
C -4.0282360118 0.3278701485 -1.7315778729
C -2.5367860569 0.2806260085 -1.7989578371
C -1.8921072228 0.4068299280 -0.3917267262
C -2.0070729351 1.8669695838 0.0703365862
C -5.0213781546 0.5801959350 -2.7038234551
N -6.2495978172 0.5223836007 -2.1869664272
N -6.0459476466 0.2357581668 -0.8835112971
H 1.6156846049 -1.6457623931 0.2292229541
H 2.5171230612 0.0196339781 2.6253077242
H 2.3283317710 -1.7319302565 2.5481487130
H 4.4150355462 -1.9492737565 1.4633221146
H 5.7672134482 -0.2113490390 1.8992165509
H 3.3079882204 -2.4358844246 -0.8496720325
H 4.0855239487 -1.4006477096 -2.0677827411
H 5.0604515915 -2.1794251769 -0.8125671932
H 5.0656840499 1.0792136890 0.1777233225
H 3.2298552702 2.2694709348 -0.4222330812
H 3.2268963147 1.7045563414 1.2604266397
H 1.7166741892 2.1278212989 0.4646187775
H 2.4481054444 0.8472693136 -2.2962092847
H 1.8648236253 -0.7912021242 -1.9974442825
H 0.4312778799 1.7917643860 -1.2288787946
H -0.0257122321 0.6574653134 -2.4807235343
H -0.4534758581 -1.1064359568 -0.8514302793
H 0.3033575809 0.8307086939 1.3757344779
H -0.0527226951 -1.1234213022 2.8240994710
H -0.4723121904 -2.1152794569 1.4280299898
H -2.0247674031 0.3141477073 2.4628295899
H -2.5314548782 -1.3634429711 2.5736625947
H -2.6216730080 -1.5427105969 0.1133395950
H -4.6515502675 -0.9952795375 1.2727544945
H -4.2172477349 0.7034144462 1.4231163227
H -2.1704122785 1.0840042002 -2.4481053339
H -2.2061469593 -0.6640052059 -2.2561605574
H -1.4485209530 2.5307746035 -0.5947318283
H -3.0498705756 2.1964101627 0.0439922273
H -1.6299505590 2.0181125489 1.0854180173
H -4.8967747434 0.8000505342 -3.7562785734
H -6.8401006741 0.1426635195 -0.2723107789
