76
CONF1101
C 2.8004576632 -2.3924155727 -0.3301368135
C 2.9821986227 -1.1170572057 0.4973515203
C 3.9401411176 -1.3775684952 1.6744225089
C 5.3780755601 -1.7506993508 1.2618235138
C 5.9830193879 -0.7300320715 0.3482042521
O 6.1564792747 0.5236626731 0.8364294552
N 6.3035475661 -0.9999258686 -0.8558725564
C 6.8485194008 0.0576319499 -1.6915960911
C 7.0823326441 -0.4769111123 -3.0944297815
O 6.7394193793 -1.7587555026 -3.2705346327
O 7.5399322565 0.1924701073 -3.9981212475
C 1.6586472355 -0.5444218402 1.0356132629
C 1.8730342966 0.7893082131 1.8178621626
C 0.6020105005 1.6482961796 1.6103287878
C -0.3752816515 0.6894752977 0.9308852804
C -1.5861839858 1.2843807133 0.2218289796
C -2.4127582338 2.1787021093 1.1498437939
O -2.6848124653 1.4412791074 2.3618188686
C -3.6915169357 2.6704209510 0.4693875502
C -4.5233029077 1.5703270140 -0.2051435751
C -5.2784017493 0.7064759739 0.8223049438
C -6.1242955422 -0.3777611844 0.1683556674
O -6.8336493592 -1.1536212429 1.1558974382
C -5.2590225386 -1.2530166620 -0.7280510981
C -4.5583703596 -0.3866381421 -1.7728884759
C -3.6625860507 0.7258828747 -1.1855672334
C -3.2223949781 1.5982735167 -2.3752553243
C -2.4377310877 0.1564327624 -0.4080955228
C -1.5709982088 -0.7942092967 -1.2506238184
C -0.3346370284 -1.3399345435 -0.5197413297
O -0.7152240251 -2.2884220983 0.4971295912
C 0.5284437364 -0.1831260264 0.0266310870
C 1.1180593446 0.6083688740 -1.1531272330
H 2.2452876356 -3.1457684120 0.2411461820
H 3.7656201331 -2.8238948857 -0.6112897881
H 2.2584017681 -2.1994385678 -1.2575192602
H 3.4433047988 -0.3500154496 -0.1436552846
H 3.9785009876 -0.4951799035 2.3216442998
H 3.5438157562 -2.1937294961 2.2921310062
H 5.4133203493 -2.7167516205 0.7563083738
H 5.9995319391 -1.8271373379 2.1634431202
H 5.8868678102 0.5656419285 1.7658773206
H 7.8084826100 0.4441125174 -1.3203531116
H 6.1768188350 0.9239579387 -1.7786277380
H 6.4037027905 -2.0579027516 -2.3876793473
H 1.2372537062 -1.2888973071 1.7248844957
H 2.0501554142 0.5952838762 2.8794603085
H 2.7623393725 1.3069377980 1.4383317590
H 0.8057331614 2.5061310439 0.9581245951
H 0.2077890981 2.0440099381 2.5507740489
H -0.7540539582 0.0221745952 1.7197037135
H -1.2231036324 1.9460277513 -0.5747429151
H -1.8029227565 3.0590124251 1.4103593414
H -3.3097830780 1.9630061658 2.8802559166
H -3.3937056522 3.4122529571 -0.2817606400
H -4.3076346124 3.2086490284 1.2030961259
H -5.2897869912 2.0712303834 -0.8170435604
H -4.5734963357 0.2245033294 1.5088171306
H -5.9213032504 1.3561762280 1.4299574159
H -6.9138193028 0.0840677044 -0.4406424331
H -6.1687174855 -1.5599235129 1.7279444132
H -4.5256201228 -1.7873930202 -0.1070163921
H -5.8817542353 -2.0101552540 -1.2190279171
H -5.3299536696 0.1075037714 -2.3811614146
H -3.9819549596 -1.0092870328 -2.4650577998
H -2.7494137545 0.9885509066 -3.1516497172
H -4.1008163090 2.0769977861 -2.8223386755
H -2.5201355672 2.3870183372 -2.0971638798
H -2.8409664874 -0.4280915434 0.4309413351
H -2.1638758246 -1.6572320144 -1.5715271161
H -1.2357035478 -0.2891500297 -2.1626146367
H 0.2401084604 -1.9361687302 -1.2345008298
H -1.3392562770 -1.8572501622 1.0946632569
H 1.6406067968 -0.0649280449 -1.8411264438
H 0.3548094246 1.1357587820 -1.7294850359
H 1.8421743108 1.3524176983 -0.8091978159
