47
CONF56
C -3.5575892813 1.6038339245 1.3714146255
C -2.0562300272 1.4308794048 1.4176072515
C -1.1819433852 2.5321751808 1.9706969909
C -1.2552992950 2.3152538659 0.4581578951
C -0.0661234962 1.7917710961 -0.2277993459
O 0.8930818276 1.2483923706 0.2777408911
O -0.1862185305 1.9835042789 -1.5792705925
C 0.8849723544 1.4020491488 -2.3781374257
C 0.9683246785 2.2270614045 -3.5812242870
N 1.0542919853 2.8630198545 -4.5408609779
C 0.5894051288 -0.0469496763 -2.6907453794
C -0.3951845444 -0.3872288657 -3.6199849427
C -0.6875771180 -1.7284287729 -3.8428319643
C -0.0208442648 -2.7255269209 -3.1368616745
C 0.9534459921 -2.3686778615 -2.2092529053
C 1.2771542715 -1.0323231182 -1.9879218964
O 1.6236639486 -3.3940957309 -1.5752584218
C 2.0193208074 -3.2158546807 -0.2559266584
C 1.1613272271 -2.6632711956 0.6923333375
C 1.5885396688 -2.5700136557 2.0135297239
C 2.8502796537 -3.0331092212 2.3848503322
C 3.6890765595 -3.5942679703 1.4243783549
C 3.2798016508 -3.6849335103 0.0960180967
C -1.7314637268 3.7711526057 2.5248717632
C -1.2575025988 4.4112050574 3.5942035391
Cl -1.9749820058 5.8867327697 4.1899933049
Cl 0.1132449209 3.8756735714 4.5280862009
C -1.6165366984 0.0075213650 1.6720066182
H -3.8590888423 2.6182353995 1.1030022342
H -3.9879833914 1.3595065192 2.3488342533
H -3.9827022300 0.9172429511 0.6322102984
H -0.2553675845 2.1804622611 2.4138055927
H -1.8465387212 3.0196125457 -0.1171771520
H 1.8320141063 1.4903593683 -1.8339592981
H -0.9278157659 0.3873318307 -4.1631855220
H -1.4479399118 -2.0035138213 -4.5663279497
H -0.2470097515 -3.7746813428 -3.2951536525
H 2.0426478870 -0.7617936064 -1.2695425335
H 0.1764152636 -2.3136544718 0.4005357929
H 0.9242376167 -2.1402638440 2.7570694095
H 3.1754658030 -2.9593893806 3.4173066578
H 4.6722754274 -3.9589205963 1.7048309061
H 3.9228309175 -4.1135216057 -0.6655717857
H -2.5908906003 4.2209068599 2.0369139018
H -2.0607393848 -0.3439100096 2.6092825401
H -0.5321163521 -0.0828354975 1.7492499262
H -1.9661295690 -0.6467179816 0.8651097374
