63
CONF227
C 2.4402039309 0.3348599231 0.8289022030
C 1.4242804229 -0.5507790633 1.5444348080
N 0.3901225055 -1.0225205366 0.6163703264
C 1.0014949713 -1.8176168108 -0.4550686431
C 1.9951050113 -0.9854253387 -1.2597204691
C 3.0743057706 -0.4382022129 -0.3262915689
N 4.0777229639 0.3555394889 -1.0421900068
C 5.4295204968 0.0452661401 -1.1505781801
C 6.1818451674 -1.0107140766 -0.6557733271
C 7.5482988654 -1.0259083479 -0.9529998508
C 8.1389437203 -0.0184631633 -1.7189458676
C 7.3831564661 1.0461846573 -2.2181572008
C 6.0299654763 1.0598298517 -1.9229628419
N 5.0241850105 1.9474362009 -2.2552099705
C 3.8095728117 1.5387159324 -1.7266158359
O 2.7271581243 2.1102068116 -1.8437670298
C -0.6303637022 -1.8164244391 1.3110974011
C -1.4645612683 -1.0131785889 2.3112442522
C -2.0236016934 0.3023032827 1.7651695564
C -2.9063737810 0.1254830784 0.5190352756
C -4.1308316124 -0.7236514915 0.8226762378
C -4.3196884303 -1.9594804853 0.2016800158
C -5.4327577597 -2.7504161846 0.4859449213
C -6.3508647077 -2.2758396742 1.4040004471
C -6.2084161160 -1.0530740890 2.0403738501
C -5.0911049032 -0.2819140290 1.7389732126
F -7.4410273234 -3.0370295624 1.6945729785
C -3.3261290541 1.4383274739 -0.1238439238
C -3.6674809005 1.4412393771 -1.4814891051
C -4.0978462553 2.5984082015 -2.1215237469
C -4.1831571281 3.7617356825 -1.3744672114
C -3.8545145628 3.8102157963 -0.0327096758
C -3.4248093563 2.6366902962 0.5869534301
F -4.6015479529 4.9023090182 -1.9881649616
H 3.2147686329 0.6520886568 1.5358773403
H 1.9413152445 1.2287005900 0.4412866712
H 0.9530277049 0.0248576667 2.3469347876
H 1.9458955313 -1.4081270746 2.0200362172
H 1.5186759210 -2.7093279409 -0.0422511958
H 0.2054973386 -2.1814405422 -1.1151852377
H 1.4742702147 -0.1539722333 -1.7451606214
H 2.4535428680 -1.6059922568 -2.0377015815
H 3.6178315364 -1.2912860952 0.0968859720
H 5.7374791263 -1.7999868641 -0.0600084925
H 8.1585763979 -1.8409073292 -0.5778973702
H 9.2020528019 -0.0596999704 -1.9319442831
H 7.8345717429 1.8325448000 -2.8137153834
H 5.1229930708 2.7868368058 -2.8039449333
H -0.1750911506 -2.6787458692 1.8388148662
H -1.2915504171 -2.2376502483 0.5437835910
H -2.2903903020 -1.6578882053 2.6385028464
H -0.8771351909 -0.7978801742 3.2108587310
H -2.6014524695 0.7856148517 2.5615433647
H -1.1992132969 0.9790562808 1.5115174799
H -2.3179162287 -0.4130919710 -0.2327774578
H -3.5878718260 -2.3152917397 -0.5180253637
H -5.5841350051 -3.7119484418 0.0072624980
H -6.9570994617 -0.7175955304 2.7500745874
H -4.9714678925 0.6823591564 2.2246880404
H -3.5957405866 0.5171591065 -2.0492145178
H -4.3584240653 2.6041638703 -3.1744967700
H -3.9303584669 4.7437401925 0.5145937430
H -3.1634535772 2.6746348997 1.6387138778
