41
CONF71
C -4.3218983316 1.5873174567 -2.4301891212
C -3.9960800392 2.1291106700 -1.0404120634
N -3.5507871971 1.0775432252 -0.1173832008
C -4.5996245424 0.4488861150 0.6799900643
C -4.7429497009 1.1225449131 2.0418646895
O -5.8087251176 0.4541474748 2.7206585112
C -2.2542105813 0.6820347821 -0.0375414170
C -1.8297546453 -0.2916357185 0.9085035118
C -0.5123918318 -0.6768387975 0.9745657665
C 0.4627960353 -0.1289486055 0.1164069670
C 0.0497121611 0.8387358625 -0.8289084926
C -1.2617468927 1.2314763442 -0.9052515182
N 1.7477815303 -0.5944957391 0.2840872020
N 2.6317786324 -0.1107137306 -0.5009455393
C 3.9246140342 -0.5991686488 -0.2783264253
C 4.2951202938 -1.4687427570 0.7685060444
C 5.6058519662 -1.8806677964 0.8952946629
C 6.5575165704 -1.4272093652 -0.0233009093
C 6.2178194105 -0.5644124369 -1.0654920823
C 4.9037363839 -0.1536558674 -1.1844909990
N 7.9381725260 -1.8643038612 0.1136735537
O 8.2209129074 -2.6257596685 1.0415240643
O 8.7648584065 -1.4546671198 -0.7044388429
H -3.4402852372 1.1375577365 -2.8957079740
H -4.6759457088 2.4000982076 -3.0712989384
H -5.1072051976 0.8274541553 -2.3731888217
H -4.8873324239 2.5848634956 -0.5981761337
H -3.2392200049 2.9168727821 -1.0899374861
H -4.4039838902 -0.6205309273 0.8044490712
H -5.5436956278 0.5384584729 0.1326106881
H -3.8003975856 1.0397668936 2.6018831531
H -4.9670898872 2.1901995763 1.9008730196
H -5.9172452734 0.8680983685 3.5849211595
H -2.5340374545 -0.7297806162 1.6034172500
H -0.1988437094 -1.4155081283 1.7060370821
H 0.7789452452 1.2693474378 -1.5052758051
H -1.5382873972 1.9629315713 -1.6533706164
H 3.5469495525 -1.8076389759 1.4740416915
H 5.9041307951 -2.5465237882 1.6954903021
H 6.9744038666 -0.2274564914 -1.7624782997
H 4.6066389657 0.5183719867 -1.9826842604
