33
CONF55
C -5.0913381524 0.5150240735 -1.4942623578
C -3.9943296215 0.6594771209 -0.4485804068
C -4.5104562913 0.1479064516 0.8976532852
O -5.1880817948 0.8234984294 1.6368669932
O -4.2204139880 -1.1296783474 1.1955235938
O -2.8743290585 -0.1080621333 -0.9052474144
C -1.6480556057 0.1122316485 -0.3040238171
C -1.4440929083 0.9465122344 0.7953127274
C -0.1623599822 1.0860669028 1.3210717930
C 0.8998503933 0.3904189416 0.7592727102
C 0.6996284524 -0.4521652479 -0.3313805942
C -0.5772516587 -0.5847888012 -0.8612157035
O 2.1355652187 0.5715658283 1.3670078805
C 3.2462959478 0.0477945401 0.7477182341
C 3.8459874285 0.6925685351 -0.3374771153
C 5.0076136603 0.1907814975 -0.9125258727
C 5.5615590718 -0.9656736603 -0.3768157869
C 4.9907885764 -1.6226344531 0.7064690295
C 3.8259603083 -1.1063691332 1.2611669500
Cl 7.0312601616 -1.6040547002 -1.0930262954
Cl 3.1374221090 2.1547437702 -0.9742042561
H -5.9755312120 1.0726192814 -1.1770987176
H -5.3592151800 -0.5372578908 -1.6250973509
H -4.7382974599 0.9177307224 -2.4462462387
H -3.7204231870 1.7137487076 -0.3280183628
H -3.6702095304 -1.5091495332 0.4866344289
H -2.2545979766 1.4958699928 1.2593968173
H 0.0125318733 1.7342988471 2.1729689059
H 1.5253812218 -1.0010079128 -0.7706722899
H -0.7529697081 -1.2327382800 -1.7134834313
H 5.4684646136 0.6973885857 -1.7517204046
H 5.4426419429 -2.5209098322 1.1098569560
H 3.3510023517 -1.5957559842 2.1048974136
