78
CONF326
C -1.0021300336 -0.0389526817 -1.9595941935
C -0.3808951353 0.0655310030 -3.3465345789
O -1.1059457808 -0.9440445975 -4.1275213430
C -1.6564924535 -1.8796909626 -3.3066635760
O -2.2410430681 -2.8390729467 -3.7512333360
C -1.3365978901 -1.5204293778 -1.8769928249
C -2.3391958144 -1.8185369275 -0.7593384414
C -3.7609226444 -1.3733761230 -1.0878147877
C -4.6190159837 -2.2664444880 -1.7318597730
C -5.9144988884 -1.8786549073 -2.0794051465
O -6.8249276067 -2.6747749794 -2.7096425481
C -6.4014038917 -3.9974732008 -3.0615036781
C -6.3606069587 -0.5874646525 -1.7741944150
O -7.6333332748 -0.2241173176 -2.1121748513
C -5.4992563557 0.2970368072 -1.1165483181
O -6.0547883063 1.5220796907 -0.8604125331
C -5.2421679909 2.4840961447 -0.1773522996
C -4.2066167856 -0.0885821668 -0.7695127010
C -1.8362561874 -1.1502711073 0.5157848273
C -2.4379733444 -1.5641081264 1.7216373799
C -2.1007546040 -0.8977284905 2.8735516015
C -1.2110226861 0.1710379132 2.8681939898
O -1.0697496601 0.6720372889 4.1349821810
C -1.8988400867 -0.1494421198 4.9861931995
O -2.5589125166 -1.1202507842 4.1423577615
C -0.6125786705 0.5996821487 1.7111755266
C -0.9179337596 -0.0879631024 0.5136769571
C -0.1953563829 0.3591756031 -0.7426929306
O 1.1041145392 -0.2918631767 -0.9062394996
C 1.9876091034 -0.2251879724 0.1613696292
O 2.3849716086 1.1406056107 0.3446367888
C 3.2811025855 1.2308726217 1.4493917705
C 3.6429020027 2.6818387131 1.7061956668
O 4.6175734617 2.7133740614 2.7670603733
C 5.7833948909 1.9463967981 2.4956152340
O 5.4852480985 0.5900467032 2.1944028261
C 4.5566591391 0.4741785742 1.1036825516
C 4.2701788985 -0.9968151580 0.8633012661
O 5.4263971641 -1.6880234654 0.3943205636
C 3.1871562901 -1.1108283019 -0.2029924322
O 2.7825949560 -2.4738227243 -0.2764201252
C 6.6456219374 2.5706292706 1.4264909085
C 7.4943459991 1.9515393107 0.5479759138
C 8.2365134671 2.8649920453 -0.2492580366
C 7.9546273691 4.1720701900 0.0377519093
S 6.7663004267 4.3026288768 1.2925078343
H -1.9349071826 0.5376688194 -1.9478994998
H 0.6793074311 -0.2012289495 -3.3546633725
H -0.5367911289 1.0257839129 -3.8396271607
H -0.4075890792 -2.0704829296 -1.6539238626
H -2.3646947834 -2.9020139723 -0.5959225814
H -4.2630382165 -3.2599467702 -1.9699646341
H -7.2551456330 -4.4558802353 -3.5614296797
H -6.1416011866 -4.5789945455 -2.1689962266
H -5.5449903091 -3.9680039497 -3.7456399423
H -7.7640385492 0.6896874751 -1.8181042603
H -4.9531490865 2.1166972554 0.8142498576
H -4.3447953456 2.7214526648 -0.7606545922
H -5.8613445982 3.3754057635 -0.0742873688
H -3.5575276376 0.5918434340 -0.2324775709
H -3.1653297324 -2.3694924913 1.7274123632
H -2.6535313607 0.4778931581 5.4714297369
H -1.2665792935 -0.6723553715 5.7120591038
H 0.0794343289 1.4357747557 1.7053610552
H -0.0253230486 1.4415301933 -0.7058651789
H 1.5292789663 -0.5928214223 1.0965287042
H 2.8232356838 0.7990418038 2.3553173294
H 2.7871191770 3.2606933565 2.0609255410
H 4.0380659450 3.1395698634 0.7879328192
H 6.3202197257 1.9141426714 3.4498159458
H 4.9889419807 0.9104596247 0.1900895362
H 3.8999524233 -1.4514235439 1.7970209826
H 6.0869057604 -1.6565946523 1.0987133533
H 3.5938061642 -0.7632555847 -1.1659613936
H 2.1358177968 -2.5424819193 -0.9913824528
H 7.5780073019 0.8733062422 0.4771247121
H 8.9494135657 2.5638718609 -1.0079035472
H 8.3627749399 5.0656959799 -0.4156320972
