63
CONF15
C -4.3604288346 3.4871158644 0.1306259963
C -3.2659626311 4.0730544812 -0.7555597262
N -1.9271969383 3.6308004650 -0.3547796155
C -1.2270639879 4.3417188669 0.7094227471
C -0.4003759240 3.3765280207 1.5292291214
N 0.5602949403 2.6899158189 0.6467559862
C 0.1092879114 2.2516904406 -0.5817936515
O 0.7803696753 1.6011554541 -1.3751914937
C -1.3616122066 2.5602482726 -0.9610755737
O -1.9051872627 1.8579724796 -1.7976145893
C 1.6461206175 2.0400254078 1.3473131287
O 1.5812419062 1.9083373253 2.5530915408
N 2.6840342841 1.6134584607 0.5729599353
C 3.4132515943 0.4275258813 1.0296260006
C 4.5339090978 0.0611965202 0.0850408810
C 4.3491761320 0.0382934152 -1.3001526870
C 5.3888014844 -0.3420246656 -2.1416812726
C 6.6185090178 -0.7185205698 -1.6098289562
C 6.8035352363 -0.7125362163 -0.2312266720
C 5.7675866722 -0.3230397471 0.6108016620
C 2.4560626987 -0.7862484299 1.2198143249
O 2.6273381470 -1.6016537692 2.1027633046
N 1.4328357034 -0.8396546938 0.3054432444
C 0.2441830189 -1.6007988955 0.5226868421
C -0.3757897910 -2.3960783115 -0.6805351289
N -1.5115510106 -1.4641422813 -0.6461451325
C -1.0589843739 -0.7823233258 0.4553869732
O -1.5382660661 0.1513665326 1.0822697727
C -2.8001921880 -2.0144166216 -1.0295105296
C -2.8772713193 -3.4067027453 -0.3104038459
S -1.1148056348 -4.0660661272 -0.4369013978
C -3.8066675615 -4.3707274026 -1.0375468468
C -3.2750177379 -3.2551841914 1.1567558427
C -4.0586355015 -1.1740724421 -0.7598323741
O -5.0891265297 -1.5040356004 -1.2953226521
O -4.0107871229 -0.1432418966 0.0835426864
H -4.3861937352 2.3993169068 0.0351767052
H -5.3348978312 3.8813164330 -0.1725417424
H -4.2064057799 3.7448364362 1.1836740949
H -3.4129868823 3.7611366053 -1.7928184554
H -3.2731742781 5.1695459552 -0.7197525314
H -1.9726013972 4.8035870160 1.3647578354
H -0.5981717546 5.1463752666 0.2976638898
H 0.1693714586 3.9108894182 2.2917158372
H -1.0382507045 2.6389538288 2.0305455554
H 2.5662515612 1.7289978529 -0.4255865342
H 3.8154963966 0.6176206786 2.0269694933
H 3.3930281585 0.3071078766 -1.7426635603
H 5.2342149148 -0.3491144030 -3.2157149304
H 7.4278152368 -1.0170112970 -2.2679655242
H 7.7583700893 -1.0070958861 0.1918264425
H 5.9126525617 -0.3192452833 1.6865653312
H 1.3530719722 -0.0846572785 -0.3660955127
H 0.3406976945 -2.1963681423 1.4349796264
H 0.2119002892 -2.3627918868 -1.6028472196
H -2.7866348480 -2.1837127898 -2.1118766412
H -4.8316215401 -3.9924789114 -0.9909553168
H -3.7764024271 -5.3563050400 -0.5638168737
H -3.5209263126 -4.4807286356 -2.0865063874
H -2.6310101267 -2.5475233062 1.6873611317
H -3.1956858331 -4.2187445790 1.6656389994
H -4.3123814944 -2.9084342129 1.2332628728
H -3.1067973143 0.0520255008 0.4420683400
