47
CONF50
C -0.4493575724 1.1086930268 2.8141714166
C -0.9375118510 1.6112737706 1.4749637138
C -2.3258508040 2.1958024655 1.3348728751
C -2.0493187202 0.7858714006 0.8204280184
C -2.0214834104 0.5476052770 -0.6281618170
O -1.9973024376 1.3719749443 -1.5154520898
O -1.9806827010 -0.8022546169 -0.8708712004
C -1.7403972778 -1.1533407495 -2.2500157358
C -2.0591785921 -2.5786990324 -2.3494655712
N -2.2823726869 -3.7055877011 -2.4661302030
C -0.3004437630 -0.8993063444 -2.6637979831
C -0.0183482931 -0.5543478349 -3.9815128732
C 1.3066328955 -0.3334504568 -4.3539848526
C 2.3326748338 -0.4507637589 -3.4261628529
C 2.0290117083 -0.7939351408 -2.1075239261
C 0.7133756201 -1.0277375324 -1.7163457356
O 3.0930218484 -0.8421471003 -1.2377213329
C 2.9088801871 -1.4066522124 0.0224067161
C 3.0836450307 -0.5905240264 1.1321916974
C 2.9762918661 -1.1496349942 2.4044316702
C 2.6910085978 -2.5043947192 2.5551089674
C 2.5223508527 -3.3084890543 1.4280283980
C 2.6352668309 -2.7648022250 0.1519189223
C -3.2267434491 2.3535694947 2.4786193045
C -4.0595567241 3.3770811186 2.6680411762
Cl -5.0983372551 3.4848842803 4.0670297390
Cl -4.2233119396 4.7219190165 1.5719093126
C 0.1537896053 2.2098136454 0.6178885309
H 0.3761099154 0.4055152954 2.6592581136
H -1.2270480054 0.5970014701 3.3843162620
H -0.0723983901 1.9465902241 3.4111776575
H -2.4167760050 2.9372810663 0.5471152752
H -2.4115607071 -0.0454980348 1.4156113765
H -2.4225683266 -0.6007312760 -2.9072331298
H -0.8207902985 -0.4518115416 -4.7050104111
H 1.5413177979 -0.0596346846 -5.3774478046
H 3.3661559229 -0.2721426025 -3.7034529951
H 0.4781477545 -1.2865694807 -0.6905344184
H 3.3022503052 0.4632000999 0.9942546288
H 3.1127365797 -0.5199606093 3.2780001326
H 2.6046644785 -2.9350176424 3.5473241287
H 2.3088923608 -4.3667735125 1.5405697490
H 2.5117800219 -3.3798566432 -0.7339008939
H -3.2302540083 1.5814712475 3.2418039138
H 0.9086935285 1.4497752889 0.3858099074
H 0.6449629591 3.0161479124 1.1726329324
H -0.2300676740 2.6185927950 -0.3181129037
