37
CONF19
C -3.9478128134 -2.3107234691 -0.8784928120
C -3.6461106265 -1.0237432292 -0.1444299573
O -2.4615245384 -0.4546650720 -0.7281840419
C -2.1270818009 0.7910169505 -0.2199398750
C -0.8886695223 1.3620076616 -0.9643561603
C 0.2112275386 0.9199504643 -0.0262976973
C 1.5832766220 0.8898173930 -0.1859519560
C 2.3517400563 0.4937298015 0.9100134060
C 1.7770692417 0.1577972468 2.1313592832
C 0.3911207456 0.1964325392 2.2916745900
C -0.3637661807 0.5725322132 1.1935551631
O -1.7270997224 0.6770955384 1.1832775619
O 3.7522549486 0.4939886367 0.8288325050
S 4.4761046944 -0.7223556720 -0.0660053404
O 3.7767682725 -0.8704281580 -1.3408327952
O 5.8937794280 -0.3997242672 0.0029445946
C 4.1242483888 -2.1700181654 0.9510312923
C -0.7348655186 0.8333421506 -2.3877563675
C -0.9735044194 2.8982936490 -0.9578816153
H -4.8464139786 -2.7767285579 -0.4637397955
H -3.1156321699 -3.0125086311 -0.7773310517
H -4.1131591554 -2.1198252972 -1.9423150353
H -4.4760152364 -0.3058142464 -0.2430591174
H -3.4768512320 -1.2055812451 0.9244153992
H -2.9941390109 1.4683219924 -0.2187231372
H 2.0662964965 1.1557321149 -1.1190423974
H 2.4223416041 -0.1208915599 2.9576628747
H -0.0768535713 -0.0570752914 3.2358098826
H 4.5619249737 -3.0254791963 0.4318773282
H 4.5890945862 -2.0247182908 1.9274151899
H 3.0407895473 -2.2813661546 1.0304321622
H 0.1451958469 1.2881600498 -2.8531504203
H -0.6134823105 -0.2505864601 -2.3972651809
H -1.6089331352 1.0904559928 -2.9937104970
H -1.7992458144 3.2401389430 -1.5915526114
H -1.1290653009 3.2773740827 0.0570434560
H -0.0430066206 3.3260459190 -1.3415997651
