35
CONF241
C -0.6812067491 2.3646897405 0.3753533953
C -1.9206970153 1.8103528557 1.0453552103
C -2.7024667661 2.8418334900 1.8232665397
Br -1.6627786951 3.4397022593 3.4033219043
Br -3.1744965884 1.1108609896 -0.3407377816
O 0.0066901553 1.3631373537 -0.4021369850
P 0.8800661116 0.2526502578 0.3513709522
O 1.4225464950 0.6305049859 1.6748878414
O 1.9228483867 -0.1813906552 -0.7820893052
C 2.6781596143 0.7402574675 -1.5878976703
C 4.0452600474 1.0670367460 -1.0216551330
C 4.0851600657 1.7456456459 0.3269367138
Br 3.2199773904 3.5311463247 0.1900623989
Br 5.1112941645 -0.6064764869 -0.8239739914
O -0.1048570963 -1.0108146232 0.3678887882
C 0.1785004927 -2.1387403217 1.2173854131
C -1.1297250924 -2.7452005095 1.6715683625
C -2.1607982162 -2.9507210323 0.5886506583
Br -1.4968526510 -4.2924944505 -0.7135109166
Br -1.9967882208 -1.5513211636 3.0235613592
H -0.0072913900 2.7551857010 1.1470366353
H -0.9378842600 3.1594867607 -0.3298146164
H -1.6865846083 0.9417084195 1.6650995941
H -2.9144257185 3.7351644232 1.2348856029
H -3.6241784063 2.4234921536 2.2214859600
H 2.1193159163 1.6748442666 -1.7169821116
H 2.7910783137 0.2558207805 -2.5602874570
H 4.5881311905 1.6515811873 -1.7685682020
H 3.5282748777 1.2067402782 1.0932034346
H 5.1072536103 1.9446727191 0.6418851175
H 0.7229193432 -2.8860107964 0.6263870145
H 0.7821117968 -1.8338357272 2.0776843385
H -2.3463230251 -2.0373326890 0.0255731083
H -3.0864943292 -3.3602257631 0.9866597700
H -0.9275207902 -3.6687894544 2.2173790126
