39
CONF294
C -3.7119711447 -0.9202820263 1.6735365304
C -3.0367244081 -1.5765205233 0.4724231243
C -1.5362279128 -1.2938187533 0.3885037201
N -1.2062305323 0.1488599980 0.3764515169
C -0.6070716138 0.7035738919 1.5952319819
C 0.8693195370 0.3854552562 1.6914966235
O 1.5207310861 1.0319534882 0.5654220976
C 2.8581329224 0.8054888168 0.4940523863
C 3.3794874411 -0.2945019542 -0.1982317191
Cl 2.2702757991 -1.4263444636 -0.9322705806
C 4.7454773770 -0.5085933951 -0.3290815090
C 5.6081546898 0.4092380830 0.2555993614
Cl 7.3356964850 0.1614164639 0.1037804515
C 5.1486408485 1.5190439025 0.9521766320
C 3.7756855897 1.6975485753 1.0629987309
Cl 3.1668032374 3.0863229127 1.9263507635
C -1.5693486547 1.0159063801 -0.5936304440
O -1.5629887655 2.2373327708 -0.5088613173
N -2.0175119298 0.4159692310 -1.8282302561
C -1.3896052232 -0.5202803472 -2.6332333352
C -2.2000027232 -0.6612310088 -3.7255338754
N -3.3117928676 0.1546350605 -3.6165999742
C -3.1633724133 0.7984553429 -2.4806225151
H -4.7750920461 -1.1748667939 1.7058977004
H -3.2549465695 -1.2514356793 2.6125517384
H -3.6338150490 0.1712264579 1.6247476879
H -3.1493880695 -2.6661186172 0.5241481977
H -3.5257414227 -1.2579178265 -0.4551244253
H -1.0380121600 -1.7053547630 1.2714123823
H -1.1004350079 -1.7975975802 -0.4765348157
H -1.1120883726 0.2829228375 2.4714217325
H -0.7547480427 1.7847535525 1.5978074783
H 1.2717198858 0.7856498640 2.6301965082
H 1.0596143163 -0.6940364322 1.6490352923
H 5.1212373273 -1.3657816407 -0.8736201132
H 5.8355966445 2.2276484867 1.3976359653
H -0.4301157800 -0.9440397827 -2.3836536474
H -2.0394707334 -1.2925970486 -4.5883594604
H -3.8398718506 1.5279176870 -2.0550305864
