45
CONF331
C 2.4242125349 -2.5529029750 2.0264129191
C 2.2484002456 -2.2155811002 0.5480317046
C 2.8171832384 -0.8431320817 0.1878621718
C 2.5338585755 -0.4435927940 -1.2632633102
N 1.1227542156 -0.1696884842 -1.5238221520
C 0.4837053535 0.9566154203 -1.0893094910
C -0.9319177236 0.9967034169 -1.0646642880
C -1.6089797144 2.1763867360 -0.7748158178
C -0.9286776996 3.3364106833 -0.4312314775
C 0.4650271474 3.2871332004 -0.3734867291
C 1.1617923375 2.1223998560 -0.6947021834
C 1.1760997936 4.5257788706 0.0312699840
O 0.6242011344 5.5745624150 0.3035826745
O 2.5170255893 4.3737358671 0.0723756381
S -3.4107262466 2.2439305813 -0.8915226932
O -3.8130036120 3.5608462456 -0.3793140988
O -3.8025134383 1.8288085218 -2.2457364711
N -4.0732812794 1.1143723397 0.1554943336
O -1.6385339822 -0.1432818602 -1.3897257437
C -1.5885514384 -1.1952209044 -0.4684948388
C -1.8542551250 -2.4634784351 -0.9736116284
C -1.8554317200 -3.5472135030 -0.1010488988
C -1.5957190495 -3.3637968514 1.2563390313
C -1.3372569944 -2.0846953486 1.7412781057
C -1.3304356606 -0.9874554311 0.8831032903
H 2.0126333655 -3.5397564177 2.2612139503
H 3.4832885281 -2.5516578070 2.3076012084
H 1.9102003383 -1.8171914038 2.6552004255
H 1.1803689537 -2.2477688341 0.2979785441
H 2.7392571754 -2.9784327641 -0.0707201806
H 3.9036343643 -0.8409675035 0.3452692727
H 2.3992715003 -0.0795757302 0.8586013411
H 2.8302196143 -1.2543977331 -1.9378699896
H 3.1272969254 0.4314521933 -1.5487361963
H 0.5422318384 -0.9749453418 -1.6970775210
H -1.4616185748 4.2495016075 -0.2025014997
H 2.2423983665 2.1260526031 -0.6546731201
H 2.9023300705 5.2236206595 0.3432850979
H -3.7755228582 1.2689448343 1.1168546661
H -3.8768040889 0.1609245106 -0.1402803666
H -2.0515365623 -2.5873377651 -2.0333304640
H -2.0577707939 -4.5406375754 -0.4884657420
H -1.5950996384 -4.2131415090 1.9311551200
H -1.1345978787 -1.9315302661 2.7964394784
H -1.1251568306 0.0092000586 1.2599169445
