26
CONF344
C -2.6244526080 -1.0384228991 0.8753815823
C -1.1524634610 -0.6628634341 0.8135009442
C -0.7179654075 -0.1454394508 -0.5709842616
C 0.7644909998 -0.3879690094 -0.8770303119
C 1.7177101636 0.1473614169 0.1943064122
C 3.1599304623 0.0972844778 -0.2808981467
O 4.0607976346 0.5266366175 0.7422381707
O 1.4407642666 1.5186359216 0.4994645449
O 1.0312949059 -1.7897621959 -0.9909325833
O -1.4221900360 -0.7965479876 -1.6334421715
O -0.8863725666 0.4312070358 1.7240531641
O -3.4686458890 -0.0201087032 0.3209151568
H -2.8038614218 -1.9445980588 0.2898503581
H -2.8950855715 -1.2475309564 1.9207549092
H -0.5591040228 -1.5443028105 1.0959191535
H -0.9107045050 0.9362749971 -0.5986662454
H 0.9806556848 0.1174241776 -1.8331893864
H 1.6205678694 -0.4711443837 1.0998114826
H 3.2588200614 0.7266458285 -1.1800867032
H 3.4335926007 -0.9279911486 -0.5400860106
H 0.6596599009 1.5090756410 1.0773216106
H 0.3913149039 -2.1455369503 -1.6224562508
H -2.3473627103 -0.5205152083 -1.5671626582
H -0.8603301618 0.0762638854 2.6220539638
H 3.7424797962 1.3906233877 1.0371880629
H -3.2957015410 0.7947667692 0.8117635248
