40
CONF188
C 2.5606001102 -2.3966266428 0.1647268339
C 2.6125378777 -1.7285096832 -1.1859361343
O 3.2878938726 -0.4379235577 -1.0016052601
C 3.1783830097 0.4347956898 -2.0052183083
O 2.6611918665 0.2100201541 -3.0770225857
C 3.7068564413 1.7917882421 -1.5561987338
C 2.5306610354 2.6923536936 -1.1395479219
C 1.7806920783 2.0711740971 0.0091097579
C 0.6347503695 1.3163003624 -0.2394995305
C -0.0425306733 0.6542895316 0.7797205036
C 0.4458892415 0.7565167998 2.0804326497
C 1.5583319671 1.5197075440 2.3795864773
C 2.2149751078 2.1605548399 1.3365756511
Cl 3.6433388300 3.0983031135 1.7330308183
F -0.1577614874 0.0769443557 3.0703852928
N -1.1783555360 -0.1270462029 0.5008032887
C -2.4167067274 0.0015676482 1.0945512185
O -2.7803866529 0.7412243700 1.9922799675
N -3.1823502028 -0.9366712425 0.3761307064
C -2.3821192545 -1.5100848305 -0.6053259625
N -1.1754025140 -1.0310616326 -0.5522994301
C -2.8387771078 -2.5338260288 -1.5699001709
C -4.5594529253 -1.1614510487 0.6460088935
F -4.7821438636 -2.4867732168 0.9025644369
F -5.3172384305 -0.8546360032 -0.4528443204
Cl 4.6169776951 2.5705377086 -2.9253100791
H 2.0651917224 -3.3665362399 0.0627492163
H 1.9883800177 -1.7902803995 0.8737679138
H 3.5650177889 -2.5608905456 0.5642270435
H 1.6140088181 -1.5336749297 -1.5865789113
H 3.1865411241 -2.3036682850 -1.9185373045
H 2.9278124807 3.6731011818 -0.8669889543
H 1.8609699919 2.8143416396 -1.9950444574
H 0.2606544093 1.2303941945 -1.2549687820
H 1.9122147927 1.5819807650 3.4017641258
H -3.6759301020 -2.1600411621 -2.1668400180
H -3.1695212992 -3.4374943122 -1.0492675390
H -2.0082042317 -2.7837540518 -2.2310201678
H -4.8794047558 -0.5553421786 1.4985823793
H 4.4200285756 1.6690990643 -0.7397186991
