56
CONF2
C -3.1470596526 1.7080399201 -0.3783970923
C -2.6549962058 0.2712029718 -0.0768588796
C -3.4094956328 -0.7110936465 -0.9961271304
C -4.8785952384 -0.8795819712 -0.6196392800
C -5.0116426673 -1.3318926170 0.8211170427
O -5.9421525025 -2.0242037726 1.2052068427
C -3.9959023261 -0.8207707445 1.7488790080
C -2.9626237269 -0.0326685517 1.3797561187
C -2.1210398484 0.6632220015 2.4093934706
C -0.6182481906 0.5769368040 2.1310127205
C -0.2951380600 1.0050259016 0.6955007956
C -1.1094900631 0.2129455592 -0.3476434838
C -0.5457154469 -1.2033228139 -0.5500529997
C 0.9426997328 -1.1705402063 -0.8956167122
C 1.8408502849 -0.3902139518 0.0844320529
C 1.2139182336 0.9902456335 0.3959277884
C 1.5903580979 1.8960616122 -0.8067597326
C 2.7505322592 1.2117124104 -1.5538204659
C 3.1604815057 0.0153349104 -0.6752843234
C 4.2372543562 0.4792500323 0.3070996252
O 4.1116961994 1.4866749563 0.9835823824
C 5.5191226544 -0.3205844136 0.4138849384
O 6.3868879777 0.2220072297 1.3725875174
O 3.6804871156 -1.0193960098 -1.5093239299
C 2.1716242232 -1.2425810398 1.3145732064
O -0.7373254532 -2.0684665286 0.5787975916
H -2.9872562390 1.9396694317 -1.4367061639
H -2.6178894713 2.4559332517 0.2141033386
H -4.2125742049 1.8127152168 -0.1581466563
H -2.9556056825 -1.7060106674 -0.9342652812
H -3.3049312003 -0.3854179344 -2.0383447237
H -5.3799677355 -1.6093423192 -1.2609449911
H -5.4321432185 0.0632879915 -0.7186196123
H -4.1765610637 -1.0338462474 2.8001753150
H -2.4187705200 1.7232545129 2.4074966339
H -2.3607806270 0.2773408793 3.4049357304
H -0.0816190354 1.2289920190 2.8302553962
H -0.2813988271 -0.4441027874 2.3134664262
H -0.5916411468 2.0610812627 0.6115653079
H -0.9707703833 0.7026589006 -1.3237381718
H -1.0356798859 -1.6506364377 -1.4282215863
H 1.2866693163 -2.2069050175 -0.9873017845
H 1.0209514021 -0.7327915891 -1.8964166090
H 1.7231920789 1.3890234534 1.2790920875
H 1.8734211738 2.8881617926 -0.4468042052
H 0.7363624182 2.0320890308 -1.4786785193
H 3.5935485598 1.8836152635 -1.7335640050
H 2.4402694682 0.8145335337 -2.5237335718
H 5.9847288046 -0.3505852805 -0.5838001693
H 5.2621590664 -1.3644272560 0.6651048266
H 5.9336602865 1.0117274894 1.7148439568
H 3.6640843953 -1.8509151927 -1.0195912655
H 2.6797673510 -0.6533255901 2.0847925227
H 1.2759316398 -1.6894267905 1.7431113497
H 2.8271822203 -2.0812018185 1.0400627997
H -1.6708253438 -2.0484924701 0.8295440631
