37
CONF25
C -2.4407012656 3.0656975377 -0.5054319115
N -2.0844894011 1.6725572395 -0.3199211485
C -1.2846839941 1.2655717223 0.6946825992
O -0.8746774553 1.9993255069 1.5877808173
C -0.8952778289 -0.1973382737 0.6642312240
N -1.5110751342 -0.9320506006 -0.1923840531
O -1.1063781648 -2.2497402106 -0.1775967296
C -1.8602761084 -2.9841697867 -1.1503375419
C 0.1406136263 -0.6586313481 1.6092748271
C -0.0816187712 -0.5486457142 2.9848202336
C 0.8485396093 -1.0216330432 3.9007153984
C 2.0324910659 -1.5974499632 3.4487301435
C 2.2912825774 -1.6814953247 2.0866176747
C 1.3543656747 -1.2090876097 1.1746580897
O 1.6642677504 -1.3554804377 -0.1612408624
C 1.4848976015 -0.2900780578 -1.0190234242
C 1.6100865833 1.0351538378 -0.6082242890
C 1.4256676972 2.0503180787 -1.5415004241
C 1.1354245960 1.7527311488 -2.8697029482
C 1.0366928088 0.4207078734 -3.2676277010
C 1.2083094000 -0.6051366277 -2.3462772764
H -1.7860448826 3.5553802006 -1.2388107369
H -3.4772052571 3.1476054845 -0.8465917646
H -2.3348420551 3.5804205679 0.4511921440
H -2.2899974514 0.9992298459 -1.0417867804
H -2.9270505606 -2.9741804507 -0.9018139240
H -1.4733116239 -4.0035355451 -1.1017880929
H -1.7054333109 -2.5687608665 -2.1518505846
H -1.0039079149 -0.0920162591 3.3247983160
H 0.6507131591 -0.9368108567 4.9635973428
H 2.7663256895 -1.9676071912 4.1572433607
H 3.2160838243 -2.1026936743 1.7081508506
H 1.8205795047 1.2696266142 0.4294407282
H 1.5117712095 3.0830333666 -1.2186073827
H 0.9958455184 2.5505719245 -3.5912511574
H 0.8183795075 0.1768169157 -4.3026354782
H 1.1246334695 -1.6482065314 -2.6315295487
