21
CONF2
C -1.1313752098 -2.3930853583 0.5511145639
N -0.4772194778 -1.1166857230 0.2501968982
C -1.1883432388 0.0437947140 0.0956088235
C -0.5560839001 1.2399761372 -0.1844245038
N -1.5732871681 2.1674130668 -0.2648061481
C -2.7258098315 1.5018893024 -0.0372263243
N -2.5366098118 0.2000696535 0.1883787388
C 0.8499504704 1.3676847605 -0.3314696499
O 1.4799562869 2.3982975248 -0.5752066304
N 1.5061176946 0.1290798460 -0.1628650594
C 2.9677936724 0.1601699595 -0.3015198703
C 0.9028427014 -1.1051280507 0.1304730610
O 1.5546289703 -2.1359559661 0.2758495184
H -0.8970851823 -3.1233135425 -0.2268939455
H -2.2060179454 -2.2209399669 0.5859764930
H -0.7851793397 -2.7732837134 1.5154393960
H -1.4738678534 3.1540644660 -0.4570236884
H -3.6883913381 1.9959954765 -0.0429289842
H 3.3440340484 -0.8556340770 -0.2099852300
H 3.4015523790 0.7915658144 0.4785604270
H 3.2323945603 0.5740252849 -1.2772479702
