22
CONF11
C -3.8766470720 1.1516047841 -0.5288834678
N -3.2696750228 0.1333971665 -1.4045918880
S -2.2081247090 -0.9864147060 -0.8527105638
O -2.6313587545 -1.4327388145 0.4764307978
O -1.9288255936 -1.9178260856 -1.9470809639
C -0.5623533971 -0.0369848636 -0.5614201335
C 0.4928352742 -0.8545203902 0.2355170363
C 1.9766858053 -0.3359937154 0.2023995030
C 2.2312553302 1.1380197027 0.6408046912
F 3.5511336645 1.3406799881 0.7332224583
F 1.6697278319 1.3807584090 1.8319312327
F 1.7297292169 1.9899148260 -0.2635131609
F 2.6750910232 -1.1343541982 1.0446217314
F 2.4679031784 -0.4883477966 -1.0463342507
F 0.5307930199 -2.1111668416 -0.2731859339
F 0.1016896548 -0.9188604720 1.5264449302
F -0.0743654075 0.3022679071 -1.7712538653
F -0.8621352657 1.0864392002 0.1279298514
H -4.8747274341 1.3663782479 -0.9181214863
H -3.2864464634 2.0715132387 -0.5010389006
H -3.9763666160 0.7452169331 0.4786003337
H -3.0894735293 0.4049541952 -2.3678013763
