45
CONF86
O -0.7119840811 -0.4503087442 -2.9240652086
C -1.9806616238 -1.0528672031 -2.6695505024
C -2.4221591388 -0.9590712791 -1.2266079469
O -1.4598993343 -1.6746806506 -0.3944050400
C -1.3311274037 -1.0540060568 0.8714688217
C -1.4425317550 -2.1205306112 1.9533716522
O -2.6748952195 -2.8244649791 1.8763670292
O -0.0552835313 -0.3950177364 1.0430973066
C 1.0518141266 -0.8738867342 0.3029657862
O 1.2385942092 -0.1297773279 -0.8933486564
C 1.4982056123 1.2831138776 -0.6885045399
C 1.5360297044 1.9456673411 -2.0555126221
O 0.2402012368 2.1891405614 -2.5968734042
C 2.8059635402 1.4297785285 0.0866196937
O 3.0382614702 2.8229766349 0.2919452150
C 2.6775277798 0.6979047408 1.4145294375
O 3.9380723542 0.8055343788 2.0794980603
C 2.2981282680 -0.7624629957 1.1869736909
O 2.1327944586 -1.4580988813 2.4187259862
C -2.4026435707 0.0514796482 0.8959340889
O -2.1306891597 1.1217847061 1.7745669705
C -2.5083648263 0.4178935649 -0.5881062199
O -3.7284798024 1.0383042931 -0.9594091224
H -0.0943912394 -0.7181944385 -2.2198939699
H -2.7193257650 -0.5388385896 -3.2931737948
H -1.9625468855 -2.1124953432 -2.9623369668
H -3.4033441767 -1.4506707619 -1.1382398221
H -1.4060519350 -1.6319820263 2.9322289005
H -0.5791029294 -2.7982137117 1.8675978901
H -2.6895642498 -3.2813092829 1.0245488827
H 0.8965489420 -1.9085570552 -0.0162739339
H 0.6803189101 1.7266936303 -0.1024443398
H 2.1495763852 1.3306780246 -2.7322628391
H 2.0179872168 2.9208481002 -1.9482896046
H -0.1800446543 1.3285905539 -2.7854415888
H 3.6279736959 0.9789611360 -0.4947562914
H 3.7867187325 2.8972864472 0.8992330382
H 1.8910095219 1.1933150195 2.0083878097
H 3.8525151677 0.3697833106 2.9377910878
H 3.1206009227 -1.2615789432 0.6620837842
H 1.3424836982 -1.0958943189 2.8462654860
H -3.3542145138 -0.3901007313 1.2140484807
H -1.2252502782 1.4164702798 1.5977403826
H -1.6436342277 1.0351149374 -0.8777790410
H -3.7151346519 1.9416887933 -0.6187138250
