28
CONF1
C -2.3603642963 -2.9221746557 -0.2647509110
C -2.2542272658 -1.5212351349 0.3289947345
C -3.4305880630 -0.6176762118 -0.0314482468
N -0.9288269905 -0.8925716699 0.0096787613
C -0.0507879669 -0.5493242154 1.0500596985
O -0.3394738383 -0.7955415415 2.2144040437
C 1.2484067917 0.0527187917 0.6769325906
C 2.0556667326 0.5684167390 1.6987817830
C 3.3154040832 1.0717602086 1.4219980310
C 3.7918707532 1.0561284599 0.1087275459
C 3.0084259285 0.5584105255 -0.9219451662
C 1.7357131875 0.0599629825 -0.6407062613
N 0.9504761138 -0.4937426432 -1.6647078845
S -0.7094248114 -0.1977678709 -1.5338890600
O -1.3791233016 -1.0127054901 -2.5434126112
O -1.0040709523 1.2367068225 -1.4659630663
H -3.2520592707 -3.4049218017 0.1464122287
H -2.4523852656 -2.8963548581 -1.3522021409
H -1.4877147838 -3.5232022936 0.0054111310
H -2.2112119616 -1.6066621759 1.4167407169
H -3.3141700155 0.3757235146 0.4104517718
H -4.3432383708 -1.0683223211 0.3688576196
H -3.5565296057 -0.5157572895 -1.1131838500
H 1.6694633340 0.5577954263 2.7116434132
H 3.9291914551 1.4727709978 2.2208360635
H 4.7793196928 1.4458561934 -0.1165812941
H 3.3719940661 0.5543504498 -1.9447864190
H 1.2777558494 -0.3332175584 -2.6157482928
