40
CONF44
C 3.8333437917 -0.9855148455 0.7552173536
O 4.2276110701 0.3946582226 0.9111830860
C 3.8011606212 0.9805616936 2.0531775324
O 3.2009587511 0.4038787923 2.9283725286
C 4.1351435101 2.4510045636 2.0387042887
S 2.6284991954 3.4097352274 1.5442293513
C 2.1938048788 2.5326925404 0.0538527222
C 1.1462460368 1.6104539449 0.1124189462
C 0.7540972517 0.8518835318 -0.9971977950
C 1.4853559037 1.0424923997 -2.1775107216
C 2.5239601761 1.9474675164 -2.2764259270
C 2.8733192591 2.6976692849 -1.1584846871
Cl 4.2032676160 3.8170204983 -1.3053695539
F 1.1577547683 0.3234500890 -3.2650826436
N -0.2294181016 -0.1261584840 -0.9579367013
C -1.3834405223 0.1094989440 -0.4646489198
N -2.3137600985 -0.8984415038 -0.2862164034
N -3.6298962012 -0.4074505422 -0.1358965710
C -3.7260640566 0.9200910636 0.1977852522
O -4.7233005219 1.4935984159 0.5633215752
S -2.0860955145 1.6871695447 0.0163904888
C -4.5785328832 -1.3777912503 0.4220828288
C -4.5917597188 -2.6238068834 -0.4545668990
C -3.1716202736 -3.1669341617 -0.6104751586
C -2.2395467978 -2.0897694668 -1.1513934381
H 2.7424249240 -1.0647133379 0.7555502827
H 4.2413202386 -1.5929408725 1.5670304658
H 4.2408024818 -1.2962788011 -0.2064711561
H 4.9610529596 2.6749292320 1.3606289484
H 4.3628058125 2.7822711878 3.0542821979
H 0.6586776627 1.4435488636 1.0672901566
H 3.0472847720 2.0632313757 -3.2176267574
H -4.2779727250 -1.6292984276 1.4505935594
H -5.5484818573 -0.8780721308 0.4519956171
H -5.2472847087 -3.3732958368 0.0000084867
H -5.0073967731 -2.3705228068 -1.4374232169
H -2.7972876981 -3.5149481634 0.3601468454
H -3.1554848960 -4.0205406343 -1.2954349297
H -2.5136381883 -1.8089969859 -2.1800717060
H -1.1979113513 -2.4118318611 -1.1493243457
