28
CONF73
O -2.6666402616 0.9190104441 -3.0861546037
C -1.4616385314 0.5906579435 -2.3933526792
C -1.6971248364 -0.4845571698 -1.3348395623
O -0.4068782326 -0.9959008923 -0.9085375801
C -0.2330396392 -0.7600736170 0.4886632020
C -1.2118685855 0.3552665604 0.8408851086
C -2.3917999389 0.0223385272 -0.0689586224
O -3.1781609305 -1.0564267232 0.4480424512
N 1.1786399892 -0.4286408294 0.7290234207
C 1.8054074432 0.5061629664 -0.0531264258
C 3.0979423378 0.8602405005 0.1150425364
C 3.8812932166 0.2462090448 1.1563310551
O 5.0608263746 0.4765347969 1.4125992685
N 3.1667667298 -0.6939116499 1.9123059527
C 1.8472552536 -1.0725749897 1.7721643426
O 1.3169803452 -1.8945895074 2.5064566198
H -3.1910908447 1.5054830158 -2.5279148406
H -0.7662072849 0.1930522076 -3.1390108353
H -1.0040691343 1.4827979982 -1.9405386181
H -2.2708401054 -1.3088247219 -1.7746393489
H -0.4321889317 -1.6707904492 1.0596244532
H -0.7907710557 1.3317350732 0.5760352793
H -1.4786193035 0.3624478667 1.9003417756
H -3.0224212749 0.8985483244 -0.2709175847
H -3.5738198237 -0.7636274659 1.2791402524
H 1.1911045338 0.9335850329 -0.8374577091
H 3.5625868073 1.5966470576 -0.5259541133
H 3.6683762870 -1.1507987412 2.6647468052
