76
CONF4
C -0.6140442149 -1.9933621182 -1.0123501546
C -1.8605389422 -1.2347637798 -0.5815382918
C -3.1034582665 -1.8659015455 -1.1512973853
C -4.3475480117 -1.6783904507 -0.6963156455
C -5.5305877547 -2.4012953736 -1.2978191732
O -5.2148085062 -3.3952538754 -2.2662540206
C -4.7674598443 -0.7328423349 0.4069259870
C -3.8536235118 0.4718719476 0.6811448306
O -2.9308982447 0.2395893686 1.7644974383
C -4.6379428712 1.7364779496 1.1103366881
O -5.5088350495 1.7409169025 1.9709923115
C -4.1227287277 2.8841217866 0.3633207883
C -4.5927615012 4.2758412288 0.6086254068
C -3.2348621512 2.4380432606 -0.5481460781
C -3.0884248388 0.9458440029 -0.5648462949
C -1.7177402301 0.2975790243 -0.8577598422
O -1.5129887493 0.5764360240 -2.2470526604
C -0.5144212209 0.8048458139 -0.0146765702
C -0.3050221698 2.3194870124 -0.0300929878
C 0.7913075207 0.1450313486 -0.5021275047
O 1.7774891639 0.2961055109 0.5610088674
C 3.0046592024 0.7748192034 0.2363444918
O 3.2936087465 1.1189530055 -0.9079472469
C 3.9049657936 0.8337468545 1.3899052030
C 3.4660680083 0.3878000324 2.6498943530
C 4.2833566434 0.4214198595 3.7636446979
C 5.5860636468 0.9169069659 3.6281001454
C 6.0571676634 1.3648932686 2.4097928309
C 5.2404483759 1.3392432759 1.2516479510
N 5.7232111034 1.7812245758 0.0671375362
C 7.0630812875 2.3057721128 -0.1188984455
C 0.7229151108 -1.3039960633 -0.9111945523
O 1.7490055464 -1.6276462233 -1.8727209716
C 1.6017107579 -1.2222431691 -3.1462310780
C 2.7416663635 -1.6791045952 -3.9983887759
O 0.6453278175 -0.5810548467 -3.5496772042
C 0.4173515306 -2.4607047331 0.0050345933
C 0.2210889557 -2.2447213409 1.4895854624
C 1.1063946727 -3.7790855579 -0.2927644994
H -0.7283754589 -2.6426448979 -1.8774427227
H -1.9405144643 -1.3045437506 0.5063122748
H -2.9704215282 -2.5454257951 -1.9904683839
H -6.1326260435 -2.8287821171 -0.4781100554
H -6.1736978423 -1.6718961036 -1.8084065259
H -4.7211208915 -4.0955403576 -1.8197933585
H -5.7604729733 -0.3434356463 0.1396116284
H -4.9228265495 -1.2860448911 1.3438216014
H -3.4618310416 0.0803156091 2.5585511712
H -5.6772748381 4.3466816337 0.4699989112
H -4.3842195282 4.5756753486 1.6416927229
H -4.1052175372 4.9813157787 -0.0676601232
H -2.7372686385 3.0707627344 -1.2757130094
H -3.6795266304 0.6080376785 -1.4288250533
H -0.7311952802 0.0893491904 -2.5740036431
H -0.6957294509 0.4972294828 1.0169607359
H 0.6523447526 2.5687688022 0.4388069068
H -1.0859584065 2.8361736382 0.5321421753
H -0.2926165210 2.7033192024 -1.0551542888
H 1.1513985442 0.7102326862 -1.3666159704
H 2.4560297569 0.0062032116 2.7373224678
H 3.9207579038 0.0705884833 4.7233437424
H 6.2444700761 0.9522846873 4.4913828391
H 7.0703030534 1.7413319376 2.3374826976
H 5.0949970113 1.7346477902 -0.7221080720
H 7.8314703733 1.5606141796 0.1256718306
H 7.1764350806 2.5843602077 -1.1678598112
H 7.2418070847 3.1971267617 0.4967571097
H 3.6922562935 -1.5300918699 -3.4816640725
H 2.6283768726 -2.7531037496 -4.1833915299
H 2.7297646067 -1.1472575620 -4.9489282577
H 1.1848280432 -2.3352328758 2.0013471986
H -0.4478711913 -3.0168680039 1.8861407044
H -0.1958964147 -1.2719274807 1.7470860305
H 0.5494345939 -4.5874705225 0.1928191559
H 1.1556773918 -3.9905525580 -1.3622540885
H 2.1261172112 -3.7808047774 0.1077732538
