44
CONF4
C -1.5947672905 0.1554953185 3.5949914489
C -2.5252419998 0.1766955725 2.4004652217
C -2.9290916153 1.5764699762 1.9779608694
O -1.7704383562 -0.4548690767 1.3056327659
C -2.4682325260 -0.9898782171 0.2956186724
O -3.6770883129 -1.0696872207 0.2449184665
C -1.5258076304 -1.6155388921 -0.7392170614
C -2.2345398803 -1.9651280354 -2.0395729345
N -0.3308483746 -0.7731113574 -0.9443672894
C 0.9133380644 -1.2410417933 -0.4329085088
C 1.5538909636 -0.5323875804 0.5835869898
C 2.7665820329 -0.9926073332 1.0770626128
C 3.3134393453 -2.1699905910 0.5765353725
C 2.6673052430 -2.8943057000 -0.4109248796
C 1.4647504362 -2.4249098646 -0.9229493139
F 4.4867790269 -2.6181027948 1.0606016733
Cl 3.5948003260 -0.1178904032 2.3384399450
C -0.5464006904 0.5359747827 -1.3037603034
O -1.6890170663 0.9962911395 -1.3557125236
C 0.6334332071 1.3688118921 -1.6799266918
C 0.6524128338 2.7049308987 -1.2718195319
C 1.7065907444 3.5316478270 -1.6435201502
C 2.7308779707 3.0367613284 -2.4490272838
C 2.6991887633 1.7119632598 -2.8811507365
C 1.6594148883 0.8751256297 -2.4911123196
H -0.6925207640 0.7402871508 3.3885124777
H -2.1026792811 0.5952970402 4.4580260372
H -1.3044826646 -0.8681625289 3.8466642025
H -3.4096191097 -0.4413007851 2.5849477030
H -3.4751038861 2.0583004118 2.7947340082
H -2.0394240798 2.1737096681 1.7531778491
H -3.5729252859 1.5519362767 1.0957585546
H -1.1656008042 -2.5388979154 -0.2693997636
H -3.0686740270 -2.6384941168 -1.8320607442
H -1.5339251718 -2.4690779408 -2.7100705630
H -2.6220866474 -1.0698979294 -2.5287740633
H 1.1098576137 0.3690914310 0.9892958828
H 3.1213649842 -3.8078172038 -0.7790381503
H 0.9613379448 -2.9710310530 -1.7137198878
H -0.1571792784 3.0831565069 -0.6558929982
H 1.7272979587 4.5639144978 -1.3090131530
H 3.5499842547 3.6845246218 -2.7450241150
H 3.4863757113 1.3294727493 -3.5229999034
H 1.6366707252 -0.1557296146 -2.8290992745
