59
CONF495
C 6.2107216762 1.9695256508 4.3330687987
C 6.2805665408 3.4995409360 4.0592261407
C 6.0049361640 3.6606150726 2.5518601208
C 5.1747178059 2.4263573047 2.1687246238
C 5.8826004621 1.3181075637 2.9744171571
C 5.1579863802 2.1710072342 0.6680371671
C 4.2856797046 1.0167128116 0.2519649886
O 4.4977028789 0.3751613179 -0.7681169370
N 3.1933157942 0.7047531128 1.0671660087
C 2.8304458826 1.4377605382 2.2012807496
O 1.8130031373 1.1542476682 2.8192992597
C 3.7176726221 2.5848170506 2.6066795246
C 2.3178220321 -0.4083319208 0.6564848663
C 1.2052674301 0.0599338150 -0.2777412436
C 0.2874387788 -1.0967051313 -0.6708435086
C -0.8171618406 -0.6246167687 -1.6125602154
N -1.6834437737 -1.7081510094 -2.0977249440
C -2.5027661044 -1.2258930171 -3.2185070877
C -3.3973657468 -2.3392347393 -3.7542224719
N -4.2572650955 -2.8468276426 -2.6831505146
C -3.4607105386 -3.3278737215 -1.5531199081
C -2.5595704786 -2.2123367474 -1.0304274601
C -5.5268521051 -2.3683671676 -2.5061613028
N -6.1464031241 -2.6530388169 -1.3345117854
C -7.4026788765 -2.2287846052 -1.2097248023
C -8.0715791793 -1.5242977879 -2.2039682366
C -7.3432202810 -1.2784813412 -3.3621983706
N -6.0856605634 -1.6820606878 -3.5330725453
H 5.4284955233 1.7467430596 5.0653199482
H 7.1473510343 1.5811649822 4.7420148323
H 5.5228947981 4.0275747127 4.6465262329
H 7.2498959345 3.9238697482 4.3342290349
H 6.9470476842 3.6276394919 1.9904782711
H 5.4988724223 4.5984983185 2.3000690137
H 6.8066258460 1.0498978661 2.4482440657
H 5.2827932018 0.4067092346 3.0737419955
H 4.7733656697 3.0593676352 0.1449087343
H 6.1604600431 1.9741737132 0.2768414295
H 3.6130901020 2.6965419215 3.6890833504
H 3.2907322283 3.4892579054 2.1487871637
H 1.8964515952 -0.8440078606 1.5647011459
H 2.9445614491 -1.1537885686 0.1628280164
H 0.6225556654 0.8435058716 0.2218712488
H 1.6517988935 0.5063137169 -1.1748235238
H -0.1383846406 -1.5345217685 0.2397339755
H 0.8697909364 -1.8840722669 -1.1664949536
H -0.3490798902 -0.1623812303 -2.4912442932
H -1.4147588382 0.1661011280 -1.1154570145
H -3.1409321012 -0.3706397637 -2.9151527959
H -1.8374408885 -0.8808831818 -4.0185610932
H -2.7775129214 -3.1717627829 -4.1100525520
H -4.0065254085 -1.9755829996 -4.5802991564
H -2.8430053084 -4.1614490379 -1.9101760303
H -3.1919954731 -1.3997048125 -0.6174835082
H -1.9495247472 -2.6105686342 -0.2136783018
H -7.8955734568 -2.4610585383 -0.2660251160
H -9.0921279979 -1.1839335542 -2.0820376796
H -7.7870602830 -0.7285462508 -4.1917047276
H -4.1158128032 -3.6896812891 -0.7620772759
