32
CONF23
C 3.4108809691 0.8935479013 -2.8526474331
C 2.4081196727 0.6554549563 -1.7583765662
C 1.6002631912 1.6927663292 -1.2844514423
C 0.6902214072 1.4798057275 -0.2584570844
C 0.5894995533 0.2212158908 0.3292850872
C 1.3910246068 -0.8246298681 -0.1205804798
C 2.2812907885 -0.6017986117 -1.1639405356
N -0.3549012505 0.0156784392 1.3930246534
S -0.2820029512 0.9018367578 2.8282691651
C 0.6830517148 -0.2114030585 3.9361596410
F 0.0526792408 -1.3807594833 4.1478404705
Cl 0.7834133019 0.7061635248 5.4825405763
Cl 2.3260112457 -0.5931253420 3.3138395030
S -1.6533502811 -1.1156267278 1.1356355535
O -2.5612505027 -0.9463616254 2.2684316291
O -1.0895341813 -2.4234547968 0.8069718466
N -2.2710870655 -0.4715741918 -0.3037615038
C -2.9181069553 -1.4576513022 -1.1828702022
C -3.0682221333 0.7419464375 -0.0911390944
H 4.3904977067 1.1485027933 -2.4313798963
H 3.1063013880 1.7201952408 -3.4998407393
H 3.5425377731 0.0017984214 -3.4712344684
H 1.6774386543 2.6795258324 -1.7321829220
H 0.0620546325 2.2906597149 0.0969780245
H 1.3096156469 -1.8005846291 0.3413991158
H 2.9012568374 -1.4226804110 -1.5134481286
H -3.8927208617 -1.7930866323 -0.7984270196
H -3.0672374196 -0.9758862438 -2.1539328553
H -2.2625149805 -2.3183326008 -1.3151289795
H -2.5222349748 1.4421883305 0.5465198104
H -3.2204048465 1.2150161251 -1.0659853255
H -4.0425896411 0.5306534935 0.3708894095
