48
CONF1
C -5.1143155773 1.4232216583 -0.6079188713
C -3.7623112430 0.7547006481 -0.8963016435
C -2.7127908419 1.8476593253 -1.1443062953
C -3.8897548515 -0.1180925435 -2.1538638718
C -3.3852113326 -0.0973406493 0.3456414108
C -1.9230196641 -0.6231098590 0.3063961992
N -1.7645383643 -1.8476206525 1.0906754910
C -1.7264295198 -1.9929598032 2.4303332140
N -1.6810998240 -3.2820237578 2.7446187002
C -1.7125314055 -3.8910583670 1.5260451893
N -1.7659683663 -3.0620245913 0.4909251417
O -1.1195261814 0.3934466182 0.8643952236
C 0.2380556666 0.3783845588 0.6214722631
C 0.9190336837 -0.6491754884 -0.0282778050
C 2.2949311755 -0.5384360097 -0.2129250473
C 3.0128320191 0.5727219525 0.2409751456
C 2.2999307847 1.5883548101 0.8969247750
C 0.9308568713 1.4963830820 1.0874984386
C 4.4727219573 0.6743191968 0.0395353233
C 5.0746525069 1.9092387177 -0.2427231957
C 6.4494387891 2.0057217473 -0.4312293730
C 7.2524355131 0.8702795949 -0.3441233334
C 6.6667730408 -0.3631071087 -0.0656791573
C 5.2924013201 -0.4604600795 0.1254488043
O -4.3035469623 -1.1598160096 0.5712975300
H -5.0396999891 2.0912574841 0.2573091172
H -5.8882393558 0.6780106030 -0.4039008075
H -5.4277455457 2.0181685337 -1.4719509212
H -2.5561407874 2.4585331744 -0.2496172621
H -1.7468535024 1.4318205443 -1.4486178944
H -3.0611049758 2.5024040020 -1.9499606615
H -4.1172204283 0.5217554659 -3.0123458191
H -2.9643039077 -0.6568972650 -2.3842810875
H -4.7058006571 -0.8442553272 -2.0710520903
H -3.4557217396 0.5372118325 1.2383741626
H -1.6140895370 -0.8750914176 -0.7145636512
H -1.7201462811 -1.1554968186 3.1150660154
H -1.6881620642 -4.9653487731 1.3933804207
H 0.4098151308 -1.5328286561 -0.3931698241
H 2.8119805403 -1.3344566182 -0.7394423764
H 2.8277045133 2.4549891635 1.2823220643
H 0.3841404573 2.2801686832 1.6015456806
H 4.4577054875 2.7976146640 -0.3378013789
H 6.8939267390 2.9704689822 -0.6563289763
H 8.3250695490 0.9459077723 -0.4918958176
H 7.2838496731 -1.2530243555 0.0132504455
H 4.8520812915 -1.4230964366 0.3670072026
H -4.3040617936 -1.7449249607 -0.1981611833
