51
CONF118
C 5.6237947515 0.5933620173 2.3183061070
C 5.4526325487 1.0751262079 0.9037616613
C 6.4663250401 1.5931970629 0.1668759309
C 7.8804380115 1.7623561337 0.6097728187
O 8.6158243915 0.5550817262 0.2764299823
C 4.1424477206 0.9648832615 0.2966581643
C 3.0300335166 0.4533632905 0.8892484789
C 1.7691506563 0.3687611604 0.2213151821
C 0.5943434680 -0.1353543178 0.7116076635
C 0.4478670592 -0.6929034965 2.0986245259
C -0.5612387989 -0.1362389471 -0.1564601761
C -1.7949518683 -0.5859657538 0.1749551453
C -2.9820568414 -0.5934554225 -0.6783366489
C -2.9644021274 -0.9789407972 -1.9796572746
C -1.7354252214 -1.4595069615 -2.7030060798
C -4.2010901775 -0.9728441942 -2.8443826084
C -5.5054612510 -0.8987513527 -2.0613315907
C -5.3829996146 0.1583915422 -0.9760431798
C -4.2750843058 -0.1660517129 0.0404760850
C -4.0225954588 1.1047553970 0.8720947618
C -4.7424961910 -1.2880152305 0.9885576734
H 6.6449281325 0.7206779977 2.6768748739
H 4.9479497156 1.1270465910 2.9956919461
H 5.3724698469 -0.4709107788 2.3875330448
H 6.2491604201 1.8804741069 -0.8609256465
H 8.3256409869 2.6196374198 0.0873895380
H 7.9459237379 1.9525683906 1.6886992695
H 9.5484498120 0.7305593479 0.4566770570
H 4.0592587325 1.3256845437 -0.7288852768
H 3.1013075242 0.0884118290 1.9098971305
H 1.7526185064 0.7456376726 -0.8020493842
H -0.3260367081 -0.1478602677 2.6517516470
H 0.1316408763 -1.7416384059 2.0606577628
H 1.3723996189 -0.6378473435 2.6722477891
H -0.4053032411 0.2828804410 -1.1486570299
H -1.9521153671 -0.9202458157 1.1992272152
H -1.9945842641 -2.2967672799 -3.3607013700
H -0.9430208688 -1.7761133608 -2.0227244799
H -1.3231425069 -0.6717755752 -3.3480512238
H -4.1321821181 -0.1158108223 -3.5342933914
H -4.1890513650 -1.8633176942 -3.4855533410
H -6.3376206620 -0.6654637071 -2.7349733045
H -5.7240949398 -1.8763390129 -1.6153163595
H -6.3293629508 0.2830536230 -0.4348095351
H -5.1545807116 1.1240241235 -1.4490535002
H -3.6064140869 1.9017558008 0.2463363633
H -4.9682368905 1.4594708994 1.2981300020
H -3.3276985652 0.9228232465 1.6975469908
H -4.9835352847 -2.2025843045 0.4392275539
H -3.9731782003 -1.5339357364 1.7270878080
H -5.6366464818 -0.9653465469 1.5346585237
