44
CONF1
C 1.4088998643 0.9812594264 2.9704233905
C 1.7338812431 0.7019297410 1.5070425023
C 3.1632019748 0.1486963758 1.3193181053
S 2.9683222837 -1.6944881869 1.4188944349
C 1.2336892231 -1.6088327959 0.9531879317
O 0.5775703768 -2.5971498463 0.6835532226
N 0.8057538035 -0.2953229965 0.9486376120
C -0.5081664592 0.1656015804 0.5857920595
O -0.7423273670 1.3659053171 0.6212628863
N -1.3887614426 -0.7906325932 0.2348489951
C -2.7378622147 -0.4461012565 -0.2087839862
C -3.6651461212 -1.6387476251 0.0231390732
C -5.0902586071 -1.3142287599 -0.4316325626
C -5.1215102821 -0.8679777279 -1.8950227383
C -4.1837828672 0.3187496301 -2.1258987798
C -2.7581979487 -0.0123731098 -1.6790770109
C 3.8585889543 0.5653802911 0.0525043073
C 3.1899991056 0.6069698157 -1.1747790461
C 3.8503919073 0.9890539574 -2.3344167684
C 5.1976586735 1.3276754448 -2.2665016004
C 5.8881526303 1.2938917343 -1.0626353234
C 5.2092416813 0.9134411936 0.0896430819
Cl 6.0375296020 1.8082416587 -3.7270905313
H 0.3717991148 1.3102616239 3.0635511724
H 1.5592920278 0.0820626704 3.5768463265
H 2.0564465986 1.7766980473 3.3519001064
H 1.6254348912 1.6188377720 0.9216566164
H 3.7701393815 0.4498096432 2.1776665428
H -1.0725365957 -1.7544860253 0.2284087871
H -3.0765163976 0.3997202163 0.4042375685
H -3.6510612250 -1.9182928620 1.0829894591
H -3.2882040765 -2.5012469424 -0.5462843246
H -5.4947019332 -0.5113531962 0.2001548384
H -5.7347970565 -2.1875170627 -0.2824530177
H -6.1448948811 -0.6090086275 -2.1891450363
H -4.8090510190 -1.7051633109 -2.5348629791
H -4.1868526069 0.6111213732 -3.1816982209
H -4.5476078669 1.1862152848 -1.5578946239
H -2.0972882938 0.8512877080 -1.8076209677
H -2.3570489975 -0.8322093325 -2.2916581231
H 2.1400929356 0.3373049624 -1.2341441469
H 3.3276640102 1.0238767216 -3.2830002406
H 6.9369004685 1.5639062091 -1.0265930159
H 5.7459239311 0.8872342560 1.0340107329
