45
CONF1
C -4.0742963664 1.2745615291 1.5985832490
O -3.7892348729 0.3033946392 0.5613487617
C -2.6996041465 0.5820027333 -0.1746973381
O -1.9731323396 1.5517122900 -0.0177622686
N -2.5056150702 -0.3371086490 -1.1776312622
C -1.2838438045 -0.3948080885 -1.9106034139
C -1.0879810908 0.5416589022 -2.9242499685
C 0.0779057699 0.5207341516 -3.6803706751
C 1.0405226930 -0.4542860836 -3.4320935990
C 0.8407146377 -1.3835945583 -2.4165265687
C -0.3144528019 -1.3697471769 -1.6326797955
C -0.4720873941 -2.4091667337 -0.5530328057
O -0.9751653559 -1.8904286082 0.7005440355
C -0.1602299448 -1.0645410919 1.3834100605
N 1.0585902003 -0.7309710047 0.9772849584
N 1.5185713961 0.1031149455 1.9563635599
C 0.5950313844 0.2821067915 2.9460213227
C -0.5102779456 -0.4637222002 2.6147734133
C 2.7888442290 0.6985684566 1.8302372005
C 3.3970329268 0.7732790390 0.5742060086
C 4.6478620573 1.3627054227 0.4423436755
C 5.2768606605 1.8816819460 1.5673749671
C 4.6849899001 1.8134619763 2.8228635874
C 3.4404398646 1.2108461180 2.9553651962
Cl 6.8591440157 2.6346873596 1.4008548206
O -3.2252318081 -1.5407478229 -1.1178534579
C -4.1774498880 -1.5825585392 -2.2021769170
H -3.2313429852 1.3495488406 2.2892061719
H -4.2834825818 2.2511656962 1.1556500579
H -4.9554674256 0.8898204834 2.1105064346
H -1.8599918274 1.2815147879 -3.1091250077
H 0.2265378307 1.2539091245 -4.4663692958
H 1.9518856819 -0.4860137191 -4.0205476756
H 1.6057632561 -2.1261382194 -2.2069584810
H 0.4894051785 -2.9036799868 -0.3804495710
H -1.2135546719 -3.1571907643 -0.8412801316
H 0.7746380298 0.9343700256 3.7870544283
H -1.4361012715 -0.5565675950 3.1604593729
H 2.8902246758 0.3767255925 -0.2971065561
H 5.1197907108 1.4231380375 -0.5317328968
H 5.1916054795 2.2096301697 3.6953897640
H 2.9970244889 1.1314057796 3.9410927718
H -3.6665339821 -1.5142325179 -3.1693035326
H -4.6676284848 -2.5538636532 -2.1085195531
H -4.9106789234 -0.7755170055 -2.0998634383
