21
CONF1
C 2.1048362130 -1.6524546856 1.0840681383
C 0.7851347611 -1.2374342097 0.9666627604
C 0.4428899139 -0.1024618436 0.2214752601
C 1.4768147084 0.6195809843 -0.3982900159
C 2.8010756493 0.1864572342 -0.2898150578
C 3.1190696828 -0.9486253689 0.4475216844
Cl 4.0972211115 1.0690902177 -1.0625685168
Cl 1.1136462922 2.0979274171 -1.2531160802
C -0.9664001406 0.2939350579 0.1249858825
C -1.8075410648 0.5450749056 1.1852623204
N -3.0539793272 0.8284014025 0.6869834572
C -3.0584376891 0.7593960826 -0.6655003771
C -1.7689577475 0.4268865140 -1.0625685526
C -1.3571873548 0.1914534689 -2.3832511251
N -1.0087843524 -0.0291836058 -3.4688656452
H 2.3488640783 -2.5363081288 1.6632914931
H -0.0113117887 -1.7999962756 1.4417409044
H 4.1523727180 -1.2680727894 0.5191469054
H -1.6042591663 0.5593974191 2.2456492729
H -3.8581611525 1.0627595965 1.2502071256
H -3.9469056566 0.9341762049 -1.2530198447
