52
CONF88
C 4.3500141096 -3.2955892848 2.8518512059
N 3.3736118041 -2.3183210423 2.3738613294
C 2.7082485750 -2.8065546277 1.1626507706
C 1.6984139831 -1.7899955409 0.6552570870
N 2.3562973138 -0.5115173173 0.3518966249
C 3.0171316563 -0.0263629992 1.5710489952
C 4.0289296339 -1.0415442318 2.0758313369
C 1.3876511598 0.4865798457 -0.1194575977
C 0.8781162193 0.1983374346 -1.5286533858
C -0.0869132744 1.2747175422 -2.0311179638
N -1.2086760453 1.5017615925 -1.1084577078
C -1.7141565435 2.8042021172 -0.9422881618
C -1.5615401134 3.7938176573 -1.9208215881
C -2.0437419825 5.0821832972 -1.7019376677
C -2.7211014527 5.3971750456 -0.5279114313
C -2.9166322243 4.4104962877 0.4363398987
C -2.4008298425 3.1340492727 0.2373521668
S -2.5349332617 1.9064803055 1.5225393722
C -2.7196577205 0.4717349087 0.4931625841
C -2.0157952493 0.4225593132 -0.7251539163
C -2.1386386339 -0.7242707982 -1.5124565834
C -2.8888302494 -1.8094035429 -1.0585408611
C -3.5670607457 -1.7623548551 0.1542367601
C -3.4991788558 -0.5988940305 0.9155842985
C -2.9291814631 -3.0327397833 -1.9200047504
F -1.6987850005 -3.6072286061 -2.0427759727
F -3.7591580605 -3.9860834864 -1.4436472714
F -3.3363041980 -2.7514926723 -3.1882773894
H 3.8459844739 -4.2394442397 3.0860866408
H 4.8305070118 -2.9232140566 3.7630300388
H 5.1403042171 -3.5019792527 2.1046431041
H 2.1911141331 -3.7452772029 1.3947072712
H 3.4455880692 -3.0179637244 0.3614045254
H 0.9002324896 -1.6518653059 1.4136564038
H 1.2295712468 -2.1885481237 -0.2499588499
H 3.5318523592 0.9144138633 1.3433492891
H 2.2764059873 0.1790551651 2.3702110511
H 4.8266803942 -1.1704652575 1.3157819102
H 4.4994952810 -0.6615082228 2.9906051483
H 0.5337201120 0.5627727608 0.5818156427
H 1.8855107463 1.4654230406 -0.1191913086
H 1.7241942204 0.1753974845 -2.2251101333
H 0.4097615533 -0.7879339563 -1.5729350241
H -0.4319454351 1.0355134436 -3.0480819583
H 0.4572987043 2.2211669449 -2.0908949247
H -1.0686705092 3.5605019440 -2.8574779374
H -1.9002297883 5.8372275910 -2.4683097034
H -3.1039171804 6.3984754986 -0.3618827685
H -3.4494774798 4.6349590851 1.3552588927
H -1.6471825931 -0.7783287860 -2.4766511595
H -4.1483197390 -2.6069019418 0.5033341743
H -4.0357767912 -0.5332183515 1.8564995838
