47
CONF41
C -2.7662712152 1.6379353423 2.7515811431
C -2.6070016373 1.3632554072 1.2730416651
C -3.8290637663 1.2804137278 0.3889643482
C -3.1002996222 -0.0016544918 0.7922467611
C -2.3647367131 -0.7390035571 -0.2494072313
O -2.0158010020 -0.3152346602 -1.3283073099
O -2.0985278680 -2.0093386029 0.1828921422
C -1.2658214704 -2.7968115865 -0.7195095219
C -1.6451072277 -4.1896894700 -0.5006426448
N -1.9185946878 -5.2996167233 -0.3394793220
C 0.1982320556 -2.5425196344 -0.4397805680
C 0.8168800137 -3.1201206327 0.6693765499
C 2.1458131737 -2.8197146129 0.9411813145
C 2.8638002468 -1.9539402602 0.1224575419
C 2.2311090717 -1.3819598253 -0.9797713573
C 0.9002976986 -1.6714495172 -1.2674454312
O 2.8837325801 -0.5674371211 -1.8760100113
C 3.9247075473 0.2291607915 -1.4273061021
C 3.7817576159 1.0460180710 -0.3086498381
C 4.8323717466 1.8802032181 0.0560356077
C 6.0074286808 1.9062175761 -0.6917936501
C 6.1287861742 1.0913232777 -1.8132911680
C 5.0887332712 0.2448607431 -2.1853999830
C -5.1846912797 1.5120624160 0.8935180346
C -6.1524618036 2.1570896334 0.2395646708
Cl -7.7374851582 2.3818363381 0.9232250484
Cl -5.9613831620 2.8444379055 -1.3447697212
C -1.3540314604 1.9617982427 0.6763629760
H -1.8713458544 1.3090485236 3.2896543814
H -3.6245338239 1.1234206775 3.1883848451
H -2.8897689621 2.7128448352 2.9227915199
H -3.6501869194 1.5643785705 -0.6435098181
H -3.5604084097 -0.6232670553 1.5528832809
H -1.5067317051 -2.5182964581 -1.7516240706
H 0.2653176285 -3.8050892195 1.3049543263
H 2.6383956441 -3.2748781829 1.7940559379
H 3.9042730943 -1.7293746950 0.3284148360
H 0.4245799175 -1.2019708414 -2.1209538967
H 2.8584898864 1.0246024198 0.2606143459
H 4.7265281261 2.5214208981 0.9252070322
H 6.8217304108 2.5618968433 -0.4032789757
H 7.0397741429 1.1084664900 -2.4026581258
H 5.1630215809 -0.3991946954 -3.0546341872
H -5.4441387407 1.1327954066 1.8765906600
H -1.3552306278 3.0444264533 0.8411286203
H -1.2769569222 1.7741533938 -0.3951569797
H -0.4651796810 1.5464949318 1.1652981147
