38
CONF1
C -3.0385847536 2.1271427733 -1.1977012965
C -1.5484654486 1.8083120816 -1.2150848113
C -1.3160657080 0.2904091668 -1.0917832268
C -2.1997613405 -0.3602745321 -0.0312791038
C -1.9508613534 -1.6896577004 0.3416114060
C -2.7418593402 -2.3358972357 1.2808707793
C -3.8108741164 -1.6557363319 1.8640454804
C -4.0764667274 -0.3454490921 1.4901324231
C -3.2881890893 0.3195594597 0.5422936241
C -3.6258098818 1.7402661325 0.1565523899
C 0.1573809308 0.0061625941 -0.9042029519
C 0.8013467167 0.1336149254 0.3013407669
C 2.2212147220 -0.0728106016 0.4182443764
C 2.9290266625 0.0340870389 1.6266468050
C 4.2957331919 -0.1829766621 1.6530214370
C 4.9778514261 -0.5118201469 0.4755305433
C 4.2981229156 -0.6236465226 -0.7283093629
C 2.9240789280 -0.4027854933 -0.7467341510
O 2.2887537725 -0.5215000625 -1.9470787359
C 0.9173638589 -0.3130952325 -2.0844816200
O 0.4765692161 -0.4189591056 -3.2165513991
O 0.1816857318 0.4570426129 1.4481438813
H -3.2044717152 3.1923657489 -1.3886739160
H -3.5440194496 1.5689946215 -1.9969073654
H -1.0565452145 2.3263741360 -0.3804880796
H -1.0727687504 2.1584618229 -2.1369899211
H -1.1142870294 -2.2145775426 -0.1125841154
H -2.5286264866 -3.3639538215 1.5562954599
H -4.4376684390 -2.1486381556 2.6008282725
H -4.9179504020 0.1825979402 1.9317210337
H -3.2342544933 2.4213737584 0.9260335162
H -4.7143751246 1.8626386114 0.1634974157
H 2.3914169636 0.2872736226 2.5328154485
H 4.8387113472 -0.0992983726 2.5881537094
H 6.0492126522 -0.6823005453 0.4997332287
H 4.8085569797 -0.8779371182 -1.6507113657
H -0.7853485263 0.4269985782 1.3252483806
H -1.5951690368 -0.1597936532 -2.0522065737
