28
CONF45
O -1.2428413518 1.6841409059 -2.3394215688
C -1.9448447993 0.4477718463 -2.4549962224
C -1.8427654318 -0.4100642371 -1.2108183942
O -0.4627741760 -0.8066437448 -1.0614353267
C -0.1577562178 -0.9979237053 0.3146978643
C -1.3091298780 -0.3963921647 1.1379519580
C -2.2249751930 0.2805365225 0.1088187704
O -3.6163055855 0.1871873965 0.3934464921
N 1.1801913110 -0.4355962062 0.5821233258
C 2.2025090949 -1.2682745155 0.9662522486
C 3.4509217540 -0.8306094977 1.2386494270
C 3.7643168168 0.5693033477 1.1204884607
O 4.8523000041 1.0959809329 1.3375914161
N 2.6728254591 1.3497602689 0.7073667844
C 1.3924484271 0.9317913579 0.4227361069
O 0.5143032050 1.7074080885 0.0618883156
H -0.4628709678 1.5321069755 -1.7820702476
H -3.0014285827 0.6804720815 -2.6314774682
H -1.5760222032 -0.1325873423 -3.3142782142
H -2.4724995167 -1.3067383053 -1.3421253281
H -0.0508938573 -2.0688536967 0.5200173922
H -0.9534871899 0.2901969311 1.9073954891
H -1.8523763226 -1.2098270657 1.6294649067
H -2.0098967570 1.3480061551 0.0454839572
H -3.8504123838 -0.7485992828 0.4626899142
H 1.9373391728 -2.3173986093 1.0426378807
H 4.2278299857 -1.5189954632 1.5409997711
H 2.8362957975 2.3438416189 0.5959223049
