48
CONF111
Cl -6.0507888876 2.8184138418 -1.6148063655
C -5.6098488605 1.6172243292 -0.3925894184
C -6.6203066600 0.9426954961 0.2731652112
C -6.2286934047 -0.0064311486 1.2194064130
C -4.8929478438 -0.2575327576 1.4878219479
C -3.8741340209 0.4394358240 0.8042388932
C -4.2596129082 1.3870161539 -0.1636686371
N -2.5305546835 0.2174652336 1.1200522987
C -1.5241856723 1.0156225886 0.4184280435
C -0.1692148655 0.8793624422 1.0965041760
N 0.2555014877 -0.5190834730 1.1485490078
C 1.5973644027 -0.6328766022 1.7263491759
C 2.2239483837 -2.0115221974 1.5341200514
C 2.2637878169 -2.4657399570 0.0750443908
N 2.9180854356 -1.4906186549 -0.7836363443
N 4.2177088111 -1.1056354328 -0.5295215443
C 4.4618849353 -0.1777690822 -1.4346193014
C 5.6278750307 0.5854704566 -1.6795987670
C 5.6072979703 1.4937825867 -2.7007483409
C 4.4451544560 1.6790465966 -3.5115729791
C 3.3269303196 0.9449428177 -3.2773943440
N 3.3522715957 0.0361769900 -2.2505518937
C 2.3264315480 -0.8306449794 -1.8268273318
O 1.2032081628 -0.9412090476 -2.3163369215
C -0.7369663419 -1.2795690034 1.9091694624
C -2.1012265522 -1.1859447047 1.2481211154
H -7.6647300397 1.1452717233 0.0703176986
H -6.9908542116 -0.5502919111 1.7690597571
H -4.6401364378 -0.9788346488 2.2554383073
H -3.5283799686 1.9313166124 -0.7451937592
H -1.4389430893 0.7113430216 -0.6408789304
H -1.8137988349 2.0701733041 0.4504230634
H 0.5650763160 1.4540634304 0.5197024613
H -0.2245047266 1.3229043676 2.1112357392
H 2.2308913243 0.1149290379 1.2322234501
H 1.5953456577 -0.3856782970 2.8058829095
H 1.6866098174 -2.7782848638 2.1022933930
H 3.2410364394 -1.9815724498 1.9388989600
H 1.2541323141 -2.5889592948 -0.3241348103
H 2.7927935707 -3.4219562930 -0.0094238372
H 6.4996001907 0.4311541115 -1.0547023804
H 6.4897044203 2.0903126519 -2.9051678164
H 4.4473189150 2.4031652340 -4.3164217572
H 2.4003698741 1.0117866061 -3.8353975621
H -0.8055288843 -0.9138128514 2.9536753794
H -0.4497560734 -2.3355717599 1.9414894165
H -2.8174157072 -1.7435822374 1.8522594706
H -2.0577998705 -1.6555141305 0.2493233464
