25
CONF2
N 4.0776917491 0.9613836645 -0.4664186307
S 3.3344408694 -0.1956310167 0.5332340115
O 3.2767398549 0.3694790106 1.8854129151
O 3.9423307458 -1.4986802824 0.2572998187
C 1.6410726178 -0.2125982404 -0.0746414473
C 1.2818970854 -0.6072379907 -1.3708409139
Cl 2.4829674827 -1.0370042493 -2.5566613390
C -0.0433723616 -0.6589762143 -1.7591253364
C -1.0707406900 -0.3096771680 -0.8647994277
N -2.3814778027 -0.4329854480 -1.2465797465
C -3.4756738016 0.1244941035 -0.4499959477
N -3.3237992012 -0.1797287196 0.9650380362
S -1.9430328839 0.5953438047 1.6136185254
O -2.1761206005 2.0332492824 1.4752708698
O -1.6675905120 -0.0243334774 2.9079168729
C -0.6934298134 0.1007762102 0.4323759686
C 0.6374706155 0.1359002900 0.8183684890
H 4.8220737675 0.5265915003 -1.0028991956
H 4.4272600177 1.7223484953 0.1082747142
H -0.2891540939 -0.9761448892 -2.7669815196
H -2.5586520660 -0.5961671126 -2.2244446413
H -4.4148708267 -0.3090286139 -0.8080892639
H -3.5365495966 1.2179413733 -0.5435781459
H -3.2540680121 -1.1803034417 1.1483175025
H 0.9045870489 0.4309892352 1.8280649208
