49
CONF67
C -0.1959387838 -1.1393465550 4.5590242970
C -1.4396429533 -1.3999812874 3.9866675401
C -1.6173855751 -1.3015401469 2.6107735634
C -0.5362706948 -0.9254214573 1.8135926068
C 0.7085473226 -0.6442627893 2.3742927345
C 0.8754508195 -0.7674035858 3.7499424994
N -0.6808191264 -0.8200236486 0.4025141322
C 0.0135846604 -1.5830322486 -0.5144114812
O 1.0532693880 -2.1800598730 -0.2911658782
C -0.7789925725 -1.5669073968 -1.8044740087
C -2.0207494989 -0.7680535669 -1.4694450493
O -2.9089574933 -0.4197651248 -2.2264191756
N -1.9335969397 -0.4104407212 -0.1322975398
C -2.5387667174 0.7672839605 0.3982274699
C -3.9287533149 0.8299521883 0.4570601229
C -4.5350992754 1.9853103136 0.9412880316
C -3.7596931380 3.0534303855 1.3863436326
C -2.3691992528 2.9708084584 1.3354962515
C -1.7490425034 1.8312087253 0.8346775849
C 0.0129282128 -0.9462734720 -2.9682787266
C 0.2449346695 0.5510774541 -2.7577139562
S 1.8057763675 1.1431781506 -3.5659953055
O 1.8482181884 2.6477214762 -3.2806027292
C 2.9487523870 0.3436145111 -2.3964731217
C 3.1188503005 0.8899446371 -1.1275877880
C 3.9966695581 0.2723159341 -0.2431755212
C 4.6912091240 -0.8742726395 -0.6311668117
C 4.5189836764 -1.4018926633 -1.9080857209
C 3.6482281925 -0.7863930863 -2.8063601407
H -0.0641217495 -1.2208629342 5.6329622510
H -2.2781453180 -1.6895137672 4.6118197879
H -2.5814585248 -1.5152597442 2.1622027215
H 1.5280545521 -0.3295494093 1.7380894068
H 1.8442733974 -0.5547201468 4.1902464138
H -1.0454120198 -2.6008876934 -2.0544218987
H -4.5206466541 -0.0180345245 0.1319998694
H -5.6179492190 2.0413566273 0.9849432944
H -4.2367594557 3.9465041008 1.7765286560
H -1.7601938924 3.8005245102 1.6796193422
H -0.6672744953 1.7685551661 0.7820870255
H 0.9604987797 -1.4933120796 -3.0237128691
H -0.5241362547 -1.1183007733 -3.9035928349
H -0.5469192216 1.1568671791 -3.2085817513
H 0.3483817293 0.8315295644 -1.7020660964
H 2.5749571672 1.7847824740 -0.8394518632
H 4.1374586512 0.6842626036 0.7511756040
H 5.3735271983 -1.3530328394 0.0639452160
H 5.0669156064 -2.2880401265 -2.2117912542
H 3.5164536905 -1.1836430135 -3.8085874258
