111
CONF73
C 3.0670051219 -1.0522698594 1.5909084054
N 2.1263126494 -1.9549996084 2.2723147026
C 2.5851454805 -3.1910602270 2.8748133490
C 0.9017545735 -1.8664256234 1.6311725576
C -0.1794869713 -2.7418965976 1.6990878891
C -1.3461660798 -2.3907086787 1.0076267452
O -2.4559051354 -3.1893123847 0.9948787384
C -2.4182851960 -4.4238899787 1.7167248616
C -1.4494139921 -1.1984506400 0.2636499577
C -0.3240438885 -0.3663848189 0.2021208502
C 0.8365200592 -0.6953684259 0.8697248756
C 2.1204705630 0.0729892901 1.0779409165
C 1.9361551575 1.1579496606 2.2048833203
C 2.2812931367 2.4827077828 1.5249452400
N 3.2454060629 2.0794955029 0.5028987874
C 3.5436737118 3.1210068462 -0.4679878412
C 4.3085487409 2.5548589361 -1.6244984891
C 4.3230285782 1.2533258193 -1.9014561442
C 3.5160054602 0.2193050903 -1.1514216952
C 2.6476853113 -0.5543479779 -2.1913521895
C 1.8849005964 0.3249172980 -3.1807697913
C 4.5156702200 -0.7611944260 -0.4935632107
O 5.4881400331 0.0098076213 0.2510641875
C 6.8003959119 -0.2700624022 0.0770236015
C 7.6436114012 0.6506238607 0.9031499092
O 7.2163628509 -1.1401732939 -0.6611770649
C 3.8806373644 -1.7848508989 0.4914747717
O 3.0171724385 -2.6659875750 -0.1999478323
C 5.0512626933 -2.5589061729 1.1380166257
O 5.6674428359 -2.1993556508 2.1193028422
O 5.3388605062 -3.6616003762 0.4340022947
C 6.4804862975 -4.4245524373 0.9025558961
C 2.6112697555 0.9095555942 -0.1210357155
C -2.7882437263 -0.8315996785 -0.3846175066
C -3.8680620550 -0.5511879430 0.6897888955
C -3.4904383990 0.4247499971 1.8351336454
C -2.7457471682 1.7125560293 1.4548014474
N -3.5850871958 2.7300328002 0.8170889813
C -4.6269446817 3.1489564221 1.7618979001
C -5.2947766373 2.0194008908 2.5195161736
C -6.5874640159 2.3611842869 3.2104490199
C -7.7756322368 2.4090878210 2.2380875437
C -4.7539209101 0.7960632872 2.5661894567
C -4.2039865469 2.2598494689 -0.4469060166
C -3.2420281970 1.5987259328 -1.3852084131
C -2.6684717850 0.3334659087 -1.3546755748
N -1.8585378976 0.1852903899 -2.4674436971
C -1.8788539308 1.3260515180 -3.2247573100
C -1.2408941661 1.6270197643 -4.4283255798
C -1.4535426731 2.8903442816 -4.9635119369
C -2.2841474635 3.8262344053 -4.3179275200
C -2.9263693264 3.5165402346 -3.1276273118
C -2.7322739439 2.2468452311 -2.5623338551
C -3.2121544157 -2.0138562544 -1.2935521199
O -2.4387735155 -2.6240544879 -2.0055331518
O -4.5310744166 -2.2358083100 -1.2759186073
C -4.9980855891 -3.2905501304 -2.1549663620
H 3.7979685351 -0.6528686312 2.2981659439
H 3.4683755478 -2.9892463970 3.4861499451
H 2.8342599172 -3.9628842671 2.1283611016
H 1.8053669880 -3.5873677689 3.5321100322
H -0.1158132930 -3.6671763391 2.2557658734
H -2.2539385438 -4.2496769552 2.7865641913
H -3.3966739114 -4.8818074186 1.5665258308
H -1.6374970868 -5.0862403511 1.3249347695
H -0.3711509661 0.5493544799 -0.3790023859
H 2.6231364987 0.9615710119 3.0325991716
H 0.9171431289 1.1502339094 2.5982073850
H 2.7140672802 3.2215750987 2.2082197002
H 1.3761934808 2.9293807907 1.0644797230
H 4.1300605134 3.9117298681 0.0186338583
H 2.6158240903 3.6076325048 -0.8432459251
H 4.8611254016 3.2548507149 -2.2465380511
H 4.9035534710 0.8777387381 -2.7439104632
H 1.9401033327 -1.1874146276 -1.6530947211
H 3.3109624774 -1.2270553688 -2.7502071594
H 2.5551011398 0.9214556624 -3.8059016885
H 1.2852570586 -0.3115297145 -3.8389629566
H 1.1958121503 1.0109322924 -2.6780853554
H 5.0372713029 -1.3209583584 -1.2785509274
H 7.2796987011 0.6702570237 1.9334586069
H 8.6840578983 0.3302263078 0.8702844129
H 7.5574040746 1.6664027355 0.5030802048
H 3.5366917877 -3.1568156300 -0.8519519880
H 6.2986869413 -4.7762584344 1.9206069113
H 7.3772271491 -3.8012235773 0.8759395603
H 6.5689869591 -5.2625695682 0.2130899710
H 1.7041495021 1.2479327431 -0.6610292908
H -4.7742062401 -0.2119441906 0.1886420671
H -4.1228884334 -1.5044269251 1.1572841410
H -2.8327199697 -0.1313033319 2.5193658185
H -1.8902169779 1.5019020506 0.8138329054
H -2.3493372104 2.1566445405 2.3777435152
H -4.1853207980 3.8412547289 2.4975440006
H -5.3809728712 3.7320342549 1.2166023630
H -6.7900444717 1.6223937866 3.9940100877
H -6.4884035961 3.3374335679 3.7055327145
H -8.6949360568 2.6925709438 2.7603081490
H -7.6086679820 3.1345016306 1.4355042029
H -7.9300581961 1.4278407906 1.7779238863
H -5.2667325318 0.0061932886 3.1170579188
H -4.6070353806 3.1460770615 -0.9517660748
H -5.0711536056 1.6100246707 -0.2508339322
H -1.3524683332 -0.6605715152 -2.6834595989
H -0.6032027924 0.9033648984 -4.9249461632
H -0.9713009317 3.1608105815 -5.8977404607
H -2.4249783233 4.8059193392 -4.7639989048
H -3.5674615587 4.2480727131 -2.6444369338
H -4.7575944646 -3.0483988218 -3.1927186323
H -4.5337292718 -4.2399731551 -1.8780503568
H -6.0763888744 -3.3306892159 -2.0070976266
