47
CONF242
C 5.3013203437 -1.1559643264 -1.6159508897
C 4.0175949439 -0.7756086093 -0.9415583340
C 3.1433996837 -1.7780695393 -0.4278494262
C 3.5043686042 -3.2240492810 -0.5691607974
C 1.9537592433 -1.4291345447 0.1938015672
C 1.5807993743 -0.0880449183 0.3418561645
N 0.4143271115 0.3143186042 0.9747538458
C -0.4905369800 -0.6795168145 1.5976740891
C -1.5882555277 -1.2201750476 0.6762825991
O -0.9545701742 -1.7916013934 -0.4636564237
C -2.6663542404 -0.1846429857 0.2908736267
O -3.2429946805 0.3700108262 1.4660942838
C -3.8166964932 -0.8334853006 -0.4924238031
O -3.3501631712 -1.3992442654 -1.7392943276
C -4.9477196660 0.1472758052 -0.7726692517
O -6.0227707621 -0.4836986232 -1.4693988686
C 0.1189990709 1.6489062164 1.1055440392
N -0.9907903875 2.0042779756 1.7305953224
C -1.2990883474 3.3301531343 1.8681793713
O -2.3255013485 3.7126424860 2.4233789010
N -0.4073487155 4.2842843356 1.3517035134
C 0.7692743729 4.0323138478 0.6877645344
O 1.4885275094 4.9231718366 0.2596693243
C 1.0660576764 2.5828322444 0.5515809476
N 2.1702225575 2.2374477852 -0.0527226032
C 2.4519056923 0.9185208168 -0.1670169819
C 3.6533123179 0.5432269204 -0.8033557668
H 5.8439425722 -0.2676275556 -1.9441603308
H 5.1145585817 -1.7910248074 -2.4891179262
H 5.9469002059 -1.7272423752 -0.9397357738
H 2.7420126470 -3.8682259975 -0.1283629111
H 4.4646536814 -3.4336322461 -0.0842108552
H 3.6224077921 -3.4927073879 -1.6252641583
H 1.3051478497 -2.2223766097 0.5349011670
H 0.1237693815 -1.5106846038 1.9437848689
H -0.9398541380 -0.2168167110 2.4764455493
H -2.0964104812 -1.9968373009 1.2755240900
H -1.6589287956 -1.9606706770 -1.1146018493
H -2.2121790448 0.5994815749 -0.3413226204
H -2.5845247419 1.0212293240 1.7926488527
H -4.2075751423 -1.6858126045 0.0774631290
H -3.0608724573 -0.6673393589 -2.3061333389
H -4.5494251525 1.0019044517 -1.3464010296
H -5.3551543890 0.5246461539 0.1664424857
H -5.6457092457 -0.9095481686 -2.2509897799
H -0.6699445383 5.2553954034 1.4762391150
H 4.2861080051 1.3417426866 -1.1778426256
