34
CONF76
C -4.1914104061 0.5971608978 -1.6750171472
C -2.8055572893 0.0055013613 -1.7547007424
O -2.1697119076 0.0717402675 -0.4292894534
P -1.0076617329 1.0950768928 -0.0612048918
S -0.8842225779 2.7287695240 -1.0935174020
O -1.0646083977 1.1770918272 1.5235879888
C -1.7416879660 2.2841676343 2.2154624400
C -3.2438908854 2.1454173601 2.1413358048
O 0.3745592128 0.1509446442 -0.0685672776
N 0.5564820101 -0.4198427247 -1.3238321144
C 1.6513762097 -1.1073859814 -1.3974621356
C 1.7870585151 -1.7352057342 -2.6827217048
N 1.9302691231 -2.2537857054 -3.7066883587
C 2.7141678225 -1.3490908530 -0.4072249335
C 3.3729288374 -2.5877228262 -0.4276689036
C 4.3836049016 -2.8568417995 0.4851990949
C 4.7658397831 -1.8858950847 1.4078570165
C 4.1325294194 -0.6444257295 1.4143196299
C 3.1064206228 -0.3712077152 0.5193347889
H -4.7907403098 0.0850143703 -0.9170636706
H -4.1442191976 1.6628619120 -1.4340010328
H -4.6856984055 0.4817039779 -2.6448859776
H -2.8233007523 -1.0588487367 -2.0001310123
H -2.1789241046 0.5305241333 -2.4802060203
H -1.3927168212 3.2244588329 1.7778088782
H -1.3749700143 2.2056871238 3.2402667195
H -3.7006097730 2.9364827730 2.7443971651
H -3.5663899445 1.1775132344 2.5347941705
H -3.6026663888 2.2505514737 1.1130710810
H 3.0834777880 -3.3444549991 -1.1502818826
H 4.8771695893 -3.8228368035 0.4707194278
H 5.5617507314 -2.0929084323 2.1159866316
H 4.4401600792 0.1193456717 2.1209130228
H 2.6311920279 0.6004398904 0.5253224024
