44
CONF31
C 3.8792482155 1.3921447242 -2.0917386488
N 2.7591293409 0.5689134924 -2.5507016232
C 3.0071294382 0.1199500271 -3.9219825720
C 2.5578970308 -0.5983640969 -1.6839233358
C 2.1369813314 -0.2536222110 -0.2475455548
C 0.9053109177 0.5907945046 -0.1942165189
C -0.2520424167 0.2862612166 0.4196449080
C -1.3991429610 1.2351369495 0.3810648301
C -1.1221338682 2.5891167238 0.6479996312
C -2.1144636475 3.5582638964 0.6490274879
C -3.4311912139 3.1859516473 0.3875311012
C -3.7203382438 1.8536516469 0.1275630867
C -2.7331894579 0.8580174595 0.1180977191
C -3.2169835886 -0.5429443550 -0.2105210566
C -2.1653075120 -1.6246981164 -0.4741909610
C -1.3591546569 -1.9219316315 0.7560357707
C -1.5261427611 -3.0993903079 1.4859106412
C -0.7877999978 -3.3325828624 2.6444953839
C 0.1300321295 -2.3815795887 3.0839933296
C 0.3057320252 -1.2042446933 2.3610718374
C -0.4311831222 -0.9669556115 1.1973467759
H 4.0314002305 2.2196630589 -2.7920990177
H 4.8241530711 0.8177831602 -2.0243117205
H 3.6670146217 1.8207329295 -1.1079241486
H 2.1579516218 -0.4724227668 -4.2787699672
H 3.1247940424 0.9873307603 -4.5800333919
H 3.9205311018 -0.5011339960 -4.0053187382
H 3.4746283420 -1.2218124577 -1.6400803021
H 1.7697102403 -1.2127136064 -2.1375264083
H 1.9842703629 -1.1957495627 0.2870570969
H 2.9611323279 0.2623780758 0.2638288793
H 0.9512480041 1.5236347605 -0.7534923434
H -0.0993898487 2.8686930553 0.8811059568
H -1.8640117146 4.5922675440 0.8653601215
H -4.2256568772 3.9258870133 0.3873354311
H -4.7463684773 1.5633342544 -0.0869473146
H -3.8668249495 -0.4671486402 -1.0907891896
H -3.8651749616 -0.8820722257 0.6096580736
H -2.6794972589 -2.5304695190 -0.8100422211
H -1.5021310617 -1.3022217399 -1.2868659826
H -2.2398302092 -3.8420348733 1.1384280797
H -0.9281911508 -4.2542248878 3.2011013972
H 0.7085559432 -2.5543457927 3.9863166674
H 1.0193007188 -0.4572428660 2.6975248003
