43
CONF104
C 1.4963645550 2.9587416258 -3.4657458423
O 1.6940763706 3.3745291557 -2.1092416845
C 1.7868279479 2.3980275025 -1.1624752377
C 1.7286879433 1.0357179409 -1.4468551959
C 1.8116142403 0.1853207872 -0.3452469779
C 1.9530324333 0.6399560938 0.9849653798
C 2.0265134136 2.0140881803 1.2369690666
C 1.9391316376 2.8765523695 0.1611057532
N 1.9724359599 -0.4354276488 1.8628227393
C 1.8464827483 -1.4835123436 1.0894523906
N 1.7714582604 -1.1870967973 -0.2480058258
S 1.7319766812 -3.2069196606 1.6647670845
O 2.5395059848 -3.3072546312 2.9492968695
C -0.0800357156 -3.0751154564 2.1812498911
C -0.8508808517 -2.4465920093 1.0657210538
N -0.8682993688 -3.1563851708 -0.0736624611
C -1.4390024644 -2.6096054492 -1.1506683282
C -2.0032057203 -1.3370085544 -1.1744831671
C -2.6130988913 -0.7603026643 -2.4153476546
C -1.9870428580 -0.6241042151 0.0294600192
O -2.5915883826 0.6086074242 0.0618152781
C -1.6656615744 1.7155565932 -0.0098406477
C -1.4241662874 -1.1683967822 1.1904583216
C -1.4757205775 -0.4264907355 2.4955477627
H 1.4284323233 3.8763629830 -4.0504084819
H 2.3420614090 2.3572150972 -3.8198763777
H 0.5666127935 2.3856348047 -3.5670286628
H 1.6106009112 0.6467433193 -2.4497972083
H 2.1365945380 2.3909401463 2.2484287183
H 1.9793915348 3.9506651399 0.3086838482
H 1.6454946297 -1.8473961195 -1.0016933373
H -0.3795215433 -4.1090590745 2.3744654013
H -0.0630042420 -2.4956655830 3.1057484189
H -1.4420195079 -3.2132063670 -2.0580522674
H -3.6719914405 -0.5298821096 -2.2604880324
H -2.5262924186 -1.4629675393 -3.2472100548
H -2.1201641840 0.1756906400 -2.6978796569
H -1.1617715237 1.7285113758 -0.9831092100
H -2.2612984875 2.6212489014 0.1139563105
H -0.9131622592 1.6526558749 0.7839729484
H -1.7809291825 -1.0917872576 3.3078370074
H -0.4956233842 -0.0123059965 2.7573314381
H -2.1928167629 0.3937168134 2.4387879244
