39
CONF6
C 2.1433606456 -2.6596948398 -0.3187245376
C 0.9919692544 -1.6509716825 -0.2751378275
C -0.2227868346 -2.3164274909 0.3936731922
C -1.3273364991 -1.3788138765 0.8810790637
C -1.7740138664 -0.3311569963 -0.1556757700
C -0.8082641142 0.8309774508 -0.2474135669
C 0.4964692003 0.8452704079 0.0354501614
C 1.3839343369 -0.3345549420 0.4187630027
C 2.7981374955 0.1866664956 0.0945139841
C 2.7211581804 1.6704464722 0.4556147313
C 1.3512300875 2.1050780500 -0.1001053983
C 1.4517809694 2.5760339869 -1.5569593258
C -3.1635735024 0.1901530660 0.1631418896
C -4.1647309446 0.0791773572 -0.7111023896
C -3.3413217495 0.8394849934 1.5054726790
H 2.5051178022 -2.8756042438 0.6938162318
H 2.9884089563 -2.2989101388 -0.9107856668
H 1.8062480285 -3.6046143012 -0.7583162672
H 0.7242826978 -1.3900822153 -1.3093393885
H -0.6478290012 -3.0442871184 -0.3101625704
H 0.1339657474 -2.8985025243 1.2552237274
H -1.0002779982 -0.8529390726 1.7858473055
H -2.1937297470 -1.9871628949 1.1685690571
H -1.8375217500 -0.8226311410 -1.1391254149
H -1.2601004478 1.7665237640 -0.5813024970
H 1.3376368550 -0.4863350548 1.5106199030
H 3.5833132561 -0.3509112922 0.6331673772
H 2.9959465527 0.0724663037 -0.9791813835
H 3.5479067513 2.2600734126 0.0468459171
H 2.7380660924 1.7826899454 1.5465969994
H 0.9229993099 2.9199611816 0.4958337116
H 2.0721438345 3.4760032129 -1.6313753060
H 1.8944861501 1.7995382665 -2.1895749801
H 0.4626890428 2.8064155062 -1.9628983000
H -4.0200595094 -0.3950036573 -1.6775120311
H -5.1577362055 0.4580529601 -0.4874727330
H -2.5877235189 1.6203938666 1.6630657300
H -4.3346301469 1.2828529727 1.6053507480
H -3.2096160091 0.1103447154 2.3137804470
