54
CONF351
C -1.0670176289 -2.5268830266 0.9246932055
C -0.7524465137 -1.3306224414 1.8226405448
C -1.1363081582 -1.6104397034 3.2750431849
C -1.4428913181 -0.0295224708 1.3237476519
C -0.9981941480 0.2865827339 -0.1084027245
O -1.7271319537 0.0876020230 -1.0815415568
N 0.2638163468 0.7561640707 -0.2222938069
C 0.9041089339 0.9101152917 -1.5257218911
C 2.1693881948 1.7679210227 -1.3403500247
C 2.9324620676 1.9163120315 -2.6338762588
O 4.0786224723 1.5601695531 -2.8110684726
O 2.1727018662 2.4941955212 -3.5799265899
C 2.7929723513 2.6382820081 -4.8829993106
C 1.2432327224 -0.4271960125 -2.1604317679
C 1.8849465147 -1.4230496360 -1.4225065564
C 2.2393492994 -2.6317902158 -2.0108235138
C 1.9462932492 -2.8307001682 -3.3553027392
C 1.3085655671 -1.8595320111 -4.1156526494
C 0.9585004576 -0.6579110231 -3.5054121791
Cl 2.3905887746 -4.3582704173 -4.1110967843
N -2.8878184451 -0.1219577655 1.3421621086
C -3.6449950319 0.5510992619 2.2456472669
O -3.2146843922 1.1540691809 3.2202211182
O -4.9589009833 0.4543354012 1.9166838139
C -5.9177732644 1.0242911753 2.8671643106
C -7.1617668322 1.3310282149 2.0582347646
C -6.1647406278 0.0283263669 3.9860286349
H -0.5571148886 -3.4199389883 1.2989322025
H -2.1429697320 -2.7340304590 0.9163338391
H -0.7417313920 -2.3605202868 -0.1074488427
H 0.3284262138 -1.1399654123 1.7835523999
H -2.2122331411 -1.7968248816 3.3626937209
H -0.6096449788 -2.4987895705 3.6376828455
H -1.1471703072 0.7900113021 1.9887865694
H 0.8243920400 0.8665243359 0.6104421395
H 0.2075774367 1.4374651644 -2.1844132387
H 1.8838069248 2.7614003555 -0.9756113318
H 2.8400842370 1.2997369408 -0.6147622753
H 2.0389127318 3.1116811242 -5.5101475250
H 3.0622526066 1.6554370296 -5.2775608806
H 3.6837401286 3.2659096987 -4.8078726477
H 2.1070568986 -1.2636879438 -0.3711840981
H 2.7346508291 -3.4049905925 -1.4345074437
H 1.0807536892 -2.0373282222 -5.1604742044
H 0.4500873718 0.1052831579 -4.0876749358
H -5.4816505551 1.9453820925 3.2657710107
H -7.5754373909 0.4142387057 1.6261740151
H -6.9385597988 2.0340853974 1.2511513309
H -7.9181697338 1.7781815375 2.7095631138
H -5.2379147341 -0.1979274031 4.5196985328
H -6.5810857289 -0.8999323925 3.5813208008
H -6.8804250494 0.4469352305 4.7003622054
H -0.8821872108 -0.7674206107 3.9249075836
H -3.3339618868 -0.4441092350 0.4941097422
