36
CONF75
C 3.7140195462 -0.6791192970 5.7415904638
C 3.9095222283 -0.9760731442 4.2981655270
C 4.1508544787 -0.0631612030 3.3528567703
C 4.3174842858 -0.4671361938 1.9484606530
O 4.2711281498 -1.5957046082 1.5146991311
O 4.5462566540 0.6403721431 1.1738301014
C 4.6730945749 0.4290227944 -0.2440391403
C 3.5054760480 1.0789175208 -0.9775517389
C 2.2107454887 0.2975207300 -0.8559403945
C 1.0606935253 0.9225107739 -1.7056101462
C -0.3677707922 0.3413861280 -1.4282516635
C -1.3956136183 0.6488368718 -2.5740380593
C -2.8879508764 0.4907320214 -2.1235076156
C -3.8997537760 0.3579447374 -3.3087015071
F -3.7843597379 -0.8315743402 -3.9080590872
F -3.6943909616 1.3276910604 -4.2117001810
F -5.1448690416 0.4735143332 -2.8262750375
F -3.0153824378 -0.6166197019 -1.3563940746
F -3.2445469914 1.5747483257 -1.4021020951
F -1.2187238927 1.9201789702 -3.0021818396
F -1.1634739058 -0.1975363855 -3.6037496313
F -0.8352273399 0.8828110228 -0.2787907111
F -0.2866752723 -0.9982141145 -1.2838635806
F 1.3638446630 0.7404985275 -3.0185712405
F 1.0249514056 2.2573631988 -1.4565144204
F 1.7794445284 0.2485662898 0.4410232875
F 2.3953211293 -0.9844973797 -1.2815877435
H 3.7944525427 0.3891172732 5.9563304153
H 3.8478441859 -2.0178406007 3.9851986564
H 4.7435569731 -0.6408814643 -0.4559057761
H 5.6003296679 0.9237848335 -0.5472965114
H 3.3443983900 2.0937196716 -0.6053344210
H 3.7494857807 1.1431085561 -2.0437544537
H 4.2229832651 0.9960675990 3.5809513510
H 4.4532214375 -1.2174294161 6.3470251750
H 2.7303039931 -1.0320309778 6.0740100264
