40
CONF168
C 2.5337258595 -2.3998178202 0.2132699378
C 2.6160274297 -1.7488449928 -1.1441583792
O 3.2927715922 -0.4587004887 -0.9618495359
C 3.2110860302 0.4001570392 -1.9799956831
O 2.7180363303 0.1623863062 -3.0602842707
C 3.7357806654 1.7607984909 -1.5374715071
C 2.5549743943 2.6702023383 -1.1533598576
C 1.7867153307 2.0701665150 -0.0056477877
C 0.6412211958 1.3157045419 -0.2574631648
C -0.0512444903 0.6711119586 0.7628577807
C 0.4220779379 0.7901089468 2.0678031883
C 1.5325977790 1.5549513195 2.3697544363
C 2.2039754143 2.1788748134 1.3258985026
Cl 3.6289495859 3.1198253750 1.7268671821
F -0.1936867405 0.1243348753 3.0597006642
N -1.1863887078 -0.1100908329 0.4814507847
C -2.4295375598 0.0264023414 1.0634502961
O -2.8009453984 0.7786996111 1.9474460935
N -3.1896423614 -0.9208593309 0.3509501227
C -2.3814728775 -1.5072995418 -0.6162110202
N -1.1749814019 -1.0282588153 -0.5592454470
C -2.8303485076 -2.5435641645 -1.5709313978
C -4.5701889589 -1.1381512902 0.6095935310
F -4.8005124844 -2.4603767024 0.8741438499
F -5.3166384581 -0.8367803861 -0.4986259110
Cl 4.6731855664 2.5207708580 -2.8984512226
H 3.5291111496 -2.5629345760 0.6352169662
H 2.0365577997 -3.3690215078 0.1131098511
H 1.9495807519 -1.7826190292 0.9029262420
H 1.6267465502 -1.5547722077 -1.5675141324
H 3.2024180800 -2.3354187066 -1.8576244667
H 2.9502756587 3.6546367242 -0.8915242564
H 1.8988089356 2.7792708538 -2.0209854132
H 0.2796755599 1.2158043254 -1.2762289434
H 1.8737602940 1.6308028926 3.3953388469
H -3.1655557220 -3.4402086733 -1.0411504618
H -1.9944426092 -2.8024229647 -2.2218008380
H -3.6623527200 -2.1777918181 -2.1799518483
H -4.8955172672 -0.5239393276 1.4542966106
H 4.4330098231 1.6455658412 -0.7062754648
