32
CONF5
C -3.6875634251 -0.6227992924 0.3784807185
C -3.6900585334 0.7101280960 0.0895281073
C -2.4921497768 1.4136598236 -0.1914430054
C -1.2633977055 0.7039566749 -0.1322246765
C -1.2604359649 -0.6995523743 0.1755498556
C -2.4867954880 -1.3748770645 0.4147628094
N -2.5921049738 -2.7142636627 0.6499142537
C 0.0003352340 -1.4237580486 0.2792109683
O 0.0026895086 -2.6619857923 0.5459366489
C 1.2588788973 -0.7144981489 0.0829498897
C 2.4913454189 -1.4070304926 0.2172412523
C 3.6933466252 -0.6938424388 -0.0176752336
C 3.6882103712 0.6244170070 -0.3675936128
C 2.4807221375 1.3535618597 -0.5069455899
C 1.2536775545 0.6780558179 -0.2711592788
C -0.0067712228 1.4031793246 -0.3715811042
O -0.0098828309 2.6366669480 -0.6594642869
N 2.5760410791 2.6568240693 -0.8959094519
N 2.6001730568 -2.7125000056 0.5989061240
N -2.6026540643 2.7300220971 -0.5319239939
H -4.6248721716 -1.1335937306 0.5816263642
H -4.6293743760 1.2559126675 0.0633500012
H -3.4635593786 -3.0595016925 1.0189984792
H -1.7323092622 -3.2116871562 0.8390333976
H 4.6374080405 -1.2216556876 0.0870447218
H 4.6279017103 1.1399986951 -0.5464090606
H 3.4791537393 3.1000323015 -0.8465089410
H 1.7345121168 3.2137195632 -0.8377175116
H 3.4870626188 -3.1696400104 0.4598666135
H 1.7486219770 -3.2574950885 0.5964073032
H -3.4737109120 3.1953945126 -0.3326586369
H -1.7444400106 3.2631512125 -0.5695933465
