43
CONF23
C -3.4896966015 2.5633569486 1.6456714532
Si -1.9749992241 1.6214600125 1.1067409301
C -0.5888634197 2.6992692663 0.5035581321
O -1.3417014986 0.8006686088 2.4298254737
O -2.4521817891 0.5484773028 -0.0354749587
Si -1.8522570325 -0.5480936961 -1.1150280194
C -2.9213568155 -0.4623114551 -2.6364998480
C -1.8769265728 -2.2339331885 -0.3217184477
O -0.3285107751 -0.0987864539 -1.5286341858
Si 1.2704382868 -0.4896612858 -1.5646719904
C 1.4665440438 -2.3443194703 -1.6812424553
C 2.0205918791 0.4040772661 -3.0129960583
O 2.0095571545 0.0693899524 -0.2051882320
Si 2.1702230698 -0.4133409491 1.3707765922
C 3.4450055566 -1.7677015160 1.4822360511
C 2.6437235725 1.1041502497 2.3475703781
O 0.7535372673 -1.0633210817 1.9169028840
H -4.2690923479 1.8830501202 2.0066522406
H -3.9128912124 3.1259466257 0.8071068179
H -3.2558447660 3.2720474926 2.4463675820
H 0.2962374352 2.1018769777 0.2617755749
H -0.8861781264 3.2316028081 -0.4058285662
H -0.3106541977 3.4412183877 1.2591521162
H -1.9796394173 0.3628782429 3.0020688446
H -2.8781730921 0.5383000607 -3.0789528595
H -2.5877898581 -1.1797788360 -3.3934612703
H -3.9669865102 -0.6822383665 -2.3980708276
H -1.1971481697 -2.2695133954 0.5367726654
H -1.5755813366 -3.0146424346 -1.0279997176
H -2.8869608783 -2.4724232820 0.0290164939
H 0.9479352198 -2.7456191082 -2.5586814882
H 2.5240636881 -2.6182126320 -1.7612316671
H 1.0570779051 -2.8351662995 -0.7919292097
H 1.8800550704 1.4845558327 -2.9038713345
H 3.0953508234 0.2098333843 -3.0860228310
H 1.5520395317 0.0967101676 -3.9534839704
H 4.3922376832 -1.4542062533 1.0315971718
H 3.6366133709 -2.0374245496 2.5258430963
H 3.1049954478 -2.6693431501 0.9627570109
H 1.8407053239 1.8485241866 2.3249982629
H 2.8364548338 0.8512090611 3.3951425126
H 3.5446444285 1.5716071726 1.9367596352
H 0.0454020016 -0.4301725384 2.1316955205
