30
CONF9
N 5.5280739412 -0.4641371679 0.5792783446
C 4.1839908606 -0.2600716722 0.5385051155
N 3.7444899612 0.8263833439 1.2261341562
C 2.4403241493 1.0838260000 1.1677616723
N 1.9468732117 2.1369851005 1.8389554804
C 1.5592322371 0.2437954916 0.4079339760
N 0.2465598294 0.5235935093 0.3179037796
C -0.5213758497 -0.2719853167 -0.4006765395
C 0.0539911971 -1.4508597626 -1.0150058943
N -0.7302377848 -2.3306359329 -1.6881599143
N 1.3546465406 -1.7209576991 -0.9450744914
C 2.1395692395 -0.8687645002 -0.2480937804
N 3.4639861134 -1.1253253734 -0.1873289257
C -1.9578750756 0.0644558490 -0.5003597936
C -2.6357440469 0.0518862774 -1.7274349595
C -3.9781933024 0.4125171083 -1.7944142817
C -4.6642106924 0.7839523190 -0.6405742950
C -3.9964497540 0.8045184500 0.5830022714
C -2.6539878529 0.4513741971 0.6530877293
H 5.8814753849 -1.3495333016 0.2553955923
H 6.0635741008 0.0340606230 1.2709916435
H 2.5709571109 2.7644932758 2.3184438454
H 0.9717538206 2.3701614074 1.7489081821
H -0.3216407287 -3.2224493181 -1.9234415381
H -1.7284620603 -2.3049553091 -1.5557793211
H -2.1044776074 -0.2096337181 -2.6373294636
H -4.4864843401 0.4110858938 -2.7536100265
H -5.7127198982 1.0592960517 -0.6944297400
H -4.5251758488 1.0928369563 1.4863164021
H -2.1324624540 0.4640873131 1.6047532681
