47
CONF82
C -7.0368561453 -2.6217515046 0.7625354698
O -5.7693886923 -2.8102089519 1.4639554719
P -4.4001726341 -2.3222111975 0.8054727443
S -2.8672172980 -2.7055061939 1.9227919481
O -4.3804063582 -2.8894769255 -0.6979930881
C -4.0642341510 -4.2926496348 -0.9244787316
O -4.7342040807 -0.7648296233 0.4970465994
C -3.7725329352 0.1985670880 0.2046238218
C -2.7419685897 -0.0395027971 -0.7008662294
C -1.8450504783 0.9821954967 -0.9830741960
C -1.9685820390 2.2225511961 -0.3516855642
C -3.0082524688 2.4440406168 0.5522792405
C -3.9194391599 1.4295654247 0.8281438712
S -0.8595986538 3.5700005803 -0.7432895886
C 0.7507337469 2.8342353860 -0.4845874169
C 0.9890281440 1.9058052086 0.5319244839
C 2.2679225274 1.3990056878 0.7262207737
C 3.3037438500 1.8389621691 -0.0901398601
C 3.0867683570 2.7699166655 -1.0953798967
C 1.8027603821 3.2646114831 -1.2970814818
O 4.6102535250 1.3906652920 0.1107813155
P 5.0289424502 -0.1739540530 -0.0961918106
S 4.1476972209 -1.0845971657 -1.5600417096
O 4.7920705832 -0.8947480333 1.3062884856
C 5.3525306984 -0.3328998672 2.5332232079
O 6.6193542912 -0.0186243631 -0.1256744094
C 7.2628018755 0.6056657160 -1.2716826449
H -6.9818875863 -3.0492422847 -0.2416512115
H -7.2783361698 -1.5575755990 0.7141351342
H -7.7793150366 -3.1519425020 1.3578879483
H -4.7935541500 -4.9310961192 -0.4177225679
H -4.1245521768 -4.4357549694 -2.0028789527
H -3.0544335515 -4.5088804759 -0.5665054180
H -2.6494462222 -1.0002166368 -1.1947183474
H -1.0462052859 0.8104528907 -1.6970550308
H -3.1027131205 3.4029819727 1.0506377876
H -4.7294846951 1.5820656200 1.5328653704
H 0.1801817239 1.5749358341 1.1745353829
H 2.4582568965 0.6773680721 1.5139877903
H 3.9121904194 3.0877046155 -1.7232750312
H 1.6206197278 3.9775939678 -2.0948410195
H 5.0460151308 0.7105125643 2.6445838676
H 4.9391428958 -0.9343323739 3.3420032855
H 6.4411114813 -0.4144689961 2.5146873564
H 8.3312648267 0.5753858241 -1.0610314966
H 7.0383667184 0.0388314128 -2.1790606062
H 6.9260731058 1.6408496792 -1.3726590453
