27
CONF176
C -3.2978299533 -0.0179690637 -1.2486131174
C -4.7604967896 0.4164089639 -1.1431779789
O -5.5470270876 -0.4102020491 -0.2855759142
C -2.5669750955 -0.0120957650 0.0769334552
C -1.0155244906 -0.0583322046 -0.0962609791
C -0.1969387740 -0.3619090927 1.1986142016
C 1.3478838549 -0.0435342598 1.1629657584
C 2.1874621316 -0.7070229909 0.0267490083
C 3.7366813027 -0.6376855817 0.2419966821
F 4.1178829044 -1.4310292523 1.2484414593
F 4.1228808801 0.6181560310 0.5012105656
F 4.3393045908 -1.0529652716 -0.8809407455
F 1.9124404433 -0.0790237255 -1.1386360851
F 1.8548314069 -2.0133821181 -0.0812148233
F 1.5108030523 1.2952212019 1.0952216126
F 1.8364336726 -0.4756962069 2.3535493945
F -0.6893555159 0.3881502056 2.2158496871
F -0.3422888888 -1.6668853742 1.5181871020
F -0.7168150094 -1.0279887824 -1.0018116337
F -0.6134256708 1.1375668955 -0.5983671634
F -2.9200592857 -1.0860560731 0.8536207554
F -2.8631822424 1.1154627291 0.7962017436
H -3.2206938977 -1.0233448374 -1.6738198545
H -2.7837846822 0.6708656000 -1.9288752547
H -4.8257691121 1.4276870695 -0.7340747797
H -5.1719376004 0.4367770510 -2.1612617315
H -5.5662363285 -1.2992677907 -0.6625690125
