33
CONF3
N 2.5818676186 2.5230697861 -0.5023321017
C 2.5399037108 1.2133071763 -0.1001844665
N 1.3769391099 0.6017052837 -0.0325819779
C 1.4567872803 -0.6643479909 0.4429307070
C 2.5905815835 -1.3714725489 0.8360086053
N 2.2591552638 -2.6456961711 1.2431767081
C 0.9639914609 -2.7095943405 1.0948428228
N 0.4052167521 -1.5315879523 0.6148257351
C -0.9933461601 -1.2870821638 0.3381226364
O -1.1365170582 -0.9094025047 -1.0166319269
C -2.2394733043 0.0270889302 -1.1638350248
C -1.7120851578 1.2552175304 -1.8896538821
O -0.8162652680 2.0087433340 -1.0903845498
C -2.7688359121 0.3151094510 0.2445504346
O -3.9365236198 -0.4900543513 0.4676828833
C -1.6252209775 -0.1505140535 1.1672460682
O -2.0350575130 -0.5553821015 2.4529730056
C 3.8707376094 -0.7311511416 0.7676182169
O 4.9827214349 -1.1258865926 1.0536727694
N 3.7105812335 0.6145043675 0.2642206718
H 1.7256237580 2.8559332586 -0.9240346990
H 3.4248912313 2.8553299336 -0.9423426457
H 0.3407662209 -3.5671826272 1.3147297765
H -1.5213889182 -2.2327009095 0.5522359547
H -3.0275008772 -0.4535389852 -1.7587743687
H -1.2423132842 0.9247734553 -2.8295348462
H -2.5554644423 1.9088959178 -2.1444542726
H -0.0951774573 1.4075222759 -0.7932970039
H -2.9913280926 1.3789837454 0.3785691727
H -4.4496022251 -0.0746826614 1.1698153403
H -0.9013183473 0.6581089500 1.2983886122
H -2.7567603944 -1.1876729694 2.3278717326
H 4.5744148418 1.1396564792 0.2399869166
