71
CONF61
C 6.5852931298 0.3399789015 0.4163371662
C 6.4400717223 -1.1486975059 0.5620881404
C 5.2175055093 -1.7113580074 0.9653987074
C 5.0495960728 -3.0986306567 1.1005517045
C 6.1530538284 -3.9188127873 0.8481681988
C 7.3739765300 -3.3810177048 0.4575840919
C 7.5123159811 -2.0045798681 0.3080764276
C 3.7259752064 -3.6983301836 1.4771799768
N 4.1267616834 -0.8345060771 1.2095506786
C 3.5313340938 -0.6485737227 2.4131103598
O 3.8294058235 -1.2526007249 3.4431806076
C 2.4621133839 0.4416093724 2.4265967689
N 1.9937661499 0.8280276001 1.1021582211
C 0.9889072796 -0.1155699062 0.5946890727
C 0.5723070000 0.2671982461 -0.8146562336
N 0.0107981661 1.6208772553 -0.8297337346
C 1.0204983696 2.5593913922 -0.3334120703
C 1.4450010181 2.1892265333 1.0795126893
C -0.4579105697 2.0003700828 -2.1694015136
C -1.7869461753 1.3375105435 -2.5303250077
C -2.9456019954 1.8457539794 -1.6691112264
C -4.1752881898 0.9232492362 -1.6955478717
C -3.9183911719 -0.4596283654 -1.1159453598
C -4.6953505824 -1.5352069062 -1.5589127807
C -4.5366872872 -2.8133161905 -1.0324320557
C -3.5788550275 -2.9992844604 -0.0498733417
C -2.7833944122 -1.9689520655 0.4173522741
C -2.9627290129 -0.6975089046 -0.1244274561
F -3.4108314405 -4.2443509435 0.4714521710
C -5.3510054202 1.5897169547 -0.9997010800
C -6.4154021808 2.1034998070 -1.7432104135
C -7.4830998020 2.7530129460 -1.1255740179
C -7.4606058164 2.8787303010 0.2514360191
C -6.4262242950 2.3850243972 1.0295364480
C -5.3732852038 1.7380374652 0.3907158962
F -8.4965206247 3.5087336575 0.8686263165
H 5.9686176932 0.7246797235 -0.4049769963
H 6.2640888851 0.8585912308 1.3260600110
H 7.6241168750 0.6057557548 0.2097317002
H 6.0408379837 -4.9947914109 0.9477479267
H 8.2176901953 -4.0357592880 0.2620808811
H 8.4645584601 -1.5821839089 0.0001043617
H 3.7126779345 -4.7667578197 1.2503402565
H 2.9060479441 -3.2136178204 0.9371251921
H 3.5255386113 -3.5662585798 2.5454789314
H 3.8390522564 -0.1730163451 0.4930847957
H 1.6524652059 0.0978345200 3.0937662857
H 2.9269117190 1.3087795071 2.9141973836
H 1.4164749215 -1.1251141971 0.5868487849
H 0.0971401708 -0.1315662982 1.2514111583
H -0.1785621365 -0.4491733742 -1.1627645155
H 1.4499225111 0.1910553262 -1.4889171856
H 1.9155897081 2.5772375779 -0.9882459192
H 0.5929910840 3.5687112344 -0.3244513776
H 0.5739663559 2.2811315051 1.7563498912
H 2.2172033191 2.8871270163 1.4223358197
H 0.3039643895 1.7641125386 -2.9373433229
H -0.5928144655 3.0900867169 -2.1787661696
H -2.0016863328 1.5346462548 -3.5877251290
H -1.6982205757 0.2490054981 -2.4377405494
H -2.6096094518 1.9804642538 -0.6349112898
H -3.2549787281 2.8374695464 -2.0210301573
H -4.4640480976 0.7818916410 -2.7452307930
H -5.4429971224 -1.3700174260 -2.3302649270
H -5.1365482598 -3.6493122389 -1.3757780179
H -2.0390969773 -2.1577572638 1.1839140992
H -2.3309147510 0.1093685536 0.2325523039
H -6.4146300475 1.9966473211 -2.8243615722
H -8.3145000915 3.1511395614 -1.6972929058
H -6.4513000678 2.5030270783 2.1075595383
H -4.5605010913 1.3375401270 0.9895322112
