22
CONF29
C 2.6275520021 -0.0364194061 0.4370705000
C 1.2820802194 0.6112346071 0.1507286571
C 0.1504526523 -0.4211760041 0.0169683913
C -1.2285899780 0.2373058788 0.0420576386
C -2.3574293432 -0.7747938345 -0.0793350640
O -3.6313572955 -0.1126511547 -0.1207252329
O -1.3018170984 1.1876349662 -1.0363338278
O 0.3396627120 -1.2332586289 -1.1439293446
O 1.4585984572 1.3405785702 -1.0711069697
O 2.5434208580 -0.6642938735 1.7205264578
H 3.3993153097 0.7457866703 0.4268528331
H 2.8573824499 -0.7675203947 -0.3506548238
H 1.0328285809 1.2912242704 0.9809174867
H 0.2019679033 -1.0922606417 0.8827037598
H -1.3266297710 0.7651103174 1.0064274282
H -2.2661499728 -1.3194429393 -1.0228166098
H -2.3062786827 -1.4907049283 0.7528079161
H -3.8027678336 0.2529627984 0.7572398772
H -2.2208591397 1.4864830089 -1.0868092285
H 0.5706959226 -0.6294563951 -1.8653385611
H 0.6014561315 1.7473363826 -1.2752095194
H 3.3764667203 -1.1236790842 1.8779582303
