45
CONF97
C -3.3544617567 -0.1331792218 -4.8186839953
O -3.8012905777 0.7575617730 -3.7860506574
N -3.1303430762 0.4651170780 -2.6267259927
C -3.4523687027 1.1880569774 -1.5971196542
C -4.4185982572 2.2536021676 -1.4926824510
C -4.7605104328 3.0975889315 -0.4580747660
C -5.7739567851 3.9567491522 -0.9487279038
C -5.9933616262 3.5903593351 -2.2428663147
O -5.1846391599 2.5644148935 -2.5955103918
C -2.6759736068 0.8175181207 -0.3481644983
O -2.9354788783 1.2760133321 0.7545718811
N -1.6566423591 -0.0710988542 -0.5488017763
C -0.9185787868 -0.6000843457 0.5514176074
C 0.5442308934 -0.1071608044 0.7886417432
N 1.0019106194 -1.4704268791 0.5164846375
C -0.2864920561 -1.9963413728 0.3409594979
O -0.6938772739 -3.1042143293 0.1286485132
C 2.2084871989 -2.0375434225 0.9279887987
C 3.0400451518 -1.3810389143 1.7697004608
C 2.7223060375 -0.0261401260 2.3473860750
S 0.9384063136 0.3822519584 2.5037217951
C 4.3717666605 -1.9243411182 2.1955766841
O 5.3951692139 -0.9086950717 2.0035053935
C 5.8419715652 -0.2728573789 3.1265921090
O 5.4239822254 -0.4605735846 4.2504919301
N 6.7989667129 0.6379685516 2.7879064717
C 2.5267271790 -3.3725701594 0.3483978650
O 3.1371167294 -4.2502948421 0.9156599454
O 2.0721259681 -3.4779840261 -0.9203741239
H -3.9207214441 0.1525812072 -5.7065852762
H -2.2814415793 -0.0073040066 -4.9984936038
H -3.5707863482 -1.1724509995 -4.5503097066
H -4.3295631948 3.0781584077 0.5277751932
H -6.2778675826 4.7439732490 -0.4095259799
H -6.6607988329 3.9438958948 -3.0130901462
H -1.5410463914 -0.4516822437 -1.4774837102
H -1.5203193793 -0.5492195572 1.4654318638
H 0.9160047851 0.6253329060 0.0645604176
H 3.1306713657 0.0258811749 3.3627923761
H 3.2258565622 0.7572439207 1.7664277729
H 4.3441439604 -2.1974171900 3.2566544859
H 4.6845326124 -2.7855269813 1.6098205789
H 7.3293484210 1.0267905005 3.5479966195
H 7.2359713249 0.5746978789 1.8840752206
H 2.2493758832 -4.3886435887 -1.2039151689
