53
CONF27
C -5.3416368229 0.1337202924 -1.5507687034
O -4.0223175862 0.0217496348 -0.9443049075
C -3.5514107247 -1.2167215009 -0.8049997302
O -4.1131026656 -2.2252466106 -1.1665165126
C -2.1998854300 -1.2172282499 -0.0540531597
C -2.4766922965 -0.8788263724 1.4339983902
C -2.2219655270 0.6085674429 1.4954674793
C -2.5592888536 1.4914593494 2.5077584666
C -2.1444912597 2.8139528182 2.3660681435
C -1.4146668021 3.2663614817 1.2670482439
C -1.0809554354 2.3699865321 0.2579896174
C -1.4958622910 1.0470964695 0.3773450745
C -1.2579342403 -0.1042178991 -0.4755476431
N -0.2320342634 -0.2522784749 -1.2348041966
N -0.0436538036 -1.4992078518 -1.7672091458
C -1.0478455974 -2.5509017739 -1.5589815054
O -1.5552282693 -2.4669412662 -0.2289761156
C 1.1915174971 -1.8301332478 -2.2862890228
O 1.3592115124 -2.8367431561 -2.9530432944
N 2.2427547781 -0.9341911306 -1.9391496281
C 2.3830777465 -0.5449722958 -0.5651965707
C 2.5788912675 0.7923464486 -0.2241315979
C 2.6224535782 1.1622562025 1.1122228223
C 2.4409164711 0.1844816175 2.0810341511
C 2.2667486250 -1.1513439850 1.7627662018
C 2.2513897829 -1.5186473998 0.4212171823
O 2.5020612801 0.5498672477 3.4464063213
C 1.3345531221 0.9397029405 4.0045706374
F 1.5600580039 1.1780738151 5.3017517969
F 0.3643050562 0.0015565230 3.9060641065
F 0.8362762287 2.0687386721 3.4487870031
C 3.2244863989 -0.6768020123 -2.9021892867
O 3.0558850049 -0.8140334108 -4.0955046886
O 4.3526178762 -0.2454032743 -2.3232020680
C 5.3977948411 0.1574178217 -3.2456711015
Cl -2.5445620681 3.9602792477 3.6371238327
H -5.5543337689 1.2009589130 -1.5719401517
H -6.0743097041 -0.3980248812 -0.9403378411
H -5.3189669991 -0.2797689403 -2.5608990777
H -1.7424323329 -1.4185152870 2.0443552632
H -3.4779285575 -1.1671701645 1.7637517608
H -3.1126903250 1.1694884543 3.3829290619
H -1.1163204911 4.3063951263 1.2034363582
H -0.5183230764 2.7028632328 -0.6078710426
H -0.5653315660 -3.5210672002 -1.6713587173
H -1.8581501953 -2.4387297547 -2.2905836087
H 2.6716410648 1.5427228007 -1.0010462205
H 2.7698335312 2.1970488404 1.4000602937
H 2.1518046518 -1.8904460472 2.5475109642
H 2.1196341894 -2.5607075031 0.1470925350
H 5.0381521748 0.9627003528 -3.8898509311
H 6.2130994957 0.5045271002 -2.6129457005
H 5.7131558964 -0.6960500845 -3.8493844218
