47
CONF144
C 1.2281763144 -0.9238920818 4.9912426448
C 2.6304059369 -0.8835152569 4.3676648469
C 3.6123277748 -0.1326360906 5.2761482056
C 2.5853596654 -0.2898948205 2.9752299124
C 2.8950136380 -1.0681368854 1.8580409105
C 2.8315115871 -0.5467557702 0.5672444279
C 2.4425623594 0.7737067670 0.4066592092
C 2.1407737514 1.5841463161 1.4917324478
C 2.2172233610 1.0456332831 2.7712109416
O 2.3516938204 1.3401253550 -0.8820960862
P 1.1670648416 0.8184258141 -1.8330066187
O 1.2914861397 -0.5408896320 -2.4005806937
O 1.1885274676 2.0516035323 -2.8568140277
C 0.3140109597 2.0041456991 -3.9623335885
C -0.9138304856 2.6425518946 -3.8611061847
C -1.7595497917 2.6350275284 -4.9679900437
C -1.3721766501 1.9974404469 -6.1446145756
C -0.1325986603 1.3651619022 -6.2200629835
C 0.7246881216 1.3639123142 -5.1224926720
O -0.1728172228 1.0637100819 -0.9701684403
C -1.0160957294 0.0044357980 -0.5923652669
C -0.9558046221 -0.4512930403 0.7167742475
C -1.8330943539 -1.4589229866 1.1114807076
C -2.7453034390 -1.9935892398 0.2041788206
C -2.7852949867 -1.5178834075 -1.1051510143
C -1.9167391675 -0.5088852918 -1.5140059975
H 0.8330963084 0.0893655113 5.1235943161
H 1.2612679536 -1.4053576563 5.9741545239
H 0.5316732093 -1.4806506988 4.3560386645
H 3.2854751279 0.8999963732 5.4393026537
H 3.6738437643 -0.6229420265 6.2531789639
H 4.6149049054 -0.1081814160 4.8379010052
H 3.1903326904 -2.1047432831 1.9942587636
H 3.0700220320 -1.1556908866 -0.2977338660
H 1.8383351569 2.6130904264 1.3281377418
H 1.9732711647 1.6774102939 3.6200124329
H -1.1938292425 3.1334640299 -2.9354368178
H -2.7229637279 3.1307265363 -4.9066777349
H -2.0351700158 1.9948364504 -7.0035184816
H 0.1728930824 0.8696252599 -7.1358964308
H 1.6935342076 0.8780453059 -5.1586868240
H -1.7991121173 -1.8253504226 2.1325085536
H -3.4250829400 -2.7793077239 0.5168898914
H -3.4945146180 -1.9312529571 -1.8149792346
H -1.9301282670 -0.1240237774 -2.5288114092
H 2.9854718810 -1.9165379657 4.2661494777
H -0.2364943604 -0.0228762634 1.4074879453
