56
CONF8
C 3.2163958845 -2.4954901256 -2.2345182524
C 2.3936328495 -2.1479450439 -0.9999644515
C 0.8783861674 -1.9857676311 -1.2729897040
C 0.4677697393 -0.9561675781 -0.2297166709
C -0.9728652019 -0.4524431481 -0.1579243894
C -1.6754236854 0.0814431005 -1.4110976113
C -3.1784664366 0.0384920593 -1.1277119209
C -3.4929851310 0.1867059513 0.3457041950
C -4.5286631791 -0.4800954547 0.8775341474
C -4.8626286935 -0.4267268772 2.3095160822
O -5.8311744873 -1.0244607651 2.7692539573
C -3.9550660780 0.3629944979 3.1527013041
C -2.9252208351 1.0343578931 2.6249117367
C -2.5943621921 1.0797440979 1.1634630385
C -1.0949134539 0.5706278112 0.9954209075
C -0.0064479065 1.6602386933 0.9875922653
C 1.4062480990 1.0486954538 0.9001674291
C 1.5775196404 0.1084896778 -0.3029005831
C 2.8573371411 -0.8217072425 -0.3014985392
C 3.3725685425 -1.0503661108 1.0925966033
O 2.8690761255 -1.8328426346 1.8835138472
C 4.5720744528 -0.2352716157 1.5266529140
O 4.8745455983 -0.4071150791 2.8834523963
C 1.6287119367 0.8769804220 -1.6342309572
O -0.2292568313 2.5877594746 -0.0839351005
C -2.8813416672 2.5446638602 0.7185221669
F -3.8236390920 1.0662585841 -1.8547788431
H 4.2731475633 -2.6361921975 -1.9840920367
H 3.1516636597 -1.7059937226 -2.9915850006
H 2.8550957884 -3.4238384482 -2.6889314874
H 2.5070305455 -2.9510058637 -0.2638166035
H 0.6981599100 -1.6241590355 -2.2921899374
H 0.3448136952 -2.9354556773 -1.1636378056
H 0.6296692179 -1.4484067571 0.7431411900
H -1.5547430911 -1.3331324329 0.1574139480
H -1.4467281676 -0.5141519203 -2.2997856904
H -1.3920097319 1.1156557591 -1.6141360011
H -3.6204883217 -0.9008622264 -1.4819154606
H -5.1689665544 -1.1091642026 0.2637606786
H -4.1673650108 0.3742515679 4.2172913672
H -2.2722550577 1.6269020454 3.2661630840
H -0.8788772803 0.0025821148 1.9112255650
H -0.0762586853 2.2007185924 1.9482464414
H 1.5809235153 0.4953447495 1.8319090720
H 2.1387863744 1.8687074854 0.8778283742
H 3.6513898872 -0.3287420145 -0.8765307776
H 5.4169674826 -0.5393859521 0.8802384400
H 4.3794977774 0.8262103943 1.2988106412
H 4.2825477145 -1.1154069666 3.1899021419
H 0.6911002164 1.3792143501 -1.8614547371
H 2.4168375229 1.6378603956 -1.5860892720
H 1.8759832372 0.2101368969 -2.4636959086
H 0.5149467933 3.2002766520 -0.0997029987
H -2.2774944528 3.2477945797 1.2961600346
H -2.6758976002 2.6994193944 -0.3381679665
H -3.9392909469 2.7497703755 0.9058035391
