45
CONF2
C -1.5349407186 1.8284275981 0.3517612093
C -3.0014073080 1.5929296870 0.1301352922
C -3.5687066057 0.3791206329 0.2051442993
C -2.8391706051 -0.8633771985 0.5571642685
C -1.9625190199 -1.5543502003 -0.5126581621
C -3.2185181908 -2.2180287864 0.0626825450
C -3.0875457641 -3.4024700419 0.9922892689
C -4.3624692362 -2.3392133940 -0.9212536960
C -0.5944725467 -1.8891193401 -0.1198155384
O -0.1969146641 -2.2224595489 0.9797468093
O 0.2544957720 -1.7049103730 -1.1840613438
C 1.6603193322 -1.7023787431 -0.8824186895
N 2.0190337024 -0.5070104570 -0.1584641799
C 2.4838967883 -0.4551192611 1.1430680485
O 2.7644965055 -1.3972049916 1.8544757308
C 2.5998672480 1.0186455900 1.4863643235
N 2.0944624466 1.6757649677 0.2930110659
C 1.8544269028 0.7888799746 -0.7114354326
O 1.5452776088 1.0194353702 -1.8678570686
C 2.2578769282 3.1006301640 0.0437995927
C 3.6436678396 3.4596577599 -0.2504884208
C 4.7958452102 3.7291190967 -0.4786580522
C -3.8023795716 2.8157558239 -0.2096075331
H -1.0042364521 0.9312318263 0.6779521380
H -1.3807963737 2.6149366361 1.1007483772
H -1.0654968315 2.1853442470 -0.5746810448
H -4.6368240926 0.2890711094 0.0113144755
H -2.3479872313 -0.8710592964 1.5300243018
H -2.0621243668 -1.1675349539 -1.5207186003
H -4.0247835364 -3.5294872027 1.5454998351
H -2.9064674420 -4.3198651659 0.4212755990
H -2.2757438761 -3.2733291366 1.7092424105
H -4.2561359459 -3.2570569320 -1.5087441385
H -4.4011108224 -1.4914032600 -1.6097320542
H -5.3155558191 -2.3890859780 -0.3824635235
H 1.9453277263 -2.5628409038 -0.2729439319
H 2.1516846839 -1.7196106420 -1.8559927386
H 2.0038281420 1.2512291398 2.3768087323
H 3.6507713227 1.2694103716 1.6854824047
H 1.6109209213 3.3722652522 -0.7968425695
H 1.9048536874 3.6524107176 0.9225523332
H 5.8134182021 3.9718428595 -0.6868212170
H -4.8535021140 2.5758017071 -0.3892646616
H -3.3955705502 3.3045683137 -1.1039933710
H -3.7446059665 3.5526910345 0.6013520290
