51
CONF106
C 4.4419440721 1.4103793078 4.5675553408
C 3.9079533660 0.9045830664 3.2555787575
C 4.4887453024 -0.1854097164 2.6051528859
C 3.9743904862 -0.6600912316 1.3994659084
C 2.8684025206 -0.0538229940 0.8091148232
C 2.2847746650 1.0404175648 1.4534232040
C 2.7959896831 1.5101469133 2.6569496242
C 2.3378527492 -0.5482086869 -0.5250947068
C 2.7157135544 0.3978356880 -1.6645138926
N 0.8837477496 -0.7100443964 -0.5031691644
C 0.2814631670 -1.7597857272 0.0850983508
O 0.8967015287 -2.6962793173 0.6030605114
C -1.2557648515 -1.7605630992 0.1018242412
C -1.7548376135 -1.7495852448 1.5644698192
C -1.3175596468 -0.4945298299 2.3243120056
C -3.2686347496 -1.9512526111 1.6310021569
N -1.8588018038 -0.6905402608 -0.6726907748
C -2.0971681036 -0.8147928353 -2.0058223640
O -1.7619758531 -1.7757259597 -2.6846470353
O -2.7362546070 0.2850323716 -2.4741025981
C -3.0954019028 0.2817704266 -3.8966840762
C -3.1988835260 1.7401699000 -4.2943119655
C -4.3942698475 -0.4806660974 -4.0835297424
H 5.3862741543 0.9240890079 4.8239699967
H 4.6072518616 2.4921757208 4.5343112439
H 3.7305994059 1.2175957736 5.3787615999
H 5.3503412354 -0.6761404947 3.0502541571
H 4.4375126385 -1.5165207174 0.9154351682
H 2.3257445387 2.3609522069 3.1440650511
H 2.7700774095 -1.5368084311 -0.7151402830
H 3.8020256944 0.5094058638 -1.7057085210
H 2.3635961149 0.0067466655 -2.6240584456
H 2.2774980787 1.3888307395 -1.5023965376
H 1.4182179486 1.5275138442 1.0133586849
H -1.5499841592 -2.7152705365 -0.3508940207
H -1.2687255185 -2.6136943284 2.0305190315
H -1.6245908210 -0.5697513485 3.3718715725
H -0.2302360133 -0.3657962278 2.2998029535
H -1.7778605545 0.4142372950 1.9182810340
H -3.5867622715 -2.0552655591 2.6729548645
H -3.8054213991 -1.0979126588 1.2026833880
H -3.5718556638 -2.8523665540 1.0878892157
H -2.2202309834 0.1260419738 -0.2035004185
H -2.2823043554 -0.2090796928 -4.4401982118
H -2.2502492497 2.2585384218 -4.1302714435
H -3.4536449568 1.8098038983 -5.3556949644
H -3.9824588268 2.2415850220 -3.7173527457
H -4.2926349145 -1.5161450980 -3.7486200209
H -4.6668955944 -0.4859736417 -5.1433256711
H -5.2005323317 0.0009101682 -3.5206742414
H 0.3051158495 0.0333870485 -0.8680862480
