23
CONF3
C 2.4495642128 -1.5444415854 -1.4121703349
C 1.4613965165 -1.5493529362 -0.2668944778
C 0.1648017275 -0.7615957125 -0.6513315674
C -0.8084515012 -0.4617731227 0.5407558915
C -2.2602743490 -0.0963023231 0.0752089619
C -3.1168328368 0.6209449667 1.1664086693
C -4.6364432265 0.5456333964 0.8779484270
F -4.8898991571 1.1041133049 -0.3343099223
F -5.2739780032 1.2683105391 1.8328600198
F -2.9068129818 0.0076901040 2.3627183194
F -2.7373174804 1.9117612384 1.2594018104
F -2.1890573190 0.7013093056 -1.0129547271
F -2.9079683561 -1.2441070026 -0.2631403619
F -0.3112040207 0.5800884872 1.2455061117
F -0.8757631676 -1.5459597096 1.3427858286
F 0.5367504061 0.4236668525 -1.1999530310
F -0.4944586763 -1.4834002820 -1.5942856217
F 1.9892029880 -0.9600207083 0.8423515884
F 1.0994141789 -2.8183676735 0.0571760104
I 4.2170589095 -2.6939158035 -0.9432670682
H 2.7809592086 -0.5302579634 -1.6242619977
H 2.0010493209 -1.9966983216 -2.2959840839
H -5.0045674609 -0.4861906721 0.8954482934
