40
CONF7
C 1.1266079586 -1.7502251566 -0.9130285800
O 2.4312156820 -1.0640098907 -0.7670403628
C 2.1798016169 0.1203008761 -0.1147613789
C 3.1324536440 0.9334181089 0.4842345463
O 4.4801826041 0.6982219877 0.4160135905
C 2.6547419962 2.0152181050 1.2343409409
C 1.2873065373 2.2276884409 1.4182732591
C 0.3381755376 1.3953039543 0.8060617037
C 0.8348932852 0.4001809411 -0.0126465747
C 0.0427700685 -0.6645613591 -0.7153934903
C -0.5315345927 -0.1777287120 -2.0559374788
C -1.5176316001 0.9668235123 -1.8594771082
N -2.5391215389 0.6105357594 -0.8697238193
C -3.5580289357 1.6519670570 -0.7725088019
C -1.9483663288 0.2597848383 0.4373222388
C -1.1371836104 1.4013136209 1.1213039507
C -1.1162630144 -1.0270349059 0.2360119476
C -0.5668079690 -1.6188828525 1.5019850518
C 0.4672161222 -2.4604929531 1.4461451177
C 1.0373471426 -2.8963687873 0.1199874140
O 2.2882674933 -3.5697440419 0.2450673163
H 1.1330813921 -2.1656458809 -1.9234801473
H 4.6362485678 -0.0838154854 -0.1306230687
H 3.3801788696 2.6604913566 1.7209524728
H 0.9627214002 3.0326843879 2.0719952480
H 0.2849550558 0.1472137782 -2.7113310740
H -1.0366704911 -1.0237527648 -2.5392109580
H -0.9720048057 1.8875150933 -1.5728047872
H -2.0220376921 1.1836755283 -2.8086064643
H -3.1553283697 2.6493793583 -0.5169849558
H -4.0718919279 1.7430281922 -1.7359247799
H -4.2970560313 1.3763425135 -0.0125919661
H -2.7899024349 0.0157206177 1.0982148073
H -1.2475561186 1.3032696368 2.2087681558
H -1.5913630859 2.3667614390 0.8685502896
H -1.7744556280 -1.7568280474 -0.2594446833
H -1.0187744359 -1.3464999963 2.4538120943
H 0.8866898036 -2.9212512859 2.3369557220
H 0.3496546041 -3.6364578274 -0.3159174003
H 2.9574691237 -2.8835389553 0.3814417005
