38
CONF1
C -5.5595136543 -2.6025793430 0.8719268661
C -5.3560858010 -1.2948370261 0.1558662823
C -4.0704883452 -0.8786477367 -0.1960933971
C -3.8790172872 0.3431324996 -0.8513920156
C -4.9809291689 1.1514207669 -1.1541066027
C -6.2575976935 0.7326211287 -0.8019249586
C -6.4513034392 -0.4820080376 -0.1521973073
N -2.6153436227 0.8308586824 -1.2323448431
C -1.4089040074 0.2141454156 -1.1250701269
O -1.1669761245 -0.8775885376 -0.6538670153
O -0.4496262985 1.0493706607 -1.6656750154
C 0.8766469393 0.6143002797 -1.5940735599
C 1.5090264698 0.2432237643 -2.7712843040
C 2.8513269589 -0.1171619485 -2.6999933719
C 3.5456098682 -0.1145663674 -1.4943870481
C 2.8825926030 0.2639619070 -0.3191157144
C 1.5327079577 0.6356526429 -0.3760937878
N 3.4883861468 0.2990949515 0.9437412502
C 4.7920335263 0.0315712153 1.2637303066
O 5.6801116072 -0.2954476030 0.4970223097
O 4.9566258083 0.1874325458 2.6013256867
C 6.2969950286 -0.0657616250 3.0800205502
H -5.9276280929 -2.4325979356 1.8899217433
H -4.6285005417 -3.1702832532 0.9374350400
H -6.3058559211 -3.2167934378 0.3578931985
H -3.2206257687 -1.5042544790 0.0386847726
H -4.8336312967 2.0991814716 -1.6638442543
H -7.1083233743 1.3632238068 -1.0412741574
H -7.4534764534 -0.8024410518 0.1177602812
H -2.6032422748 1.7413305280 -1.6707395731
H 0.9624740704 0.2403612678 -3.7074509130
H 3.3735362446 -0.4110442990 -3.6048407231
H 4.5862600579 -0.4008735990 -1.4630517966
H 0.9988004985 0.9365154566 0.5200279015
H 2.8969243065 0.5677106904 1.7175389926
H 6.2520213223 0.1037576625 4.1552003497
H 7.0046036784 0.6239492523 2.6135418486
H 6.5887530520 -1.0971597192 2.8675126938
