12
CONF41
C -1.2592434258 -1.2199968287 -0.0826179410
O -1.6663115912 -0.3753742255 -1.1269743248
O -0.5170566036 -0.5676513746 0.9312542086
O 0.8727566597 -0.4354980389 0.4279787620
C 1.2513382888 0.9230935677 0.5430802532
O 0.6835078615 1.7676825638 -0.4225279836
H -2.1628060937 -1.5476238207 0.4433710249
H -0.6879536786 -2.0816006311 -0.4525493946
H -0.9011386366 -0.2030632899 -1.6921852137
H 2.3456252721 0.8629745890 0.4531462292
H 0.9609204527 1.3148839771 1.5228184786
H 1.0803615000 1.5621736125 -1.2800171055
