41
CONF10
C 3.4896665155 1.0847297833 1.1722280897
C 2.9796226089 1.2801638655 -0.2144182556
N 2.0323319428 0.4211161329 -0.6356256277
C 1.5848894391 0.6296411218 -1.8742580841
N 2.0100980118 1.5910417423 -2.7079731055
C 2.9552458814 2.3671207081 -2.1852056449
N 3.4783681184 2.2714558079 -0.9490323222
O 3.4710035206 3.3546434453 -2.9086547719
C 2.9700581083 3.5362730571 -4.2569819790
N 0.5958830880 -0.1828492675 -2.3860040823
C -0.1169850822 -1.2377431116 -1.8071391521
O -1.0360635008 -1.7615330999 -2.4158435850
N 0.3115048751 -1.6212685562 -0.5556865293
S -0.5881765327 -2.6989010286 0.4053553832
O 0.0963704306 -2.6641356385 1.7037910072
O -0.7288997079 -3.9631579615 -0.3182119640
C -2.2209227406 -1.9693974398 0.5893467049
C -3.2621321696 -2.5355431252 -0.1364228272
C -4.5592386608 -2.0704291868 0.0580621231
C -4.8059797709 -1.0673798674 0.9887424894
C -3.7596118603 -0.5178096204 1.7238808294
C -2.4488440166 -0.9509312702 1.5238026575
C -1.3476873448 -0.2414384606 2.2462650345
O -0.4238882790 0.3173701328 1.6910303562
O -1.5530184940 -0.2476385716 3.5663455816
C -0.5657427963 0.4742785942 4.3524029654
H 3.9547869207 0.0965634793 1.2531726753
H 2.6522571250 1.1030494712 1.8769421964
H 4.2150205871 1.8547253019 1.4321812471
H 1.9004478424 3.7562587134 -4.2365492073
H 3.1575430277 2.6410942990 -4.8539510230
H 3.5300406310 4.3842504022 -4.6484613720
H 0.2840606352 0.0484458303 -3.3209297291
H 0.9685390939 -0.9862153009 -0.0708012537
H -3.0573339764 -3.3365873446 -0.8359335311
H -5.3739770587 -2.5038772097 -0.5116230340
H -5.8178180816 -0.7108623926 1.1499049784
H -3.9519188204 0.2655326808 2.4490441787
H 0.4222806310 0.0352143943 4.1974886809
H -0.8843522903 0.3580406367 5.3868108020
H -0.5574283269 1.5273291549 4.0629091743
