39
CONF68
C 5.7867906472 -0.7121924729 0.7870498141
C 7.1324679497 -1.4164854419 1.0021155748
O 7.3784683949 -1.6223275142 2.3897925053
C 5.4472763457 -0.5735379503 -0.6775755037
C 4.1641187887 0.2574766086 -1.0050325845
C 2.8605707860 -0.2144531900 -0.2810380369
C 1.5444879952 0.3556784387 -0.9180969529
C 0.3069040735 0.2684774559 0.0462495616
C -1.0653179074 0.3995741461 -0.7065357539
C -2.2574851894 0.7594340137 0.2502740189
C -3.6625635627 0.4566478950 -0.3811887661
C -4.8346969849 1.2026901986 0.3429350147
C -6.2503529916 0.6134740350 0.0341759038
F -6.4204670667 0.4789695282 -1.2886274071
F -7.1775162324 1.4566471537 0.5075520539
F -6.4154455939 -0.5755183801 0.6219239549
F -4.6496779831 1.1389679786 1.6821846014
F -4.8365294316 2.4951439047 -0.0447610084
F -3.6534493344 0.8388459423 -1.6782068271
F -3.8895563538 -0.8743985688 -0.3148311579
F -2.1919910988 2.0763567636 0.5469316454
F -2.1365181653 0.0396923514 1.3881574740
F -1.3380206844 -0.7771501050 -1.3130645330
F -0.9568534322 1.3695130693 -1.6412478674
F 0.3987262545 1.2641088513 0.9565479397
F 0.3342501967 -0.9223928541 0.6853409841
F 1.7423466229 1.6517745528 -1.2433795046
F 1.2695159464 -0.3496151622 -2.0378729493
F 2.7999486492 -1.5646770005 -0.3081654370
F 2.9248412865 0.1908734385 1.0148049177
F 4.4049062287 1.5433799279 -0.6438510635
F 3.9537237249 0.2125090997 -2.3424598044
F 5.3152664203 -1.7998133097 -1.2651651710
F 6.4612652758 0.0733712187 -1.3399630865
H 5.0004494479 -1.2887775449 1.2824526104
H 5.8025925272 0.2898281590 1.2304138630
H 7.1078998949 -2.4115448310 0.5500010604
H 7.9439961008 -0.8491592044 0.5284975565
H 7.5777708181 -0.7706555832 2.7936038367
