45
CONF4
O 1.2640588106 -2.2413512059 -0.8451705343
C 1.6053821672 -2.2236012114 0.5464771016
C 2.0287257891 -0.8345365519 0.9898729119
O 3.2776412176 -0.4764169798 0.3204358330
C 3.0888351949 0.6876959689 -0.4681358892
O 2.6959158230 0.3562497376 -1.7976645338
C 4.4145484792 1.4247677356 -0.5743566995
O 4.8945555511 1.8501993811 0.6942185535
C 1.9568479976 1.4374103519 0.2548460499
O 1.3458607668 2.4636497287 -0.5127780782
C 1.0457431635 0.2707562555 0.6013266081
O 0.1124096605 0.5561965796 1.6444756434
C -1.2309204419 0.4019297722 1.2635508875
O -1.3819301550 -0.9336747624 0.7954551598
C -2.6959737409 -1.2942650912 0.3562498058
C -2.5762564413 -2.7172935927 -0.1828909419
O -1.5693420957 -2.8618205262 -1.1930656956
C -3.2897405656 -0.3076814995 -0.6510269267
O -2.6396286798 -0.4622330960 -1.9188230771
C -3.1337152876 1.1248497970 -0.1453718918
O -3.6114816755 1.9939014661 -1.1728836700
C -1.6700945791 1.3840571564 0.1708889917
O -1.5245532437 2.7349232183 0.5965755095
H 0.2954348961 -2.3484827044 -0.9105262860
H 0.7576696087 -2.5472431177 1.1617473674
H 2.4394077631 -2.9165969676 0.7104766119
H 2.2057549212 -0.8258113043 2.0729924021
H 2.1754510564 -0.4672088539 -1.7472305872
H 4.2720807297 2.3203722270 -1.1863693749
H 5.1300146261 0.7622051669 -1.0823267101
H 5.0198576235 1.0562184900 1.2313036196
H 2.3478856085 1.9027683603 1.1656686972
H 1.2316323730 2.1103009526 -1.4094984421
H 0.5136798741 -0.0374056800 -0.3036984505
H -1.8158294167 0.5710335570 2.1814159223
H -3.3830717815 -1.3177022906 1.2195043799
H -2.2879312081 -3.3835065326 0.6348113551
H -3.5585062687 -3.0341296137 -0.5608141493
H -1.7961803236 -2.2260593519 -1.8908585078
H -4.3612084827 -0.5392350781 -0.7520659525
H -2.9167303725 0.2807753010 -2.4739085732
H -3.7350389364 1.2483879351 0.7706760712
H -3.2522010265 2.8732298185 -0.9872927650
H -1.0854461385 1.2040873600 -0.7396932905
H -0.6036125595 2.9802897842 0.4126154761
