56
CONF5
O 6.2195253755 0.2428910910 -0.4481308610
C 5.6242595412 -0.2220244637 0.7701780470
C 4.2912934093 0.4713996196 1.0159710195
N 3.4101477712 0.3406881819 -0.1507216483
C 2.8406376571 -1.0083761356 -0.2585351883
C 1.9507154262 -1.1178017982 -1.4870223342
N 0.8660606909 -0.1394439338 -1.4100377914
C -0.0881156633 -0.2638631318 -2.5117932981
C -0.9653501459 -1.5137773028 -2.3940969896
C -1.5127640158 -1.6987989028 -0.9766928251
N -2.1701955828 -0.4788939927 -0.4888345692
C -3.3172778801 -0.0092065334 -1.1499213982
C -4.1647360009 -0.8769004991 -1.8517834766
C -5.2880242745 -0.3913019099 -2.5153388168
C -5.6109607376 0.9611849804 -2.4682115535
C -4.7918270045 1.8334051098 -1.7552273474
C -3.6462382177 1.3560870374 -1.1258382834
S -2.5236020593 2.5072533566 -0.3633182282
C -1.9086077700 1.4760217042 0.9428748649
C -1.4848600388 2.0637990796 2.1303296531
C -0.8776657883 1.2981720829 3.1194971381
C -0.7578677070 -0.0734890543 2.9198511696
C -1.2202480436 -0.6798979378 1.7534072034
C -1.7734658972 0.0913580283 0.7238802315
C -0.0707628699 -0.9209646324 3.9441340424
F -0.6089547486 -2.1629243476 4.0396923215
F 1.2504462339 -1.1036094895 3.6480620398
F -0.1112260150 -0.3766555976 5.1830275750
C 1.4313848758 1.2060682774 -1.3257593949
C 2.3223623889 1.3243138594 -0.0993271322
H 5.4731671487 0.3509499325 -1.0605604848
H 6.3134423238 0.0145189753 1.5872968472
H 5.5026980432 -1.3151307097 0.7429584426
H 3.8256706430 0.0698856907 1.9367208115
H 4.4769563413 1.5405643680 1.1753996668
H 2.2443462129 -1.2554722883 0.6432736536
H 3.6488514775 -1.7427080935 -0.3377818146
H 2.5608390563 -0.9711558877 -2.4015729766
H 1.5326338230 -2.1295997283 -1.5261755450
H -0.7354204554 0.6215206138 -2.4811812952
H 0.4153829195 -0.2608195268 -3.4982900877
H -1.7760509138 -1.4336789581 -3.1262652713
H -0.4072456753 -2.4216050198 -2.6498256920
H -0.6676822113 -1.8909014298 -0.3175000691
H -2.1752289015 -2.5717719426 -0.9193592717
H -3.9447609333 -1.9370433009 -1.8868607466
H -5.9179911810 -1.0845898721 -3.0634519970
H -6.4901416093 1.3394950186 -2.9786696665
H -5.0236939052 2.8931613998 -1.7083617901
H -1.6027771899 3.1339527016 2.2675985137
H -0.5166476649 1.7664262043 4.0272387665
H -1.1423963239 -1.7547103087 1.6457603489
H 0.6111963613 1.9295764517 -1.2414408338
H 2.0188091733 1.4619866591 -2.2311587211
H 2.7567851156 2.3296786328 -0.0581878418
H 1.7051747070 1.1827581591 0.8114408897
