33
CONF4
C -4.6644922492 1.3159756469 1.5346192898
C -3.4382586395 0.6605774093 0.9806628118
C -3.0543384086 -0.6275252983 1.3525091832
C -1.8955708454 -1.1535466538 0.7864769563
C -1.3976701568 -2.5268394571 1.1106265432
N -1.1657448376 -0.4451358110 -0.0870486525
C -1.6249069462 0.7720606275 -0.3806658679
N -0.8715955049 1.5450572902 -1.2551992486
S 0.2493911475 0.9233773347 -2.3940028888
O -0.2934238267 -0.2745914572 -3.0429575409
O 0.5662053529 2.1208981575 -3.1883243161
C 1.6622239048 0.4662235383 -1.4296079939
C 1.9393871112 -0.8788517345 -1.1950505845
C 3.0636834276 -1.2251556742 -0.4679862342
C 3.9229717419 -0.2327078583 0.0398619605
N 5.0108747535 -0.5750649006 0.8091713784
C 3.6219443780 1.1205607332 -0.2091478049
C 2.5014980037 1.4675883738 -0.9404868260
N -2.7214343458 1.3723440064 0.0998008531
H -4.3907706673 2.2417182868 2.0508548844
H -5.1890996762 0.6591068154 2.2306558831
H -5.3410127904 1.5907498673 0.7192183970
H -3.6406809082 -1.2013219927 2.0606911802
H -0.3581162877 -2.4750668780 1.4493115242
H -1.4102568381 -3.1453553098 0.2068081610
H -2.0075811859 -3.0054334975 1.8787841518
H -1.2848466481 2.4230843066 -1.5492510439
H 1.2742719360 -1.6418692160 -1.5811638350
H 3.2865934100 -2.2720686155 -0.2844295158
H 5.3506201308 -1.5202135053 0.7272559636
H 5.7387196241 0.1151513437 0.9055304806
H 4.2796812297 1.8953028148 0.1734636708
H 2.2817342087 2.5109714186 -1.1402591200
