27
CONF203
C -3.5583343455 0.3685641227 -0.9324255733
C -4.9224123522 -0.1475664904 -0.5031518804
O -5.0574026922 -1.5130547207 -0.9112078116
C -2.3973897684 -0.3329207227 -0.2570028167
C -1.0652394262 0.4725565768 -0.3733046104
C 0.2318368895 -0.3258054875 0.0025937172
C 1.4524506127 0.5886506859 0.3477152368
C 2.8714246344 -0.0906316487 0.3438346520
C 3.0752071547 -1.3557947211 1.2333839667
F 2.4150407023 -2.4037292905 0.7248348422
F 2.6486500352 -1.1302774646 2.4824968812
F 4.3810354673 -1.6507974295 1.2679570299
F 3.7335428841 0.8544572819 0.7912176971
F 3.2056696528 -0.4141613244 -0.9234196064
F 1.5213026358 1.5854878992 -0.5690270598
F 1.2605584674 1.1319841901 1.5695374075
F -0.0139786362 -1.1053844822 1.0832409769
F 0.5657032795 -1.1177127919 -1.0428148413
F -0.9317151272 0.8960265876 -1.6559087559
F -1.1574469644 1.5644437360 0.4294645951
F -2.1639331543 -1.5707691971 -0.8012228726
F -2.6438799197 -0.5223425842 1.0765693319
H -3.4301349559 0.2687844471 -2.0140063773
H -3.5038324048 1.4341462593 -0.6850002477
H -5.0394994253 -0.0497385937 0.5838455437
H -5.6803645932 0.4833729421 -0.9867391556
H -5.9285948510 -1.8158824610 -0.6271178955
