21
CONF25
C 1.1992904359 -0.9375699936 -0.0927385786
C 0.0200701174 0.0182283791 0.1691423257
C 0.5242500300 1.4666811844 0.2754928014
O 1.1450595002 1.9571382532 -0.9191087367
C -1.0268527276 -0.0741845175 -0.9396956266
O -1.3434052581 -1.4579546630 -1.1682505336
C -0.5794593937 -0.4084739821 1.5235565040
O -1.7062836224 0.3746888488 1.9331343822
O 1.8103570562 -0.7483909665 -1.3834983888
H 0.8741465564 -1.9788585568 0.0192776987
H 1.9893694885 -0.7449643897 0.6415160307
H -0.3138997270 2.1427084014 0.4829258134
H 1.2252373558 1.5245689749 1.1248510128
H 1.6486120529 1.2150990605 -1.2936945271
H -1.9205166782 0.4850851627 -0.6304207158
H -0.6378342944 0.3843169892 -1.8583451367
H -1.9947457764 -1.4929853636 -1.8788773564
H -0.9406236372 -1.4382176661 1.4409469933
H 0.2061878516 -0.3844726382 2.2928538762
H -1.3825641923 1.2024198662 2.3073462952
H 1.2036051693 -1.1048620922 -2.0464141280
