66
CONF8
C 1.0831707671 -2.2608268319 2.7694075248
C 1.4493566177 -0.8105770727 2.5291872069
O 0.3166631260 -0.0755626057 1.9959730784
C -0.5600087986 0.4565375104 2.8898735448
O -0.3916818730 0.3747488699 4.1008700316
C -1.6764774886 1.1004237006 2.2035228566
C -2.6482154170 1.7402264621 2.9158625561
N -3.7523179282 2.2239884267 2.2504219776
C -4.0719590886 1.9191147852 0.9465981306
C -3.1421891072 1.2889867118 0.1719036203
C -1.7238782629 1.0670265144 0.6793020400
C -0.7671473983 2.0995155090 0.0761513133
C -1.0617148237 3.4513997034 0.2739603260
C -0.2402024108 4.4586291662 -0.2157745717
C 0.9090236596 4.1243186160 -0.9322152877
C 1.2219065519 2.7904987338 -1.1367556054
C 0.4057487328 1.7583708619 -0.6361403984
C 0.7796372722 0.3679215411 -0.8591013522
C 2.0244650241 -0.0917144257 -1.0733111105
C 2.2553679831 -1.5360427933 -1.2291049793
O 1.3798878191 -2.3886559859 -1.2550290565
O 3.5788858202 -1.7824398467 -1.3150100930
C 4.1098500167 -3.1682980382 -1.3988881005
C 3.7336460687 -3.9400930950 -0.1392695697
C 3.6193111431 -3.8427660445 -2.6748872877
C 5.6153683286 -2.9403452867 -1.4585405549
C -3.4703113160 0.8678848442 -1.1856542520
O -4.5557873239 0.9680605972 -1.7465304949
O -2.3931782436 0.3113782139 -1.8011961114
C -2.6064606416 -0.1603148596 -3.1591406232
C -1.2896739306 -0.7100725760 -3.6551791303
C -5.4555741630 2.3221903888 0.5398559613
C -2.6752863513 1.9679551067 4.3957970397
H 0.7289790751 -2.7257358858 1.8442480875
H 0.3050204410 -2.3478185764 3.5326610932
H 1.9677937197 -2.8072424505 3.1117932182
H 2.2154569369 -0.7193177171 1.7546100022
H 1.7976583088 -0.3215298914 3.4423906590
H -4.4534411344 2.6969913116 2.8011445292
H -1.4093265896 0.0740399942 0.3658953611
H -1.9571447990 3.7208760117 0.8262185137
H -0.4981511734 5.4995803356 -0.0470931437
H 1.5502421925 4.9010961661 -1.3365889505
H 2.1021209460 2.5320287840 -1.7166494218
H -0.0109794017 -0.3741474283 -0.8324788285
H 2.8974485312 0.5525789119 -1.0745317008
H 2.6608577553 -4.1299662735 -0.0874363185
H 4.2592916814 -4.8999173123 -0.1469694097
H 4.0459346744 -3.3858963687 0.7515668581
H 3.8288254920 -3.2090855367 -3.5423018533
H 2.5506148748 -4.0549694789 -2.6338978409
H 4.1604469986 -4.7855180813 -2.8017569088
H 6.1265007845 -3.9053513526 -1.5122739209
H 5.8810217008 -2.3542226673 -2.3431469422
H 5.9597918609 -2.4116815336 -0.5649976062
H -2.9540465086 0.6779674560 -3.7715872732
H -3.3895788075 -0.9255724309 -3.1458074184
H -0.5194978194 0.0668635007 -3.6610765274
H -0.9477716184 -1.5377232313 -3.0269353827
H -1.4162594774 -1.0800415662 -4.6768583588
H -6.0840565541 1.4388802000 0.3948861556
H -5.4414436134 2.8594812685 -0.4092190579
H -5.9116925339 2.9527358196 1.3071632951
H -3.4652030100 2.6766381018 4.6574756054
H -2.8630799029 1.0282286323 4.9236305815
H -1.7165586854 2.3462863766 4.7509652602
