49
CONF43
C -5.8108495171 -2.1774871881 -1.7764589552
C -5.1618400822 -0.8706706038 -1.4252307101
C -3.8323237408 -0.7500639217 -1.3243761419
C -3.1204550164 0.5175544992 -1.0129638624
C -1.8002854697 0.4589915907 -0.2657137025
C -3.0418865034 1.0992539556 0.3729170042
C -3.6427381436 0.3227295975 1.5220201260
C -3.1140251987 2.5988043341 0.5391800670
C -0.6782793268 1.2876491824 -0.7386721415
O -0.7508825954 2.2831393762 -1.4291747878
O 0.5082095526 0.7878170012 -0.2930109971
C 1.6688657177 1.5452356203 -0.7240152805
N 2.8275689297 0.8648600657 -0.2557709628
C 3.3901155206 1.0293325281 1.0237497785
O 3.0371356718 1.8420196855 1.8480433478
C 4.4896387061 0.0260952624 1.1178862787
C 4.5315401429 -0.6825911639 -0.0216047416
C 3.4628212407 -0.1899478132 -0.9373623486
O 3.1762914995 -0.5851408741 -2.0446631793
C 5.4849834949 -1.7856075735 -0.3061023716
C 6.1679235444 -2.2211466330 0.9995136399
C 6.6091577810 -1.0134195166 1.8374877286
C 5.4107183125 -0.1544390448 2.2693695534
C -6.1029423315 0.2783657750 -1.2090831162
H -5.0731902518 -2.9685124090 -1.9315080955
H -6.4989975449 -2.4947249019 -0.9827535427
H -6.4108159225 -2.0803498337 -2.6899947910
H -3.2141383631 -1.6287938614 -1.5050092507
H -3.1116161614 1.2709025320 -1.8009701970
H -1.5138659695 -0.4994348264 0.1555950874
H -3.1312151956 0.5714269968 2.4580440779
H -4.7020456074 0.5805317291 1.6365047026
H -3.5788082353 -0.7558392611 1.3614209855
H -4.1612629980 2.9021349905 0.6531771901
H -2.5766849790 2.9144373257 1.4408103243
H -2.6893744429 3.1255661210 -0.3163214691
H 1.6844107757 1.5942980080 -1.8158518579
H 1.6283386202 2.5474723879 -0.2891668899
H 6.2275418193 -1.4418463268 -1.0401099274
H 4.9593119897 -2.6191972353 -0.7859479697
H 5.4637906301 -2.8261626482 1.5851610995
H 7.0274031067 -2.8601538784 0.7747230672
H 7.2951126088 -0.3955717385 1.2436225311
H 7.1641539941 -1.3476277512 2.7195101991
H 4.8651397667 -0.6310485183 3.0961403732
H 5.7294423799 0.8225571108 2.6504610946
H -6.6646635441 0.4914690631 -2.1274215435
H -6.8452413476 0.0287811283 -0.4407624522
H -5.5811872113 1.1883513440 -0.9066393489
