55
CONF62
C 5.3190160811 -3.2658124257 -3.1649937453
O 3.8927660385 -3.2048788814 -3.0203981147
C 3.3921826622 -2.3875280700 -2.0538528528
C 4.1698559282 -1.6124790469 -1.1901840028
C 3.5392282761 -0.8149923280 -0.2370381089
C 2.1502243165 -0.7638384881 -0.1265194717
C 1.3873729706 -1.5564023333 -0.9949713775
C 1.9955632470 -2.3569016396 -1.9466406122
C 1.5337640222 0.1549278327 0.8956006657
S 0.2515369970 -0.7922034581 1.8596471427
C -0.8282772722 0.4873890116 2.4733467355
C -0.9561323442 0.6458936394 3.8560726461
C -1.8715626807 1.5471392777 4.3870717568
C -2.6456052841 2.3268984053 3.5316900734
C -2.5134647008 2.1943136801 2.1550953271
C -1.6248466306 1.2639547507 1.6093881813
N -1.5474485936 1.1309886562 0.1965639720
C -2.7871189692 0.9234456432 -0.5770334665
C -3.0670110700 -0.5540545688 -0.8304795577
N -3.3400518795 -1.3089136450 0.3931896715
C -3.2383206177 -2.7457722310 0.1300229390
C -4.6609475977 -0.9952532289 0.9403797234
C -0.3720272466 1.1673975820 -0.4962041993
O -0.3148026300 1.0291112704 -1.7159016215
C 0.8912382574 1.4317002372 0.3290418090
O 1.8942875393 2.0387063858 -0.5023947800
C 1.6192619292 3.3007399064 -0.9202016156
C 2.7373918057 3.8507827645 -1.7474064111
O 0.5980898499 3.8842224678 -0.6218524351
H 5.7296781258 -2.2814387061 -3.4175910553
H 5.5027783633 -3.9615958351 -3.9838743808
H 5.7906026150 -3.6404622359 -2.2492313875
H 5.2514710774 -1.6212187455 -1.2425507038
H 4.1504022509 -0.2144452609 0.4311453819
H 0.3046590984 -1.5515641186 -0.9244533544
H 1.4025871683 -2.9703846334 -2.6175254003
H 2.3137981961 0.4778977531 1.5920562154
H -0.3346074550 0.0460182950 4.5124757749
H -1.9667835733 1.6498416008 5.4629066794
H -3.3446106057 3.0529741809 3.9335914111
H -3.0996757372 2.8228637295 1.4930723073
H -2.6806724502 1.4369155010 -1.5355059768
H -3.6097745625 1.3917575788 -0.0357500893
H -3.9072704151 -0.6220737599 -1.5513960356
H -2.1876601734 -0.9916631254 -1.3167406782
H -3.4114275234 -3.3033586024 1.0562782133
H -2.2337232447 -2.9852610105 -0.2347743379
H -3.9726226097 -3.0928818910 -0.6223303624
H -4.7305858604 0.0638265454 1.2070269223
H -5.4763634418 -1.2279609827 0.2285201532
H -4.8243112549 -1.5784628963 1.8521481492
H 0.6612184939 2.1124744530 1.1537795196
H 2.3843083013 4.7107478857 -2.3155509284
H 3.5401346033 4.1729180554 -1.0749018015
H 3.1442864262 3.0859563447 -2.4118628922
