110
CONF131
C -2.9161984549 0.0555655704 -0.9914954400
N -3.5374920022 -0.2484914199 -2.3002416190
C -2.6590134433 -1.2786551793 -2.8760954286
C -2.3776068287 -2.2117677588 -1.6952035990
C -2.6084482685 -1.3517803610 -0.4116925201
C -1.4406653512 -1.3026649992 0.5327270911
C -0.1265453967 -0.9606413245 0.2726430869
C 0.8242797933 -0.9279610655 1.2951074094
C 0.3894589038 -1.2459472857 2.6007702269
O 1.3444192779 -1.1742910576 3.5755308371
C 0.9927678116 -1.5417087707 4.9144612829
C -0.9309302366 -1.6117207518 2.8772155872
C -1.8458079258 -1.6175406705 1.8239029701
N -3.2149913252 -1.8805525760 1.8952927242
C -3.6028835381 -2.9811492455 2.7835180480
C -3.7397174355 -1.9392226857 0.5079815128
C -5.0944743371 -1.2070435323 0.3012495831
O -5.5476448697 -1.4411282780 -1.0315755546
C -4.9782387854 0.2956977876 0.5889842834
O -6.2376473081 0.9170767555 0.3289337650
C -3.7744804874 1.0097618188 -0.1432594759
C -2.9206107619 1.6851571250 0.9692071379
C -1.7030855772 2.4825649833 0.5081554944
C -4.3004474628 2.1017642406 -1.0465461243
C -4.2444522054 2.0790634195 -2.3763880489
C -3.6833365452 0.9304743535 -3.1500925137
C -6.1678598326 -1.7870389298 1.2498090026
N -6.9007886474 -2.7860356367 0.7208952891
O -6.2948077592 -1.3965029352 2.4107510038
C 2.2610285574 -0.4424498408 1.0241607607
C 2.6751101315 -0.7865612046 -0.4382368991
C 4.1621753747 -0.6583950547 -0.8110105426
C 4.6857404314 0.7795531380 -0.9220798981
N 4.0882243465 1.5501114397 -2.0252933497
C 3.5770933140 0.7620275486 -3.1419076816
C 4.4187487520 -0.4885946375 -3.3905706877
O 5.7997730643 -0.1064204590 -3.6178315189
C 3.9316794288 -1.2532729889 -4.6333261614
C 2.4455278997 -1.6140566230 -4.6665535510
C 4.4410837146 -1.3919939077 -2.1447547055
C 3.2241484357 2.6662241132 -1.6682091024
C 1.8970023347 2.3552219597 -0.9273050816
C 2.0583442000 2.1629633453 0.5509127968
C 2.2738800096 1.0411484604 1.3382857652
N 2.3462497251 1.4365136816 2.6650411515
C 2.2145156017 2.7930644269 2.7650093505
C 2.2373876483 3.6266010193 3.8827277419
C 2.0649713451 4.9884553186 3.6665388698
C 1.8757121072 5.5020467573 2.3693798217
C 1.8589447165 4.6663051262 1.2603298132
C 2.0321113865 3.2863610669 1.4468228410
C 3.2810028220 -1.2109765726 1.8835131615
O 4.1924454237 -0.7213452897 2.5171931169
O 3.1032542397 -2.5341117566 1.7431915821
C 4.0362488282 -3.3663119117 2.4721954060
H -1.9457457904 0.5473069922 -1.1794613544
H -1.7247917248 -0.8151170867 -3.2392362802
H -3.1468148173 -1.7760399912 -3.7204999764
H -1.3568378293 -2.5997732300 -1.7264203683
H -3.0588026912 -3.0663131128 -1.7022451738
H 0.1588884677 -0.7173469851 -0.7454093672
H 0.2184036216 -0.8764773829 5.3132843464
H 0.6491950794 -2.5814692168 4.9567271410
H 1.9080033079 -1.4315994244 5.4971476253
H -1.2402008282 -1.8589963561 3.8839078219
H -3.0937959230 -3.9180847803 2.5040303686
H -3.3449670540 -2.7333037916 3.8165575135
H -4.6800947482 -3.1342686506 2.7465915964
H -3.9053915800 -2.9924776145 0.2330146558
H -4.8808549824 -1.0070553924 -1.6572151006
H -4.8301828764 0.3983938050 1.6658551422
H -6.4605187850 0.7222928381 -0.5931395975
H -3.6051691373 2.3519222923 1.5096502294
H -2.6086794982 0.9181120260 1.6867255332
H -1.2920258874 3.0538706339 1.3468894306
H -1.9628365892 3.1909002353 -0.2860247818
H -0.9003455690 1.8364191866 0.1407298657
H -4.7210286619 2.9687794536 -0.5428888118
H -4.6022296591 2.9271006497 -2.9550476460
H -2.7050290589 1.2229197885 -3.5819713641
H -4.3354956121 0.6823455202 -3.9977986404
H -7.6427101280 -3.1951227891 1.2672685230
H -6.8352609476 -2.9881791132 -0.2642208942
H 2.0755465798 -0.1940826443 -1.1238107104
H 2.3794470486 -1.8289610537 -0.5893489960
H 4.7598580058 -1.1574057312 -0.0378208892
H 5.7734060695 0.7094277042 -1.0761730383
H 4.5262921976 1.3227470822 0.0130393646
H 2.5297813990 0.4383608687 -3.0017441180
H 3.5808704017 1.3868166429 -4.0506084361
H 5.8018500652 0.5645934111 -4.3137477771
H 4.1740851782 -0.6452848972 -5.5152283853
H 4.5395792811 -2.1642370143 -4.7027769881
H 2.2396394859 -2.2846056645 -5.5065351669
H 1.8166216372 -0.7276099615 -4.7905467861
H 2.1284862211 -2.1247849157 -3.7507120620
H 5.4311959061 -1.8581130439 -2.1119612403
H 3.7172356614 -2.2030806141 -2.2714966543
H 3.7979590689 3.3710251647 -1.0506856818
H 2.9781066934 3.1890430743 -2.6030471175
H 1.3746696621 1.5269874484 -1.4134615394
H 1.2420829083 3.2245963479 -1.0692948019
H 2.5205676221 0.8052709237 3.4296566025
H 2.3812773613 3.2260126213 4.8816528648
H 2.0753529409 5.6681363356 4.5130143968
H 1.7430047122 6.5715321724 2.2372735949
H 1.7159725169 5.0797620592 0.2658784047
H 5.0583407212 -3.1723958066 2.1377446190
H 3.9533261171 -3.1682095039 3.5440607920
H 3.7456100132 -4.3916672286 2.2471106887
