33
CONF2
C -3.8409961488 -0.3948615616 1.0425263211
C -4.0067528750 -0.4979390436 -0.3394672129
C -2.8866374563 -0.4120173164 -1.1550332263
N -1.6602576350 -0.2255989508 -0.6688580776
C -1.4840577129 -0.1365827288 0.6458689141
C -2.5693776488 -0.2149940460 1.5418087898
Cl -2.3070444136 -0.0832823565 3.2617619475
N -0.2030737879 0.0688528957 1.1251315296
C 0.9527541689 0.0168231779 0.3761645214
C 1.2157380513 -0.9394298806 -0.6210182455
C 2.3701710566 -0.9107553055 -1.3815474310
C 3.3619236951 0.0300665553 -1.1465879585
C 3.1596353626 0.9885950813 -0.1472336724
C 1.9607956136 0.9867887233 0.5640348361
N 1.6909987649 2.0691262891 1.5286607773
O 1.7134232690 3.2117694170 1.1144301843
O 1.4303399942 1.7267181413 2.6789459709
Cl 4.3860801386 2.1444823682 0.2358033033
C 4.6380095268 -0.0253588252 -1.9536278093
F 4.5789548424 -0.9988843717 -2.8852377971
F 5.7130570871 -0.2825385796 -1.1758719826
F 4.8738707596 1.1339160703 -2.6047336311
N 0.3470887817 -2.1129177621 -0.8263906978
O 0.2532185691 -2.5443119381 -1.9652043246
O -0.1749748891 -2.6044855690 0.1645598464
C -5.3781164088 -0.7225954092 -0.8967480410
F -5.8568835724 -1.9492944130 -0.5663689477
F -6.2667537397 0.1796126863 -0.4101230159
F -5.4032484179 -0.6312648794 -2.2419921694
H -4.6885523289 -0.4596988530 1.7161306357
H -2.9720224207 -0.4891068257 -2.2349032722
H 2.5085178447 -1.6723012898 -2.1380844001
H -0.1153267681 0.4112133388 2.0736191659
