22
CONF2
Cl 5.2713865305 -0.0962275739 0.5045890580
C 3.5470574248 -0.0586489076 0.3066814516
C 2.8248270860 0.9589832589 0.9206584358
C 1.4458512567 1.0067307991 0.7738796101
Cl 0.5669074831 2.2756754128 1.5866249425
C 0.7593143586 0.0543362329 0.0142941266
C 1.5008482483 -0.9627651295 -0.5844227397
C 2.8825857886 -1.0284934842 -0.4479409813
Cl 3.7487958328 -2.3172219591 -1.2260762662
C -0.7122695387 0.0768292723 -0.1488824319
C -1.4925225026 -0.8530486974 0.5363458112
C -2.8761651425 -0.8746385645 0.4052238916
Cl -3.7914922207 -2.0549178095 1.2915465081
C -3.5031592421 0.0516452870 -0.4316618294
Cl -5.2281520554 0.0667518824 -0.6265755486
C -2.7421915056 0.9813257005 -1.1324116094
C -1.3619481205 0.9857473278 -0.9897612171
Cl -0.4345437763 2.1411322628 -1.9108110191
H 3.3398633968 1.7033049508 1.5146325709
H 0.9907325618 -1.7111769969 -1.1802032146
H -3.2284939950 1.6907726718 -1.7899069178
H -1.0110787733 -1.5662653329 1.1957378280
