45
CONF31
C 1.5640658586 -3.8517413769 -1.0862162758
C 2.0726402247 -2.4230706986 -1.2073314680
C 1.0452575131 -1.4589929236 -0.5969554868
O 1.0438852227 -1.1685908647 0.5963325071
N 0.1174903828 -0.9911988650 -1.4672629105
C -0.9349068806 -0.1180274482 -1.0503673972
C -2.0190674717 -0.5840802992 -0.0169738987
N -1.6311783256 0.5489393164 0.8309565908
C -0.6354148785 1.0024298522 -0.0239654508
O 0.1081650227 1.9540582113 0.0330731778
C -2.6773039507 1.2921009404 1.4912821593
C -3.8889830306 1.3176521365 0.4866517339
S -3.8124508193 -0.3544031638 -0.3676304813
C -5.2496202729 1.4597893055 1.1599029883
C -3.6719076024 2.4419512440 -0.5261008371
C -3.0298498565 0.6353863508 2.8175376487
O -2.9382568810 -0.5510192356 3.0417443982
O -3.4703495143 1.5417889311 3.7045926467
O 3.2991331322 -2.3597213082 -0.4799965541
C 4.0339316888 -1.2036776092 -0.5366392673
C 5.1975466161 -1.1991003765 0.2394685939
C 6.0194785531 -0.0805103299 0.2465788743
C 5.6940894438 1.0444559809 -0.5133724738
C 4.5354920870 1.0312126086 -1.2819901573
C 3.6981793568 -0.0853628044 -1.3029273334
H 2.3045023170 -4.5411724195 -1.4992480385
H 1.3853019355 -4.1000385006 -0.0362503459
H 0.6303101204 -3.9627940338 -1.6432184662
H 2.2482509118 -2.1729809140 -2.2626556857
H 0.1789400475 -1.2421769167 -2.4434713427
H -1.4096743737 0.3205149789 -1.9324149808
H -1.8461840255 -1.5700020071 0.4205918665
H -2.3436452212 2.3184317871 1.6742313795
H -5.2975648949 2.4173644429 1.6881328659
H -5.4457468938 0.6519462620 1.8698713944
H -6.0387051640 1.4516573558 0.4029711653
H -4.4409061255 2.3971137845 -1.3014017741
H -3.7419687681 3.4105891753 -0.0178798845
H -2.6947511503 2.3745887433 -1.0120263531
H -3.7283076279 1.0781688280 4.5212748961
H 5.4403351161 -2.0784705401 0.8274960853
H 6.9206996740 -0.0872059825 0.8521554049
H 6.3371410634 1.9181413652 -0.5044461948
H 4.2672860318 1.8976601974 -1.8788535269
H 2.8046216051 -0.0617289849 -1.9152505857
