44
CONF52
C -3.9022129758 -2.7955124596 -0.9536920926
S -2.6686087330 -2.4908366579 -2.2308784657
O -3.2183467093 -1.5522246638 -3.2337642063
O -2.1665247292 -3.7986230977 -2.7010790002
C -1.2898761316 -1.6750579758 -1.3546642926
C -1.4100674251 -0.3878410601 -0.8103794986
C -0.2659301505 0.1289520009 -0.1904348277
C 0.9321684136 -0.5795488442 -0.1204882485
C 0.9958285319 -1.8652961800 -0.6526770827
C -0.1142360916 -2.4126059274 -1.2782229911
C 2.1735456334 -0.0253099015 0.5155715362
O 2.6706611388 -0.5742272463 1.4775143480
C 2.8245739635 1.1469653393 -0.2189370178
C 4.0323327548 0.5517967886 -0.9912063340
O 3.9430653542 0.3739999711 -2.1861647927
C 5.2497036034 0.2620269592 -0.1643927829
C 5.6393562793 1.4761983376 0.6926417407
C 4.4776948705 1.9465994920 1.5846824851
C 3.2830162059 2.2620433604 0.7365624415
O 2.7144628010 3.3334805129 0.7154153957
Cl -0.3256826037 1.6971246772 0.5880306802
C -2.6840609531 0.4118968058 -0.8107437376
O -3.2583348513 0.2644495486 0.5061857324
C -4.1590275924 1.2869342824 0.8771420902
C -5.5590188821 1.0392019088 0.3389624494
F -6.0371415672 -0.1707755780 0.7125528092
F -5.6117600806 1.0806256757 -1.0157878836
F -6.4158142940 1.9776327500 0.8052504669
H -4.2302144573 -1.8467014963 -0.5249555190
H -4.7291368344 -3.3052773073 -1.4565185888
H -3.4486187733 -3.4362486980 -0.1942061818
H 1.9218959211 -2.4266294682 -0.5857087363
H -0.0693684291 -3.4066250373 -1.7059658476
H 2.1299791567 1.5610443218 -0.9508353957
H 5.0092999297 -0.5792726168 0.4998869548
H 6.0600430468 -0.0404603457 -0.8309052961
H 5.9606819898 2.2979137252 0.0430335204
H 6.4874633152 1.2060149630 1.3263496444
H 4.7473394764 2.8334769460 2.1617103921
H 4.2056456304 1.1350144734 2.2715853841
H -2.4603008860 1.4675687495 -1.0070858168
H -3.3741791082 0.0657063488 -1.5815157967
H -4.2284752669 1.2833172275 1.9691367499
H -3.8318194272 2.2790899041 0.5374729035
