47
CONF70
C -3.5684090637 0.2656307147 2.0516267334
C -2.4745682488 -0.4999957998 1.3421037079
C -2.7842541779 -1.8202082629 0.6767632804
C -2.5938716201 -0.5681282633 -0.1826002914
C -1.4006932361 -0.4848209977 -1.0366743977
O -0.3844205972 -1.1398821774 -0.9441600071
O -1.5777091305 0.4849447353 -1.9885004628
C -0.4167510759 0.7326979963 -2.8350176615
C -0.9545314150 1.2243559042 -4.1015670100
N -1.3538074068 1.6219815681 -5.1091354302
C 0.5197630725 1.7216106626 -2.1826565872
C 1.6843853134 1.2450517444 -1.5850543358
C 2.5203266384 2.1212805473 -0.9010057543
C 2.1775524008 3.4726124316 -0.8509849576
C 1.0326933864 3.9605444185 -1.4544535136
C 0.1920556011 3.0765904514 -2.1202896960
F 2.9960119304 4.3190888119 -0.1943275964
O 3.7013290993 1.7454851274 -0.3183191288
C 3.7740753071 0.4915218027 0.2830813341
C 2.7551832991 0.0205357589 1.1062229856
C 2.9147125482 -1.2123939749 1.7313675842
C 4.0791281106 -1.9558897703 1.5449570113
C 5.0914437754 -1.4600530818 0.7264727200
C 4.9430204909 -0.2323656467 0.0856738012
C -4.1116147057 -2.4362861807 0.7311198639
C -4.3482513405 -3.7425253081 0.8572450254
Cl -3.1028483099 -4.9545836513 0.9796331737
Cl -5.9663820046 -4.3922980229 0.9200992066
C -1.1153603721 -0.3540177465 1.9859090066
H -3.7098406548 -0.1380747549 3.0602625367
H -4.5240729859 0.2241792909 1.5252868608
H -3.2791044545 1.3174165650 2.1444044908
H -1.9414530759 -2.5034712837 0.6364594183
H -3.4853247835 -0.1075477960 -0.5944669135
H 0.1000687054 -0.2149271629 -3.0238482566
H 1.9371751506 0.1917859159 -1.6333787826
H 0.8082007070 5.0196162023 -1.3900849984
H -0.7145471320 3.4464811084 -2.5882301951
H 1.8547396824 0.6076157924 1.2534726794
H 2.1247186221 -1.5870324729 2.3748427122
H 4.1969093104 -2.9151803253 2.0377272350
H 6.0018554667 -2.0318654776 0.5775200739
H 5.7182187436 0.1674505510 -0.5593354766
H -4.9841054693 -1.7935608993 0.6639803522
H -1.1770365355 -0.6751088045 3.0310869426
H -0.8000253314 0.6955595995 1.9720064127
H -0.3545839272 -0.9538197492 1.4843964012
