36
CONF48
C 2.3548052161 3.8627983702 -0.3648627932
C 2.0304444974 2.5361916478 0.3325528279
C 1.0436231236 1.7169437757 -0.4404155560
C 1.2630143037 0.4795867944 -0.8834035895
C 0.3126600187 -0.3491230775 -1.6912524439
C 0.0157510589 -1.7082832800 -1.0539860387
C -1.1039991813 -1.8104066255 -0.0053059473
C -1.3392357157 -3.3298550014 0.0899404674
C -1.2750490885 -3.8017437186 -1.3655611402
C -0.3500608755 -2.8041243789 -2.0568633770
O 0.0234171284 -2.8643394176 -3.2042688229
C -0.8156241907 -1.1488069380 1.3364841595
C -1.2206827252 0.3060582808 1.3914098983
O -2.0312754928 0.8376208488 0.6681068931
O -0.6112199717 0.9366593128 2.4210526889
C -1.0262787414 2.3040384764 2.6201912340
H 3.0555158166 4.4596888000 0.2268345121
H 1.4475362734 4.4576798382 -0.5142403405
H 2.7999641256 3.6829938686 -1.3479563686
H 1.6274170351 2.7493597401 1.3328957442
H 2.9482132611 1.9564176579 0.4849365534
H 0.0854961479 2.1909562062 -0.6622797551
H 2.2247642968 0.0103217640 -0.6616525605
H 0.7527244206 -0.5502316767 -2.6783856639
H -0.6245213847 0.1949342504 -1.8550919285
H 0.9419318788 -2.0869407932 -0.5811675207
H -2.0060085543 -1.3438648808 -0.4248246359
H -2.2858895908 -3.5707096331 0.5822654972
H -0.5326550567 -3.7894725325 0.6761873098
H -2.2541379571 -3.7224352344 -1.8559822217
H -0.9247017760 -4.8262569918 -1.5166058237
H -1.3997125195 -1.6425038595 2.1274634282
H 0.2359420592 -1.2467993622 1.6265144686
H -0.4215674784 2.6753411314 3.4475673003
H -2.0899276351 2.3453089622 2.8702851328
H -0.8506724411 2.8929970621 1.7163419947
