21
CONF13
C -1.8413677666 0.0717011247 -0.6811693605
C -1.0879272087 0.6183616646 0.5242422827
C 0.2575790807 1.2624704952 0.1725270750
C 1.1854082573 0.2974318485 -0.5999153575
C 1.0882801289 -1.1382038248 -0.0444312681
C -0.3790403804 -1.4741751243 0.2520871870
O -1.1817522737 -1.2030984664 -0.9182007900
O -0.8533195532 -0.6048189701 1.2628766348
O 1.8620957812 -1.3116905509 1.1405872241
O 0.9319100418 0.3305173364 -2.0065993750
O 0.9684700976 1.6044644726 1.3703382870
H -2.8948455701 -0.1035634667 -0.4400241823
H -1.7590685367 0.6937185433 -1.5761436288
H -1.6920566822 1.2799781696 1.1509106880
H 0.0804298987 2.1517129083 -0.4500519151
H 2.2129122140 0.6512713478 -0.4616820070
H 1.4888241484 -1.8341509621 -0.7895102687
H -0.5204300720 -2.5092313824 0.5786282460
H 1.5276339189 -0.6713889219 1.7874351388
H 0.2042026595 -0.2851359262 -2.1800333282
H 0.4020617053 2.1738296956 1.9081282257
