56
CONF8
C 0.7212467204 -0.1416370178 2.3798090933
C 0.9914724443 1.3023066948 2.7729707196
N 2.4247176611 1.6004738224 2.6846116041
C 2.8919045079 1.3355556849 1.3184372820
C 2.6166128892 -0.1088516268 0.9292783537
N 1.1838337663 -0.3856987943 1.0149270937
C 0.8350651525 -1.7270732907 0.5487734553
C 0.9608144370 -1.8739442884 -0.9704908498
C 0.3233809122 -0.6998958280 -1.7189422862
N -1.0517403627 -0.4534878758 -1.2686255272
C -1.4342624101 0.8325740202 -0.8521955222
C -0.8234739474 1.9855060809 -1.3633595022
C -1.1769123860 3.2465536209 -0.8918503445
C -2.1801179081 3.3920288347 0.0612316136
C -2.8378492951 2.2600416536 0.5359153074
C -2.4561079331 0.9959980094 0.0964062689
S -3.2158898447 -0.4466165890 0.8127347409
C -3.1304004722 -1.5278725549 -0.5925078747
C -2.0202774660 -1.4440726856 -1.4523795917
C -1.9114143071 -2.3851076565 -2.4844051754
C -2.8753872402 -3.3765230613 -2.6324567994
C -3.9817875269 -3.4433445741 -1.7875754817
C -4.1102558498 -2.4997863741 -0.7765165913
C -2.7426270547 -4.4060103665 -3.7120018253
F -2.5853194668 -5.6590760039 -3.2008420667
F -1.6894553387 -4.1849987478 -4.5302875677
F -3.8502824683 -4.4593196998 -4.4999616419
C 2.7130866315 2.9766742889 3.1048237283
C 4.1815859616 3.1278512095 3.4789614899
O 4.5539455875 2.1572970607 4.4639757986
H 1.2156901426 -0.8172445878 3.1073713154
H -0.3585884910 -0.3287309166 2.4257991869
H 0.6584738912 1.4685241924 3.8038403464
H 0.4034549178 1.9711529203 2.1116138747
H 3.9688272142 1.5235422923 1.2555840777
H 2.3861023480 2.0067991019 0.5948838067
H 2.9603581518 -0.2654986536 -0.0990433041
H 3.1995404213 -0.7869675303 1.5856370274
H -0.2090472406 -1.9061366719 0.8337421241
H 1.4429800388 -2.5098290619 1.0434084842
H 2.0099917760 -1.9287047674 -1.2827853356
H 0.5047007497 -2.8268294197 -1.2605124125
H 0.8962162069 0.1970510687 -1.4871094806
H 0.3800709970 -0.8490400391 -2.8054352947
H -0.0650769646 1.9000253206 -2.1329290598
H -0.6709095361 4.1201920743 -1.2901106766
H -2.4605912722 4.3742817028 0.4258995270
H -3.6335281464 2.3514723997 1.2690138222
H -1.0732625007 -2.3456605571 -3.1671062235
H -4.7319344503 -4.2166073710 -1.9126881297
H -4.9617447107 -2.5339266699 -0.1045707098
H 2.1047628304 3.1912620561 3.9918910542
H 2.4446988705 3.7163337261 2.3265196078
H 4.8260237970 3.0389489299 2.5914359262
H 4.3483401426 4.1193152674 3.9123578960
H 4.0903451267 1.3467313487 4.1967344544
