15
CONF55
N -1.0014141433 1.2171563345 -0.9689584158
C -0.4183476421 0.3158530615 0.0186388586
C 0.5337591343 -0.6807252783 -0.6512318450
S 1.9530984469 0.1273476219 -1.5076868429
S 3.0127843690 1.0018171377 0.0594659157
C -1.5230327929 -0.4453906080 0.7341359759
O -1.0165342230 -1.2750421081 1.6678098200
O -2.7100399906 -0.3208714786 0.5254229472
H -0.2612076038 1.8098816247 -1.3325437693
H -1.6607014900 1.8367900740 -0.5083863891
H 0.1473396602 0.8282110734 0.8188833882
H 0.0141996444 -1.2197687970 -1.4537170292
H 0.9285164021 -1.3993891084 0.0690266429
H 3.7573494622 -0.0653318616 0.4231722614
H -1.7557695298 -1.7305376933 2.1059687620
