74
CONF137
C -0.4910850010 -0.6533873982 0.7556742189
C 0.3112320628 -1.6973582479 1.5176249598
O -0.4216922938 -1.8333477911 2.7863631389
C -1.1547115005 -0.7158835233 3.0303710110
O -1.7826814677 -0.5868747458 4.0560117766
C -0.9709588967 0.2471123793 1.8837504396
C -2.1249880753 1.1509341226 1.4448936427
C -3.4498455432 0.4166403207 1.2734809116
C -3.7928929776 -0.1814971107 0.0588793418
C -4.9975762163 -0.8750896330 -0.0731265003
O -5.4194662778 -1.4919790403 -1.2152304308
C -4.5463596672 -1.4295732096 -2.3502637919
C -5.8734998888 -0.9646592194 1.0141075322
O -7.0538771727 -1.6380391841 0.8669062193
C -5.5299377001 -0.3493384061 2.2236828986
O -6.4730916493 -0.4948472469 3.2040757953
C -6.1888027451 0.0832827242 4.4854791733
C -4.3269826016 0.3407339200 2.3569251614
C -1.7004262378 1.8543948769 0.1615080632
C -2.4356003437 3.0031120477 -0.2003998216
C -2.1147800322 3.6280413367 -1.3789748225
C -1.1037346597 3.1524313375 -2.2086374079
O -0.9948470639 3.9469907739 -3.3189175117
C -1.9890480118 4.9851564839 -3.1709921382
O -2.6860864334 4.7432514034 -1.9273074411
C -0.3764449016 2.0359059422 -1.8862661376
C -0.6816697895 1.3755270956 -0.6737648467
C 0.1831513631 0.1808539163 -0.3154576443
O 1.4592023995 0.6768796613 0.1889597230
C 2.5699663496 0.2989270800 -0.5535315406
O 2.8060399383 -1.1011175178 -0.3313754799
C 3.9336642388 -1.5478423179 -1.0806264659
C 4.0899235113 -3.0513290931 -0.9262827258
O 5.2920230613 -3.4476721507 -1.6019494866
C 6.4362477368 -2.7791604423 -1.0821552306
C 7.6482894094 -3.2631843663 -1.8314383556
O 6.3297919179 -1.3666828097 -1.2650854506
C 5.1966403974 -0.8655730446 -0.5530555281
C 5.0638819202 0.6320765030 -0.7418844573
O 6.1800210441 1.3781156125 -0.2548556931
C 3.7690726379 1.1105521426 -0.0675869012
O 3.5229213124 2.4789458864 -0.3718139756
H -1.3615445872 -1.1428414829 0.3010837727
H 0.3360289574 -2.6836145652 1.0531311894
H 1.3231470112 -1.3574038538 1.7493674467
H -0.1315037020 0.8929868238 2.1911410893
H -2.2754426646 1.9158883253 2.2153730076
H -3.1296105334 -0.0813957023 -0.7909399681
H -4.3907272201 -0.3927268543 -2.6715463305
H -3.5791431231 -1.8962498545 -2.1287567571
H -5.0507339581 -1.9862966815 -3.1405336254
H -7.5286028926 -1.5838335648 1.7099701110
H -5.2786784514 -0.3512119084 4.9144705589
H -6.0800980359 1.1708075659 4.4061518987
H -7.0457277417 -0.1571411791 5.1148335015
H -4.0623585192 0.8135037793 3.2939393815
H -3.2344137637 3.3710938723 0.4355436480
H -1.4908824894 5.9591718985 -3.1222355805
H -2.7011304799 4.9257061124 -4.0005906926
H 0.4054587066 1.6654087605 -2.5407890637
H 0.3732638628 -0.4206025364 -1.2119857762
H 2.4124971204 0.4649421948 -1.6353350168
H 3.8105647019 -1.3012655478 -2.1482147009
H 3.2643986366 -3.5931691514 -1.3942863275
H 4.1413522409 -3.3142476066 0.1422866244
H 6.5021988134 -2.9841367075 0.0021336607
H 7.5397839041 -3.0408975626 -2.8967313375
H 7.7587182114 -4.3415836050 -1.6979267892
H 8.5418846241 -2.7652327179 -1.4486341671
H 5.3006759711 -1.0998031626 0.5222475243
H 5.0086408235 0.8569822996 -1.8150324890
H 6.3028895033 1.1604123827 0.6806173645
H 3.8566034666 0.9586597276 1.0220896973
H 4.3515087721 2.9526625450 -0.2110833015
