33
CONF3
C -2.4577427931 -2.0548475966 -0.9848927439
C -2.4055912969 -0.5955876093 -1.4896757649
C -3.0799448611 0.2936177262 -0.4585794567
O -4.4228490061 0.1958646265 -0.5456691278
O -2.5215766229 0.9840752712 0.3677564943
C -1.0000137696 -0.1378476135 -1.7971620531
C -0.6886309737 0.3591367810 -3.0632989685
C 0.6103857850 0.7626963275 -3.3744184297
C 1.6128833607 0.6729466901 -2.4209813678
C 1.3122184503 0.1984835216 -1.1373416591
C 0.0089410961 -0.2069369775 -0.8354223048
C 2.4140897009 0.0737440583 -0.1433618182
O 3.5644350654 -0.1501460540 -0.5163989766
C 2.1108157954 0.2278325771 1.3066141639
C 1.1085235859 1.0935403615 1.7627603069
C 0.9034507323 1.2658667955 3.1277437755
C 1.6790797595 0.5599815582 4.0447477404
C 2.6772384639 -0.3061844480 3.5964789019
C 2.9017285612 -0.4611569784 2.2352538650
H -1.9822174011 -2.7064348846 -1.7221547981
H -3.4928195995 -2.3760750295 -0.8464378770
H -1.9287720030 -2.1594064808 -0.0338621513
H -3.0037799296 -0.5334845522 -2.4045162307
H -4.8153805823 0.7380119196 0.1602143336
H -1.4687833393 0.4281613921 -3.8162983713
H 0.8332908977 1.1468353192 -4.3647306876
H 2.6285386064 0.9782093231 -2.6495838055
H -0.2136015041 -0.5983596764 0.1508045764
H 0.5090988513 1.6523552683 1.0517476494
H 0.1370820700 1.9510951872 3.4756392673
H 1.5092736558 0.6865082633 5.1094599157
H 3.2797920257 -0.8574892591 4.3114030666
H 3.6808374144 -1.1250057125 1.8748840337
