26
CONF1
C 1.2929970675 0.0598704293 -1.6098998299
C 0.7402279058 -0.1639807944 -0.1991019175
C -0.1112226638 -1.4648957625 -0.0664125718
C -0.7508272938 -1.3151726046 1.3316960753
C -1.3014970173 0.0889831834 1.1258025433
C -0.3930973865 0.8115195162 0.1516388464
C -1.6774816274 0.1839564490 -0.3500268886
C -1.3351898280 -1.1675048020 -0.9611154747
C -0.1841529726 2.2964839320 0.1942007973
C 1.9034552287 -0.0942475655 0.7950950405
H 1.9575957232 -0.7632958615 -1.8974803725
H 0.5035335668 0.1443761655 -2.3601935568
H 1.8788115142 0.9849201039 -1.6435108599
H 0.4231295880 -2.3973368235 -0.2623612747
H -1.5430915508 -2.0558589318 1.4924791098
H -0.0366883992 -1.3921370733 2.1553233106
H -1.8569165629 0.6291420197 1.8847706419
H -2.5111338465 0.7937888235 -0.6809169530
H -1.1023250935 -1.1223918724 -2.0278586199
H -2.1309386847 -1.9070499414 -0.8128764132
H 0.5832573888 2.5694502732 0.9283365094
H 0.1310450212 2.6830892842 -0.7823092821
H -1.1100245343 2.8097051035 0.4732380703
H 1.5682901656 -0.1179243169 1.8346265851
H 2.5967582365 -0.9283881090 0.6352724120
H 2.4654859653 0.8348991756 0.6515838558
