45
CONF43
C -2.7118321385 0.2252876412 2.1869797148
C -2.8735021619 -0.9765738597 1.3053268701
N -3.9472152461 -1.6852969396 1.2552780596
O -4.9327959551 -1.1818565104 2.1091336335
C -6.1090853304 -1.9971733760 1.9965578853
C -1.7548113240 -1.4869197669 0.4798262669
C -0.9538651759 -0.6191091928 -0.2891722260
C 0.1160067702 -1.1522314393 -1.0088150324
C 0.4033887822 -2.5084994661 -1.0005154660
C -0.3871473913 -3.3574080732 -0.2362445061
C -1.4503632753 -2.8506084105 0.5030763404
O 0.8286014919 -0.3231406950 -1.8738738578
C 1.9705016010 0.2546749450 -1.4024618135
N 2.4023556180 -0.1032184713 -0.2034920319
C 3.5239802683 0.5090124335 0.1982579979
C 4.1973904364 1.4439789356 -0.5797577901
C 3.6261410740 1.7070459775 -1.8227476423
N 2.5043479451 1.1192383061 -2.2550708821
O 4.2454122217 2.6001722308 -2.6064751760
C 3.6535615019 2.8874282910 -3.8944966847
O 4.0325751455 0.2179465866 1.4032912784
C 3.3211891861 -0.7481050747 2.2120042214
C -1.3389793625 0.8131522171 -0.4531396216
O -2.4642881736 1.1742821675 -0.7335495609
O -0.3070108489 1.6437957590 -0.2557436751
C -0.5861553430 3.0537947914 -0.4598767510
H -1.7052076801 0.6404958275 2.1205118287
H -2.8993066627 -0.0676319013 3.2257322348
H -3.4419613724 0.9988337174 1.9317194522
H -5.8935895314 -3.0311022839 2.2866832041
H -6.8317093613 -1.5587395402 2.6874827043
H -6.5039563441 -1.9692754778 0.9754442432
H 1.2356154483 -2.8789576143 -1.5889691307
H -0.1677464705 -4.4196216837 -0.2097603124
H -2.0498320951 -3.5082216309 1.1218475614
H 5.1016764955 1.9334223778 -0.2445345388
H 4.3136468915 3.6273502380 -4.3461656907
H 2.6476010527 3.2964741749 -3.7718869058
H 3.6135349815 1.9848217793 -4.5091262553
H 2.3061297742 -0.4006253050 2.4207059824
H 3.8977816806 -0.8195380580 3.1337357829
H 3.2835383279 -1.7172448011 1.7081244566
H -1.3468650777 3.3898020756 0.2484228558
H -0.9289480803 3.2208339570 -1.4834811285
H 0.3611967234 3.5601155440 -0.2807857893
