42
CONF27
C -2.4649127202 -1.7073482896 -2.0293201703
C -2.2055564346 -0.5059475640 -1.1866040171
C -3.1272960079 0.3530547304 -0.6645921693
C -2.4336536600 1.3776952147 0.1117304598
C -1.0414707798 1.1146274630 0.0754403528
C -0.8612476572 -0.1092703123 -0.7306071521
C 0.2542396653 -0.7992714276 -1.0734105465
C 1.6183755358 -0.6458491636 -0.5794964786
C 1.8966045743 -0.4285352618 0.7804439058
C 3.2046879022 -0.3220204885 1.2295125845
C 4.2479295990 -0.4509484086 0.3157568200
C 4.0067128030 -0.6803180849 -1.0323620269
C 2.6934813688 -0.7978355246 -1.4703351268
S 5.9675072004 -0.2623063832 0.8836969836
O 6.8441150570 -0.2196874698 -0.3677045388
C 6.1475352024 -1.9567110528 1.5734086361
C -0.1553376832 2.0236752680 0.6397185787
C -0.6487911180 3.1581561307 1.2921609789
C -2.0192997197 3.3519953975 1.3478680989
C -2.9421247024 2.4942883949 0.7642751312
F -2.4887909893 4.4513124561 1.9960137251
C -4.6082620815 0.3015741287 -0.8310551216
C -5.3772047827 -0.3978196734 0.2729079977
O -6.5078278416 -0.8172063789 0.1452632002
O -4.6862155110 -0.4807686567 1.4257544391
H -2.1415168756 -2.6221355468 -1.5189246065
H -3.5266662437 -1.8115455296 -2.2603808248
H -1.9143325263 -1.6564445915 -2.9759918900
H 0.1312997313 -1.5848710708 -1.8178599541
H 1.0777389902 -0.3613573684 1.4888668715
H 3.4072762605 -0.1514655297 2.2833015124
H 4.8396692563 -0.7687176374 -1.7225179911
H 2.4914474978 -0.9929315930 -2.5196346339
H 7.1724904614 -2.0364521626 1.9435128455
H 5.4347402534 -2.0813672369 2.3929395840
H 5.9585254311 -2.6739062353 0.7705260955
H 0.9168191073 1.8787530472 0.5846222405
H 0.0184886996 3.8803119323 1.7488298033
H -4.0034492317 2.7135600428 0.8161826931
H -4.8984352968 -0.1818024490 -1.7667259929
H -5.0222877067 1.3189299740 -0.8733824197
H -5.2550053341 -0.9130925917 2.0862237994
