45
CONF101
C 5.1900712505 2.6600534461 -2.3351526360
C 3.6925223064 2.6544043562 -2.0365715443
C 3.1774436992 1.2750349186 -1.6266504707
C 1.6786880608 1.2569852569 -1.3276164642
C 1.1786510048 -0.1286268250 -0.9188648579
C -0.3473766710 -0.2301524933 -0.7315921629
C -0.8548818596 0.6148933242 0.4490239208
C -2.3757007069 0.5898684717 0.5936423419
C -2.9001910120 1.4397413766 1.7549156756
C -2.3804710102 1.0259051061 3.1376404009
C -2.6516370496 -0.4386653523 3.4781580226
C -0.7659322531 -1.6789209770 -0.5869118270
C -1.5661246463 -2.2944481342 -1.5507472756
C -1.9526728738 -3.6259707850 -1.4222432086
C -1.5427008727 -4.3683409640 -0.3201938977
C -0.7423228688 -3.7684152898 0.6486681675
C -0.3585841941 -2.4386837513 0.5147040130
H 5.5394021004 3.6557205634 -2.6247320403
H 5.4291437591 1.9702798583 -3.1517445534
H 5.7651176322 2.3450679354 -1.4576489232
H 3.4720524079 3.3742434788 -1.2373704227
H 3.1375970481 2.9977446335 -2.9195651940
H 3.3993576721 0.5528795214 -2.4248008022
H 3.7295242428 0.9298775513 -0.7411206591
H 1.4669442765 1.9884821153 -0.5378936631
H 1.1264230901 1.5931031200 -2.2168483529
H 1.6792066355 -0.4420032896 0.0076293257
H 1.4779953652 -0.8546736221 -1.6861775384
H -0.8198158309 0.1552036791 -1.6471753827
H -0.3790084637 0.2506872663 1.3690342473
H -0.5256276480 1.6539192104 0.3233079812
H -2.8251504611 0.9499143538 -0.3418349662
H -2.7151871316 -0.4465303124 0.7076615961
H -3.9969892105 1.3845601128 1.7608631696
H -2.6438827453 2.4930523547 1.5781536491
H -2.8520122248 1.6682550258 3.8915453718
H -1.3036938319 1.2248828213 3.2065303960
H -2.3454069474 -0.6685329826 4.5032746803
H -2.1092482743 -1.1165648426 2.8104531858
H -3.7185725390 -0.6716129315 3.3859869206
H -1.8953872831 -1.7188675116 -2.4119897989
H -2.5775903398 -4.0822622678 -2.1838017551
H -1.8436058403 -5.4057358361 -0.2156246685
H -0.4158136022 -4.3388343470 1.5128882691
H 0.2654488299 -1.9869162688 1.2806665289
