46
CONF135
C -3.8820097450 -0.0158835135 -1.6590128257
C -2.4986085495 0.0080796149 -2.2660584205
C -2.4845153744 0.3503127958 -3.7386046554
C -1.4840881658 -0.9718509479 -1.7131984400
C -0.5158956983 -1.6518032749 -2.5777831658
C -0.2754042226 -2.9629482108 -2.5766609960
Cl 0.8960022510 -3.6990815671 -3.6398431479
Cl -1.0767625207 -4.0984412442 -1.5251945444
C -1.3150422450 0.5197047836 -1.4455187066
C -1.5131748255 1.0227881405 -0.0720271081
O -2.0387673295 0.4273246179 0.8474670946
O -1.0383047074 2.2904333864 0.0327299451
C -1.1596464984 2.9075515860 1.3352526206
C -0.1577605296 2.3752006205 2.3272415701
C 0.9877453560 1.7104109008 1.9010205966
C 1.8965881301 1.2385561516 2.8446260779
O 3.0607355011 0.5948984065 2.4655533589
C 3.0163841921 -0.2669764222 1.3804554137
C 1.9766122130 -1.1806319225 1.2144065983
C 2.0222883665 -2.0662051627 0.1425821540
C 3.0939232880 -2.0469189823 -0.7495321556
C 4.1287676485 -1.1336825737 -0.5621824653
C 4.0942925052 -0.2359708316 0.5024643470
C 1.7036541744 1.4532978847 4.2047172499
C 0.5650640049 2.1394629704 4.6186407604
C -0.3708550275 2.5874424520 3.6915377569
H -4.5042347376 -0.7312569057 -2.2072362274
H -4.3498109912 0.9717863749 -1.7417839277
H -3.8640082542 -0.3066329731 -0.6077599020
H -1.4731676098 0.4284569652 -4.1424938286
H -3.0244515797 -0.4171392820 -4.3043472636
H -2.9898201873 1.3082594555 -3.8999948765
H -1.8372582110 -1.5341823822 -0.8540500712
H 0.0554588563 -1.0581053332 -3.2851267340
H -0.5547680389 1.0424758336 -2.0166805391
H -0.9854420831 3.9702807706 1.1431671471
H -2.1781954596 2.7769650326 1.7123784591
H 1.1696903324 1.5438737029 0.8450108935
H 1.1475373194 -1.1971245149 1.9141869431
H 1.2165653418 -2.7815487331 0.0118967434
H 3.1218726423 -2.7425938836 -1.5814489031
H 4.9683963126 -1.1126034089 -1.2499319312
H 4.8902341251 0.4843955505 0.6600829996
H 2.4309997650 1.0785374524 4.9167440299
H 0.3982017997 2.3057462805 5.6782306980
H -1.2690211265 3.0982823379 4.0260771875
