47
CONF16
C -6.1412240689 -2.6194093499 -0.9628500581
O -6.4221408951 -1.3756269565 -0.2826243655
P -5.2489154290 -0.2978249547 -0.0885018358
S -4.1002649309 0.0553251458 -1.5996787869
O -6.0667771307 0.9352836870 0.5327460397
C -6.7063079591 1.8837939225 -0.3515267207
O -4.5434133030 -0.8850383697 1.2506207205
C -3.3501760297 -0.3314398852 1.7225921539
C -3.3904702095 0.7933397292 2.5326607914
C -2.1980575146 1.3179319545 3.0194746220
C -0.9829575754 0.7011965317 2.7153608440
C -0.9648518680 -0.4447010826 1.9153491674
C -2.1499417833 -0.9531853207 1.4038928545
S 0.5035119785 1.3729497661 3.4436952121
C 1.6950944134 1.2070754582 2.1231044741
C 2.9903629142 0.8038390445 2.4520082001
C 3.9699969137 0.7251639660 1.4676701979
C 3.6329375410 1.0275357957 0.1571363160
C 2.3474041584 1.4236489801 -0.1891966931
C 1.3804750156 1.5292100446 0.7998161902
O 4.6161848116 0.9801490440 -0.8346102105
P 4.9717735051 -0.4207304451 -1.5746308257
S 3.4844729593 -1.5116649473 -2.1450331730
O 5.9992483479 -1.0530013545 -0.5165529919
C 6.4378200052 -2.4213071521 -0.6781713276
O 5.9825989121 0.1080888271 -2.7032336583
C 5.4559743288 0.6381619489 -3.9402689381
H -5.4522829454 -3.2280519687 -0.3685630125
H -5.7134592833 -2.4239269886 -1.9505538279
H -7.1002310210 -3.1297609686 -1.0570014739
H -5.9784234733 2.2948781146 -1.0568115675
H -7.5253761059 1.4021294255 -0.8944808301
H -7.0994101023 2.6710102143 0.2925904072
H -4.3429613978 1.2591269360 2.7581228174
H -2.2111715082 2.2136999543 3.6315457362
H -0.0235659255 -0.9296932625 1.6807517289
H -2.1536380388 -1.8275402267 0.7632295862
H 3.2310654534 0.5439147487 3.4774495225
H 4.9809930681 0.4134796128 1.7037313114
H 2.1168980142 1.6474982677 -1.2244032373
H 0.3762615563 1.8478540227 0.5421873509
H 5.5752427062 -3.0906924648 -0.7425971263
H 7.0558248405 -2.5164719089 -1.5763114658
H 7.0314063481 -2.6487379595 0.2078300630
H 6.3222881939 0.8297287808 -4.5741431560
H 4.7900542273 -0.0899819652 -4.4126926486
H 4.9181272114 1.5727738101 -3.7520823906
