53
CONF6
C 5.1046108456 1.4901965486 0.1519435858
C 4.6413845711 0.0791571138 -0.0951738318
O 5.2885191288 -0.8779845661 0.3092094471
C 3.3550840590 -0.0819274810 -0.8714650718
C 3.2467031281 -1.3942038571 -1.6853305869
C 1.7460588482 -1.7938430452 -1.6748313699
C 1.0520374893 -0.5967250110 -1.0196584689
C 2.0683096548 -0.0899354264 0.0268645730
C 1.5894471106 1.2726520298 0.5268776982
C 0.1597492219 1.1839511998 1.0846006436
C -0.8421017236 0.5865212750 0.0830931999
C -0.3587183588 -0.7721775192 -0.4675223110
C -1.3161520739 -1.2707579095 -1.5460065869
C -2.7443347059 -1.3731008016 -1.0033588820
C -3.2102002825 -0.0867763054 -0.3962925252
C -4.4070940380 0.4353886975 -0.7513517753
C -5.0195460179 1.5747950433 -0.0871451007
O -6.1220621374 2.0116721653 -0.4321397019
C -4.2712364812 2.1403510792 1.0921267522
C -2.7625006190 2.0015631422 0.9149009695
C -2.3054828655 0.5535344373 0.6421756990
C -2.4072729806 -0.2809737832 1.9407421974
C 2.2573169012 -1.0642418615 1.1992609322
H 5.5240631200 1.8734242402 -0.7876439633
H 4.2688046990 2.1470453576 0.4086704242
H 5.8738151872 1.5192885507 0.9253759527
H 3.2595437524 0.7863046010 -1.5361564798
H 3.6191908925 -1.2366249326 -2.7014576488
H 3.8673917685 -2.1688180507 -1.2287282968
H 1.5843161061 -2.7022993506 -1.0829498126
H 1.3665926992 -1.9907694284 -2.6811401329
H 0.9914997658 0.2000606788 -1.7805243757
H 1.6121439737 1.9872411613 -0.3078706887
H 2.2500810375 1.6631796209 1.3105604645
H 0.1683238326 0.5836449682 2.0010536845
H -0.1576803527 2.1899609448 1.3757009769
H -0.8739397062 1.2635207961 -0.7877696397
H -0.3371103425 -1.5159872274 0.3412912552
H -1.2946452747 -0.5763073140 -2.3980240859
H -0.9999407627 -2.2510748411 -1.9181594848
H -2.7590057891 -2.1436905184 -0.2183819950
H -3.4433744354 -1.6948837204 -1.7811416495
H -5.0039562305 -0.0491188481 -1.5218378153
H -4.5659481761 3.1838152524 1.2375575697
H -4.6103776385 1.5860015662 1.9791177129
H -2.4517468246 2.6297325502 0.0693225470
H -2.2568109007 2.3854677599 1.8052099502
H -1.8731754431 0.2176721706 2.7537957922
H -3.4525023564 -0.3944849999 2.2438709784
H -1.9869210953 -1.2822046705 1.8182545631
H 2.9470272706 -0.6361557816 1.9347918556
H 2.6757404731 -2.0197668249 0.8726403564
H 1.3160813778 -1.2710634764 1.7130515793
