42
CONF3
C 3.4358307648 -2.1901082625 0.9114667512
C 2.6920934243 -1.5295457433 1.8810386593
C 1.6231163809 -0.7091302752 1.5166373234
C 1.2851455643 -0.5410258795 0.1757910125
C 2.0496156536 -1.2002887739 -0.7962531461
C 3.1094410841 -2.0203967587 -0.4338958229
C 0.1189680801 0.3610305611 -0.2949312432
C -0.3992618848 1.2379891929 0.8603475301
C -0.1052708816 2.5934453946 0.9955765806
C -0.5929076478 3.3187643330 2.0810717110
C -1.3795886276 2.7018097148 3.0480348257
C -1.6825564503 1.3485564609 2.9175400924
C -1.1990561443 0.6266315040 1.8324384277
C -1.0686905330 -0.4754152571 -0.8227892028
C -1.0173466040 -1.8730723940 -0.8141553555
C -2.0868000935 -2.6586826604 -1.2296868373
C -3.2580526298 -2.0578519998 -1.6703796931
C -3.3521807060 -0.6714462226 -1.6818150275
C -2.2765972161 0.1000103559 -1.2556448724
Cl -2.5225166909 1.8434518894 -1.2984186072
N 0.6832879125 1.1691510952 -1.4082705797
C 1.8545930572 1.9026471114 -1.3246437557
C 2.1251540951 2.3278501865 -2.5959465530
N 1.1693573567 1.8565959464 -3.4725542134
C 0.3326690544 1.1563584697 -2.7312564303
H 4.2678256111 -2.8261605104 1.1966015637
H 2.9418048486 -1.6415718920 2.9315249983
H 1.0663508728 -0.1970914155 2.2915670058
H 1.8104271415 -1.0731324712 -1.8483757849
H 3.6850528752 -2.5242066936 -1.2040545024
H 0.4745796744 3.1117838093 0.2423166587
H -0.3609686541 4.3763689640 2.1601014095
H -1.7602155719 3.2702912218 3.8906362392
H -2.3008337710 0.8517112218 3.6586345980
H -1.4488736582 -0.4260802581 1.7393091959
H -0.1179831538 -2.3613479676 -0.4611924191
H -1.9980371926 -3.7394335387 -1.2019061159
H -4.1016402569 -2.6553488350 -1.9996683449
H -4.2595024661 -0.1814709788 -2.0161571804
H 2.3886716306 2.0252552054 -0.3954855134
H 2.9526769622 2.9400484319 -2.9271827729
H -0.5286197343 0.6197072966 -3.1007465472
