46
CONF68
C -0.7060557115 -1.3397302981 2.1447977017
C -1.3662915779 -2.0092992071 0.9625447769
C -2.8682797047 -1.9855005270 0.8066185426
C -1.9744700980 -1.1813437035 -0.1640296867
C -1.9635540566 0.2923475111 -0.1556563171
O -2.1485149764 1.0278095942 0.7956483900
O -1.7109416842 0.7555614008 -1.4074654700
C -1.6324465838 2.1988457612 -1.5377695525
C -0.3433172093 2.7535368668 -0.9928275966
C 0.8544588784 2.0687561004 -1.1960431895
C 2.0437250335 2.6221172100 -0.7305977440
C 2.0623090926 3.8534277754 -0.0812492179
C 0.8626765996 4.5308316344 0.1095712126
C -0.3386344902 3.9832493563 -0.3331082775
O 3.2676518024 2.0213738843 -0.9631942136
C 3.3555168189 0.6392884435 -0.9070664372
C 2.8002383626 -0.0810645752 0.1484539162
C 2.9922474299 -1.4582920142 0.1984307632
C 3.7286372490 -2.1089100053 -0.7908966795
C 4.2808051234 -1.3714862547 -1.8357009671
C 4.0955510965 0.0074674845 -1.9005469537
C -3.7369749048 -1.3130317340 1.7721615958
C -4.9555886982 -1.7273616082 2.1199433360
Cl -5.9212472699 -0.8807932325 3.3031921842
Cl -5.7425642217 -3.1397967614 1.4653225147
C -0.6690871595 -3.2765260492 0.5169546004
H -1.1856060159 -0.4050584691 2.4314984746
H -0.7226613323 -2.0225858687 3.0009847248
H 0.3404039552 -1.1236684706 1.9056136272
H -3.2948724746 -2.8655214722 0.3359292739
H -1.8890488773 -1.6128730975 -1.1553499011
H -2.4918479943 2.6615023533 -1.0458566835
H -1.7008421735 2.3662101974 -2.6163528910
H 0.8625305281 1.1145152045 -1.7127306639
H 3.0055590976 4.2605014499 0.2670375643
H 0.8648844409 5.4865962715 0.6240591396
H -1.2739962555 4.5076768175 -0.1627204822
H 2.2350643993 0.4328106608 0.9194685736
H 2.5724070014 -2.0241957036 1.0243167871
H 3.8745403341 -3.1830013731 -0.7435218178
H 4.8570673477 -1.8689715325 -2.6095063107
H 4.5179940298 0.5972271988 -2.7073819488
H -3.3790101872 -0.4094745341 2.2518323460
H 0.3575168821 -3.0528731772 0.2067331695
H -1.1881327761 -3.7497510490 -0.3212044324
H -0.6277977518 -3.9905424586 1.3466878110
