60
CONF10
C -0.0030474936 -2.0435623491 -1.1120993257
C -0.8233386711 -1.7704755430 0.0987786688
C -1.3728910049 -0.5575932482 0.5150241961
N -2.1018692900 -0.8170149385 1.6465958913
N -2.0252130814 -2.1095331495 1.9943503474
C -1.2707882110 -2.7020647622 1.0554255974
C -1.0085657310 -4.1688507324 1.0870886684
C -2.6824799968 0.1318707218 2.5869459172
C -1.3157392008 0.7320958218 -0.1300918759
C -0.1948965129 1.3254588967 -0.6209219981
C -0.3614524725 2.4799192612 -1.4319178097
N -0.4581692321 3.4240673583 -2.0990896113
C 1.1885401331 0.8808336762 -0.3589904475
C 2.1480937468 0.9184492738 -1.3775116115
C 3.4449049527 0.4883597897 -1.1395310223
C 3.8420706716 0.0135411829 0.1187407209
C 2.8789266822 0.0030341676 1.1337601549
C 1.5767395734 0.4334790382 0.9055191032
C 5.2807564025 -0.4563197364 0.3352103998
C 5.5268144020 -0.9402654571 1.7689741947
C 5.5813811385 -1.6206177244 -0.6288345087
C 6.2452945552 0.7097572787 0.0441993582
O -2.5123141524 1.4305282271 -0.2641350682
C -3.4653154825 0.8956712529 -1.1240402704
O -3.2348124286 -0.0748271957 -1.7972988553
C -4.7370263899 1.7220613135 -1.1028106141
C -5.7734781656 1.0425490910 -2.0005716756
C -5.2653266095 1.8236260746 0.3380032906
C -4.4048906110 3.1269506837 -1.6438600446
H -0.2049928665 -3.0485864673 -1.4934745838
H -0.2166123965 -1.3213106887 -1.9050441989
H 1.0698642817 -1.9775473224 -0.8906497130
H -1.4096335104 -4.6588927277 0.1930327220
H 0.0666606039 -4.3743893348 1.1155310183
H -1.4738730425 -4.6187218263 1.9665288918
H -2.6948623412 1.1239747084 2.1384725023
H -3.7056182207 -0.1694861173 2.8250374110
H -2.0873535124 0.1569178659 3.5049850742
H 1.8709737977 1.2707396254 -2.3670949404
H 4.1577351091 0.5217729910 -1.9570838583
H 3.1379080306 -0.3336459911 2.1304349463
H 0.8598388186 0.4270798888 1.7201705017
H 4.8840967728 -1.7889024415 2.0257130081
H 5.3587463471 -0.1418720183 2.4992455911
H 6.5671578147 -1.2666813417 1.8632254814
H 5.4757837687 -1.3165321156 -1.6742433494
H 6.6091433413 -1.9688772329 -0.4792107293
H 4.9019889779 -2.4597441935 -0.4448838304
H 7.2792228085 0.3829088444 0.1999990646
H 6.0452551067 1.5528702694 0.7138929902
H 6.1533325741 1.0613065790 -0.9874138098
H -6.0062565256 0.0364475450 -1.6404560027
H -6.6923581127 1.6359198785 -1.9950283151
H -5.4142484486 0.9667874368 -3.0302313090
H -5.4469745012 0.8302323790 0.7609724873
H -4.5665622760 2.3601003530 0.9842405740
H -6.2132123303 2.3703407972 0.3254634328
H -5.3277178530 3.7141501205 -1.6823329815
H -3.9897747949 3.0697299285 -2.6550755509
H -3.6895639517 3.6427816312 -0.9987574774
