46
CONF47
C -3.1583253055 3.2042412309 -0.3481144936
C -2.4761396635 1.8846823609 -0.0322371297
C -2.7359105340 0.8420957249 -1.1213940054
O -2.4354170822 0.8911103335 -2.2910044688
N -3.3865096520 -0.1984143191 -0.4802367472
C -3.6317299482 0.0806847330 0.8708006970
O -4.1911304647 -0.6221967432 1.6697074676
O -3.1318890871 1.3024256729 1.1453668092
N -3.7424775599 -1.3977795130 -1.0611278838
C -2.6766855227 -2.2486952341 -1.4424757793
C -1.4457949851 -2.2230257696 -0.7827277686
C -0.4500228915 -3.1234858739 -1.1521415071
C -0.6687354333 -4.0544224112 -2.1642105964
C -1.9034775477 -4.0770916528 -2.8121136318
C -2.9045847493 -3.1796399085 -2.4607901371
C -0.9819219371 1.9683455872 0.2127791344
C -0.3752486994 1.2368878120 1.2358122226
C 1.0036930807 1.2611339829 1.4095032596
C 1.7879918482 2.0122131806 0.5376197634
C 1.1997963471 2.7473470504 -0.4890031410
C -0.1788413161 2.7238025210 -0.6474043283
O 3.1540476597 2.1281211876 0.6729138777
C 3.8695936934 1.0699518711 1.2191803718
C 3.7136315627 -0.2290683002 0.7417564292
C 4.5094984316 -1.2402292053 1.2715345171
C 5.4544006311 -0.9551365021 2.2568187068
C 5.6028985696 0.3523365025 2.7138216274
C 4.8070328898 1.3735536135 2.1991827666
H -4.2350284644 3.0480001672 -0.4526304467
H -2.9641759542 3.9160742150 0.4574420271
H -2.7733249248 3.6088885491 -1.2858040280
H -4.4462739330 -1.2609399530 -1.7795718677
H -1.2580181961 -1.5119447522 0.0149372341
H 0.5049612469 -3.0928057509 -0.6364376445
H 0.1119203328 -4.7528290341 -2.4463408012
H -2.0898721001 -4.7939080985 -3.6059104485
H -3.8628227724 -3.1952256412 -2.9725123063
H -0.9760225081 0.6490783857 1.9202058304
H 1.4595770981 0.7001270242 2.2176407692
H 1.8264197193 3.3298652155 -1.1558683163
H -0.6194413574 3.2911575659 -1.4593568369
H 2.9826685580 -0.4415067677 -0.0317990203
H 4.3950046523 -2.2551061965 0.9036220029
H 6.0733606428 -1.7483474268 2.6629552073
H 6.3373949413 0.5828201023 3.4791301156
H 4.9059284828 2.3968547764 2.5460827954
