35
CONF1
C -4.4041182097 0.5099622025 0.7389837917
C -3.9784059520 -0.6887767550 -0.1124155711
C -2.5235762240 -1.0778379188 0.1708191527
C -1.6167642954 0.1338546503 -0.0625313602
C -2.0177310714 1.3376899030 0.7945161420
C -3.4768471136 1.7049842478 0.5036709583
N -0.1724350227 -0.2007548945 0.0535216713
C 0.6200375239 -0.0945145655 -1.1344494959
O 0.1096091782 0.2379667600 -2.2062205226
C 2.0056398805 -0.4001105612 -0.9611160041
C 2.4818160481 -0.8035543691 0.2404884682
C 3.9347611374 -1.1539059948 0.1999240074
C 4.3739643414 -0.5322079188 -1.1484957554
C 3.0857679015 -0.4202856004 -2.0060193316
N 1.6726153768 -0.9128311920 1.3243002346
C 0.3167708976 -0.6120097666 1.2881680347
O -0.3680939712 -0.7160833487 2.3008834890
H -4.3701254628 0.2294719672 1.8011307871
H -5.4407458950 0.7854885225 0.5126528876
H -4.0885214697 -0.4335946041 -1.1757823841
H -4.6324675511 -1.5468580926 0.0796161951
H -2.4309258796 -1.4213471386 1.2055447899
H -2.2093835666 -1.8978842514 -0.4859797716
H -1.7275099327 0.4270104256 -1.1100811778
H -1.9034515055 1.0980533945 1.8558003708
H -1.3558840174 2.1819222325 0.5666708396
H -3.5695142574 2.0331938572 -0.5411504012
H -3.7752233809 2.5513718346 1.1325591684
H 4.4894518576 -0.7678103385 1.0609360715
H 4.0406113167 -2.2475027509 0.2051807180
H 4.7690167185 0.4710872688 -0.9630703393
H 5.1554638951 -1.1171168310 -1.6377153569
H 2.9636266035 -1.2860629473 -2.6704382595
H 3.0825998392 0.4734269413 -2.6370323177
H 2.0320367979 -1.2077109976 2.2217345788
