49
CONF49
C -5.1618996458 1.3481293785 1.0095250538
C -3.8031214603 1.4708886648 0.3558459083
C -3.2829012812 0.3892309751 -0.5447972081
C -2.7466522297 0.4985658662 0.8785667321
C -1.3195556526 0.8217769714 1.0247514225
O -0.6204396096 1.4323845464 0.2462251180
O -0.8433044369 0.2813023351 2.1899670663
C 0.6051191132 0.2972677839 2.3148975337
C 0.8797876285 0.2029065953 3.7467899200
N 1.1311782917 0.1191799506 4.8704601789
C 1.2046892562 -0.8600537641 1.5455556942
C 2.0247932252 -0.5954020341 0.4544393717
C 2.5167503486 -1.6642569471 -0.2946592992
C 2.1838143824 -2.9765623809 0.0296561514
C 1.3578084345 -3.2223455299 1.1223943202
C 0.8701464822 -2.1708194737 1.8919724261
O 3.2850893992 -1.4807582472 -1.4212891307
C 4.1020907535 -0.3583680961 -1.4993288880
C 5.0045411940 -0.0574028893 -0.4827789837
C 5.8512465552 1.0358420946 -0.6377313427
C 5.8022097540 1.8098576597 -1.7965672456
C 4.8993788717 1.4862601949 -2.8066117960
C 4.0393927998 0.3997222430 -2.6617799716
C -4.0478504718 -0.8378230605 -0.9244879085
C -3.1990536943 -1.9246458693 -1.6028553982
Br -4.2703775576 -3.5409687427 -1.9395432447
Br -1.7289121146 -2.4234314154 -0.3674237305
Br -2.3930857885 -1.3148868502 -3.2885422616
Br -5.5534824747 -0.3072239414 -2.1343654730
C -3.4189955165 2.8912332008 0.0105935133
H -5.9320125751 1.7614441916 0.3512413494
H -5.1672530949 1.9209395304 1.9424583433
H -5.4273395508 0.3150021811 1.2460570241
H -2.5908389810 0.7412854294 -1.3057373463
H -3.1156001728 -0.2306332418 1.5915679629
H 1.0003278895 1.2507358684 1.9471489071
H 2.2635506863 0.4265349426 0.1813351971
H 2.5728749663 -3.7884648109 -0.5753852236
H 1.1022660916 -4.2451774289 1.3794339045
H 0.2306800238 -2.3651374912 2.7474230881
H 5.0415758258 -0.6708704944 0.4117638995
H 6.5589227547 1.2771871612 0.1491739212
H 6.4672667628 2.6593198933 -1.9119006065
H 4.8565728435 2.0832218073 -3.7121478496
H 3.3262054153 0.1347699094 -3.4352243398
H -4.5466903972 -1.3025410794 -0.0717947902
H -3.4061724266 3.5078511925 0.9155346747
H -2.4386410469 2.9469675083 -0.4645177703
H -4.1641004905 3.3076273967 -0.6753084771
