20
CONF67
C 0.3153092334 -0.9004361366 -0.4007570505
O 1.1054037926 -0.3023674471 -1.4509730837
C 2.1165822607 0.4359629839 -0.8784969528
O 2.9342442454 1.0388711250 -1.5463997708
C 2.0041314178 0.3647794871 0.5634155446
O 2.8475778716 1.0078011406 1.4064049369
C 0.9353727169 -0.3979565801 0.8695423273
O 0.4608036895 -0.6951226713 2.0835248595
C -1.1710523280 -0.5372560894 -0.5456438433
O -1.8645064066 -1.1766899910 0.5446673308
C -1.4428661451 0.9517966474 -0.4341851786
O -2.8113724499 1.2475236137 -0.7079561835
H 0.4162724953 -1.9914373061 -0.4820514672
H 3.5110348430 1.4691817636 0.8700207629
H -0.4192481860 -1.1046015440 1.9675161241
H -1.5423815392 -0.9080369635 -1.5091383927
H -2.0538182761 -2.0922389577 0.2980366541
H -0.8454176013 1.4879380885 -1.1771643063
H -1.1558221507 1.3070500042 0.5670162644
H -3.3402472926 0.7952387270 -0.0373788874
