51
CONF6
C 3.2545975078 1.0670542229 1.2184458946
C 2.6798676631 0.1361596289 0.1826814260
C 1.4678406617 0.4742648341 -0.4483393625
C 0.9438438225 -0.3300831696 -1.4572138200
C 1.6115783136 -1.4848733852 -1.8519992333
C 2.7982747476 -1.8394610924 -1.2280361429
C 3.3373043411 -1.0479969854 -0.2045423206
C 4.5901701536 -1.5100872684 0.4430085007
C 4.6589757364 -1.7099207285 1.8276387377
C 5.8245931167 -2.1860522368 2.4196185020
C 6.9434738002 -2.4683380130 1.6380860979
C 6.8856693126 -2.2770100780 0.2594998040
C 5.7176263154 -1.8052575140 -0.3331406136
C 0.7667060116 1.7419417478 -0.0234362852
O -0.5496378596 1.8735854455 -0.6056448364
C -1.5331282893 1.1483441467 -0.0179912626
O -1.3612915415 0.4502060291 0.9609132261
C -2.8031502255 1.3331338303 -0.7494181466
C -4.0962849280 0.8911115356 -0.0629551522
C -3.5885538504 0.1399595910 -1.2797610805
C -3.0838085268 -1.2654325173 -1.0469333855
C -4.2595758661 0.3280213420 -2.6220500936
C -5.2544582039 1.7808108994 -0.1321517568
C -6.1865349461 1.9269599153 0.8151342331
C -6.1656535855 1.1718290755 2.1239385007
F -6.1292231882 -0.1704196209 1.9173477057
F -7.2323084383 1.4230586352 2.9005500611
F -5.0604108578 1.4783101938 2.8537693143
Cl -7.5179712940 3.0418145432 0.6037559873
H 3.2019035770 2.1072818905 0.8813903837
H 4.2984220180 0.8340035875 1.4295962318
H 2.7012278835 1.0064138699 2.1639096232
H 0.0129002408 -0.0543054160 -1.9410637616
H 1.1995898136 -2.1093403118 -2.6385180524
H 3.3134205902 -2.7515948137 -1.5138689106
H 3.7860190854 -1.5044999059 2.4401819867
H 5.8574849196 -2.3421819457 3.4936083503
H 7.8533907997 -2.8375497390 2.1007579489
H 7.7529452300 -2.4928740237 -0.3570503099
H 5.6780223627 -1.6513040724 -1.4076605967
H 1.3077182676 2.6256096343 -0.3766992535
H 0.6823914799 1.7978013615 1.0661034967
H -2.8496204272 2.2240788797 -1.3666577689
H -3.9205210320 0.3692666997 0.8712379116
H -2.6230118459 -1.3819696104 -0.0650032233
H -3.9212241006 -1.9668130616 -1.1248747567
H -2.3471737933 -1.5315843523 -1.8133388684
H -4.5422860728 1.3649789465 -2.8142600004
H -5.1586235350 -0.2951472809 -2.6813211203
H -3.5758312869 0.0132938870 -3.4171689531
H -5.3656734529 2.3813488512 -1.0300745597
