59
CONF152
C -0.8329970281 3.6552690495 -0.8151578593
C -0.3159862212 2.5183307448 0.1131913232
C 1.0203339628 2.0680338605 -0.5021844388
C 0.8990407727 2.4080886047 -2.0005179749
C 0.2180031659 3.7843283972 -1.9382905168
C 0.0189180213 1.3939762025 -2.7332328280
C 0.6364075258 0.0211169765 -2.8766647451
O -0.0478788955 -0.9790615342 -2.9865554638
N 2.0371595958 -0.0529167400 -2.8931892890
C 2.8907929671 1.0561996299 -2.7985298087
O 4.0987215924 0.9098336221 -2.8020339399
C 2.2422959152 2.4205666157 -2.7169864614
C 2.6661627137 -1.3866676008 -2.9778344059
C 3.0731366152 -1.9241129651 -1.6046408621
C 1.9025604232 -2.0815031776 -0.6372462015
C 2.3437615461 -2.6399418723 0.7248400595
N 1.4002264879 -2.4645481777 1.8335292157
C 1.3041623215 -1.0779869888 2.2891663272
C 0.4251596971 -0.9952088296 3.5353168275
N -0.8977263929 -1.5419024048 3.2362770412
C -0.8141505290 -2.9309566455 2.7840507430
C 0.0748139916 -3.0161733532 1.5446906350
C -1.9061587920 -0.7227547451 2.8007027151
N -1.7561220946 0.6080688673 2.9994527971
C -2.7715403537 1.3761985393 2.6203269918
C -3.9313571078 0.8771647231 2.0387989926
C -3.9745814576 -0.5035864257 1.8733042455
N -2.9871624692 -1.3125675885 2.2389255146
H -0.9601813153 4.5997839184 -0.2797635893
H -1.8118999049 3.3966052866 -1.2305499093
H -0.1895360242 2.8456676418 1.1480820570
H -1.0259414326 1.6861638420 0.1422106184
H 1.2410268974 1.0124813130 -0.3183313862
H 1.8505295753 2.6495991389 -0.0823153114
H -0.2118021847 4.0866314068 -2.8994229121
H 0.9725790092 4.5327933401 -1.6656751863
H -0.9489129194 1.2427847381 -2.2488041007
H 2.1166702907 2.7825188762 -3.7482381416
H 2.9639657417 3.0821219787 -2.2297762669
H 1.9366754328 -2.0482073070 -3.4492143525
H 3.5595515628 -2.8960355121 -1.7638365981
H 3.8328080669 -1.2610550586 -1.1731991481
H 1.1358144614 -2.7217302246 -1.0871225701
H 1.4274334030 -1.1057444664 -0.4850451271
H 3.2869128383 -2.1620932684 1.0237030197
H 2.5547700197 -3.7144168629 0.6259320558
H 2.3124786726 -0.7143105409 2.5240068240
H 0.8689222024 -0.3985494387 1.5279694476
H 0.3269798179 0.0362026232 3.8724020342
H 0.8664483335 -1.6002831713 4.3369258232
H -0.3723391225 -3.5213848700 3.5964151601
H -1.8144710184 -3.3051055741 2.5683261343
H 0.1895505592 -4.0656502615 1.2437454906
H -0.4374602767 -2.4839526486 0.7190534109
H -2.6468772500 2.4471411762 2.7833319670
H -4.8421229027 -0.9838266204 1.4205885283
H 3.5453654155 -1.2896791905 -3.6185920821
H -0.1910899978 1.7561215450 -3.7501497776
H -4.7458666671 1.5208925577 1.7316602990
