54
CONF363
C 2.6285889383 2.8499028340 1.8533214651
C 1.3151155282 2.2590054970 1.3203157335
C 1.0997432760 0.8747372789 1.8556629843
C 1.6111566508 -0.2628028438 1.2571069887
C 1.4305190206 -1.5192806377 1.8791554801
N 0.7674366459 -1.5878689865 3.0453755126
C 0.3054099617 -0.4399495247 3.5377256950
N 0.4229985950 0.7776209196 3.0218667194
N 1.9330763306 -2.6622790385 1.3525692149
C 1.6098630812 -3.9821974989 1.8766129703
C 0.1458588849 -4.3771360887 1.6893606152
O -0.2321493020 -4.3031692639 0.3090591166
C -0.7356710150 -3.0935169920 -0.1341644621
C -0.2228604830 -2.5670642164 -1.3258982238
C -0.7449413902 -1.3570507632 -1.8231464240
C -1.7690448652 -0.6896332391 -1.1291789956
C -2.2598139008 -1.2526862375 0.0496787325
C -1.7624879934 -2.4458147163 0.5466946772
C -2.3223535015 0.6407022142 -1.5744847074
C -1.4126587108 1.7801196951 -1.1335803814
O -1.9479542985 3.0032961261 -1.6138324833
C -1.1764665920 4.1267043145 -1.2064694985
C -1.8137975952 5.3757207671 -1.7771934675
C -0.1597985444 -0.8024159360 -3.0949325886
C 0.8817928894 -3.2789836179 -2.0565363937
Cl 2.5171256511 -0.1736694783 -0.2506097500
H 2.7646039051 3.8710994580 1.4859033905
H 3.4860783055 2.2526257213 1.5296302536
H 2.6178965487 2.8744311369 2.9465676930
H 1.3260352084 2.2508568810 0.2270986434
H 0.4731026701 2.8720490298 1.6526326255
H -0.2360766584 -0.5139504091 4.4812665154
H 2.2579475464 -2.6100935360 0.4004303891
H 1.8475276082 -4.0206676996 2.9464029795
H 2.2551337853 -4.6977510932 1.3574291142
H -0.4893355547 -3.7424597530 2.3117579952
H 0.0111752176 -5.4201631246 1.9952649819
H -3.0609840923 -0.7488480560 0.5833680313
H -2.1830803666 -2.8761438426 1.4485011236
H -3.3109912338 0.7960736638 -1.1307407932
H -2.4553489440 0.6903087034 -2.6597541114
H -1.3427232900 1.7903570767 -0.0314832420
H -0.3904777242 1.6268645297 -1.5243010475
H -0.1377876219 4.0199900707 -1.5664500125
H -1.1389889757 4.1766283903 -0.1045080420
H -1.8403985450 5.3266408168 -2.8691998493
H -2.8386317640 5.4826994190 -1.4113530402
H -1.2438400782 6.2614756151 -1.4812814519
H 0.8864096433 -0.5082434520 -2.9466233123
H -0.6989318388 0.0740489122 -3.4526085775
H -0.1681316082 -1.5520773944 -3.8933423202
H 1.2424676477 -4.1321840324 -1.4811239311
H 0.5385247736 -3.6593401475 -3.0260174204
H 1.7201373486 -2.6033670524 -2.2619452043
