44
CONF62
C -4.8093317461 -0.9653545282 0.6150476439
C -3.4859249505 -0.2950527036 0.9269337457
C -2.3900529665 -1.2583362343 1.3792274112
O -1.7603457956 -1.6224821831 0.1371614623
C -1.7465999456 -0.4406705015 -0.6377864917
O -2.9206917990 0.2799143928 -0.2844491553
C -1.7721690852 -0.8636335079 -2.1171334291
N -2.9794932591 -1.5853103126 -2.4669723341
C -3.2611903838 -2.8905826523 -2.2827131214
N -4.4952579419 -3.1571434152 -2.6949236346
C -4.9344826042 -1.9408027442 -3.1270434139
N -4.0528359832 -0.9567816316 -3.0092843557
C -0.4834488689 0.3857968773 -0.3671618611
C 0.5866300328 -0.2076367763 0.3086718664
C 1.7671686744 0.4687531945 0.5819312547
C 1.8988867986 1.7852185187 0.1501960630
C 0.8677110150 2.4112797504 -0.5425579557
C -0.3031504130 1.7074862538 -0.7901290466
Cl -1.5425191029 2.5711208393 -1.6988788039
O 3.0010661310 2.5631669263 0.4216497655
C 4.2341846644 1.9497670506 0.5834632689
C 4.7323470057 1.0648226009 -0.3686983818
C 6.0047671920 0.5301180361 -0.2034713994
C 6.7557085399 0.9015780146 0.9067318752
C 6.2681884419 1.7939812788 1.8532245335
C 4.9902068366 2.3195693188 1.6887156074
Cl 8.3678145649 0.2245828896 1.1148548470
H -4.6605505578 -1.8259876950 -0.0450610790
H -5.4892432950 -0.2599582045 0.1293382156
H -5.2751560614 -1.3111399374 1.5436450967
H -3.6207246541 0.5210292722 1.6448653219
H -1.6659514917 -0.7700949842 2.0441992365
H -2.7726399298 -2.1696649105 1.8419552626
H -1.7006516177 0.0133852170 -2.7611617142
H -0.9075019725 -1.5087176240 -2.2973906064
H -2.5489950346 -3.5895041408 -1.8651410893
H -5.9204358738 -1.7747028321 -3.5427859851
H 0.4777024110 -1.2335811289 0.6412380724
H 2.5667454576 -0.0220823555 1.1245934092
H 0.9879086815 3.4338258721 -0.8805155662
H 4.1356984555 0.7942818737 -1.2334569711
H 6.4068191353 -0.1592949054 -0.9369936696
H 6.8687438528 2.0737988588 2.7110975379
H 4.5810464326 3.0150390688 2.4134461925
