47
CONF63
C -6.3910744028 2.1076743336 -2.8159658026
C -5.6630698740 2.6173032181 -1.5734249344
C -4.4689973707 1.7432624270 -1.1894167942
C -3.7505024861 2.2528215127 0.0613321862
C -2.5740541884 1.3853451317 0.5373930029
C -2.1736799645 1.7162927943 1.9843311505
C -3.1597331704 1.1999981582 3.0312120406
C -1.3931585917 1.5737456208 -0.4018001090
O -0.3816615878 0.5908705625 -0.0531596159
C 0.7890839971 0.6689532951 -0.7303636009
O 1.0013828087 1.4985452520 -1.6023825236
C 1.7210983995 -0.3576234658 -0.2633384428
C 2.9573531131 -0.4538000390 -0.7933249792
C 3.9983940337 -1.3958966825 -0.4385851345
C 5.2344303123 -1.3305830920 -1.1116622520
C 6.2661039290 -2.1990664977 -0.8124394358
C 6.0928197927 -3.1718343697 0.1813474389
C 4.8714368214 -3.2593853776 0.8652998385
C 3.8469690843 -2.3797140092 0.5523441706
O 7.1573907275 -3.9780421284 0.4106377228
C 7.0304818317 -4.9889791412 1.4233779967
H -6.7693037597 1.0916140735 -2.6572066787
H -7.2416497886 2.7468597241 -3.0730379357
H -5.7172042571 2.0809101354 -3.6795746227
H -5.3167680816 3.6453944663 -1.7436930758
H -6.3620100939 2.6624842181 -0.7275948198
H -3.7778509513 1.6957311390 -2.0409741674
H -4.8150769919 0.7152672283 -1.0120693814
H -4.4846249584 2.3214371296 0.8725883144
H -3.3893310199 3.2776552617 -0.1106742654
H -2.8772974628 0.3284889548 0.4910229634
H -1.1868425243 1.2853592583 2.1880706083
H -2.0636959896 2.8062530722 2.0744638434
H -4.1574019156 1.6326535227 2.9078145547
H -2.8179192167 1.4453727448 4.0415689580
H -3.2566951351 0.1105953002 2.9655146297
H -1.6699963838 1.4249820111 -1.4500425242
H -0.9645506520 2.5780003202 -0.2949993780
H 1.3672021414 -1.0166512193 0.5222139319
H 3.2143875415 0.2573721708 -1.5776255684
H 5.3774566202 -0.5785747247 -1.8826148230
H 7.2159948356 -2.1428523767 -1.3337523715
H 4.7140862810 -4.0028881620 1.6366174975
H 2.9113011189 -2.4646440328 1.0953109647
H 6.8381455293 -4.5376467801 2.4030801333
H 7.9882340831 -5.5088777480 1.4389293878
H 6.2303961181 -5.6941832805 1.1726302463
