45
CONF46
O 0.9446001658 -2.3943922074 -0.6626304070
C 1.4087294444 -2.2404491047 0.6818676977
C 1.8865905243 -0.8380831296 0.9919865341
O 3.0837573452 -0.5552515274 0.2156965618
C 3.0241176898 0.7705362063 -0.3393802140
O 2.6362934426 0.7193075875 -1.6962259787
C 4.3915917608 1.4230752766 -0.1965172270
O 5.3352709175 0.8294534100 -1.0920253708
C 1.8899318900 1.4592495867 0.4333410159
O 1.3393410731 2.5974285347 -0.2042605631
C 0.9305855931 0.2906072054 0.6250796616
O -0.0300400015 0.5390330257 1.6493759613
C -1.3699132445 0.4321375618 1.2354114128
O -1.5487000102 -0.8883783440 0.7425137883
C -2.8793662941 -1.1849252695 0.3016636948
C -2.8127593560 -2.6185184629 -0.2126193824
O -1.8835525107 -2.7621339831 -1.2983759179
C -3.3901920883 -0.1779572702 -0.7320066678
O -2.7111479895 -0.2480192112 -1.9912564804
C -3.2219895597 1.2555573134 -0.2173083023
O -3.6633408211 2.1965027564 -1.1924742264
C -1.7632696480 1.4750687537 0.1775931825
O -1.5966280608 2.7838936798 0.7083384895
H 1.6417836804 -2.0865421239 -1.2587202174
H 0.5623812555 -2.4754800445 1.3336727269
H 2.2215651226 -2.9496264041 0.8926691133
H 2.1285457037 -0.7798353608 2.0641791501
H 3.4447173455 0.5923358572 -2.2184500581
H 4.7194224154 1.3532141065 0.8477919417
H 4.3112158969 2.4775104598 -0.4788399064
H 5.5414979513 -0.0542413079 -0.7590141006
H 2.2578159986 1.7885574176 1.4128883811
H 1.2367909404 2.3760310385 -1.1428896271
H 0.4449526356 0.0523402204 -0.3265074979
H -1.9667600367 0.5932047119 2.1475870118
H -3.5739070564 -1.1560380099 1.1593959163
H -2.5407979529 -3.2850510067 0.6160413094
H -3.7950604075 -2.9153716498 -0.5927549344
H -0.9834611025 -2.5812995979 -0.9647451635
H -4.4645917747 -0.3741101617 -0.8784763742
H -2.3259837746 -1.1423554456 -2.0614538116
H -3.8621041501 1.4043590385 0.6619094214
H -3.2024274739 1.9780459290 -2.0152062629
H -1.1459232852 1.3364257049 -0.7201383030
H -0.6495819187 2.9841843411 0.6424079009
