47
CONF18
C -3.7741891745 -1.2528446576 1.1822334142
C -3.5183335324 -0.6894711164 -0.2210558341
C -4.3824991871 -1.4298480538 -1.2464830173
C -2.0374777224 -0.7191566959 -0.6637797488
C -1.2851490028 -2.0440159123 -0.3554930960
C -0.1924177406 -1.6689657401 0.6488396783
C 0.2231436990 -0.2691957953 0.1914488123
C 1.1552579514 0.4816563890 1.1502288661
C 2.5020601033 -0.1846314371 1.2467260596
C 2.8063633836 -1.0526141372 2.2968857243
C 4.0324055849 -1.7065806731 2.3654984081
C 4.9690966772 -1.4850626094 1.3646075558
Cl 6.5226375311 -2.2995361861 1.4404530015
C 4.7014545198 -0.6247890589 0.3065796644
C 3.4690199748 0.0164129028 0.2585186134
C -1.1353610307 0.4219445854 -0.0692980932
O -1.5930701324 0.9155422125 1.1864944551
C -0.9721118857 1.5940620747 -1.0531202035
N -2.2503056161 2.1878947717 -1.4210836261
C -2.9512458226 2.0781896187 -2.5702238238
N -4.1333211689 2.6640500115 -2.4524008338
C -4.1115151579 3.1177611270 -1.1728553150
N -2.9925671725 2.8551806197 -0.5030768237
H -4.8045792320 -1.0378614149 1.4839178300
H -3.6579542290 -2.3416736655 1.2026122385
H -3.1021636834 -0.8172408397 1.9233676679
H -3.8412358759 0.3600664618 -0.2202379393
H -4.3142106181 -0.9663894941 -2.2365341029
H -5.4349558587 -1.4243183172 -0.9452804197
H -2.0470232145 -0.5776059750 -1.7530509379
H -1.9490406882 -2.8267756388 0.0176458720
H -0.8203733384 -2.4314561149 -1.2688954927
H 0.6426234486 -2.3749923386 0.6630934304
H -0.6035501757 -1.6066746989 1.6644285215
H 0.7309339386 -0.3748270164 -0.7804970061
H 0.6830647741 0.5321560462 2.1346236596
H 1.2854360393 1.5160515898 0.8090583798
H 2.0718920123 -1.2223892557 3.0791167545
H 4.2603086247 -2.3763306907 3.1866029385
H 5.4477601133 -0.4565665062 -0.4612483024
H 3.2605550447 0.6946537528 -0.5652684917
H -0.4996644638 1.2480039318 -1.9775552645
H -0.3493469387 2.3743330399 -0.6027712358
H -2.5609338692 1.5846088869 -3.4505444684
H -4.9291264901 3.6605269772 -0.7172049352
H -4.0687462565 -2.4767176357 -1.3375162243
H -2.3033449821 1.5565652466 1.0237144957
