55
CONF513
C -0.1655264571 -2.7526459381 -2.7991859679
C 0.7638662794 -1.9569920159 -1.9087755335
O -0.0045405916 -1.0509381672 -1.0557344339
C -0.2865604636 0.1725700170 -1.5484381647
O 0.0735475624 0.5695206243 -2.6386617235
C -1.0604140108 1.0002771681 -0.5226127882
C -2.0893369974 1.8810821055 -1.2283451330
C -2.9991633415 2.6458879537 -0.2525388753
C -3.7526697887 1.7277241989 0.6749271412
C -4.8391228775 0.9804834860 0.2067932302
C -5.5142694372 0.0980203630 1.0456200315
C -5.1113530916 -0.0543726855 2.3717125729
C -4.0314581394 0.6840902912 2.8499224837
C -3.3592970453 1.5669265175 2.0066596179
N -0.1636339015 1.8213341287 0.3021902654
C 0.7549093196 1.0883402806 1.1677361274
C 1.1947855593 1.9847765481 2.3354351475
C 2.0352597446 0.6530317711 0.4498479502
O 2.5471585922 1.4214083600 -0.3982987739
N 2.6290305066 -0.4942949297 0.8023097281
C 2.0833324595 -1.5132496149 1.7290386121
C 3.1080791976 -2.6428554124 1.6382527058
C 4.4252057714 -1.8999153538 1.4014538134
C 4.0337054603 -0.7943283862 0.4257511426
C 4.1526092080 -1.2105120001 -1.0535447942
O 3.7671216967 -0.2816813753 -1.9291045311
O 4.5915911424 -2.2806573583 -1.4191161507
H -0.7013272514 -2.0943018096 -3.4884716834
H 0.4213088847 -3.4641503557 -3.3884182157
H -0.8914732145 -3.3131183298 -2.2034361289
H 1.2983357708 -2.5990009634 -1.2037119628
H -1.5739694173 0.3042788685 0.1510313700
H -1.5691855989 2.5905539394 -1.8822279244
H -2.7014205386 1.2412975517 -1.8754769813
H -2.3978101390 3.3458295305 0.3340865862
H -3.7089641054 3.2355457160 -0.8439665601
H -5.1599066582 1.0963013195 -0.8257623042
H -6.3590104201 -0.4691147781 0.6657672324
H -5.6380292904 -0.7409638997 3.0273261448
H -3.7118354598 0.5744693845 3.8820884345
H -2.5152432997 2.1396783383 2.3819144276
H 0.3641293015 2.4617290951 -0.2877889510
H 0.3179302363 2.2736623199 2.9200043695
H 1.9029115354 1.4650834574 2.9886041694
H 1.6773343747 2.8881273955 1.9496213791
H 1.0830244461 -1.8197395449 1.4124349524
H 2.0316554456 -1.1059467938 2.7464840513
H 3.1176147252 -3.2553857973 2.5418812483
H 2.8809240710 -3.2866545734 0.7821470328
H 4.7786232427 -1.4454849978 2.3324319348
H 5.2131403314 -2.5331946589 0.9928691531
H 4.6352529683 0.1159591588 0.5482822059
H 1.4819498262 -1.3729238448 -2.4873702028
H 0.2223513217 0.2183064890 1.5629139338
H 3.3771032525 0.5035341090 -1.4289508859
