30
CONF25
C 3.1732975192 -1.4130282957 0.0822924136
C 3.1717682550 -0.1587925339 -0.7902304988
C 2.6185378573 1.0821326228 -0.0800642229
C 1.1864414667 0.9410467412 0.4468386184
C 0.1548213009 0.6238685053 -0.6366154616
C -1.2802237387 0.6117937375 -0.1189406290
C -1.5635641484 -0.4849262147 0.9351751829
C -3.0498253667 -0.8967541610 0.7457650547
C -3.5893851501 0.0093034801 -0.3800104071
C -2.3418025433 0.3529231635 -1.1957153477
H 2.1567259462 -1.7286322037 0.3383822187
H 3.6575394294 -2.2498215288 -0.4301517790
H 3.7113636462 -1.2368446885 1.0205964520
H 2.5992009480 -0.3499744401 -1.7062185541
H 4.1969261954 0.0563491271 -1.1158331576
H 3.2807231628 1.3320911834 0.7598461876
H 2.6600242039 1.9344002532 -0.7715337034
H 0.9014411118 1.8787059451 0.9426724204
H 1.1506957846 0.1673704296 1.2239402464
H 0.3683662306 -0.3572541559 -1.0837207067
H 0.2460381725 1.3613019082 -1.4471879416
H -1.4955985957 1.5929620122 0.3311489419
H -1.3565238183 -0.1355255017 1.9508189012
H -0.9025913568 -1.3423404185 0.7562463992
H -3.6314811882 -0.7978693281 1.6667127430
H -3.1138566624 -1.9466783211 0.4421732194
H -4.0101415657 0.9295701486 0.0433520941
H -4.3773976179 -0.4701929201 -0.9686234766
H -2.0410174193 -0.5104109878 -1.8064176242
H -2.4805027627 1.2052264362 -1.8690392743
