37
CONF444
C 0.1715559841 -0.8325313545 -3.2002939908
C -1.0640758578 -1.4085850556 -2.5508089933
O -1.6907008311 -0.3830142271 -1.7068143633
P -1.6744374499 -0.4812051723 -0.1289761793
O -2.1396314584 0.7445813028 0.5499123700
O -2.4480301335 -1.8413387220 0.1604794437
C -2.6505171462 -2.2523952073 1.5573936994
C -3.9771027781 -1.7426748749 2.0698836466
O -0.1447017218 -0.9136916427 0.2582269081
P 1.0283192108 0.0568535561 0.8297027144
O 1.0379505770 0.2258278100 2.2983031180
O 2.2559355615 -0.7230015746 0.1769928101
C 3.5852771452 -0.5709380055 0.7718408328
C 4.1752110133 0.7954086828 0.4986588556
O 0.9076623312 1.3903443061 -0.0370473723
C 0.4257746130 2.6369737461 0.5785371963
C -0.1082484867 3.5036969103 -0.5334137094
H -0.0782702123 0.0597405157 -3.7805561267
H 0.6049026619 -1.5771111501 -3.8758865947
H 0.9210818596 -0.5681294456 -2.4496802877
H -1.8257382893 -1.6780000715 -3.2868632642
H -0.8333061972 -2.2917472607 -1.9472453554
H -1.8125547015 -1.8929056325 2.1656654438
H -2.6151725871 -3.3439530654 1.5286238646
H -3.9930572520 -0.6501559826 2.0824453638
H -4.7972795767 -2.1052451950 1.4442929976
H -4.1317214174 -2.1064769932 3.0908895344
H 4.1733642586 -1.3616949248 0.3013106481
H 3.5084118971 -0.7720855361 1.8451055614
H 4.1867595276 1.0073212768 -0.5740179438
H 3.6113027740 1.5821433992 1.0086946661
H 5.2042071371 0.8209222397 0.8712594209
H -0.3510951686 2.3959134181 1.3068689542
H 1.2771244264 3.0973797839 1.0901825703
H -0.9544356625 3.0139982938 -1.0224547202
H -0.4513472424 4.4546327345 -0.1142813085
H 0.6665839911 3.7111427901 -1.2769299980
