43
CONF15
C 4.4007269668 -2.3736868175 1.2805630905
O 3.7381685163 -1.7563298305 0.1686694670
C 2.9471650934 -0.6720465714 0.4146745135
C 2.3177785375 -0.1327985944 -0.7090571071
C 1.4916117247 0.9591088141 -0.4881000223
C 1.2833552880 1.5237546293 0.7954743945
C 1.9322889736 0.9750643455 1.8991972139
C 2.7594695828 -0.1238740286 1.7027451413
N 0.4061346325 2.6003113450 0.7092075789
C 0.0975237219 2.6535532650 -0.5615898013
N 0.7222826677 1.7194985246 -1.3410025379
S -1.0461872128 3.8378721083 -1.3034670222
O -0.7151732233 3.8083350678 -2.7925785924
C -2.6364169856 2.8177977548 -1.0503703470
C -2.4096903461 1.3584668952 -1.2386911097
N -2.2533589467 0.9576623989 -2.5105622242
C -1.9253233901 -0.3175793495 -2.7352586480
C -1.7226506695 -1.2622826955 -1.7330486359
C -1.3317148384 -2.6751871591 -2.0391431268
C -1.9293026166 -0.8311105958 -0.4178378586
O -1.8194717554 -1.7603668027 0.5882691964
C -0.5848522634 -1.6708832678 1.3342299030
C -2.2972272293 0.4892528542 -0.1351935507
C -2.6018744979 0.9214760101 1.2714018439
H 3.6760813277 -2.7488547265 2.0123928695
H 4.9612205918 -3.2088331620 0.8597151866
H 5.0917850098 -1.6749587018 1.7660311846
H 2.4686603085 -0.5675620216 -1.6908011349
H 1.7896496208 1.3876319553 2.8926358442
H 3.2599829052 -0.5601296864 2.5577042080
H 0.6005663385 1.6092203028 -2.3381378720
H -2.9775651883 3.0961534002 -0.0518627269
H -3.2979393600 3.2476977420 -1.8082645969
H -1.8090922476 -0.6122711955 -3.7781295063
H -1.1894597176 -2.8088043676 -3.1139630235
H -2.0995851277 -3.3774470416 -1.6984396008
H -0.4020464972 -2.9446915086 -1.5274591895
H -0.4880903799 -0.6944454232 1.8199980860
H -0.6256527162 -2.4584373712 2.0882167999
H 0.2730824964 -1.8299254035 0.6709034607
H -3.5293381470 1.5000228193 1.3066290772
H -2.7225921088 0.0514589451 1.9183605199
H -1.8029301299 1.5481677535 1.6816659423
