39
CONF16
N 2.8783795625 -0.4470578667 -0.2391246368
C 2.4877858651 -1.4814184198 0.5528820126
N 3.0423547822 -2.6789072274 0.3127991984
C 2.6869617307 -3.6893939406 1.1250244700
N 3.2171031183 -4.9205244717 0.8387216055
N 1.8266674499 -3.6210823089 2.1574423263
C 1.2924095689 -2.4062169027 2.3674308841
C 1.5703223946 -1.2820524574 1.6164578906
C 0.9469019781 0.0553348099 1.8973506959
C 0.0517536252 0.5665900136 0.7799847776
C -0.8379613768 -0.3057633897 0.1529242573
C -1.6743410107 0.1670556285 -0.8608011180
O -2.5763618010 -0.5967329780 -1.5354413272
C -2.6707910159 -1.9801993500 -1.1679294279
C 0.1202597032 1.9054675121 0.3958250419
C -0.7178853796 2.3813728963 -0.6190933410
O -0.7323332368 3.6658998801 -1.0678630709
C 0.1737927745 4.5903142895 -0.4497511973
C -1.6127167081 1.5120193161 -1.2571671318
O -2.3973424486 1.9657114065 -2.2916715510
C -3.6765980285 2.4644398221 -1.8472010220
H 3.3841503075 -0.6782876348 -1.0809675088
H 2.2978806842 0.3768227240 -0.2825017376
H 4.0499416479 -4.9313547881 0.2706615537
H 3.1829016078 -5.6038341069 1.5793260692
H 0.5924681106 -2.3269408661 3.2002683951
H 1.7242529560 0.8049712520 2.0941797325
H 0.3567502479 -0.0281359042 2.8186446713
H -0.8653858455 -1.3443934448 0.4594196831
H -3.4382647984 -2.4036050990 -1.8162854802
H -1.7188344448 -2.4969757596 -1.3358206049
H -2.9713800517 -2.0885863792 -0.1194687817
H 0.8219654217 2.5658050542 0.8917351923
H 0.0037247651 5.5446305960 -0.9487198839
H 1.2141525404 4.2777788089 -0.5956606141
H -0.0367253842 4.6909765923 0.6211637922
H -3.5411242915 3.3084349515 -1.1608050178
H -4.2468093804 1.6706480091 -1.3507823968
H -4.2080272431 2.7971898176 -2.7409255984
