59
CONF79
C 5.0192029878 1.9612885053 -3.0890227588
C 4.9778610894 1.3295270584 -1.6987967224
C 3.7943406303 1.8190833598 -0.8645770428
C 3.7491090995 1.1816817136 0.5246188277
C 2.6628519610 1.7528733837 1.4404532865
C 1.2295083835 1.6186639542 0.9088040314
O 0.3177563578 2.2518655249 1.8362002002
C 0.8566028063 0.1963288984 0.6063043986
C -0.0388396942 -0.5399687221 1.2639190657
C -0.3625020025 -1.9688395851 0.9524415577
C 0.0295344801 -2.9102701748 2.1343789530
O 0.5935231939 -4.1520489087 1.6496921289
C -1.2950130509 -3.2597847635 2.8023487624
C -2.2573976462 -3.4189620423 1.6235135931
O -2.0931980137 -4.6846522194 0.9646859706
C -1.8921993027 -2.2102846876 0.7320592418
C -2.3102719717 -2.3708725745 -0.7340351617
C -2.1088011205 -1.1191499152 -1.5303755998
C -3.0703079353 -0.4533524084 -2.1744194228
C -2.8547472015 0.8203995116 -2.9331288430
C -3.7312893747 1.9815278438 -2.4246447924
C -3.6962242615 2.1642854886 -0.9079877867
C -2.3173511065 2.3917482125 -0.3451783073
O -2.2346229091 2.0536388278 0.9489155160
O -1.3781047909 2.8542553159 -0.9715618093
H 4.1070232454 1.7297653945 -3.6502761214
H 5.8729527828 1.5976293954 -3.6696271774
H 5.0994578451 3.0518392675 -3.0188825076
H 5.9109457976 1.5505045794 -1.1637610946
H 4.9245646175 0.2364337144 -1.7904208378
H 3.8479119011 2.9123999119 -0.7609179876
H 2.8654317093 1.6052377060 -1.4107230559
H 4.7183921253 1.3342567832 1.0162301840
H 3.6239796555 0.0957029003 0.4262179026
H 2.8532711230 2.8195509475 1.6139175712
H 2.7042622834 1.2466659145 2.4149607165
H 1.1239640931 2.2092813822 -0.0089754641
H 0.4421678857 1.8507898645 2.7087049687
H 1.3883820534 -0.2458285056 -0.2363647458
H -0.5906245592 -0.1077926855 2.1000817907
H 0.2056184957 -2.2767179849 0.0655350880
H 0.7442921218 -2.4300163586 2.8146645223
H 1.3702066245 -3.9380214703 1.1158698643
H -1.6161225107 -2.4121082794 3.4188761195
H -1.2294015084 -4.1481911920 3.4373835703
H -3.3092714525 -3.3802211281 1.9244960319
H -1.1358581578 -4.8201926341 0.8707612177
H -2.4310878902 -1.3478334592 1.1492249210
H -3.3641958686 -2.6730374882 -0.7799576603
H -1.7218694861 -3.1906762446 -1.1678850932
H -1.0915940023 -0.7243143581 -1.5638310721
H -4.0940697139 -0.8341992067 -2.1376174544
H -3.0862807396 0.6677893524 -3.9961910494
H -1.7978253802 1.1004474299 -2.8713104966
H -4.7741900984 1.8035607272 -2.7114027166
H -3.4172280010 2.9063450101 -2.9199453754
H -4.2972752407 3.0381163185 -0.6209631432
H -4.1398678535 1.3057281907 -0.3950234365
H -1.2954819177 2.1781247142 1.2658852435
