48
CONF11
C 2.7714242254 -1.7610351493 -4.3115553531
C 3.2611725327 -1.8505003093 -2.8688836185
C 2.9517457800 -0.5983763942 -2.0490523859
C 1.4460922469 -0.3191760303 -1.9962876256
O 0.9066531758 0.4346186585 -2.8009654361
N 0.7778512169 -0.9993135410 -1.0271820633
C -0.5929991319 -0.7419565174 -0.7231469460
C -0.9462884446 -0.0629114039 0.6458898852
N -1.7051966051 -1.2715648880 0.9928535334
C -1.4610498051 -1.9156144100 -0.2135373766
O -1.8285319653 -2.9811692215 -0.6489200399
C -2.9544326067 -1.1055394471 1.6981700665
C -3.6097216565 0.2008797554 1.1116774132
S -2.1512090569 1.3249469985 0.7344482278
C -4.3548704260 -0.1496978409 -0.1761970454
C -4.5361578201 0.9177334369 2.0883891520
C -2.6994197925 -1.0105890785 3.1942826503
O -1.6945837039 -0.5556383945 3.6918380196
O -3.7440952844 -1.4842428741 3.8940298247
O 3.4915990152 -0.8365986328 -0.7392247437
C 3.4502557012 0.1862215774 0.1793307699
C 3.8670638472 -0.1560948451 1.4688199484
C 3.8559134676 0.8014386702 2.4739970080
C 3.4270820902 2.1028599381 2.2087756007
C 3.0148248977 2.4332288840 0.9226856265
C 3.0220996997 1.4849076183 -0.1014534943
H 1.6806294147 -1.7015643242 -4.3651940960
H 3.1830224721 -0.8797313929 -4.8138682014
H 3.0883132431 -2.6477334163 -4.8668653446
H 2.8154772543 -2.7154008563 -2.3638005613
H 4.3483276626 -1.9834522509 -2.8464224166
H 1.3233067589 -1.5433970050 -0.3710914129
H -0.0869998505 0.1449257403 1.2892491830
H -3.6098716627 -1.9577601451 1.4937283932
H -4.7150767133 0.7629825927 -0.6577099477
H -5.2164631110 -0.7852916080 0.0589152379
H -3.7172434403 -0.6792355540 -0.8895140851
H -4.9380233777 1.8211150566 1.6212441201
H -5.3781063106 0.2656266703 2.3420468742
H -4.0201789872 1.2070234206 3.0076885232
H -3.5605079851 -1.3636701000 4.8424483171
H 4.1929615865 -1.1727693518 1.6639187571
H 4.1805208362 0.5271677975 3.4730430403
H 3.4149007839 2.8479074071 2.9971164292
H 2.6784712891 3.4412698204 0.7003274265
H -1.0704946271 -0.2384297859 -1.5686365420
H 3.4258282667 0.2773963560 -2.5096579532
H 2.6941887047 1.7737538427 -1.0927914298
