53
CONF4
C 1.0978990348 1.6547328719 -1.7036054594
C 1.5041579671 2.6204719642 -0.5986020592
N 2.6573458830 2.1008021127 0.1407131683
C 2.3340972381 0.7808835440 0.6921146736
C 1.9345472764 -0.1747692470 -0.4202678947
N 0.7737669450 0.3547667137 -1.1290226442
C 0.2142080961 -0.5884507059 -2.0906300516
C -1.2329285767 -0.2424866180 -2.4614338349
C -2.0526678347 0.1411066227 -1.2247982821
N -1.9249860253 -0.8530747723 -0.1584376651
C -1.5296386015 -0.4503823280 1.1297768810
C -1.8281744515 0.8239208871 1.6256112497
C -1.3726631167 1.2270904922 2.8762146083
C -0.6545148604 0.3515047974 3.6825106565
C -0.4065643372 -0.9408611952 3.2309357605
C -0.8241196253 -1.3319667666 1.9627835884
S -0.3833132031 -2.9418367837 1.3490058115
C -1.7968658749 -3.2364954017 0.3155831360
C -2.3750324875 -2.1587887211 -0.3781365656
C -3.4036162032 -2.4282117793 -1.2895494531
C -3.8137279103 -3.7386092043 -1.4977803110
C -3.2625332689 -4.8043537515 -0.8019505533
C -2.2593259552 -4.5327819425 0.1238361488
Cl -5.0837760741 -4.0421173061 -2.6709679624
C 3.1054984524 3.0291006667 1.1832160371
C 3.8871352834 4.1858918689 0.5688771488
O 4.9413668752 3.7016915555 -0.2523724292
H 1.9168107517 1.5828097893 -2.4491434878
H 0.2186611208 2.0608794037 -2.2182812849
H 0.6395396347 2.7750472272 0.0790891973
H 1.7632520436 3.5873570469 -1.0435890187
H 1.5047244149 0.8383120203 1.4249705489
H 3.2199215012 0.3913765006 1.2072717079
H 1.6667459391 -1.1434866302 0.0173331841
H 2.7981900230 -0.3286592579 -1.0992153030
H 0.2228938093 -1.5769563741 -1.6161445748
H 0.8235656197 -0.6678269366 -3.0125100149
H -1.6717243533 -1.1001025501 -2.9828641929
H -1.2774306408 0.5997138735 -3.1624351026
H -3.1024739603 0.3312484934 -1.4916254593
H -1.6434291032 1.0709431152 -0.8312662734
H -2.4224719910 1.5082643463 1.0314789494
H -1.6012919669 2.2284597873 3.2260046213
H -0.3047855189 0.6602869747 4.6613438744
H 0.1313745839 -1.6492135096 3.8531096068
H -3.8863242288 -1.6273238969 -1.8334840526
H -3.6039124534 -5.8170958932 -0.9751606236
H -1.8083729559 -5.3461962140 0.6829985507
H 2.2631425258 3.4128525441 1.7921529514
H 3.7770679010 2.4783483320 1.8528038568
H 3.2188709776 4.8509604339 -0.0030653543
H 4.3352818504 4.7870520241 1.3679121427
H 4.5766009105 2.9113591831 -0.6813084582
