28
CONF30
O -3.3383207282 1.7227123741 -1.0170955411
C -2.2467153845 0.9667419841 -1.5539211252
C -2.0010941293 -0.1502495723 -0.5597800161
O -0.8609340459 -0.9183052512 -0.9946110615
C -0.1092477630 -1.3433620744 0.1312082554
C -0.8649815578 -0.8739705225 1.3739222514
C -1.6482438019 0.3252961776 0.8539728613
O -2.7689597968 0.5842550455 1.6733412966
N 1.2622609506 -0.7549893757 0.0502813197
C 1.5808954962 0.2883579789 -0.7751060714
C 2.8156160336 0.8358743402 -0.8243361868
C 3.8778038929 0.3217255628 0.0104863949
O 5.0273378183 0.7241075287 0.0644347390
N 3.4628651467 -0.7632768396 0.8154297265
C 2.2109452193 -1.3379157689 0.8948389902
O 1.9390637011 -2.2675379256 1.6366835340
H -3.5607073857 2.4280491743 -1.6325011617
H -2.4879520583 0.5547310158 -2.5435888317
H -1.3409941368 1.5874613742 -1.6392920772
H -2.8886033465 -0.7988503648 -0.5004237469
H 0.0269866129 -2.4275647918 0.1002742251
H -0.2011610918 -0.6546951180 2.2102473683
H -1.5761757329 -1.6452928419 1.6871790002
H -0.9937196373 1.2127748882 0.7827292086
H -3.2877604291 1.2685290188 1.2304151804
H 0.7680182343 0.6286653768 -1.4042849721
H 3.0399147079 1.6553417126 -1.4922039185
H 4.1638637994 -1.1686125131 1.4217003640
