59
CONF197
C 8.4182563621 -1.7779321350 0.3237215397
C 7.5599854516 -2.8954306789 0.9222265211
C 6.1829643075 -2.2320122514 1.0662605099
C 6.0733645918 -1.2242514585 -0.1250841565
C 7.4935702355 -1.1984388721 -0.7510481722
C 5.6565791960 0.1639729742 0.3584688366
C 4.2687524281 0.2007231774 0.9408284543
O 3.9404282147 1.0027047249 1.8031800018
N 3.3394991709 -0.7144120760 0.4337866952
C 3.6078193625 -1.6028516010 -0.6126448368
O 2.7149214061 -2.2984792692 -1.0755080501
C 5.0195673378 -1.6602211662 -1.1383632772
C 1.9648465393 -0.6688457899 0.9651139560
C 1.0830311262 0.3034871920 0.1867409783
C -0.3312192316 0.3483196790 0.7641498817
C -1.2376627755 1.2501420380 -0.0690330822
N -2.5561167469 1.4854445036 0.5346604923
C -3.2740657231 2.5124038609 -0.2328364915
C -4.6397893977 2.7977022613 0.3843560485
N -5.4259602626 1.5656332117 0.4484201775
C -4.7249259885 0.5260289570 1.2011406113
C -3.3575720881 0.2551572010 0.5797147907
C -6.3577395182 1.2576735546 -0.5030864704
N -6.8426011410 -0.0086224077 -0.5178430528
C -7.7929478024 -0.2681610155 -1.4132405083
C -8.2809006211 0.6805951908 -2.3044973594
C -7.7083082083 1.9440214278 -2.2122677963
N -6.7562124903 2.2520946895 -1.3341626874
H 9.3730355591 -2.1277965275 -0.0803289424
H 8.6321851255 -1.0219861924 1.0902076867
H 7.5037224613 -3.7314344589 0.2137698532
H 7.9420314475 -3.2846196575 1.8706980286
H 6.1360027561 -1.6864689963 2.0164101826
H 5.3629305198 -2.9577538917 1.0686694506
H 7.7761579794 -0.1934472846 -1.0802779020
H 7.5131444923 -1.8517563608 -1.6322858980
H 6.3368133818 0.5567364516 1.1193185327
H 5.6642677275 0.8708849172 -0.4842772702
H 5.0582940084 -1.0121996240 -2.0265551005
H 5.1871996279 -2.6852052003 -1.4832345451
H 2.0313939461 -0.3700811152 2.0132279208
H 1.5588013892 -1.6810660301 0.9090424812
H 1.5324786159 1.3036067956 0.2176300684
H 1.0476707860 -0.0080504939 -0.8643461540
H -0.3013940676 0.7199665316 1.7965814450
H -0.7294486702 -0.6727470577 0.7992782238
H -1.3383514084 0.8254772067 -1.0887692732
H -0.7522113942 2.2287636283 -0.1799200288
H -2.6780975707 3.4327797572 -0.2322450610
H -3.4170160704 2.2023056818 -1.2884458251
H -5.1724783738 3.5484321830 -0.1974900522
H -4.5094594775 3.1677048634 1.4093863214
H -4.5941938212 0.8852218997 2.2300301300
H -5.3211571611 -0.3848592209 1.2197539688
H -2.8427074226 -0.4936223572 1.1893471743
H -3.4984824791 -0.1700519563 -0.4354743339
H -8.1797371114 -1.2869575872 -1.4192852374
H -9.0521857813 0.4487096849 -3.0280235314
H -8.0253613593 2.7475963315 -2.8766128619
