44
CONF11
C -1.5860036008 -1.4541676720 -2.8583132847
C -1.9859365469 -0.1940352194 -2.1072286199
N -2.0661703975 -0.4228147308 -0.6361461697
C -3.2707699535 -0.7649884705 -0.1518586303
C -3.5380845944 -1.0094007658 1.1732177094
C -2.4869777980 -0.9026635146 2.1410770445
O -2.6745303737 -1.1006702964 3.3736954399
C -1.1758255417 -0.5579475490 1.6174057639
C -0.1052829323 -0.4449408535 2.5127980521
C 1.1374832806 -0.1086957658 2.0575390199
C 1.4304486219 0.0889815549 0.6889654786
C 0.3402533488 -0.0552458183 -0.1850198062
C -0.9717353291 -0.3311781470 0.2299077136
F 0.6374435718 0.0341584185 -1.5005066531
N 2.6853059612 0.3585675183 0.1871550540
C 2.9084511788 1.5772265553 -0.6077712090
C 4.0237690865 1.3316736278 -1.6103322696
N 5.2343344752 0.9189210678 -0.8890183179
C 5.0037783631 -0.3343554463 -0.1540158828
C 3.8958732735 -0.0992057457 0.8747204918
C 6.2850822967 -0.7764437228 0.5378157127
F 2.1260345010 0.0779596365 2.9597845131
C -4.9242208509 -1.3642934938 1.5590081458
O -5.8425204488 -1.4626970313 0.7599219359
O -5.1095068237 -1.5739038241 2.8654363394
H -2.3306613776 -2.2413689214 -2.7064242595
H -1.5340593895 -1.2306129815 -3.9277232667
H -0.6107689438 -1.8262906353 -2.5369203878
H -2.9846755734 0.1270508542 -2.4104790104
H -1.3095220607 0.6370234772 -2.2951853424
H -4.0721696270 -0.8352986196 -0.8798848100
H -0.2833283852 -0.5833075246 3.5727552701
H 3.1951304465 2.3999141371 0.0684930300
H 1.9904174695 1.8632560302 -1.1221291470
H 4.2277619731 2.2597099403 -2.1555997780
H 3.6832323980 0.5708168126 -2.3366314310
H 5.9838516026 0.7687505361 -1.5577870712
H 4.6592607939 -1.1377431841 -0.8341234234
H 3.6836331741 -1.0393522323 1.3898205804
H 6.6194580621 -0.0148815566 1.2500699389
H 7.0818616097 -0.9358001130 -0.1958478024
H 6.1268824858 -1.7155055208 1.0768590502
H -4.2091132513 -1.4322373007 3.3172831284
H 4.2477477520 0.6400616594 1.6121419843
