27
CONF227
C -4.6896427492 0.2493930859 0.2059696230
C -3.4650700455 -0.0605703697 -0.6531290468
C -2.0911658237 0.0923329815 0.0704421491
C -0.8561816274 0.2174650282 -0.8882438593
C 0.5127260321 -0.0786666708 -0.1753034291
C 1.7509930361 0.4806636829 -0.9510631374
C 3.1563555009 -0.1056118347 -0.5558853958
C 3.5805300130 -0.0248912295 0.9432491044
F 2.8481292680 -0.8631851491 1.6876488024
F 4.8681371209 -0.3766478192 1.0444959355
F 3.4325777242 1.2210323284 1.4108613855
F 4.0641138241 0.6045517776 -1.2677439993
F 3.2223911864 -1.3980358381 -0.9389788830
F 1.8018268018 1.8197773310 -0.7862259211
F 1.5939674197 0.2065129345 -2.2693098814
F 0.6461423798 -1.4170363358 -0.0434785108
F 0.5028652068 0.4906055920 1.0543986691
F -0.9984497773 -0.6592872110 -1.9078423604
F -0.8212616620 1.4739068875 -1.3895902482
F -2.1372440065 1.2088669797 0.8409876921
F -1.9018927980 -0.9815020452 0.8794386945
F -3.4692020337 0.7934055172 -1.7257651756
F -3.5408594882 -1.3341435514 -1.1372095682
O -4.8253394988 -0.6512039968 1.2878082650
H -5.5481629584 0.1190857882 -0.4626222736
H -4.6461128603 1.2969701934 0.5216190484
H -4.3805113055 -0.2821169434 2.0611817789
