22
CONF433
C 2.1208091940 -1.2004168901 0.0362643651
C 1.1394499415 -0.1450462479 -0.4554787393
C -0.0600782664 0.0082874478 0.4780077683
C -1.0185395531 1.1308276066 0.0351437846
C -2.0164162341 1.5119857718 1.1199003836
O -2.8992531899 0.4565390695 1.5119322037
O -1.7523320062 0.7536835509 -1.1360095143
O -0.7672711285 -1.2332548444 0.6428270075
O 0.6434610695 -0.4894830020 -1.7641860261
O 3.2362246049 -1.3061763071 -0.8620918169
H 1.6127653761 -2.1651427350 0.1446188312
H 2.5132060490 -0.8967253841 1.0138202301
H 1.6568948761 0.8259959346 -0.4997845627
H 0.3324092696 0.2667997658 1.4694565710
H -0.4077673860 2.0291293487 -0.1574029299
H -1.4455113294 1.8892201710 1.9829767511
H -2.6466653672 2.3273763896 0.7486859417
H -2.3670054387 -0.3537796297 1.5475094927
H -1.0949038402 0.4760485917 -1.7946346855
H -1.2184165830 -1.4082401531 -0.1969678687
H 1.3929308130 -0.4659237938 -2.3736943802
H 3.0460099331 -2.0117044545 -1.4908927963
