60
CONF11
C -6.6907383263 4.2484170142 -2.7802913573
C -6.1528971352 4.0686943861 -1.3622780169
C -5.5649531265 2.6767729130 -1.1400457965
C -5.0213745761 2.5089336007 0.2906388520
C -4.4386657329 1.1711525626 0.5227755013
C -3.1599366157 0.7287870505 0.7684489124
C -3.2301863435 -0.7192343367 0.8157605834
C -2.3382558289 -1.7655423179 1.0754850229
C -2.8267743180 -3.0676594542 1.0695939765
C -4.1792599835 -3.3433877554 0.8213435171
C -5.0896970704 -2.3171712214 0.5782709298
C -4.5763899954 -1.0338750169 0.5884315826
O -5.3038442037 0.1177359815 0.3934738197
C -1.9988151604 1.6041120927 0.9757573949
O -2.1027435511 2.6964704535 1.5353236155
C -0.6733750691 1.1374101607 0.4854882076
C 0.4833723349 1.6455877437 1.0812893497
C 1.7296401307 1.2539662485 0.6245533520
C 1.8736226349 0.3170557772 -0.4160130485
C 0.6922686404 -0.0942733859 -1.0604812156
C -0.5594894112 0.2870591837 -0.6192977154
I 0.8324232848 -1.3627578654 -2.7463993098
O 3.0646756379 -0.0770752822 -0.9193551957
C 3.9492743700 -0.9024865600 -0.1036234099
C 3.3689408350 -2.2717073419 0.1974807880
N 2.1722096119 -2.2156423996 1.0331470049
C 2.4879443293 -1.9020697403 2.4323259946
C 1.2506712546 -1.6093728595 3.2725624169
C 1.3254744011 -3.4069526183 0.8693103357
C 1.9106767631 -4.7311957341 1.3718358799
I 3.4192169759 2.2253938490 1.4631844028
H -7.4806355433 3.5197776905 -2.9931616740
H -7.1082681167 5.2498112646 -2.9234969687
H -5.8955855941 4.1054698056 -3.5202102845
H -6.9572441112 4.2392004473 -0.6347969386
H -5.3821594932 4.8231181727 -1.1579870476
H -4.7503683705 2.4998778803 -1.8542066494
H -6.3318833159 1.9176090214 -1.3339566212
H -4.2517413643 3.2558069009 0.4961543818
H -5.8358778115 2.6695338052 1.0101041169
H -1.2906187737 -1.5689281780 1.2734487504
H -2.1457188957 -3.8903503696 1.2637812736
H -4.5257383006 -4.3714966459 0.8239471956
H -6.1412672400 -2.5079126627 0.3951974011
H 0.3868976721 2.3578503265 1.8925219413
H -1.4483060988 -0.0637531596 -1.1300536560
H 4.8452626532 -1.0079784239 -0.7195423824
H 4.2234992656 -0.3641142579 0.8067647504
H 4.1896210249 -2.8613025639 0.6544722768
H 3.1111777283 -2.7585821131 -0.7499254468
H 3.0835601028 -2.7050851003 2.9063050267
H 3.1218583327 -1.0086696405 2.4395050287
H 0.6337736634 -2.4990969581 3.4293375013
H 1.5545884667 -1.2395793304 4.2564516176
H 0.6353727856 -0.8412284966 2.7912449757
H 1.0933956120 -3.4909465872 -0.1993650342
H 0.3728127235 -3.2201597283 1.3759871665
H 2.8608413731 -4.9638508132 0.8801831236
H 1.2122178827 -5.5456481510 1.1541421695
H 2.0778378918 -4.7163976125 2.4532143959
