50
CONF196
C -1.3898487968 -0.1378865708 -2.1190449691
C -1.9307278427 -1.5385603148 -1.9543922772
C -1.1260667835 -2.7397745579 -2.4058848628
C -1.3456347015 -2.4786533116 -0.9037898848
C -0.2591212145 -2.0389159001 -0.0172263624
O 0.7703917041 -1.4703249266 -0.3115685410
O -0.5826126422 -2.3473931664 1.2789164690
C 0.3541023533 -1.8402953346 2.2640861198
C 0.0803267822 -2.6007796369 3.4832469134
N -0.1132098983 -3.1745276649 4.4662611723
C 0.1736063844 -0.3538703001 2.4933166255
C 1.2744845285 0.4889891646 2.3914291272
C 1.1006920680 1.8571625859 2.5807073039
C -0.1562094477 2.3861346656 2.8676739668
C -1.2471447659 1.5266540039 2.9612020086
C -1.0928089231 0.1564734982 2.7798909553
O 2.2389309488 2.6324060652 2.5284064289
C 2.1462960295 3.9294712060 2.0408299675
C 2.8137893262 4.9227206234 2.7475273800
C 2.8147102350 6.2234013676 2.2491085670
C 2.1493635957 6.5243043378 1.0628784743
C 1.4867245563 5.5141092391 0.3668140416
C 1.4840243117 4.2083309307 0.8477765579
C 0.1922359089 -2.5871242090 -3.0216355634
C 0.6782069639 -3.3519149881 -4.0045178128
C -0.0716409875 -4.5173678044 -4.6085667842
F 0.5994915723 -5.1330410433 -5.5948661420
F -1.2643302880 -4.1196962144 -5.1260302689
F -0.3551130192 -5.4595475366 -3.6706597485
Cl 2.2622924220 -3.0426205522 -4.6797253602
C -3.4291073490 -1.6358704682 -2.1390972742
H -1.6034430587 0.2117845463 -3.1344947309
H -1.8980466573 0.5315954613 -1.4169002785
H -0.3173191910 -0.0592259974 -1.9435718845
H -1.7271969223 -3.5714321892 -2.7553835219
H -2.0572513416 -3.1448019743 -0.4286080003
H 1.3807659615 -2.0541129742 1.9453893911
H 2.2595337473 0.1011867622 2.1535502643
H -0.2790548882 3.4531235461 3.0177851913
H -2.2265041403 1.9344038489 3.1894528584
H -1.9471403053 -0.5084537715 2.8557170698
H 3.3236476703 4.6703257884 3.6713302420
H 3.3345012453 7.0036360450 2.7961487651
H 2.1491806168 7.5394838900 0.6801506558
H 0.9744664587 5.7392190675 -0.5633690198
H 0.9788090444 3.4149898610 0.3064117248
H 0.8249696646 -1.7856654789 -2.6593615621
H -3.9403116018 -1.0038008757 -1.4051737457
H -3.7016015736 -1.2861796857 -3.1405948184
H -3.7840978393 -2.6630686363 -2.0215448442
