38
CONF5
C -1.7261022557 3.5858373925 -0.3255972530
N -0.6987328283 2.5734714966 -0.5547394033
C -0.6331756256 1.4388045778 0.1609725379
C 0.3802960717 0.4997456251 0.2354277857
C -0.0300233405 -0.4716861198 1.2137548089
O 0.5509667539 -1.4420394868 1.6708727099
C -1.4644220033 -0.0607137185 1.6363043477
O -1.7060661441 1.1881401710 0.9379202362
C -2.4827208407 -1.1037825686 1.2833895759
C -3.2981364915 -0.9900237394 0.1587078378
C -4.1870220020 -2.0115561864 -0.1626201359
C -4.2605055340 -3.1530704746 0.6286612097
C -3.4395454673 -3.2707790125 1.7471274679
C -2.5554390345 -2.2508247245 2.0767854547
C 1.6449062859 0.5085949768 -0.4879433370
C 2.8100309620 0.0411417887 0.1405540750
C 4.0212463030 0.0566887949 -0.5372753411
C 4.1105128513 0.5248717021 -1.8485139866
C 2.9581998377 0.9687089102 -2.4828927797
C 1.7378889803 0.9532739555 -1.8163293580
C 5.2611279752 -0.4741186293 0.1256148301
F 5.1633869727 -0.4897585571 1.4720087932
F 5.5319533579 -1.7452044911 -0.2678932842
F 6.3535564520 0.2675100123 -0.1893827006
H -1.6498479770 4.3375950740 -1.1131154032
H -2.7165039035 3.1290831948 -0.3744841420
H -1.6162825636 4.0751679068 0.6501840504
H 0.1720806838 2.8666990949 -0.9703469737
H -1.4793393230 0.1630368429 2.7087987852
H -3.2429325880 -0.1018793140 -0.4608030080
H -4.8233789895 -1.9133850179 -1.0364053544
H -4.9541479428 -3.9481437392 0.3753413671
H -3.4880713561 -4.1603319737 2.3668033753
H -1.9057211063 -2.3474815606 2.9406780506
H 2.7523305485 -0.3326185835 1.1549087074
H 5.0655089734 0.5341279906 -2.3614914346
H 3.0064162433 1.3132721058 -3.5107483857
H 0.8377073644 1.2416263840 -2.3516447257
