51
CONF23
C 3.0140179295 -2.7419471876 0.6121536629
C 3.1223808692 -1.8617751126 1.8667735573
C 2.6682926048 -0.4570975891 1.5789757822
N 3.4819092357 0.5534970694 1.5407756690
O 4.8209568093 0.2587662568 1.7859836055
C 5.5863863871 1.4863921355 1.7590539410
C 7.0264286210 1.1053024896 2.0130976239
C 1.2811773106 -0.1582683064 1.1745986982
C 0.9822255899 1.0083737308 0.4776213242
C -0.3672158279 1.3147147528 -0.0837284223
C -1.1319711410 0.0225524054 -0.3725918180
C -1.1870921784 -0.8050046724 0.9121179167
C 0.1749545755 -1.0397835291 1.5457776698
O 0.2815121232 -1.9420631758 2.3815675172
C -2.4812499087 0.1596611426 -1.0576725222
C -3.5052740106 1.0218149661 -0.6085985140
C -4.7216292851 1.0617116597 -1.2977710895
C -4.9738076525 0.2716387728 -2.4156351403
C -3.9634850825 -0.5878885885 -2.8386684335
C -2.7336680822 -0.6608810140 -2.1813021073
C -1.7115771880 -1.6396391395 -2.7089997187
C -6.3055428640 0.3169697129 -3.1137567650
C -3.3764632061 1.9407631705 0.5834872975
O 1.8717023056 1.9592980829 0.2639976770
H 3.6272698423 -2.3399180944 -0.2002933599
H 3.3624912466 -3.7537643594 0.8374173179
H 1.9799637475 -2.8076981359 0.2622690729
H 2.4963286440 -2.2775708306 2.6567370488
H 4.1545424391 -1.8375666940 2.2156517715
H 5.4622131188 1.9635988267 0.7783421072
H 5.2055222530 2.1632728298 2.5341034077
H 7.1358544159 0.6220123369 2.9881657258
H 7.3936934466 0.4265647969 1.2380328069
H 7.6448279324 2.0072376306 2.0035871408
H -0.8819120579 1.9488812228 0.6455974565
H -0.2312955822 1.9166740220 -0.9884069976
H -0.4845681754 -0.5320650252 -1.0572587320
H -1.6278836546 -1.7905817711 0.7295687048
H -1.8143102450 -0.3183822765 1.6701174162
H -5.4986759820 1.7344733804 -0.9410006396
H -4.1346791605 -1.2241662845 -3.7038416447
H -1.3913488947 -2.3508300499 -1.9397485699
H -2.1355391335 -2.2112003938 -3.5375459448
H -0.8123674019 -1.1337752158 -3.0788260593
H -6.7181161362 1.3300126959 -3.1143922634
H -6.2224174275 -0.0274390250 -4.1480482431
H -7.0311779655 -0.3304076303 -2.6067887529
H -2.8221574238 2.8511229619 0.3278340133
H -2.8721340002 1.4754422356 1.4322111354
H -4.3692299039 2.2515324533 0.9181077246
H 2.7321362402 1.6574318952 0.7435000389
