35
CONF168
C -4.1134626374 -1.5614000039 2.0461227630
C -2.6137075139 -1.4868480387 1.9046230270
O -2.2337403083 -1.8084004152 0.5092664282
P -1.7263419804 -0.6904128548 -0.4912305788
S -1.2460727078 -1.3807522697 -2.2353741657
O -2.8409517462 0.4381725241 -0.3698189508
C -2.7421361493 1.6849721248 -1.1477188096
C -3.9768395709 2.4951334281 -0.8455456939
O -0.4887466170 0.0942531149 0.2838103650
C 0.7696656982 -0.4113284233 0.2665985942
N 1.0917012475 -1.6115157487 0.8024251113
C 2.4026186927 -1.6362735187 0.5968139937
N 2.8355536732 -0.5190174709 -0.0164059114
N 1.7650107006 0.2930465266 -0.2427128413
C 4.1914217114 -0.1186982344 -0.4386010941
C 4.6219488952 1.1313670146 0.3205382567
C 4.2284041333 0.0613033833 -1.9520631452
Cl 3.4291679259 -2.9288533843 1.0580268068
H -4.3781756750 -1.3840689695 3.0934633204
H -4.4817263475 -2.5502447497 1.7599388276
H -4.6036213043 -0.8027095910 1.4307036324
H -2.1047374915 -2.2423957065 2.5068201518
H -2.2229580140 -0.5000226976 2.1678157317
H -1.8279235917 2.2038422580 -0.8431278405
H -2.6755917808 1.4177018206 -2.2069232043
H -3.9319156067 3.4316113682 -1.4093866564
H -4.0352313127 2.7341150098 0.2197279257
H -4.8791838570 1.9539730748 -1.1425003009
H 4.8326824430 -0.9580035300 -0.1547702994
H 3.9886951576 1.9818190691 0.0530692247
H 4.5686638617 0.9714447224 1.4008821371
H 5.6544736455 1.3701468978 0.0524872675
H 3.5978262254 0.9012228658 -2.2563984475
H 3.8885453725 -0.8440149939 -2.4624195111
H 5.2566840243 0.2708351068 -2.2581361139
