41
CONF87
C -5.0336224478 0.7712143059 -0.5913671957
C -4.4822874020 -0.5582792799 -0.0776833566
N -3.4892634821 -0.3911507846 0.9844850544
C -3.9852611238 -0.4189325417 2.3532209622
C -3.8777351037 -1.7978224903 3.0088945906
O -4.7013286005 -2.7719172185 2.3675488835
C -2.1662436011 -0.1732986168 0.7112006673
C -1.1986611468 -0.0818236621 1.7429502567
C 0.1288650870 0.1413365473 1.4472346648
C 0.5721694233 0.2818562864 0.1238869077
C -0.3799140699 0.1908328336 -0.9102970940
C -1.7063639636 -0.0286718999 -0.6277342286
N 1.9317735266 0.5010586810 -0.0471130526
N 2.3185951287 0.6292380508 -1.2477734183
C 3.7005786929 0.8474971601 -1.3857410141
C 4.1539725670 1.0142271801 -2.7027138847
C 5.4946707539 1.2349094559 -2.9655362303
C 6.3830224067 1.2860676683 -1.8961124453
C 5.9588923810 1.1215001823 -0.5769461684
C 4.6194012284 0.9025550050 -0.3217779007
N 7.8085099819 1.5191757799 -2.1633461848
O 8.5707542992 1.5554759284 -1.2016038541
O 8.1541135167 1.6610333463 -3.3328305437
H -4.2375601864 1.4007602098 -0.9982356753
H -5.5207809956 1.3271575922 0.2158431283
H -5.7735326821 0.5962209764 -1.3785723509
H -4.0450760291 -1.1450022843 -0.8915990654
H -5.2876183994 -1.1747672519 0.3301970173
H -5.0375225076 -0.1074859062 2.3378112297
H -3.4564045832 0.3237808433 2.9634895434
H -2.8526955423 -2.1708151814 2.9212921201
H -4.1177430204 -1.7108105138 4.0799558288
H -5.6095222317 -2.6408647788 2.6607852937
H -1.4815553530 -0.2029345314 2.7802287400
H 0.8647280742 0.2052764813 2.2424569320
H -0.0515873439 0.3036273597 -1.9369406542
H -2.4072493992 -0.0748774219 -1.4511471647
H 3.4275460595 0.9660907803 -3.5066280601
H 5.8631640929 1.3666422770 -3.9748264187
H 6.6871139104 1.1679186944 0.2232154820
H 4.2616590746 0.7711592205 0.6918281563
