65
CONF16
C 7.9680513757 -3.1346577934 3.3703024958
O 6.9101204351 -2.3314452260 3.8794722116
C 5.8129700089 -2.1582521035 3.0838946116
C 4.7934256117 -1.3677200409 3.6217029448
C 3.6411089317 -1.1315149818 2.8904767804
C 3.4674419247 -1.6672122419 1.6088547923
C 4.4956137187 -2.4519032378 1.0897844825
C 5.6636162200 -2.7035731959 1.8080440664
C 2.1888969452 -1.4584103180 0.8487841242
C 1.2196175427 -2.6475589183 1.0477804678
N -0.0629358939 -2.5691159899 0.3567693752
C 0.0520295498 -2.5743501665 -1.0973360367
C -1.3223856848 -2.7735583271 -1.7349782711
C -2.3221997142 -1.7114691823 -1.2731248304
C -2.3292116557 -1.6358479725 0.2607284002
C -0.9161175511 -1.4730733158 0.8149393526
N -1.9842792083 -0.4199042757 -1.8947013404
C -2.9281696678 0.5728004928 -1.8788119711
N -4.2044562844 0.4270818187 -1.5935275402
C -4.7504994853 1.6883773923 -1.7733964804
C -6.0615565620 2.1238829879 -1.6027427831
C -6.3428415072 3.4695050431 -1.8274250126
C -5.3443213720 4.3705713608 -2.2140386812
C -4.0239960352 3.9549878435 -2.3929886656
C -3.7556388225 2.6128085989 -2.1720757789
N -2.5866164813 1.8653873313 -2.2536282837
C -1.2495697301 2.3343417300 -2.5476033563
C -0.3346478143 2.2873561077 -1.3397288126
C -0.8255202808 2.6047821933 -0.0714324641
C 0.0066217349 2.5703741906 1.0408199799
C 1.3349761158 2.2174210301 0.8621792099
C 1.8572713207 1.8942899035 -0.3781976820
C 1.0062405617 1.9267662722 -1.4793717146
F 2.1447114279 2.1688149052 1.9426031538
H 8.7322390252 -3.1507238205 4.1486044401
H 8.3925674195 -2.7043882670 2.4533331120
H 7.6312349148 -4.1606398793 3.1702564853
H 4.9289702239 -0.9453505198 4.6115855638
H 2.8596802749 -0.5078471443 3.3166410522
H 4.3906531002 -2.8792256999 0.0953014768
H 6.4394885881 -3.3143638151 1.3630961112
H 1.7073532329 -0.5362026321 1.1885259855
H 2.4041328079 -1.3375308836 -0.2195596352
H 1.0223121866 -2.7574145125 2.1225768918
H 1.7248963995 -3.5684197344 0.7258869314
H 0.7196307827 -3.3928866249 -1.3940827969
H 0.5143832480 -1.6395393126 -1.4867457792
H -1.2398076309 -2.7587378012 -2.8270489785
H -1.7030090505 -3.7556657878 -1.4338569234
H -3.3254106492 -1.9637587730 -1.6277349577
H -2.9677617796 -0.8060525365 0.5806990684
H -2.7603855868 -2.5637988867 0.6541103705
H -0.5149223045 -0.4789075237 0.5202749182
H -0.9416249900 -1.4855768070 1.9112970558
H -1.0462566959 -0.0963159193 -1.6933003620
H -7.3584181371 3.8296371652 -1.6991706343
H -5.5977112386 5.4123690191 -2.3789729204
H -3.2557931002 4.6611693939 -2.6926026988
H -0.8203205236 1.7395546702 -3.3652116975
H -1.3356333724 3.3619751061 -2.9181258171
H -0.3592636706 2.8085619132 2.0331297440
H 2.8987391582 1.6061825678 -0.4659082565
H 1.3962166828 1.6665901147 -2.4600058066
H -1.8722707638 2.8684721303 0.0488900355
H -6.8342851069 1.4253597986 -1.3003460932
