48
CONF30
C -2.6494600175 2.1164341987 0.6351224814
C -3.7098938976 1.2650224663 -0.0765552201
C -3.7976079497 1.6923343066 -1.5487216953
C -5.0676807367 1.5068526962 0.6013063297
C -3.3910003256 -0.2452656520 0.0495612955
C -1.9432836400 -0.6085147869 -0.3795133271
N -1.8429964324 -2.0072320083 -0.7874370945
C -1.5626374763 -2.5173611651 -2.0043185593
N -1.6660109070 -3.8392367428 -1.9805397720
C -2.0330083115 -4.0882402107 -0.6907498758
N -2.1608202178 -3.0099711408 0.0707403228
O -1.1268572689 -0.3792233751 0.7505655097
C 0.2304159399 -0.2109594781 0.5953024110
C 0.9162589861 -0.2818841225 -0.6159534881
C 2.2936980915 -0.0771010203 -0.6299990983
C 3.0113962169 0.1945804584 0.5392248248
C 2.2951926114 0.2569844369 1.7449148009
C 0.9249315777 0.0563991396 1.7770827376
C 4.4728175623 0.4077664373 0.5063744674
C 5.0820032452 1.3470389609 1.3515219160
C 6.4581725802 1.5481303444 1.3188766559
C 7.2551291370 0.8171243887 0.4398875324
C 6.6623411176 -0.1186453331 -0.4056928421
C 5.2867120448 -0.3225936507 -0.3722447573
O -4.3340105368 -0.9572225144 -0.7461468715
H -2.5211036479 1.8088001312 1.6778970517
H -2.9713767065 3.1629939370 0.6229847978
H -1.6750394669 2.0638161627 0.1390473806
H -2.8466416473 1.5581040077 -2.0753509458
H -4.5708545893 1.1339227466 -2.0819991443
H -4.0491718212 2.7568983999 -1.5978955405
H -5.3333303974 2.5667701955 0.5318653005
H -5.8580040752 0.9219704045 0.1233457803
H -5.0251926984 1.2342099348 1.6617647682
H -3.4809257758 -0.5347693250 1.1068984766
H -1.6270563357 -0.0159782771 -1.2449413506
H -1.2935927716 -1.9000092281 -2.8521389909
H -2.2077297192 -5.0835273985 -0.3015039758
H 0.4120113893 -0.4830270736 -1.5523202320
H 2.8115211143 -0.1125068784 -1.5833982583
H 2.8204780215 0.4442380554 2.6762062523
H 0.3765516217 0.0973617344 2.7126669621
H 4.4696168509 1.9409355677 2.0232210077
H 6.9084419334 2.2859083731 1.9761787015
H 8.3287200788 0.9752289990 0.4143214963
H 7.2749013024 -0.7001029427 -1.0881474842
H 4.8400936516 -1.0721011623 -1.0185314855
H -4.3861157197 -1.8622556928 -0.4127796482
