28
CONF10
C -3.5579604880 -2.0094533260 -0.4113243027
C -3.5430065850 -1.2722439568 -1.5943146902
C -2.7341841440 -0.1443850517 -1.7043771690
C -1.9355453155 0.2657641642 -0.6342271487
C -1.9543006179 -0.4763501424 0.5469476358
C -2.7596443278 -1.6083685847 0.6574143507
C -1.1010683552 1.5256139692 -0.7748254561
N 0.0533828518 1.5890560559 0.1042822051
C 1.1430779495 0.8091549662 -0.0493304898
C 2.1950621238 0.8022270939 0.8900623462
C 3.2778257956 -0.0346363033 0.6082281171
N 4.1421897991 0.1419043787 1.6601156584
C 3.5592041525 1.0516517155 2.5055947199
N 2.3860452908 1.4762173702 2.0819718996
N 3.4146105967 -0.8283081651 -0.4649052196
C 2.3581631615 -0.7327735602 -1.2773812304
N 1.2538790841 0.0180173860 -1.1371420857
H -4.1834434395 -2.8925400112 -0.3253718078
H -4.1559977100 -1.5807020600 -2.4359210335
H -2.7180306004 0.4216539913 -2.6326188466
H -1.3312750314 -0.1737965174 1.3836271820
H -2.7615247542 -2.1785397844 1.5816554033
H -1.7217115005 2.3995576368 -0.5476278363
H -0.7748583090 1.6246171222 -1.8154260787
H -0.0258931739 2.1007923681 0.9692652094
H 5.0361651069 -0.3096954593 1.7906963530
H 4.0475979926 1.3638163632 3.4201057973
H 2.3912399395 -1.3482508439 -2.1762721867
