47
CONF6
C 4.2234305784 0.9900274228 -3.0248607527
C 3.6500052070 0.3638277231 -1.8175536795
C 2.4612772953 0.5030591129 -1.1391798944
C 2.5771502450 -0.4173787044 -0.0533243986
N 3.7286286704 -1.0473701055 -0.0677096160
O 4.4065904363 -0.5558684360 -1.1961097452
C 1.6426345487 -0.7307118677 1.0465601736
C 1.5698085302 0.0743258037 2.1906876181
C 0.7604025014 -0.2459069727 3.2706970088
C -0.0091275940 -1.4019856572 3.2116632116
C 0.0147986004 -2.2205519579 2.0891461267
C 0.8347609953 -1.8744141960 1.0229647349
Cl 0.8441365875 -2.8934614331 -0.4012006679
Cl 2.5392323007 1.5312296753 2.2590819257
C 1.3961290601 1.4420676760 -1.5261673907
O 1.5874260918 2.3114191128 -2.3810463248
N 0.2058474925 1.2978359470 -0.8812796049
C -0.9126641000 2.1394444760 -1.1667807658
C -2.0399837198 2.2011680637 -0.0870652913
N -3.0037162136 1.7901747026 -1.1239935680
C -2.0217412938 1.5323738481 -2.0759009183
O -2.0657689448 0.9944592015 -3.1556163933
C -4.0694212277 0.8925493714 -0.7235039891
C -3.4464726927 -0.1026696600 0.3252703079
S -2.1234070086 0.9037390263 1.2138612456
C -2.7983780120 -1.2751406818 -0.4101797001
C -4.4456198161 -0.6104794940 1.3595528149
C -5.2871400968 1.6296318850 -0.1886645017
O -4.9593116916 2.7422640782 0.4849779358
O -6.4215897652 1.2330323372 -0.3394052030
H 4.4953864581 2.0292362844 -2.8146043440
H 5.1124269381 0.4424638460 -3.3429064903
H 3.4833976732 1.0033757501 -3.8278543342
H 0.7333012685 0.3983834433 4.1413326277
H -0.6451534085 -1.6642212728 4.0503115158
H -0.5927461164 -3.1163520876 2.0395241180
H -2.2190220998 3.1826786134 0.3536430418
H -2.0650652174 -0.9435082745 -1.1501467686
H -3.5713777746 -1.8614768558 -0.9197481281
H -2.2857079170 -1.9218262344 0.3062581130
H -5.2366251747 -1.1760321741 0.8560849952
H -3.9414814054 -1.2834883120 2.0587997021
H -4.8984361155 0.2037996207 1.9310800952
H -0.5710584594 3.1223552278 -1.5014137571
H 0.0452686134 0.5139990046 -0.2586881938
H -5.7746618527 3.1544544446 0.8213876286
H -4.4044223598 0.3211214680 -1.5942116628
