52
CONF107
C -2.7878320626 -1.9856375589 0.7882059100
C -2.1558584900 -0.6213260166 1.0669098674
C -2.5819724934 -0.0902175435 2.4346229766
C -2.5412813359 0.3905984200 -0.0420633199
C -1.9141984358 1.7594245970 0.1487778948
C -0.5301432599 1.9212897148 0.2594367702
C 0.0292666607 3.1764416575 0.4620821572
C -0.8056831125 4.2847259785 0.5511236496
C -2.1832159416 4.1559636675 0.4380479902
C -2.7256017193 2.8909990527 0.2357461035
Cl -0.1046342587 5.8709221793 0.8086275094
C -2.2125261614 -0.1318567667 -1.4300081795
O -2.9542813350 -0.1701166980 -2.3769094178
O -0.9126998786 -0.5495863388 -1.4757228839
C -0.4320591280 -1.0633305244 -2.7351349340
C -0.9250977569 -2.4342783258 -2.9147597613
N -1.2834872039 -3.5245649161 -3.0443222490
C 1.0805924563 -1.0267012235 -2.6814248758
C 1.7116043308 -1.2808529989 -1.4670662966
C 3.0988580111 -1.2256917988 -1.3969391653
C 3.8595392209 -0.9655747404 -2.5362470807
C 3.2140838821 -0.7402000875 -3.7443474232
C 1.8225876396 -0.7548425880 -3.8256804822
O 3.7835811311 -1.4524708858 -0.2253637150
C 3.0716015182 -1.3099191582 0.9602239997
C 2.5955937840 -0.0585707789 1.3402110839
C 1.9015218010 0.0666610060 2.5385002337
C 1.6969906952 -1.0471533846 3.3509770688
C 2.1950189091 -2.2876749682 2.9639571606
C 2.8834002808 -2.4273653598 1.7608576231
H -2.5185918574 -2.6987985319 1.5728353445
H -2.4611873085 -2.4072091863 -0.1681410453
H -3.8809628779 -1.9074073889 0.7658100320
H -1.0638318277 -0.7304835103 1.0620725737
H -3.6694219893 0.0443720849 2.4774774611
H -2.1113358932 0.8710496939 2.6603284829
H -2.3015575307 -0.8000826364 3.2187313404
H -3.6302957263 0.5087403890 -0.0392720865
H 0.1253008524 1.0604586757 0.1845832818
H 1.1033568885 3.2984375169 0.5455070118
H -2.8213680739 5.0291014104 0.5071837882
H -3.8029093201 2.7862001095 0.1479353023
H -0.8162025925 -0.4489208648 -3.5577112699
H 1.1276897900 -1.5032652821 -0.5829534251
H 4.9403984662 -0.9364971963 -2.4562066025
H 3.8022506345 -0.5298845035 -4.6313165037
H 1.3252805221 -0.5545699195 -4.7691568398
H 2.7702017209 0.7967291623 0.6950271606
H 1.5226941267 1.0383621663 2.8398168593
H 1.1561247641 -0.9446897421 4.2855917083
H 2.0425081986 -3.1564895333 3.5958607882
H 3.2681914658 -3.3869840408 1.4336780425
