40
CONF31
C 3.7336012148 0.8944512883 -1.9128345556
C 2.5382516367 0.1321315464 -1.3920846804
O 2.3688045570 0.3954404005 0.0378424148
P 1.3126964550 1.4416691875 0.6007947393
S 0.4825897028 2.7074912250 -0.6063502397
O 2.1701739095 2.0204920974 1.8169208921
C 1.6013501978 3.0410449360 2.6959979319
C 2.7055113015 3.5045714095 3.6148828331
O 0.2462455622 0.5350653147 1.4951371931
C -0.6713445710 -0.2895828968 0.9131958597
C -1.7361268395 -0.7253666540 1.6965356499
C -2.6367491499 -1.5785071807 1.0753996525
N -2.4815024825 -1.9506657125 -0.2123377723
C -1.4247481752 -1.4729686823 -0.8646773173
N -0.4942740207 -0.6493065362 -0.3439689738
C -1.2410177295 -1.8168336398 -2.3237856522
C -1.9639112420 -3.0933764470 -2.7420346679
C -1.6942640839 -0.6139228615 -3.1701318741
C -3.8296339121 -2.1279017679 1.7919476915
H 3.5652064304 1.9723117234 -1.8358495297
H 3.8906933849 0.6430467345 -2.9668285259
H 4.6369858496 0.6338125021 -1.3546758797
H 2.6780071974 -0.9497971388 -1.4557819989
H 1.6178606370 0.4011437866 -1.9167899241
H 1.2175588939 3.8584289884 2.0761438224
H 0.7716093731 2.5921741846 3.2531262082
H 3.0900709174 2.6735434265 4.2120509872
H 2.3128848553 4.2681701777 4.2929576637
H 3.5281390048 3.9388635391 3.0407645278
H -1.8443397914 -0.4091341014 2.7265688302
H -0.1610639288 -1.9428704317 -2.4735340821
H -1.6644776846 -3.9437148495 -2.1225762874
H -1.7277955716 -3.3240289072 -3.7854675456
H -3.0470408216 -2.9770756473 -2.6507225625
H -1.1558811642 0.2948757565 -2.8853892714
H -1.5114071843 -0.8116406008 -4.2309122404
H -2.7669890907 -0.4391299297 -3.0332063169
H -3.7908728258 -3.2218596821 1.7892644001
H -3.8808056188 -1.7724847947 2.8226478018
H -4.7439963997 -1.8385597420 1.2644657970
