26
CONF5
C -3.5440655496 -1.8154289164 -0.1323473587
O -3.1526036352 -0.4519431668 -0.4710348783
P -1.8453322185 0.1995753706 0.1629110858
S -1.5007164457 -0.0765727811 2.0499600505
O -1.9314348838 1.6976450063 -0.3751990593
C -2.7257388677 2.6892999140 0.3423539558
O -0.6992191084 -0.3980132709 -0.8458947125
C 0.6373294544 -0.3342021758 -0.5349014386
C 1.3116286635 0.8836484542 -0.5458076055
C 2.6696635112 0.9285867146 -0.2764746339
C 3.3319292036 -0.2634605206 -0.0057402741
C 2.6865140760 -1.4944682668 0.0055913799
C 1.3271819923 -1.5209540853 -0.2582775825
Cl 0.4714019856 -3.0356158642 -0.2442778940
N 4.7727154140 -0.2301011798 0.2783453395
O 5.3275569107 0.8643515828 0.2959407599
O 5.3450821339 -1.2961824916 0.4830511747
H -3.6778852733 -1.9067871131 0.9480165055
H -2.7867396349 -2.5183820794 -0.4878799901
H -4.4883609932 -1.9818593094 -0.6490177765
H -2.5884781924 3.6202715533 -0.2059385638
H -3.7788091733 2.3973429881 0.3385910604
H -2.3568428772 2.7903344378 1.3657229231
H 0.7606331928 1.7897057709 -0.7711093107
H 3.2054902674 1.8686498657 -0.2817042197
H 3.2290998575 -2.4054400507 0.2218021456
