35
CONF37
C -4.3676817864 0.3575156430 1.8292619268
C -4.5309083761 0.2279438315 0.3217995642
C -5.8994738827 -0.3732315928 -0.0212644607
O -6.9164678057 0.1122967972 0.3975774131
O -5.8916763148 -1.4548668488 -0.8210462763
O -3.5245790329 -0.6221314086 -0.2521412161
C -2.2689241038 -0.1203304594 -0.5024050792
C -1.3572865691 -1.0391419329 -1.0285671151
C -0.0676403319 -0.6418252843 -1.3354366321
C 0.3108589822 0.6756612434 -1.1060342727
C -0.5819905700 1.5925147534 -0.5850519455
C -1.8843645249 1.1993834417 -0.2786704158
O 1.5770714256 1.1296860821 -1.4856237005
C 2.6676274238 0.6647793696 -0.8182611169
N 2.5074041608 -0.0918311461 0.2537220147
C 3.6090738465 -0.5141385980 0.8844125866
C 4.8909544956 -0.1907261530 0.4643144924
C 5.0388668163 0.6130084858 -0.6722715254
C 3.9130889466 1.0547561840 -1.3316409597
C 6.1034441325 -0.7048535739 1.1718228545
F 6.7293749175 -1.6760381639 0.4558015905
F 7.0205084421 0.2756138111 1.3676322459
F 5.8091149272 -1.2313712682 2.3801256801
H -5.1750685303 0.9746011243 2.2281763133
H -4.4171593122 -0.6306954478 2.2945373160
H -3.4064626344 0.8128479570 2.0782652435
H -4.5108407308 1.2114998098 -0.1680080545
H -4.9639059230 -1.6638148569 -1.0272855645
H -1.6772841278 -2.0621843164 -1.1932551543
H 0.6461503287 -1.3478699901 -1.7440998831
H -0.2616629352 2.6144616712 -0.4161360096
H -2.5673629263 1.9304146813 0.1346249471
H 3.4533827026 -1.1319773468 1.7648705759
H 6.0279435570 0.8856749521 -1.0254829591
H 3.9658753135 1.6804633709 -2.2142625242
