43
CONF26
C 3.6375972822 -3.1909970599 -2.3337235406
O 4.2672389326 -2.7266831054 -1.1468111667
C 3.7784452202 -1.5830634782 -0.5813248661
C 2.7030248739 -0.8610832685 -1.0936063840
C 2.3390997831 0.2781017107 -0.3763543459
C 3.0029084194 0.7042589265 0.7980283015
C 4.0817979591 -0.0406458483 1.2817627272
C 4.4557560889 -1.1750638419 0.5893587253
N 2.4225737872 1.8641081933 1.2912446109
C 1.4509037970 2.1015749365 0.4561675613
N 1.3495574230 1.2120688513 -0.5812035674
S 0.2421879601 3.4367356045 0.5418926669
O -0.5262038088 3.3091566342 -0.7684183130
C -0.8238996597 2.6273643344 1.9007013661
C -1.3534860875 1.3205998061 1.4240781131
N -0.5919253758 0.2586984833 1.7199698878
C -0.9510136899 -0.9292138387 1.2397308696
C -2.0549797671 -1.1377139288 0.4148270228
C -2.4115507007 -2.4946807555 -0.1120886894
C -2.8348999584 -0.0152775468 0.1226147822
O -3.9537173133 -0.1867367252 -0.6630242202
C -3.7540722868 0.2260021600 -2.0232903635
C -2.5218819192 1.2440709992 0.6443845341
C -3.4211320829 2.4267525064 0.4165946028
H 2.5803808608 -3.4318636260 -2.1570812535
H 3.7140507924 -2.4513050442 -3.1421338077
H 4.1714113254 -4.0976622283 -2.6216179105
H 2.1734203871 -1.1570060404 -1.9897499812
H 4.6040819518 0.2674616475 2.1805358645
H 5.2838982736 -1.7877098158 0.9276017971
H 0.6291559530 1.2546544617 -1.2868412950
H -0.1451235040 2.5054495567 2.7487111061
H -1.5881530715 3.3790967595 2.1111602319
H -0.3165089335 -1.7720838991 1.5146353680
H -3.4172766950 -2.7856184162 0.2060877117
H -1.7007402803 -3.2432967393 0.2459085201
H -2.4099527623 -2.5157856442 -1.2068507486
H -3.4477558692 1.2777330874 -2.0805774664
H -2.9895153555 -0.3955046084 -2.5080698186
H -4.7105548051 0.0915246253 -2.5318261604
H -3.6451008805 2.9244090235 1.3658313425
H -2.9487001242 3.1607953190 -0.2424428615
H -4.3693474362 2.1083784353 -0.0190636556
