39
CONF413
C 9.2358967361 1.0906987934 -0.3567681750
C 8.1801300632 0.8831322489 0.7262514840
C 6.7945922721 0.5868851584 0.1513755202
C 5.7488712900 0.3643982747 1.2452946049
C 4.3177857226 0.0740993348 0.7585021013
C 4.2097395394 -1.1418281469 -0.1720382605
C 4.7397109580 -2.4346885720 0.4432912731
C 3.7329065467 1.3186216699 0.0983278950
O 2.3139232709 1.1444907025 -0.1910212408
C 1.4747823510 1.3906619228 0.8342496867
O 1.8078643416 1.7609189747 1.9335425423
C 0.0540865034 1.2027539059 0.3952637652
C -0.3251220020 1.7739531117 -0.8153398580
C -1.6450546225 1.7378403070 -1.2341424305
C -2.6178819380 1.1040710694 -0.4553846794
C -2.2366490630 0.4956213187 0.7542042034
C -0.9018657708 0.5491519326 1.1796059298
Br -0.3639877263 -0.3328040166 2.7687731748
Br -3.5325043768 -0.3995562091 1.8032368172
Br -4.4147727545 1.0629292230 -1.0359581379
Br -2.0596090578 2.5733730398 -2.8878963827
H 9.3315654275 0.1996950718 -0.9866233182
H 8.9698244184 1.9299829425 -1.0084571217
H 10.2184241654 1.3018285009 0.0756137982
H 8.4800597368 0.0554512074 1.3825353566
H 8.1228786048 1.7742191839 1.3648989390
H 6.4971830793 1.4188546073 -0.5017521473
H 6.8601177438 -0.2995269116 -0.4929612154
H 5.7195247033 1.2454227276 1.9008495998
H 6.0741265816 -0.4669348412 1.8823454092
H 3.7125042155 -0.1239147237 1.6541699078
H 4.7389748702 -0.9315439672 -1.1109962557
H 3.1560098427 -1.2755750090 -0.4421026196
H 5.8194381612 -2.3912265798 0.6169141899
H 4.2552929222 -2.6386941287 1.4046915180
H 4.5464561398 -3.2870109643 -0.2145208324
H 4.1788717281 1.5033812217 -0.8824631424
H 3.8554109699 2.1989936365 0.7363040697
H 0.4211425543 2.2636680176 -1.4272970203
