51
CONF45
C 0.3146282369 -0.4983713306 2.1417558396
C -0.5044401925 0.6327969062 1.5900029546
C -1.7073360388 0.4075485902 1.0348721878
C -2.5969801417 1.4376316585 0.4682649140
C -2.8628124797 1.5202710945 -1.0758453038
C -3.9551159081 1.1356916043 -0.0904614620
C -4.5182238770 -0.2673160486 -0.0581386633
C -5.0142331913 2.2025122151 0.1053914600
C -2.1284531085 0.5773373486 -1.9246911530
O -1.9972323046 -0.6215076001 -1.7629894973
O -1.5156297739 1.2506948038 -2.9454534777
C -0.5042711351 0.4961300524 -3.6590229060
C 0.7242600176 0.3669186868 -2.8190030867
C 1.7323192572 -0.6491887360 -2.9036659206
C 2.6455715554 -0.3808612652 -1.9292360448
O 2.2647976015 0.7404949253 -1.2381975444
C 1.0943729299 1.1847902977 -1.7976919024
C 3.8842408410 -1.0595674892 -1.4644248470
C 3.7439099501 -1.6004603010 -0.0546299919
C 3.0177985170 -2.7715368622 0.1803238615
C 2.8657458367 -3.2637752135 1.4732625839
C 3.4343264585 -2.5866084002 2.5513455773
C 4.1547886900 -1.4164432693 2.3264235169
C 4.3081321166 -0.9270083809 1.0300508982
C 0.1450203026 1.9816614830 1.6983154399
H 1.2618208103 -0.5867855519 1.5928003795
H -0.2120146189 -1.4543317172 2.0775625358
H 0.5823513411 -0.3140592204 3.1902679400
H -2.0569974544 -0.6203596029 0.9966525417
H -2.4898605389 2.4321879373 0.8923089628
H -2.9055795005 2.5303763123 -1.4691419817
H -4.9720788642 -0.4521310033 0.9220415900
H -5.3036446089 -0.3645637659 -0.8156114459
H -3.7683951940 -1.0324789477 -0.2507639151
H -5.7725045400 2.1378362220 -0.6827812785
H -5.5129006010 2.0614551607 1.0708442542
H -4.5803789318 3.2064508681 0.0862036060
H -0.3198355710 1.0766482022 -4.5671159803
H -0.8902087212 -0.4879538289 -3.9401428860
H 1.7660700343 -1.4781908984 -3.5961303928
H 0.6524265752 2.0596361478 -1.3473095927
H 4.7296394802 -0.3625839385 -1.5070600353
H 4.0918471863 -1.8759036108 -2.1626611883
H 2.5709398559 -3.3001180038 -0.6581506716
H 2.3030619810 -4.1774010657 1.6402373461
H 3.3154762004 -2.9694418803 3.5602766244
H 4.6005008594 -0.8825341974 3.1603994172
H 4.8744568788 -0.0155279778 0.8581467558
H 0.2525061592 2.2699862355 2.7520514701
H -0.4023439037 2.7691643295 1.1774925847
H 1.1604615425 1.9387887079 1.2847311272
