55
CONF43
C -3.1804406724 1.0283365001 -1.0985253344
C -2.5934008538 0.2461299209 0.1060135985
C -3.1690396869 0.8413255570 1.4062977370
C -4.6673310089 0.6028291000 1.5698565273
C -4.9847094963 -0.8750306792 1.5202274734
O -5.9450193221 -1.3630831711 2.0995619108
C -4.1058334711 -1.6856237790 0.6723520158
C -3.0559435291 -1.1987709631 -0.0212666672
C -2.3756764694 -2.0612118872 -1.0424936242
C -0.8581396346 -1.9327682811 -0.9833132717
C -0.4429674866 -0.4657575459 -1.1291641345
C -1.0189069433 0.3971749245 0.0268999541
C -0.1896328204 0.1510501178 1.3008042016
C 1.3065817289 0.3910667657 1.0484254235
C 1.9484674717 -0.4356411235 -0.0715654213
C 1.0683211032 -0.2981856516 -1.3372160285
C 1.4428785764 1.0723357663 -1.9519050384
C 2.8448827665 1.4347041214 -1.4153373412
C 3.2671155557 0.2089034613 -0.5681598812
C 4.3340527633 0.5175114616 0.4537184980
O 4.2852742213 0.1816033739 1.6246520586
C 5.5576094906 1.2779802072 -0.0342498037
O 6.5311299795 1.4039977239 0.9673881820
C 2.2030631391 -1.8791409313 0.3735710112
O -0.5798678481 1.1011110140 2.3088776471
H -2.9415679469 2.0923391156 -0.9970384524
H -4.2666950610 0.9210040909 -1.1426183368
H -2.7843050054 0.6803847994 -2.0547355189
H -2.9331346207 1.9090911446 1.4573553586
H -2.6683524722 0.3769680179 2.2566708113
H -5.0315929747 1.0031296854 2.5202816546
H -5.2545974991 1.0911131671 0.7805016301
H -4.4072357619 -2.7239097047 0.5510672060
H -2.6949902209 -3.1009143683 -0.9208660909
H -2.7175602404 -1.7437467576 -2.0401569657
H -0.3995777925 -2.5276467619 -1.7820817086
H -0.5068640380 -2.3528707300 -0.0369159766
H -0.9039458811 -0.1097051277 -2.0613738036
H -0.8514061051 1.4574660784 -0.2118582412
H -0.3661266589 -0.8713317871 1.6739600764
H 1.4019069558 1.4627420437 0.8273982003
H 1.8516339535 0.2143249221 1.9827490435
H 1.3869393957 -1.0811509315 -2.0407851899
H 0.7164886899 1.8382098372 -1.6639349530
H 1.4248765410 1.0189168547 -3.0441388893
H 3.5624439365 1.6407468952 -2.2140529248
H 2.8008234595 2.3312700173 -0.7885684363
H 3.7352788775 -0.5189695221 -1.2530081711
H 5.2271192414 2.2696056203 -0.3875457365
H 5.9655966726 0.7534890825 -0.9145847011
H 6.1373824721 1.0029525946 1.7610353817
H 1.3194807860 -2.3368033570 0.8216767427
H 2.9973674980 -1.9023500144 1.1240944952
H 2.5080793652 -2.5011062068 -0.4757873429
H 0.0700659815 1.0459054850 3.0191060506
