59
CONF1
C -2.8087772710 -3.7700862380 -2.1441335314
O -2.6904338513 -2.5693082356 -1.3729340889
C -1.4506332383 -2.0432129433 -1.1693168590
C -1.3666379550 -0.8431918468 -0.4150807108
C -0.0885402417 -0.3273453539 -0.2102686353
C 1.0824459583 -0.9196095810 -0.7101133189
C 0.9539029491 -2.0958014833 -1.4488607505
C -0.2977730611 -2.6516505759 -1.6741580677
C 2.4021324605 -0.3125113558 -0.4605955653
C 3.4142379175 -0.3856520844 -1.4048623259
C 4.6851281426 0.1788538346 -1.1719237671
C 4.9347847871 0.8505030791 0.0666907080
C 3.8896204555 0.9217929913 1.0212074237
C 2.6656188651 0.3595190468 0.7663895674
C 6.2039520631 1.4168855503 0.3029504046
C 7.2013247054 1.3331860115 -0.6517426924
C 6.9519316783 0.6723298185 -1.8823365394
C 5.7274638566 0.1124211500 -2.1335426050
C 8.5416075639 1.9169222138 -0.4373057907
O 8.6746147865 2.5224715191 0.7653590837
O 9.4510425465 1.8696608678 -1.2467414573
C -2.6048632498 -0.1390210701 0.1448868897
C -3.5596578766 0.2788189831 -1.0044562486
C -4.8225327910 0.9504176445 -0.4453267673
C -4.4322047014 2.2197932979 0.3207445628
C -3.4970430984 1.8389247529 1.4756209378
C -4.2287347556 0.8913287119 2.4341175946
C -4.6179469656 -0.3817409974 1.6741257706
C -5.5433120192 -0.0206681050 0.5021614370
C -3.3550043144 -1.0685306272 1.1347132164
C -2.2415976089 1.1477825064 0.9202100774
H -2.4291984687 -3.6254780906 -3.1623719305
H -3.8766884821 -3.9884491868 -2.1791073856
H -2.2791755813 -4.6020427746 -1.6655921379
H 0.0148267824 0.5979828975 0.3409184781
H 1.8336653761 -2.6043774956 -1.8304253540
H -0.3663993066 -3.5737951650 -2.2370386025
H 3.2313969074 -0.8671299975 -2.3611063036
H 4.0781278525 1.4204799653 1.9678056324
H 1.8894990670 0.4022151530 1.5235973476
H 6.3855042701 1.9207853092 1.2460166584
H 7.7481197487 0.6197529122 -2.6164001826
H 5.5384089247 -0.3943463114 -3.0754965431
H 9.5788652006 2.8735674934 0.8163937412
H -3.0258850244 0.9747178531 -1.6658323485
H -3.8398293394 -0.5935368549 -1.5994066928
H -5.4858998333 1.2099069289 -1.2805068490
H -5.3284471572 2.7187625852 0.7127414565
H -3.9292654751 2.9253521867 -0.3536862688
H -3.1875699641 2.7438759160 2.0141528984
H -5.1243778893 1.3826019731 2.8369864628
H -3.5802744518 0.6386034549 3.2834644435
H -5.1355665664 -1.0742498043 2.3506269980
H -5.8312651600 -0.9304851822 -0.0413951680
H -6.4640941133 0.4417702900 0.8816680806
H -2.6777741421 -1.3184670128 1.9627119078
H -3.6294849648 -2.0025702536 0.6388928658
H -1.5679725167 0.9055890679 1.7529553904
H -1.7133624139 1.8456825607 0.2573164700
