30
CONF3
C 2.9104283681 1.2561083491 0.2134896455
C 3.6723006265 0.2145741195 -0.3031283190
C 3.1177019133 -1.0312609864 -0.5750972874
C 1.7673617059 -1.2296715427 -0.3213463702
C 0.9729556898 -0.2022875128 0.2007087714
C 1.5593332933 1.0432771324 0.4556459920
Cl 0.5836924905 2.3343343273 1.0701382986
N -0.3998921550 -0.4117029294 0.4503112534
C -1.4108141103 -0.3227852869 -0.4669192441
C -2.5765125629 -0.5868617574 0.2488508630
C -2.1449737481 -0.8346884186 1.5799554230
N -0.8270159123 -0.7198631582 1.7086552230
C -2.9654918201 -1.1597896031 2.6870504141
N -3.6808743224 -1.4279915033 3.5559561426
S -4.1864950900 -0.7590514231 -0.4669073664
O -3.9777102137 -0.9493306226 -1.9577576271
C -4.6589016973 1.0990740993 -0.2750880611
F -4.6678109232 1.4211751200 1.0248689718
F -3.7929773685 1.8846720846 -0.9237200973
F -5.8798831509 1.2820145784 -0.7869168475
N -1.2272746867 0.0168829265 -1.7682728970
Cl 1.0481894615 -2.7737433839 -0.6593817796
C 5.1501336738 0.4214991081 -0.5292607572
F 5.6023182155 -0.3232452803 -1.5600606677
F 5.4381646682 1.7116499755 -0.7964957059
F 5.8604717401 0.0672140359 0.5659125904
H 3.3517396957 2.2239007768 0.4152787808
H 3.7198665649 -1.8352890889 -0.9789348793
H -0.3284894985 -0.2031890110 -2.1715007302
H -2.0295403655 -0.2056255270 -2.3503752490
