56
CONF5
C 2.3169069046 0.8223665760 1.0362188532
C 2.8787019298 -0.5735707016 0.8138488581
N 3.2380474609 -0.7674493321 -0.5962535299
C 2.0576929721 -0.5397337242 -1.4365309867
C 1.4982509792 0.8552027010 -1.2058542202
N 1.1344995330 1.0256624254 0.1998781769
C 0.4827697657 2.3126161306 0.4422998381
C -0.2264128614 2.3722428715 1.7984785791
C -1.0505729546 1.1126433232 2.0764915905
N -1.9507240612 0.7961200253 0.9603029593
C -2.9758207551 1.6977663259 0.6300547699
C -3.5255803064 2.5652356971 1.5833644460
C -4.5335982251 3.4591870188 1.2327416459
C -5.0385264951 3.4876052163 -0.0634826332
C -4.5174710182 2.6168191664 -1.0175763816
C -3.4814598280 1.7517762482 -0.6793111084
S -2.7136013876 0.7662537597 -1.9470589873
C -2.2801122858 -0.6513901709 -0.9717581627
C -1.9190682570 -0.4738713349 0.3775262913
C -1.5194667009 -1.6048219599 1.1000162742
C -1.4158732376 -2.8436996590 0.4710442888
C -1.7552123350 -3.0063115935 -0.8687578709
C -2.2171754559 -1.9025798762 -1.5769211506
C -0.8702347378 -4.0016506839 1.2461709197
F 0.4943099581 -4.0477470079 1.1938796818
F -1.3082979146 -5.1943174567 0.7773928311
F -1.1947416258 -3.9496057449 2.5619092890
C 3.8150231426 -2.0951658009 -0.8368442968
C 5.2557017110 -2.1519137456 -0.3466123819
O 6.0240117425 -1.0846434043 -0.9168459761
H 2.0430443336 0.9248640509 2.0919405301
H 3.1007323572 1.5760755548 0.8175683281
H 2.1246765806 -1.3219539277 1.1319547593
H 3.7672200387 -0.7056711256 1.4397784655
H 1.2656516617 -1.2860994121 -1.2213749228
H 2.3460819984 -0.6488594011 -2.4882535770
H 2.2470960219 1.6069828443 -1.5286372365
H 0.6009912572 0.9876041873 -1.8227528841
H -0.2638474301 2.4510957138 -0.3497066251
H 1.1942640786 3.1580337777 0.3652107680
H 0.4895408480 2.4809079458 2.6211386075
H -0.8543074621 3.2695890295 1.8163961744
H -0.3593433047 0.2771537331 2.1754967476
H -1.5924691392 1.1988257918 3.0269344733
H -3.1634493654 2.5481673092 2.6042292194
H -4.9309348074 4.1291076731 1.9885805123
H -5.8299437501 4.1778883456 -0.3351202401
H -4.8944392059 2.6249664687 -2.0357806439
H -1.2807013429 -1.5212299877 2.1528470584
H -1.6736428811 -3.9713449554 -1.3546029607
H -2.5019521474 -2.0064333458 -2.6191291457
H 3.8072745226 -2.2720925021 -1.9192023673
H 3.2238649286 -2.9002697315 -0.3597217417
H 5.3016971351 -2.1105244778 0.7518920546
H 5.7124249080 -3.0952125277 -0.6631248277
H 5.4185042079 -0.3245962512 -0.9224723002
