54
CONF509
C -5.0226736700 -1.8870570837 -0.5287676324
N -3.8726458836 -1.5014244610 -1.3613301004
C -3.9853496633 -0.8587416077 -2.5668650039
C -5.3845416519 -0.5479406022 -3.0222152085
O -2.9848128081 -0.5612624518 -3.2228959405
C -2.5706122656 -1.7979394283 -0.8855923058
C -1.8736613519 -0.8862839746 -0.0852706840
I -2.7993253253 0.9627948261 0.3591180786
C -0.6079479283 -1.1724991945 0.4241605694
C 0.1102860759 -0.2134338343 1.3500115835
O 0.0035013882 -0.3321059769 2.5696420756
N 0.8627717090 0.7088987448 0.7240032291
C 1.7095506266 1.6588265268 1.4314479037
C 2.9822445970 1.9301368106 0.6172914087
O 3.6981699669 0.7425211845 0.4971451182
O 3.7971923632 2.8676567877 1.3201910989
C 3.1779807356 4.1571139895 1.4556092188
C 4.2212260177 5.0724159213 2.0667327943
O 5.3524235825 5.2357159304 1.2095759366
C 1.9406421540 4.0002532684 2.3329656792
O 1.3101814598 5.2724087376 2.4558889363
C 0.9867875521 2.9872031296 1.6993371149
O -0.1771951630 2.8265027134 2.5069867881
C -0.0328596842 -2.4041215595 0.1071539055
I 1.8939603469 -2.8846383101 0.8413251167
C -0.6907275046 -3.3456647808 -0.6927149406
N -0.0880159719 -4.5820401382 -1.0019259456
C 0.5142799584 -4.8120418741 -2.2124206474
C 1.1095684055 -6.1836206824 -2.3795836346
O 0.5260937416 -3.9633941596 -3.0996159329
C -1.9638788230 -3.0224180802 -1.1768981255
I -3.0252544994 -4.4262558890 -2.3388649423
H -5.5764401763 -1.0054079181 -0.1912530564
H -4.6449697362 -2.4173844960 0.3470054518
H -5.6929522746 -2.5556448455 -1.0765984354
H -5.9058379016 0.0722151657 -2.2856158546
H -5.3318397210 -0.0195744059 -3.9733306544
H -5.9661938405 -1.4673639301 -3.1471450685
H 0.8465255995 0.7370640815 -0.2870003859
H 2.0078034984 1.2033621427 2.3848724292
H 2.7221275708 2.3512376570 -0.3711771864
H 4.3441093712 0.8444601470 -0.2149760976
H 2.8853797467 4.5389496685 0.4628978231
H 3.7879431085 6.0647071206 2.2132563123
H 4.5209023800 4.6712784834 3.0470269908
H 5.7283202792 4.3571784796 1.0662868467
H 2.2545263554 3.6224889305 3.3219628442
H 0.4570063572 5.1186609884 2.8861700724
H 0.6280870942 3.4000391415 0.7462366459
H 0.0555522496 2.2780095893 3.2700327305
H 0.0277099681 -5.2543041951 -0.2553896288
H 1.3389057462 -6.6684799316 -1.4283434710
H 0.3846999407 -6.8036137356 -2.9192509412
H 2.0112780989 -6.1074423077 -2.9892926612
