45
CONF34
C -3.0135547481 -1.3431371677 -0.3604635592
C -2.7660336389 -0.9128672444 1.0540618722
N -3.6822942024 -0.8614940671 1.9564332405
O -4.9263879872 -1.2441049184 1.4438963897
C -5.9129312301 -1.1311713867 2.4803924467
C -1.4018404792 -0.5924963684 1.5352948891
C -0.5312781813 0.2405231013 0.8029160095
C 0.7639502880 0.4448652051 1.2820625911
C 1.2076148008 -0.1220840189 2.4660242196
C 0.3432575920 -0.9386164246 3.1847717460
C -0.9443381131 -1.1790808439 2.7191453380
O 1.5916097216 1.3541680785 0.6288022323
C 2.4371286655 0.8676996986 -0.3242237659
N 2.4963094028 -0.4438559965 -0.4946921621
C 3.3435296537 -0.8507734261 -1.4489273068
C 4.1166352417 0.0263846557 -2.2008014891
C 3.9538229247 1.3756398650 -1.8949218138
N 3.1125855099 1.8194975931 -0.9539056328
O 4.6847907759 2.2559302289 -2.5926133406
C 4.5167296532 3.6594183193 -2.2867109194
O 3.4626134315 -2.1615552121 -1.7019477432
C 2.6446403199 -3.0668910983 -0.9248253343
C -0.9600800326 0.9519528417 -0.4349355212
O -0.3173059884 1.0093967181 -1.4635395546
O -2.1549422522 1.5404719420 -0.2610241140
C -2.6935503306 2.2139760373 -1.4278441838
H -2.0984278860 -1.3238534517 -0.9538844186
H -3.7717212097 -0.7125558389 -0.8344275502
H -3.4027729736 -2.3674060936 -0.3584760403
H -6.8515313659 -1.4483112578 2.0217845307
H -5.6679402388 -1.7867872022 3.3229071113
H -5.9971021500 -0.0949464788 2.8249067637
H 2.2172850111 0.0806200942 2.8060237021
H 0.6796154352 -1.4000319720 4.1073630292
H -1.6081541339 -1.8413557683 3.2627813116
H 4.7971138069 -0.3137699910 -2.9694781760
H 4.7882262800 3.8613064010 -1.2476548768
H 3.4848172019 3.9707052444 -2.4667532189
H 5.1949731057 4.1760319899 -2.9652351059
H 1.5837444968 -2.8520747329 -1.0767078290
H 2.8886228994 -2.9893807739 0.1377648843
H 2.8911760081 -4.0592686268 -1.3012058702
H -3.6588088872 2.6063701417 -1.1114789648
H -2.8132854921 1.5007162701 -2.2470495382
H -2.0265117214 3.0230563318 -1.7336041719
