33
CONF82
C 4.6096168725 -0.4616502862 -1.3173827141
C 5.9957074533 0.0889627788 -0.9548179004
O 6.3940679024 -0.2198536325 0.3737083788
C 3.4830845128 0.3849232404 -0.7684893266
C 2.0687280289 -0.1788063432 -1.1059505682
C 0.8786810640 0.5024389689 -0.3394995224
C -0.5193790865 0.2461464155 -0.9854184442
C -1.7840812155 0.7755032617 -0.2006939936
C -2.0447565550 0.2480465052 1.2528744551
C -3.5469860521 0.3744421873 1.6853231026
C -3.7714795120 0.2765456473 3.2309372419
F -5.0844581864 0.1481067709 3.4652766781
F -3.1358314987 -0.7932808057 3.7295173671
F -3.3344842270 1.3764410716 3.8521605369
F -4.2556753343 -0.6179443722 1.1077798905
F -4.0356087761 1.5694103318 1.2797354375
F -1.6933074575 -1.0537342791 1.3338977077
F -1.2962336671 0.9692224107 2.1190586272
F -2.8426965231 0.4123838990 -0.9694222081
F -1.7172367454 2.1224438196 -0.1594474700
F -0.5646276424 0.8860335660 -2.1775890364
F -0.6677864522 -1.0806194600 -1.1967129133
F 1.0753072953 1.8381853842 -0.2810533358
F 0.8664086417 0.0048740053 0.9195256264
F 1.8866758799 -0.0544706368 -2.4449492184
F 2.0530392485 -1.5003301473 -0.7963062653
F 3.5676719957 0.4927823059 0.6018516379
F 3.5616592871 1.6528144483 -1.2714804826
H 4.4912667594 -0.4859228254 -2.4065097752
H 4.5147045423 -1.4824764500 -0.9385140264
H 6.0423198997 1.1692393084 -1.1536035690
H 6.7296355259 -0.3971773667 -1.6038496909
H 5.8331754134 0.2725835688 0.9825588939
