37
CONF36
C 4.9739718776 -1.2800829362 -0.6613801149
C 3.8511230682 -0.2545518777 -0.7999492684
C 2.5425726449 -0.7389774373 -0.1725267589
C 1.4335647897 0.2984375009 -0.3346843582
C 0.0908769149 -0.0345478392 0.3831786960
C -0.4705998542 -1.3871686009 -0.1610214841
N -1.8226236053 -1.6470588497 0.2920854712
C -2.9829924122 -1.4302170953 -0.3606700789
N -4.0120202630 -1.6892374535 0.4361605641
C -3.4048701057 -2.0578179116 1.5994294984
N -2.0782959633 -2.0453158251 1.5629427418
C 0.3891200915 -0.1813474099 1.8095396254
N 0.6822297058 -0.2908693902 2.9219666605
C -0.9426109939 1.0732799911 0.1659134652
C -1.6365779808 1.6557382944 1.2257993111
C -2.6122161030 2.6231190738 1.0006022376
C -2.8923600260 2.9995178942 -0.3046703468
Cl -4.1243104285 4.2185175784 -0.6041627600
C -2.2233379195 2.4325771871 -1.3825279782
C -1.2519186030 1.4696023867 -1.1386492722
H 4.7051338437 -2.2222452462 -1.1515640202
H 5.1756460388 -1.4971160685 0.3933404100
H 5.9015498115 -0.9170260845 -1.1144993689
H 4.1482300018 0.6891838258 -0.3248801415
H 3.6813571100 -0.0308054390 -1.8611875425
H 2.7106507038 -0.9492253285 0.8918336975
H 2.2534033955 -1.6861764048 -0.6440352704
H 1.2104450997 0.4301457714 -1.3979167987
H 1.7714569753 1.2684650720 0.0475181604
H -0.4890584737 -1.3325944778 -1.2525616490
H 0.1676895280 -2.2190075076 0.1432346169
H -3.0222091618 -1.1032602186 -1.3916725472
H -3.9468898611 -2.3492808617 2.4903079973
H -1.4272266705 1.3613353363 2.2489776490
H -3.1433645154 3.0703314159 1.8329422337
H -2.4562938721 2.7317092395 -2.3980232002
H -0.7492455973 1.0219704001 -1.9891907593
