47
CONF2
C -1.6629743986 3.7258111802 -0.2937854112
C -2.3476829640 2.5343661687 0.3390138112
C -1.9991579920 2.3478802862 1.8012498560
O -1.8891401505 1.3662448939 -0.4571396429
P -2.5813175500 -0.0715759557 -0.3692013568
S -4.5241984727 -0.1854344481 -0.2412010792
O -1.7755862025 -0.7215189889 0.8762007477
C -2.2762721204 -1.8491516914 1.6928509778
C -1.4233595264 -1.8333641519 2.9439862744
C -2.1762540321 -3.1462309781 0.9161179410
S -1.9155620333 -0.9714446833 -2.1551366807
C -0.1837413439 -0.3495747358 -2.4251300961
C 0.9063397092 -1.1397113316 -1.7092172993
N 1.0100439649 -0.9193172966 -0.2606138380
S 1.8348837713 0.4454788853 0.2670688695
O 1.6766325681 1.5980778923 -0.6431152711
O 1.4623186671 0.5952612302 1.6871672359
C 3.5474617527 -0.0828001618 0.1552830742
C 3.9769358841 -1.1229161035 0.9774112873
C 5.3095365408 -1.5115690970 0.9194306656
C 6.1901705978 -0.8665067654 0.0501913160
C 5.7431642507 0.1707806513 -0.7631106991
C 4.4101283317 0.5735804387 -0.7148384672
H -1.9126287178 3.8001888861 -1.3552499572
H -0.5772449187 3.6423307252 -0.1851824489
H -1.9957078652 4.6387225884 0.2084783748
H -3.4336717154 2.5956751439 0.2031805505
H -2.2786102553 3.2538516586 2.3478705068
H -0.9235871498 2.1827089629 1.9179975825
H -2.5380850946 1.5039769836 2.2395082468
H -3.3209785140 -1.6218384567 1.9320258937
H -1.7666596222 -2.6186640972 3.6234767171
H -0.3744650069 -2.0233271156 2.6933359002
H -1.4982431751 -0.8698633457 3.4546293563
H -1.1409625286 -3.3301020360 0.6094183673
H -2.5005343670 -3.9710427952 1.5578575084
H -2.8129467762 -3.1320366803 0.0275515316
H -0.1501783968 0.7132647034 -2.1801509557
H -0.0551048859 -0.4606360491 -3.5070752585
H 1.8713600605 -0.8817970425 -2.1643012175
H 0.7592622360 -2.2137701816 -1.8659307880
H 0.1282510957 -0.9973635510 0.2512545369
H 3.2827208196 -1.6172001994 1.6489111436
H 5.6617303153 -2.3187441886 1.5531071441
H 7.2296092266 -1.1756253889 0.0089805116
H 6.4296796195 0.6711628893 -1.4379984928
H 4.0467578725 1.3819402412 -1.3385778448
