53
CONF133
C 0.1679898580 -3.0258215867 1.5285257059
N 1.5786067985 -2.7163637561 1.7780668215
C 2.1795246842 -3.8554475490 2.4960418909
C 3.6427536732 -3.6125799657 2.8354176614
C 4.4347851118 -3.3427292774 1.5603386448
C 3.7875979044 -2.1901077688 0.7984548191
C 2.3033886836 -2.4551032158 0.5171441683
C 1.6765389792 -1.3035397048 -0.2874980099
C 1.5179162423 -0.0098458661 0.5155664645
N 1.2236011456 1.1360231541 -0.3582536238
C 1.7881860048 2.3924382756 -0.0546803611
C 2.2426444489 2.7211439637 1.2280713011
C 2.8298572464 3.9602670173 1.4722789278
C 2.9378590091 4.9076316925 0.4593471438
C 2.4482365031 4.6107990453 -0.8105354006
C 1.8964701183 3.3599716358 -1.0663010176
S 1.3716883615 2.9374210798 -2.7162332264
C -0.0274000601 1.9351347412 -2.2853636837
C 0.0599345041 1.1200842951 -1.1405224860
C -1.0300860440 0.3030531459 -0.8281099949
C -2.1266908914 0.2683854889 -1.6814054019
C -2.2118576300 1.0568221548 -2.8225092445
C -1.1542788071 1.9161630041 -3.1025616973
S -3.4859661071 -0.8325664480 -1.2694678204
O -4.1919790360 -1.1845912894 -2.5223018798
O -2.9552734826 -1.9206058459 -0.4150777683
C -4.5903098718 0.1811184777 -0.2665237344
H 0.0385170686 -3.8650915344 0.8183256703
H -0.3668604699 -2.1605071015 1.1304960907
H -0.3112688263 -3.3030522322 2.4727864257
H 1.5987870573 -4.0184810865 3.4115881901
H 2.0978807696 -4.7813082825 1.8885169054
H 4.0375691351 -4.4855479296 3.3676188958
H 3.7211951506 -2.7508169144 3.5111985081
H 5.4807903461 -3.1099382686 1.7895561325
H 4.4333124607 -4.2448831989 0.9328173893
H 4.2955988167 -2.0233503051 -0.1584077061
H 3.8939079285 -1.2719603767 1.3900106048
H 2.2468948406 -3.3568165354 -0.1312479616
H 0.7210584000 -1.6222211362 -0.7134925270
H 2.3382409496 -1.1001287761 -1.1376052028
H 2.4685507639 0.2136540449 1.0005907000
H 0.7736456648 -0.1176029976 1.3172413747
H 3.1890784019 4.1861839489 2.4711560152
H 2.5113661169 5.3411807071 -1.6111592232
H -1.0247860852 -0.3132270396 0.0616203069
H -3.0744432028 1.0052213277 -3.4765439790
H -1.1911653841 2.5561743032 -3.9782026406
H -4.9185042670 1.0309584341 -0.8688821698
H -5.4353735636 -0.4574800669 0.0056030732
H -4.0443171757 0.5090333772 0.6207119660
H 2.1361523641 2.0137531637 2.0420015617
H 3.3889090236 5.8750009571 0.6524017493
