55
CONF281
C 4.2318317824 -3.5275490987 -3.4438833373
O 4.5423648462 -3.3699875552 -2.0526752104
C 3.6088343890 -2.7722353253 -1.2625872425
C 2.3692722420 -2.3092272760 -1.7138854653
C 1.4890658802 -1.7140016276 -0.8142888887
C 1.8157839118 -1.5705663346 0.5342935243
C 3.0581491392 -2.0487003257 0.9696445931
C 3.9492211313 -2.6390509462 0.0884555681
C 0.9148255559 -0.8888043540 1.5279006772
S -0.8005423722 -1.5930938316 1.3836603316
C -1.7764712858 -0.3410814486 2.1969968436
C -2.4552842093 -0.6615053335 3.3759488033
C -3.2982704338 0.2634379051 3.9807370489
C -3.4471954414 1.5318480024 3.4245188692
C -2.7636809413 1.8686565253 2.2630731075
C -1.9348562953 0.9379256443 1.6321673979
N -1.2890812394 1.3017764402 0.4178304864
C -2.1320302894 1.7109166368 -0.7189976832
C -2.5593166163 0.4700190634 -1.5281147369
N -3.4139627250 0.7264716970 -2.6838322078
C -4.7133431375 1.2921129773 -2.3249405332
C -2.7548068923 1.5225701045 -3.7185374664
C 0.0488089640 1.1312282445 0.1932798760
O 0.5732349335 1.3745607108 -0.8898369936
C 0.8643204855 0.6537317824 1.3948496746
O 2.1979567394 1.1608359157 1.2039258315
C 2.9726880373 1.2681718611 2.3141792511
C 4.3392269412 1.7599610867 1.9522671910
O 2.5860255314 0.9909188130 3.4295390741
H 4.0759517184 -2.5545459363 -3.9240830165
H 3.3428058434 -4.1543790794 -3.5791401393
H 5.0984808731 -4.0200586656 -3.8853159502
H 2.0775108677 -2.4057351901 -2.7522600324
H 0.5307012338 -1.3608683341 -1.1803628286
H 3.3315836886 -1.9526810376 2.0173440048
H 4.9108207488 -3.0083858858 0.4298626610
H 1.2789414573 -1.1031559190 2.5364433185
H -2.3209360671 -1.6470932485 3.8089301108
H -3.8264006025 -0.0022862211 4.8904436506
H -4.0863290819 2.2673935903 3.9017613897
H -2.8627447489 2.8632386683 1.8405719299
H -1.5571594893 2.4060307865 -1.3338767655
H -3.0043463692 2.2326124362 -0.3207639852
H -1.6522483016 -0.0420345847 -1.8731220260
H -3.0866230411 -0.2164591198 -0.8519980028
H -4.6598405779 2.3359774619 -1.9644963108
H -5.1783720230 0.6822480085 -1.5428234214
H -5.3680975619 1.2813745373 -3.2035444979
H -1.7806574638 1.0826298012 -3.9574214369
H -3.3680108234 1.5150667908 -4.6266973886
H -2.5970700201 2.5785864824 -3.4328241281
H 0.4585240735 1.0707364866 2.3209200967
H 4.9297504768 1.9036479428 2.8559213752
H 4.8241636838 1.0233207434 1.3036715346
H 4.2668310864 2.6954808449 1.3911710879
