50
CONF95
C 3.1232236057 1.0092101524 -1.6111321328
C 2.4930979417 -0.2056296170 -0.9667712329
C 1.2582050085 -0.6448869009 -1.4383636220
C 0.7130480444 -1.8552431320 -0.9709250667
C 1.3855799841 -2.6437987562 -0.0739122724
C 2.6302223928 -2.2319372733 0.4455294682
C 3.1575370442 -0.9641605860 0.0420110013
C 4.3308772396 -0.5711650417 0.7834332388
N 4.9643988706 -1.3979754998 1.5961191443
C 4.4322735570 -2.6335689864 1.7660644110
N 3.2728978211 -3.0655852680 1.3042512463
N 5.1931717483 -3.5019005441 2.5059093766
N 4.8622971674 0.6939758743 0.7123181890
C 0.4938718213 0.1732350215 -2.4714454718
N -0.9015708776 -0.2082137985 -2.6114268192
C -1.8515671627 0.2530296005 -1.6977756658
C -1.4686246274 0.6928282965 -0.4270674602
C -2.4481822913 1.0966415062 0.4839147873
C -3.8023697669 1.0954678297 0.1362397252
C -4.1700968947 0.6433507513 -1.1396970092
C -3.2065752016 0.2273380945 -2.0570305133
O -5.5103247260 0.6520629144 -1.3882644627
C -5.9427560140 0.2083943728 -2.6677953009
O -4.7526582686 1.5556580796 1.0136830068
C -5.2734257509 0.5271026127 1.8651696896
O -2.1721813560 1.5124173030 1.7521366639
C -0.8097756204 1.4955152778 2.1641115941
H 2.8233512374 1.9507938766 -1.1281821417
H 4.2117615300 0.9489041395 -1.6029471111
H 2.8158492093 1.0923695150 -2.6552567030
H -0.2544022120 -2.1633155259 -1.3529233071
H 0.9885837172 -3.5970065501 0.2569986388
H 5.9002465145 -3.0897864123 3.0908146913
H 5.5373270121 0.8825475299 1.4382617575
H 0.5754921674 1.2440808305 -2.2193013499
H 0.9650855699 0.0460252773 -3.4555736161
H -1.2309030758 -0.2131743510 -3.5628491771
H -0.4270206482 0.6754459542 -0.1421070521
H -3.4873265747 -0.1244944041 -3.0424535543
H -7.0302886199 0.2950487639 -2.6600336806
H -5.6621642193 -0.8383664887 -2.8462147993
H -5.5343374980 0.8384503597 -3.4690967838
H -6.0161332515 1.0036050534 2.5091790161
H -5.7538088110 -0.2616971741 1.2721581246
H -4.4762754357 0.0934250562 2.4823518343
H -0.3845683327 0.4843978006 2.1104878583
H -0.2007922269 2.1795126527 1.5579799090
H -0.8105867494 1.8357952620 3.2006964804
H 4.2457462357 1.4554877080 0.4896040853
H 4.7130072963 -4.3114412683 2.8621315530
