47
CONF26
C -5.9302612844 -2.2856646766 -1.2097332693
O -6.3889385364 -1.2227718209 -0.3441294479
P -5.4439339134 0.0491488570 -0.0868752085
S -4.5488997160 0.8202257733 -1.6127387823
O -6.4350119297 0.9893153380 0.7569041521
C -7.4153135727 1.7864583855 0.0527223653
O -4.5058068407 -0.5270956182 1.1059763956
C -3.3238981056 0.0877068831 1.5085135171
C -2.1968775006 -0.7187534735 1.6124475472
C -1.0052494523 -0.1722536630 2.0644338633
C -0.9339147447 1.1880432055 2.3769057306
C -2.0723391642 1.9863317809 2.2591217423
C -3.2782696388 1.4345420688 1.8400829998
S 0.5636915124 1.9321216640 3.0059583719
C 1.8140224701 1.2435754444 1.9320043279
C 1.6154853588 1.1059739941 0.5559702094
C 2.6273611040 0.6046108502 -0.2508217339
C 3.8489399617 0.2618542846 0.3216820125
C 4.0662204514 0.4076838894 1.6840047129
C 3.0436258298 0.8914412535 2.4913338039
O 4.9160064106 -0.1919810797 -0.4455857651
P 4.7587702442 -1.3815436389 -1.5661187783
S 3.6439769669 -2.8661788792 -1.0815181415
O 6.3188893952 -1.6318129294 -1.8597056525
C 7.1076389448 -2.3579742548 -0.8912415491
O 4.3082171998 -0.6334105609 -2.9082870290
C 5.0294079003 0.5370531357 -3.3696449881
H -5.6570324128 -1.8853286765 -2.1903581883
H -6.7679833938 -2.9777959991 -1.2996706483
H -5.0721371085 -2.7953970494 -0.7602578922
H -8.1518704622 1.1381317534 -0.4317352934
H -7.9015156676 2.3984362494 0.8130245570
H -6.9245063686 2.4204864857 -0.6916866592
H -2.2665304850 -1.7683189894 1.3495775719
H -0.1250629923 -0.7988291886 2.1598752209
H -2.0156452682 3.0447636526 2.4901828701
H -4.1678986829 2.0477449211 1.7531122936
H 0.6643553553 1.3828583441 0.1142141684
H 2.4686611893 0.4837195656 -1.3170432209
H 5.0237252619 0.1218387733 2.1047827759
H 3.1962043052 0.9815455362 3.5617189939
H 6.6617197591 -3.3387938872 -0.7009369430
H 8.0968096375 -2.4720983701 -1.3356375313
H 7.1794068752 -1.7891306415 0.0412049109
H 4.4705724500 0.9065033472 -4.2299198740
H 5.0611578959 1.3009581128 -2.5866047479
H 6.0440296560 0.2620600646 -3.6684577582
