24
CONF3
O -1.7501149177 0.1357494043 -2.5812467313
C -2.1911851011 0.0220735679 -1.3053108028
C -1.4424583923 0.4832615142 -0.2177177732
O -0.2477085093 1.1334273616 -0.5077951845
C 0.9235547966 0.5657413449 -0.0666144498
C 1.0433981777 -0.7797279388 0.2693989185
C 2.2658455740 -1.2981871652 0.6796483253
C 3.3683921824 -0.4565374706 0.7461160476
Cl 4.9177991666 -1.0987384701 1.2692201716
C 3.2803621889 0.8883700783 0.4088951432
C 2.0502534698 1.3905462901 0.0054425992
Cl 1.9136973213 3.0792580074 -0.4229327671
C -1.9114516124 0.3627259545 1.0805400515
C -3.1439937714 -0.2353117540 1.3228403337
C -3.8790118936 -0.6913194417 0.2333092098
Cl -5.4428619508 -1.4473593769 0.5184314880
C -3.4314504125 -0.5724639607 -1.0746494750
H 0.1755917753 -1.4272087977 0.2084916501
H 2.3521769851 -2.3468173146 0.9386238198
H 4.1445633443 1.5393776601 0.4627900942
H -3.5214065208 -0.3362096491 2.3329476985
H -4.0171477851 -0.9321614716 -1.9126631083
H -0.8843306546 0.5732140400 -2.5766251167
H -1.3082314787 0.7343284596 1.9028433668
