44
CONF7
C 0.6327964545 -1.6862271102 3.4425589464
C 1.5874895264 -0.9609457240 2.5549394748
N 1.0833012717 0.0058253079 1.7748092430
C 1.9819091859 0.6349129223 1.0009940883
N 3.2905017513 0.3771648170 0.9519868818
C 3.6661378993 -0.6101674883 1.7644756336
N 2.8747153471 -1.3120485298 2.5891019238
O 4.9658435601 -0.8867324122 1.7210607556
C 5.4474116880 -1.9499709077 2.5713056717
N 1.5586803216 1.6484950993 0.1682585472
C 0.2740592260 2.1541382216 -0.1202636430
O 0.1438271434 3.0306056727 -0.9507162781
N -0.7531947813 1.5562008613 0.5674998266
S -2.3986075095 1.9672776019 0.3161931812
O -3.1061965156 0.9370663746 1.0838928303
O -2.5958086315 3.3827746805 0.6069351508
C -2.6324576821 1.7122095436 -1.4538510078
C -2.9674333649 2.8505889555 -2.1832861060
C -3.2241168637 2.7442632914 -3.5425092601
C -3.1404553703 1.5018852214 -4.1613928718
C -2.7953146220 0.3782077412 -3.4221418103
C -2.5291491191 0.4473710404 -2.0512429857
C -2.1069529820 -0.8184320878 -1.3444842888
C -0.6246073877 -1.1213793334 -1.6125733949
C -0.1838738077 -2.4231497085 -0.9952012759
F 1.1524518874 -2.6069815166 -1.1256012412
F -0.4627079604 -2.4817613120 0.3331551614
F -0.7933286760 -3.4888616742 -1.5691582636
H -0.0239786112 -2.3139264339 2.8318419257
H 1.1718477610 -2.3137984924 4.1513293380
H -0.0051318577 -0.9723460863 3.9704131254
H 4.9619617857 -2.8949053804 2.3164045341
H 6.5174286393 -1.9992997616 2.3717117048
H 5.2598921689 -1.7165158181 3.6219386028
H 2.2881008403 2.0886274253 -0.3760103059
H -0.5285351295 0.8124934170 1.2424996301
H -3.0146402033 3.8070338879 -1.6774086592
H -3.4854691442 3.6290879288 -4.1123496743
H -3.3446350254 1.4055737356 -5.2227726800
H -2.7337542831 -0.5896161317 -3.9131802472
H -2.7135661564 -1.6464920703 -1.7264716564
H -2.2872378565 -0.7552277467 -0.2715398938
H -0.4221603738 -1.1891840393 -2.6861437150
H 0.0149564622 -0.3338339819 -1.2060631271
