31
CONF4
C -1.8749322324 -0.1333175319 0.4025337574
C -3.0416120585 -0.7682406653 0.8009466690
C -3.9910857841 -0.0551495012 1.5247432446
C -3.7991566308 1.2834680603 1.8428908021
C -2.6354964473 1.9153092255 1.4262454378
C -1.6543657789 1.2166039168 0.7114388250
C -0.4330015133 1.8966016529 0.2443227610
N 0.7734158067 1.4545814602 0.2179472982
O 0.9071700045 0.2045985119 0.7845680021
C 2.2275360898 -0.2942163909 0.5262713667
C 2.3393000479 -0.7717719129 -0.9145919713
O 3.6679021751 -1.2438608746 -1.1061579198
C 3.5671100879 -2.5266361649 -1.7383694721
C 2.2425170907 -3.0415739115 -1.2031469747
O 1.4474866186 -1.8490504508 -1.1892515835
C -0.5539335551 3.3159861759 -0.2859289452
F -0.6669249803 4.2097589171 0.7366747047
F -1.6674382851 3.4465096266 -1.0427704575
F 0.4932172458 3.6936070332 -1.0288035988
Cl -5.4583072993 -0.8583732336 2.0396094387
H -1.1364223951 -0.6882805961 -0.1627866137
H -3.2147585900 -1.8083318950 0.5511203636
H -4.5505438997 1.8250708171 2.4050679617
H -2.4911871184 2.9607053504 1.6726871969
H 2.3550329200 -1.1375901696 1.2102130802
H 2.9773082022 0.4778107307 0.7314603542
H 2.0935101491 0.0419454032 -1.6139773195
H 3.5416246580 -2.4176817553 -2.8321064011
H 4.4338118978 -3.1217693487 -1.4408838277
H 2.3542351591 -3.4558310287 -0.1900750995
H 1.7479892986 -3.7708812439 -1.8489381873
