43
CONF26
C -3.7316977534 1.7426894421 1.5141255763
Si -1.9214659126 1.4328435319 1.2118049327
C -1.1733094207 2.6348632543 -0.0132811054
O -1.1795103661 1.5373251958 2.6754571078
O -1.7376678319 -0.1042393670 0.6201490350
Si -1.6674562069 -0.9087353353 -0.8069982328
C -3.1632088262 -0.5219774623 -1.8508896801
C -1.5296899571 -2.7267504594 -0.4178399559
O -0.3471190585 -0.4190902885 -1.6638078247
Si 1.2847702092 -0.2832532173 -1.5909360133
C 2.0649506745 -1.9704232555 -1.7824235617
C 1.8133411343 0.8978923925 -2.9254740172
O 1.7362164466 0.3680344803 -0.1455311989
Si 2.1668982271 0.0821217198 1.4121626726
C 1.2526219081 -1.3524845726 2.1550743503
C 4.0215987651 -0.0993272860 1.4820771601
O 1.6888551575 1.4018162962 2.3207769568
H -4.1246053161 1.0193933745 2.2360512995
H -4.3082702629 1.6446954981 0.5881863030
H -3.9007202088 2.7465383679 1.9164503444
H -1.2786981366 3.6667280267 0.3382308380
H -0.1063692664 2.4239593796 -0.1461650656
H -1.6481674604 2.5629566332 -0.9981239897
H -0.2087888881 1.5184178761 2.6742364336
H -3.2051536391 0.5448911761 -2.0953848980
H -3.1392436368 -1.0768489467 -2.7945781810
H -4.0873029148 -0.7848784563 -1.3255934602
H -0.6780572303 -2.9206810976 0.2424761729
H -1.3960136930 -3.3192146455 -1.3289627357
H -2.4296603501 -3.0853309105 0.0925278621
H 3.1582689285 -1.9068755189 -1.7574048495
H 1.7474072386 -2.6533513782 -0.9870606272
H 1.7773280808 -2.4230870717 -2.7372593149
H 2.8998212967 1.0319449715 -2.9310366669
H 1.5085676036 0.5374846600 -3.9131182113
H 1.3512771305 1.8782973968 -2.7687543407
H 0.1708130476 -1.2008834505 2.0767352462
H 1.5106650321 -2.2902156688 1.6516207392
H 1.5051939374 -1.4619263673 3.2148773420
H 4.3722903754 -0.2202244277 2.5119828473
H 4.3472765255 -0.9750414230 0.9098387038
H 4.5202958956 0.7768742507 1.0531722069
H 2.0637186270 2.2550728730 2.0826093085
