21
CONF6
C -3.1173452369 -0.2067057795 -0.7757620211
C -2.6730886862 -1.4229816989 -0.2607449681
C -1.3192809833 -1.6495912486 -0.0582534436
C -0.3932436601 -0.6495583723 -0.3636254219
C -0.8257632674 0.5774065625 -0.8655008234
C -2.1880099600 0.7831087701 -1.0731821886
O 0.9179264341 -0.9797534751 -0.1211582267
C 1.9546185189 -0.1966904867 -0.7014032755
C 2.4920547799 0.8674650637 0.2229828272
C 2.2803966721 0.8247300991 1.6695994036
O 1.5515610756 1.7505049806 0.8399081339
H -4.1754454540 -0.0320624857 -0.9368686984
H -3.3853264468 -2.2061891394 -0.0207895421
H -0.9561991573 -2.5947467108 0.3307746691
H -0.1266897084 1.3814591068 -1.0531953738
H -2.5204498430 1.7417968341 -1.4588077795
H 2.7720619672 -0.8953801517 -0.9208828150
H 1.6275288747 0.2435367594 -1.6529536649
H 3.3922738238 1.3592339877 -0.1574644104
H 3.0147579727 1.2828184983 2.3310158560
H 1.6776628930 0.0215988862 2.0885014582
