25
CONF3
C -3.4532564367 -1.1270453330 0.1187462749
N -2.3295820434 -0.1939477054 0.1122450402
C -1.0450401230 -0.6920142853 0.3319167793
O -0.8700447513 -1.6903688341 1.0275865600
N -0.0443388957 0.0638964977 -0.2324731494
C 1.3316991261 -0.1307816473 -0.1027831994
C 1.9185727987 -0.9031831219 0.9083543320
C 3.2998545883 -1.0200951919 0.9710442660
C 4.1185396726 -0.3761381758 0.0496603765
C 3.5339442704 0.4019572534 -0.9496124536
C 2.1540667491 0.5219996349 -1.0300119028
Cl 4.5045448957 1.2424352735 -2.1350943094
Br 6.0086649056 -0.5780832027 0.1906684850
O -2.4306937452 0.7288241294 -0.9612295131
C -2.8911681042 2.0005429439 -0.4582982679
H -3.3758699157 -1.7581147421 1.0042558570
H -3.4611252690 -1.7532388784 -0.7826150915
H -4.3780474621 -0.5489064490 0.1754768680
H -0.3487907839 0.7541426216 -0.9066377253
H 1.3045996023 -1.4057153391 1.6407510158
H 3.7487298190 -1.6184096042 1.7557533022
H 1.7169717283 1.1257375411 -1.8182508043
H -3.8751107587 1.8965455843 0.0113192666
H -2.9655998542 2.6436919962 -1.3377332849
H -2.1715198119 2.4162697538 0.2550983782
