61
CONF393
C -5.5014999775 0.7102645198 -3.2355957200
C -4.1233415447 1.1071447560 -2.7059465551
C -3.9402519418 0.8507021083 -1.2069553594
C -4.0949725098 -0.6115139997 -0.7679733803
C -3.0106876034 -1.5487378010 -1.3565459209
C -1.9874882647 -1.7621343921 -0.2026529151
N -2.4183172392 -0.8527630619 0.8620522832
C -3.8783934721 -0.7706873065 0.7387846196
C -1.9588083609 -1.2674745845 2.1847425364
C -0.5669701190 -1.4829209442 -0.6667859001
O 0.1131909125 -2.3638357150 -1.2236306780
N -0.1348272853 -0.2348484658 -0.4472097363
C 1.1524344973 0.2945100651 -0.8626310034
C 2.1710133897 0.3151067103 0.2910037515
C 2.8774434652 -1.0149927378 0.5577604204
C 3.8023125417 -0.8802902408 1.7816602384
C 3.0340880011 -0.2882396580 2.9808785915
C 2.2569262335 0.9801546262 2.5986315410
O 1.4609880356 0.7865568620 1.4514655642
S 3.4382689242 2.4271287319 2.4524936797
C 2.2664320080 3.6736716496 1.8073638574
O 2.1180482508 -1.2472646119 3.5119428710
O 4.9844449186 -0.1498680671 1.4664069974
O 1.9925473600 -2.1008958353 0.8500817576
C 0.9190138856 1.6943862146 -1.4596663289
C 0.0116036002 1.6487904579 -2.6798000225
O 2.2159833064 2.2012675001 -1.8049983623
H -5.6576462559 -0.3720664131 -3.1843874904
H -6.2969178687 1.1904052116 -2.6538240018
H -5.6209938786 1.0108334973 -4.2812282647
H -3.3476972949 0.5812772233 -3.2772853839
H -3.9584551451 2.1758920949 -2.8910996000
H -4.6788454696 1.4511362939 -0.6579219009
H -2.9499358687 1.2090063255 -0.8958235749
H -5.0935204359 -0.9666922713 -1.0407299734
H -3.4325556266 -2.5109486141 -1.6553026867
H -2.5308450912 -1.1159437358 -2.2391367084
H -2.0051830608 -2.8161934261 0.1246878182
H -4.3618131599 -1.6972117069 1.1042882594
H -4.2664389764 0.0714361646 1.3236062599
H -2.3480245711 -2.2625409343 2.4676388098
H -2.2854663516 -0.5395299066 2.9341693877
H -0.8632951812 -1.3073434647 2.2047469215
H -0.7557221678 0.3463491405 0.1081807227
H 1.5492933395 -0.3529215941 -1.6546513663
H 2.9517296144 1.0410916695 0.0243579688
H 3.5001812517 -1.2475119870 -0.3190148485
H 4.1340716138 -1.8850212816 2.0641815339
H 3.7464953952 -0.0506536706 3.7792419289
H 1.5517858998 1.2292967473 3.3974250731
H 1.9519878526 3.4155336123 0.7945894805
H 1.3986365782 3.7478811029 2.4680645760
H 2.7973034547 4.6281059725 1.7928528724
H 1.6667663157 -1.6541774312 2.7523474714
H 4.7525067222 0.7852369670 1.3364491535
H 1.4694128175 -2.3105985679 0.0515118037
H 0.4654468159 2.3307325634 -0.6812082222
H -0.9845817412 1.2820747122 -2.4181451338
H -0.0989311221 2.6533244445 -3.1009683612
H 0.4394719511 0.9916903675 -3.4445319077
H 2.0930195549 3.0727351599 -2.2012249039
