82
CONF5
C -4.7267429313 3.0778242202 -2.5422363626
C -4.0271687776 2.7708222005 -1.2471674663
C -3.4108486112 3.7274777051 -0.5467697665
C -4.1625662668 1.3286533706 -0.8118071765
C -5.5730265827 1.0945205683 -0.1491624892
C -5.2835343250 0.4554607568 1.2247830990
C -3.9553044801 -0.2840895482 1.0145158050
C -3.1661001137 0.7932015695 0.2329752886
C -1.8046047908 0.2768994998 -0.2300528990
C -1.0316386537 1.2553890025 -1.1176558675
C 0.3304525894 0.7051517748 -1.5572632606
C 1.1727468164 0.1529728704 -0.3948090056
C 2.6342148066 -0.2544308077 -0.8113623182
C 3.3390986827 1.0131606461 -1.3484061693
C 4.8542608628 0.8605459778 -1.4731258358
C 5.4950882969 0.4600585155 -0.1534791505
C 4.9127839997 -0.8473811640 0.4360175721
C 3.3623709996 -0.6763119436 0.5017073933
C 2.6372098453 -1.8465733041 1.1689226599
C 1.2213904905 -1.4449262049 1.5834531431
C 0.3597508199 -0.8988375641 0.4255476571
C -0.9396673224 -0.1634207095 0.9962630384
C -1.7409363050 -1.1030730642 1.9408299271
C -3.1687493791 -0.6319739575 2.2758198992
C -0.5706257771 1.0731564139 1.8514850210
C -0.0360932741 -2.1141335044 -0.4445870776
C 5.3803149877 -2.0751336226 -0.3603582575
C 5.4623698348 -0.9863682913 1.8688194086
O 6.9304332970 0.4181750004 -0.2795929321
C 2.6670718293 -1.3270456425 -1.9198762869
C -4.2027236911 -1.5486435284 0.1661955795
O -5.0124278043 -2.5264943952 0.8421488933
H -4.2624124006 2.5178679668 -3.3641760453
H -5.7748726611 2.7555224056 -2.5002352770
H -4.6969382428 4.1435351209 -2.7825556886
H -3.4039815805 4.7543638486 -0.9023516976
H -2.8928742200 3.5273006515 0.3854302089
H -4.0946105059 0.7110213876 -1.7184752040
H -6.1233683736 2.0344904471 -0.0485017945
H -6.1832933210 0.4303400351 -0.7687688946
H -5.1348631795 1.2346981076 1.9826685652
H -6.1054571519 -0.1778453131 1.5775087881
H -2.9981657579 1.6005245016 0.9573478270
H -1.9902400046 -0.6149082548 -0.8403791002
H -1.6298574387 1.4839424109 -2.0083572049
H -0.9002684465 2.2103927906 -0.5980648386
H 0.8762763791 1.5049656823 -2.0677331407
H 0.1632587118 -0.0740198874 -2.3093233947
H 1.3433597018 0.9886286262 0.2959465390
H 3.1278567999 1.8505757387 -0.6675761286
H 2.9307917027 1.2867918171 -2.3271979214
H 5.1118745184 0.1203985297 -2.2424748972
H 5.2933666695 1.8106955275 -1.7998397246
H 5.3075595876 1.2566958753 0.5812390200
H 3.2237501275 0.1883836810 1.1750598972
H 3.1757965877 -2.1637252326 2.0671192402
H 2.6191722109 -2.7191959833 0.5067062750
H 1.3212985555 -0.6923738540 2.3730433688
H 0.7138666263 -2.3067940262 2.0344534078
H -1.8038789577 -2.1099310796 1.5197876785
H -1.1824330254 -1.2085212727 2.8784302843
H -3.6779289810 -1.4166215230 2.8481936057
H -3.1391037662 0.2561088406 2.9197637376
H -1.4433003985 1.4339508483 2.4012421479
H -0.1919176370 1.9149809921 1.2716023555
H 0.1842481543 0.8210092454 2.5995552058
H -0.3727662817 -1.8466242611 -1.4471643349
H -0.8336173685 -2.6939734088 0.0264523626
H 0.8114536107 -2.7902093854 -0.5622663945
H 6.4489298393 -2.2464647674 -0.1898685707
H 4.8511826281 -2.9717101099 -0.0236404992
H 5.2224777488 -1.9791657559 -1.4361233434
H 5.0297139652 -0.2275778559 2.5313977134
H 6.5487235300 -0.8587892713 1.8602625900
H 5.2488798209 -1.9724439487 2.2902637291
H 7.1381687241 -0.1735159624 -1.0145945035
H 3.5753499723 -1.2454670339 -2.5204335185
H 2.6304954598 -2.3462283337 -1.5324641892
H 1.8254810219 -1.2031526710 -2.6061220939
H -4.6578388133 -1.2866962660 -0.7979275856
H -3.2648579284 -2.0643582506 -0.0483662671
H -5.9112876983 -2.1815041087 0.8997358273
