52
CONF8
C 1.8001754721 0.6119084567 -0.1999413171
C 2.9162758184 1.3424527698 -0.9640997864
C 4.2233429140 0.6738378578 -0.4645072605
C 3.7868097602 -0.4967820557 0.4816340514
O 4.6082931258 -1.6640156999 0.3461155543
C 3.8135925709 -0.0468517076 1.8734779172
C 3.8911656433 0.3377135837 3.0134975641
C 2.3408749729 -0.8143094435 -0.0066164060
C 2.4457250984 -1.6010259106 -1.3225494957
C 1.4381717719 -1.5469448170 0.9826064257
C -0.0163045510 -1.5483689087 0.4891529144
C -0.5513265582 -0.1346815580 0.1912365624
C 0.3808837239 0.6551001282 -0.7555755092
C -0.1144429865 2.0924486833 -0.8920347486
C -1.5434520643 2.1221634729 -1.4289957140
C -2.4913654687 1.2929238257 -0.6130137500
C -3.7391796530 1.7431643217 -0.3616702861
C -4.6591688089 0.8627769206 0.2883362868
C -4.3217305166 -0.3342640279 0.8460319721
C -2.8913588230 -0.7432732729 0.9115214325
C -2.0498857969 -0.1341662403 -0.2538196651
C -2.2907853339 -0.9814852357 -1.5234801715
C -5.5538551001 -0.8281709656 1.3252510482
N -6.5574565467 -0.0100679897 1.0737039443
O -5.9822309472 1.0883859836 0.4038428003
H 1.7533177061 1.0562241503 0.8078225166
H 2.9073568923 2.4187203723 -0.7734282138
H 2.7957613346 1.2041688986 -2.0447104482
H 4.8762040535 1.3728195866 0.0630139946
H 4.7989989369 0.2346945452 -1.2834823830
H 5.4100450155 -1.5174449078 0.8609900225
H 3.9452771949 0.6643638397 4.0240748122
H 1.4685693267 -1.7001922276 -1.7992039665
H 2.8323291262 -2.6033590815 -1.1248437597
H 3.1174125029 -1.1256181797 -2.0409969200
H 1.4879006791 -1.0402950145 1.9541095076
H 1.7853519021 -2.5756190841 1.1356924936
H -0.0989096143 -2.1755383578 -0.4049717404
H -0.6378780206 -2.0234424768 1.2545429781
H -0.5306497949 0.4203555782 1.1449097429
H 0.3730620670 0.1932978076 -1.7542505162
H 0.5413121291 2.6607064802 -1.5612668885
H -0.0746107383 2.5810030654 0.0919215632
H -1.9210632528 3.1476866015 -1.4972956017
H -1.5295727073 1.7282752665 -2.4570209110
H -4.0655291133 2.7251470503 -0.6899583652
H -2.7953010885 -1.8330615782 0.8893165324
H -2.4685979160 -0.4086928033 1.8714937858
H -1.7071350673 -0.6214120851 -2.3746046086
H -3.3501242750 -0.9379039835 -1.7954434085
H -2.0316242878 -2.0297731524 -1.3501132591
H -5.7646710304 -1.7535779834 1.8476155598
