41
CONF122
C -0.3567663151 3.3844173993 -1.4941880779
C -1.4183869320 2.7819636402 -0.5795715177
C -2.1919680174 3.8850563503 0.1391628709
N -0.7489529021 1.9012226383 0.3989249585
C -1.6418777317 0.9372135487 1.0537513840
C -0.9930351893 0.4277391564 2.3389625357
O -0.7490647648 1.5089856861 3.2404256736
C 0.3368103132 -0.2847767840 2.0949321094
O 0.1131580696 -1.2981887312 1.1096502916
C 1.1930488567 -1.9470072469 0.5861897520
C 2.4835904912 -1.8537497616 1.1086507654
C 3.5230024931 -2.5592445529 0.5032308329
C 3.2819916242 -3.3516393568 -0.6120082053
C 1.9870134055 -3.4344628927 -1.1231950722
C 0.9287530518 -2.7413842430 -0.5442794994
C -0.4581387045 -2.7956898858 -1.1211534327
C -0.8468786952 -1.6000146197 -1.9523097336
C -0.0633066746 -0.5720306283 -2.2689662316
H -0.8177119871 4.0425039634 -2.2363860840
H 0.3572372901 3.9729380386 -0.9071397765
H 0.1966148716 2.6045088402 -2.0288395353
H -2.1263098220 2.2009463598 -1.2011419577
H -2.9506244714 3.4843337745 0.8172382089
H -2.7017059543 4.5247130878 -0.5882624920
H -1.5018296662 4.5029720458 0.7239481794
H -0.0417721308 1.3695895252 -0.1031702260
H -2.5699297924 1.4437262225 1.3384512054
H -1.9091005752 0.0894863551 0.4027239623
H -1.6862271572 -0.2575942170 2.8410064864
H -0.4104201875 2.2256779237 2.6788122745
H 0.6990706961 -0.7229077774 3.0342226354
H 1.0847269594 0.4362567199 1.7343712469
H 2.6850146525 -1.2452966355 1.9820869903
H 4.5244007644 -2.4840971927 0.9156150948
H 4.0904104903 -3.9018180501 -1.0816300480
H 1.7894189351 -4.0469220730 -1.9992420803
H -0.5554640794 -3.6937673569 -1.7455831831
H -1.1983616373 -2.9083908303 -0.3184051518
H -1.8719848086 -1.6190533622 -2.3228178315
H 0.9671172712 -0.5155326389 -1.9258082065
H -0.4315615423 0.2399579738 -2.8882590941
