40
CONF1
C 3.9312084760 -2.0722692895 -0.7309440563
O 4.0256438475 -0.6253856419 -0.6282857528
C 3.4395029220 0.0630954477 -1.6087983192
O 2.8119846973 -0.4343661435 -2.5217367227
C 3.6809568911 1.5597712538 -1.5358609878
S 4.1754658201 2.2892508157 0.0575049196
C 2.6931555889 2.1615828750 1.0300606036
C 1.4807724902 1.6594957168 0.5524329111
C 0.3322916673 1.6006371933 1.3565741116
C 0.4404310884 2.0893599408 2.6633014360
C 1.6200796446 2.5904467317 3.1744789578
C 2.7395670866 2.6184489621 2.3537899119
Cl 4.2360555163 3.2637425810 3.0028318151
F -0.6489324732 2.0572062541 3.4632123310
N -0.9011587417 1.1599168256 0.8944125578
C -1.0102404759 0.0295819640 0.2996777277
N -2.1733245963 -0.3750671130 -0.3094126865
N -2.2070190773 -1.7557876840 -0.5822389457
C -1.0140663417 -2.4017804699 -0.4987228489
O -0.7777756029 -3.5424782888 -0.8495771238
S 0.2202816908 -1.2695944263 0.1991312016
C -3.2493304097 -2.1893390981 -1.5288892543
C -4.6072868229 -1.6965430443 -1.0511060838
C -4.5644403305 -0.1853667194 -0.8417984915
C -3.4659879244 0.1855002961 0.1437205029
H 4.4496404311 -2.4111462612 -1.6306805125
H 2.8847810999 -2.3811958204 -0.7648614033
H 4.4187239501 -2.4540966313 0.1645190784
H 2.8180336900 2.0753785630 -1.9651765143
H 4.5333540821 1.7668731339 -2.1958472116
H 1.3825514635 1.3418671449 -0.4789654787
H 1.6624982491 2.9469129432 4.1971789575
H -3.0136688018 -1.7816209646 -2.5218363121
H -3.1965200469 -3.2783077841 -1.5675313126
H -5.3566712581 -1.9646227739 -1.8015882351
H -4.8723124501 -2.2010113921 -0.1143250797
H -4.3850660707 0.3211597859 -1.7976760053
H -5.5159344285 0.1793594676 -0.4437020277
H -3.6871282274 -0.2048473217 1.1477353365
H -3.3301175358 1.2652388870 0.2057040047
