25
CONF12
C -2.0714179335 2.2105410536 -0.4028601123
Si -1.2557324102 0.5990519044 0.0805373266
C -1.7322083676 0.1157097467 1.8259367678
C -1.7156440232 -0.7646253471 -1.1194968052
O 0.3858169858 0.8588667430 0.0154917750
Si 1.7783521220 -0.0124553588 -0.0028929341
C 1.7168768577 -1.3929590744 1.2511464612
C 2.1204159188 -0.6627225708 -1.7170133701
O 2.9198504226 1.1230859698 0.4279510732
H -3.1626947265 2.1154671987 -0.3738602195
H -1.7839854986 2.5072995386 -1.4176651421
H -1.7836369345 3.0154328855 0.2826682588
H -1.2686522871 -0.8347565349 2.1119087596
H -1.4162039791 0.8797420242 2.5450659584
H -2.8190106626 0.0003926570 1.9099769710
H -1.4127885131 -0.5080842491 -2.1409254628
H -2.7994467085 -0.9283826698 -1.1183457432
H -1.2334325769 -1.7111070997 -0.8486712478
H 2.6741154378 -1.9258731299 1.2853976455
H 0.9376534593 -2.1207452388 0.9971514013
H 1.5074927272 -1.0025536654 2.2530174393
H 1.3630634151 -1.3977340356 -2.0115106901
H 2.1121956179 0.1503886247 -2.4510847050
H 3.0995615330 -1.1533090703 -1.7611096459
H 3.8394599285 0.8393297988 0.3791861345
