47
CONF38
C -2.4257095355 1.5952108164 1.9054682763
C -3.0401975192 0.2913700686 1.4002398365
C -4.4026816565 0.4720676053 0.7216240077
C -4.3691461444 1.3483393540 -0.5132969135
O -3.5024440893 0.6964531622 -1.4864718236
C -2.9775026945 1.4788477742 -2.4364761471
O -3.2179465115 2.6543485110 -2.5940078475
C -2.0472819862 0.7017233199 -3.3711891350
C -2.8345080199 0.2164732942 -4.5796075855
O -1.4682772794 -0.4512480512 -2.7675321954
C -0.6641263980 -0.2699342742 -1.6762242529
C -0.2554216747 -1.4431567468 -1.0343422118
C 0.5465853640 -1.3779787735 0.0917500527
C 0.9444654058 -0.1363869505 0.5726282074
C 0.5536196586 1.0305592445 -0.0544232534
C -0.2573950346 0.9717551182 -1.1868974997
O 1.6731314125 -0.0399340714 1.7656935870
C 2.9801187304 -0.4102112952 1.7609553408
C 3.6319561538 -0.3791587829 3.0033255738
C 4.9605978854 -0.7388656947 3.0341363947
C 5.5930875476 -1.1121312603 1.8418373251
C 4.8514936012 -1.1059091763 0.6696051526
N 3.5604402991 -0.7587632717 0.6251434714
C 7.0273972626 -1.5297408313 1.8660038115
F 7.5463826460 -1.6638353819 0.6264857764
F 7.1939969930 -2.7214470464 2.4991832733
F 7.7980899908 -0.6336599472 2.5341370017
H -1.4967798516 1.3987552782 2.4488862753
H -2.1760618466 2.2716066604 1.0816019897
H -3.1098260808 2.1222395119 2.5806505842
H -2.3488011317 -0.1943511821 0.7024132985
H -3.1672331275 -0.3995235076 2.2419171337
H -4.8165087729 -0.5068489790 0.4521315738
H -5.1097625180 0.9333262231 1.4244791578
H -3.9755226878 2.3479055420 -0.3104173344
H -5.3613212875 1.4578849457 -0.9645040179
H -1.2659631709 1.4050096762 -3.6900528328
H -3.6112870594 -0.4847389765 -4.2635331360
H -2.1624224050 -0.2905495011 -5.2758548391
H -3.2984590206 1.0672100882 -5.0839475656
H -0.5896205307 -2.3960990207 -1.4289926254
H 0.8648540567 -2.2818072792 0.5992300819
H 0.8745698181 1.9866753327 0.3440172939
H -0.5608785356 1.8979187045 -1.6604581729
H 3.0915012679 -0.0794589366 3.8929819656
H 5.5131666816 -0.7315078188 3.9681045721
H 5.3076307738 -1.3856335794 -0.2764023087
