24
CONF30
O 3.7696596766 -0.7217082732 -1.2339984293
S 3.6191401191 0.4252496225 -0.1084307481
O 3.7383202858 -0.2478257949 1.1755093617
O 4.4046346363 1.6029159548 -0.4597066531
C 1.7884099668 0.9535948527 -0.3446046179
F 1.6743574350 2.1564909435 0.2364679721
F 1.5674986299 1.0673933543 -1.6659888995
C 0.7742556688 -0.0490908096 0.2920667123
F 1.1509383759 -1.3061996870 -0.0279534005
F 0.8155188661 0.1027208069 1.6324293787
C -0.6983829519 0.1729335336 -0.2132925555
F -0.8077149055 -0.3659247787 -1.4464467273
F -0.9369621202 1.5043145952 -0.2871920381
C -1.7776715454 -0.4613174677 0.7242099483
F -1.8918286227 0.3015974773 1.8314700969
F -1.3582532836 -1.6987984884 1.0837364704
C -3.2161645796 -0.6538140020 0.1166448257
F -3.1675476813 -1.6074070232 -0.8371298020
F -3.9897614076 -1.0962131999 1.1359305445
C -3.9195007422 0.5994662637 -0.4898582161
F -3.8987142841 1.6199769106 0.3763624506
F -5.1915886613 0.2881844815 -0.7652119096
F -3.3151020358 0.9744494478 -1.6248103078
H 4.0015438289 -0.3301512930 -2.1000806073
