32
CONF3
C 3.1239860806 1.6552836748 0.6335265918
C 2.2787360716 1.8967096827 -0.4348068119
C 1.6236127595 0.8456400173 -1.0873133055
C 1.8572256034 -0.4707532332 -0.6468833094
C 2.7186560748 -0.7358507918 0.4035961325
C 3.3313666961 0.3399873711 1.0331229945
N 4.2352977336 0.0669771896 2.1590649670
O 4.4216485376 -1.1035875630 2.4765235476
O 4.7533636355 1.0266611156 2.7207347224
Cl 1.0448946225 -1.8094448127 -1.4226235414
N 0.7651740722 1.1315248294 -2.1692314837
S -0.7523145663 1.8686758713 -1.7923612892
O -1.4671305754 1.9285392679 -3.0690303513
O -0.4547120842 3.0719759565 -1.0127873518
C -1.5534343000 0.6833048163 -0.7163636430
C -2.3692789291 -0.2872749626 -1.2823005983
C -2.9197176198 -1.2725971318 -0.4700280977
C -2.6245566912 -1.2660479655 0.9007733189
C -1.8090863974 -0.2848093268 1.4554219901
C -1.2671921643 0.7025687461 0.6445424431
Cl -3.2683280902 -2.4814990453 1.9705489319
C -3.8026061441 -2.3268016897 -1.0906363984
F -3.9522846865 -2.1313552845 -2.4172280117
F -3.2886600437 -3.5695838367 -0.9314556175
F -5.0441312752 -2.3329152245 -0.5518104961
H 3.6303479101 2.4690262658 1.1357984624
H 2.1193722240 2.9074947497 -0.7890657603
H 2.8949547708 -1.7495429414 0.7386816768
H 0.5864753087 0.3264569972 -2.7698794635
H -2.5729973786 -0.2785157830 -2.3460053380
H -1.6012043936 -0.2941963279 2.5187816881
H -0.6374765655 1.4739498505 1.0735375099
