41
CONF128
C -4.1615730091 1.5947174813 2.0692203640
C -3.9546686025 2.3542376498 0.7592778771
N -3.4621466439 1.5085989532 -0.3394174237
C -4.4419170073 1.1758283075 -1.3716398732
C -5.4872668302 0.1545934836 -0.9215563861
O -4.9170460444 -1.0778838729 -0.4813516222
C -2.1914281502 1.0263605787 -0.3442513550
C -1.7460621935 0.0544666690 -1.2831410298
C -0.4443330355 -0.3846513439 -1.2785041899
C 0.4971183033 0.0946072576 -0.3449042572
C 0.0642545264 1.0545952830 0.5990717171
C -1.2316561872 1.5014497555 0.6032364884
N 1.7682698351 -0.4236638008 -0.4432934856
N 2.6127515795 -0.0197719926 0.4268658938
C 3.8981913642 -0.5466769446 0.2651024262
C 4.3174986019 -1.3465291380 -0.8187231795
C 5.6178331271 -1.8033467781 -0.8803302299
C 6.5113858845 -1.4646547644 0.1406307130
C 6.1232418688 -0.6716192832 1.2208651020
C 4.8203064548 -0.2149506569 1.2744733430
N 7.8807316506 -1.9480588335 0.0723454926
O 8.2060523211 -2.6504154025 -0.8879482047
O 8.6572425451 -1.6353679627 0.9782032839
H -4.5236774536 2.2867987598 2.8354457363
H -3.2314833675 1.1458263852 2.4274298766
H -4.8986449306 0.7969303684 1.9475054451
H -3.2735643026 3.2006187211 0.9055441559
H -4.9055658378 2.7789265108 0.4269670143
H -3.9322379354 0.8234300453 -2.2700079940
H -4.9679463942 2.0981167519 -1.6515685482
H -6.0568085942 0.5456345189 -0.0729379856
H -6.1904850217 -0.0010590758 -1.7524136548
H -4.5502220727 -1.5321010507 -1.2498921609
H -2.4280945187 -0.3711088876 -2.0058612049
H -0.1218892479 -1.1304053538 -1.9989007734
H 0.7686231179 1.4472132323 1.3232055132
H -1.5153634124 2.2445968266 1.3363464212
H 3.6148590430 -1.5948887810 -1.6043239907
H 5.9530227552 -2.4156889249 -1.7082121246
H 6.8352408019 -0.4227752700 1.9973678854
H 4.4874580077 0.4052290771 2.1000744273
