40
CONF68
C 1.9862989242 1.3334389354 2.7551854801
C 1.1525414660 0.4708020181 1.8401264287
O 1.8279591457 0.4199711171 0.5400081661
P 1.8131582223 -0.8294308719 -0.4493883440
S 1.3570592006 -2.5706050676 0.2826131479
O 3.2143112382 -0.6986384097 -1.2020060834
C 4.4123663062 -1.3851197391 -0.7045417966
C 4.9270365670 -0.7820470674 0.5824435312
O 0.9496208834 -0.3269676428 -1.7605409758
C -0.3998586988 -0.1159698247 -1.7477928696
C -1.0076571888 0.1331312508 -2.9727602257
C -2.3786276489 0.3487565960 -2.9369460602
N -3.0663199735 0.2966778182 -1.7766451353
C -2.3781002550 0.0460189609 -0.6610073269
N -1.0482516176 -0.1530958413 -0.5975088566
C -3.1488809486 0.0243300726 0.6367433174
C -2.6564379464 -1.0576146588 1.5985002191
C -3.0867815762 1.4176583492 1.2847561090
C -3.1629043476 0.6403497910 -4.1756144127
H 1.4774986676 1.4163389060 3.7205918722
H 2.1077282144 2.3387720926 2.3425124810
H 2.9733370343 0.8923218011 2.9188828255
H 0.1594308154 0.8912118706 1.6676831556
H 1.0486067673 -0.5497850430 2.2202319057
H 4.1743797256 -2.4474510373 -0.5906694837
H 5.1288471586 -1.2648900049 -1.5191837474
H 4.2324717423 -0.9486958426 1.4110626248
H 5.0963674786 0.2926358602 0.4709584704
H 5.8789116736 -1.2600824852 0.8347666535
H -0.4383122731 0.1540546356 -3.8937225085
H -4.1912657541 -0.1792799400 0.3688462894
H -1.6369310469 -0.8500465704 1.9348077506
H -2.6658450976 -2.0444165206 1.1248739158
H -3.3075438957 -1.0910767749 2.4773633532
H -3.6829668130 1.4281731254 2.2025411030
H -2.0539748630 1.6735380395 1.5438381903
H -3.4751369817 2.1862007595 0.6095095149
H -3.6561655362 1.6133040531 -4.0799800111
H -2.5255259098 0.6469864307 -5.0611994766
H -3.9504440497 -0.1094591364 -4.3026341820
