27
CONF115
C 3.1662377970 -1.0725606204 -0.5918467535
C 4.5728198022 -0.4673533764 -0.6270540977
C 5.0462471592 0.1273018919 0.6968628478
O 5.1092377689 -0.8343703426 1.7516862964
C 2.0822971118 -0.0287356501 -0.3056967289
C 0.6995380581 -0.6423960972 -0.2828583406
C -0.4315609794 0.4072774329 -0.0687752289
C -1.8505718153 -0.1770484244 0.2313997964
C -3.0188362750 0.8419408553 0.0272815926
F -2.7555487335 1.9933046253 0.6629521263
F -4.1445266658 0.3185343515 0.5331708305
F -3.2151884967 1.0943754539 -1.2716033959
F -1.8870952367 -0.5838394073 1.5199572488
F -2.0968385990 -1.2364638497 -0.5715568173
F -0.4986190850 1.1822735939 -1.1837524435
F -0.0850055446 1.2018937497 0.9782612088
F 0.5986880164 -1.5658601800 0.7265748834
F 0.4452869915 -1.2933958025 -1.4568641472
H 2.9600335235 -1.5486976103 -1.5551876922
H 3.1215354162 -1.8703783890 0.1584945042
H 5.2809759875 -1.2484749242 -0.9254890694
H 4.6170091245 0.3180174177 -1.3943700888
H 4.4255388324 0.9886947711 0.9909161274
H 6.0687647316 0.4996806679 0.5795623952
H 2.0914305753 0.7540744032 -1.0727463713
H 2.2394785461 0.4587628056 0.6607520702
H 4.2110095279 -1.0760692628 2.0009710712
