37
CONF4
C 4.7862676387 0.6197213272 -0.5606494222
C 3.6565799810 -0.3205756040 -0.9753867588
C 2.3922169656 -0.1098324217 -0.1422646520
C 1.2720693930 -1.0542408298 -0.5647588930
C -0.0464399152 -0.8798547800 0.2416979208
C -1.0851874709 -1.8968078393 -0.3333871084
N -2.4089230197 -1.7294122034 0.2294834330
C -3.4517556790 -1.0397850257 -0.2782514371
N -4.4561520793 -1.0243225021 0.5886859507
C -3.9534749294 -1.7282417854 1.6423420277
N -2.7143681697 -2.1728707365 1.4744461677
C 0.2523948380 -1.2414530267 1.6289741985
N 0.5416178402 -1.5569775286 2.7025165248
C -0.6233748465 0.5328466702 0.1631869242
C -1.1307748377 1.1792898015 1.2895243078
C -1.7294115932 2.4321835464 1.1899655459
C -1.8177812701 3.0325808168 -0.0575031402
Cl -2.5724856494 4.6149961271 -0.2000475985
C -1.3241782125 2.4120501401 -1.1990819908
C -0.7310803367 1.1611534507 -1.0801374175
H 5.0582241963 0.4636054674 0.4890776991
H 4.4843484321 1.6665632563 -0.6759354464
H 5.6817886406 0.4582075687 -1.1685344999
H 3.4175667305 -0.1683906223 -2.0359959008
H 3.9851844914 -1.3631382552 -0.8755546744
H 2.0571441015 0.9300396684 -0.2461848831
H 2.6271134898 -0.2625846903 0.9194616083
H 1.5940866754 -2.0964830799 -0.4548097987
H 1.0351753989 -0.9082321916 -1.6239233475
H -1.1590177716 -1.7246371381 -1.4100007362
H -0.7454043408 -2.9206877687 -0.1573160195
H -3.4321605614 -0.5893525473 -1.2624137407
H -4.5102495498 -1.9252553884 2.5498550130
H -1.0694041011 0.7104927522 2.2665570558
H -2.1207353502 2.9256812572 2.0721541864
H -1.4013372915 2.8932296097 -2.1673114248
H -0.3580826046 0.6804952036 -1.9784803558
