49
CONF6
C -4.7187394670 2.1370554953 -1.1988555778
C -3.5699381373 1.2212339413 -1.5615017138
C -2.8845421049 0.4062888867 -0.5050020617
C -2.2038569553 1.6605221763 -1.0412279904
C -0.9360274506 1.4573361131 -1.7651957090
O -0.6105430681 0.4803019474 -2.3999194290
O -0.1248968781 2.5432686511 -1.5815552234
C 1.2572600396 2.3411237660 -1.9997699739
C 1.7897930239 3.6697777018 -2.2854219394
N 2.2364612144 4.7086002557 -2.5179419997
C 2.0116272067 1.6333265450 -0.8973028960
C 2.3205307220 0.2851094522 -1.0411712423
C 2.9194980617 -0.3932437362 0.0169158314
C 3.2122382477 0.2625018841 1.2107347132
C 2.8945773106 1.6108313616 1.3398319837
C 2.2960117373 2.3036570119 0.2935561321
O 3.2531037297 -1.7082826191 -0.2037930592
C 3.1258178845 -2.6137010240 0.8389163165
C 4.1152616108 -3.5816280375 0.9612763208
C 3.9892428652 -4.5568358458 1.9457093973
C 2.8910433284 -4.5588832254 2.8010390255
C 1.9076245670 -3.5823166953 2.6617360894
C 2.0151700502 -2.6058878246 1.6780067497
C -3.3088011479 0.3599736910 0.9286029837
C -2.2834193189 -0.2873669228 1.8745836393
Br -1.9108363560 -2.1563019757 1.4081354965
Br -2.8943488811 -0.1816774842 3.7381749058
Br -0.5894062252 0.7363686568 1.7369774641
Br -5.0469593473 -0.6131431490 1.0457451615
C -3.6969299538 0.6014411236 -2.9341075803
H -5.6633678049 1.5862137657 -1.2262277138
H -4.7779213903 2.9557255471 -1.9233061725
H -4.6150741118 2.5792994130 -0.2046609186
H -2.4451790426 -0.5180210708 -0.8718766066
H -2.2152078240 2.5345010011 -0.3990325169
H 1.2705530367 1.7441371696 -2.9184130906
H 2.0763993591 -0.2550076882 -1.9489062935
H 3.6796812453 -0.2796277352 2.0250607740
H 3.1282993644 2.1267559000 2.2654038404
H 2.0529499286 3.3564411856 0.3964375012
H 4.9632972388 -3.5613437785 0.2857234565
H 4.7587625999 -5.3154925088 2.0454277960
H 2.7998294472 -5.3189677451 3.5693199835
H 1.0414887281 -3.5810697756 3.3160425533
H 1.2458237835 -1.8508874079 1.5582931207
H -3.5288083401 1.3507040644 1.3308351451
H -4.6143176635 0.0050807540 -2.9766625842
H -3.7640779931 1.3835835051 -3.6977784540
H -2.8491477535 -0.0418130170 -3.1728552324
