59
CONF341
C 5.6350690767 1.7189036352 4.1294497958
C 4.5806988053 2.6636700766 4.7117998413
C 3.2756651796 2.0941013676 4.1445517338
C 3.6246505440 1.5966727030 2.7131185959
C 5.1856175865 1.5737667281 2.6704989844
C 3.0501213477 2.5195765925 1.6400333307
C 3.3399071546 2.0481617567 0.2406045297
O 3.4980733243 2.8228051427 -0.6928813500
N 3.4030055563 0.6668233044 0.0268211312
C 3.2561647170 -0.2863875709 1.0415540516
O 3.2999858122 -1.4817236788 0.7857625864
C 3.0363676536 0.2142801708 2.4463333613
C 3.6370369300 0.2042410018 -1.3575037338
C 2.3699341615 0.2343764428 -2.2107426556
C 1.2670238733 -0.6971111040 -1.7104580710
C 0.0329142846 -0.6151455430 -2.6043416731
N -1.0093173711 -1.5904640391 -2.2550739447
C -1.6354679831 -1.2750369294 -0.9642892679
C -2.7073080093 -2.3058244066 -0.6207937762
N -3.7148930299 -2.3615995104 -1.6793566051
C -3.1113445262 -2.6565393476 -2.9786463817
C -2.0385654478 -1.6209993820 -3.3030496336
C -4.9155453334 -1.7196797031 -1.5698798864
N -5.2754983059 -1.2671232109 -0.3429221763
C -6.4747953794 -0.6962551451 -0.2501560503
C -7.3356113538 -0.5495208876 -1.3318706190
C -6.8664340465 -1.0392432145 -2.5452626944
N -5.6756928960 -1.6174496745 -2.6883218659
H 5.5828040874 0.7490267903 4.6404957617
H 6.6594040734 2.0925025039 4.2206826181
H 4.5847207908 2.7045140829 5.8052731824
H 4.7483497075 3.6806574742 4.3347840516
H 2.4529441234 2.8158511164 4.1350027331
H 2.9578495210 1.2404884392 4.7554527250
H 5.5488321860 2.4327126003 2.0930731673
H 5.5755371611 0.6696313104 2.1907221553
H 1.9556913807 2.5689093732 1.7384746618
H 3.4348023091 3.5394444976 1.7260607755
H 3.4517842690 -0.5410726210 3.1200816252
H 1.9487360786 0.2319011887 2.6112367440
H 4.0303313425 -0.8113533243 -1.2918256981
H 4.3996930771 0.8538910730 -1.7922101991
H 1.9933875056 1.2624860500 -2.2646254494
H 2.6609238330 -0.0505339672 -3.2299064750
H 1.0095994474 -0.4258411138 -0.6802600930
H 1.6311415378 -1.7315263363 -1.6899668630
H 0.3361906956 -0.8195288344 -3.6396626736
H -0.3690532870 0.4183786779 -2.5871049180
H -0.8769534989 -1.2900465141 -0.1756112853
H -2.0938665266 -0.2646497636 -0.9768446427
H -3.1799691180 -2.0599313962 0.3288154774
H -2.2457349906 -3.2986056784 -0.5414901648
H -3.8786085756 -2.6644054361 -3.7512543893
H -1.5640712190 -1.8817944159 -4.2563640304
H -2.5223487893 -0.6301960784 -3.4246385019
H -6.7585233559 -0.3360686665 0.7384840038
H -8.3060889326 -0.0792165260 -1.2364872949
H -7.4727037047 -0.9616125017 -3.4475222978
H -2.6543155970 -3.6529718153 -2.9215737338
