44
CONF71
C 4.1895911753 -1.0587299520 -2.3055709624
C 3.3643064320 -0.2939481555 -1.2749993697
C 4.1253621219 -0.0250510556 0.0773297211
N 3.1176311575 0.0234849223 1.1155970430
C 1.9882773756 -0.9147792677 1.0017344331
S 1.8909385028 -1.3582117268 -0.7804707337
C 1.0573012857 0.2055099260 1.5830621700
C 2.3161708346 1.1079200563 1.4549169308
O 2.5547352045 2.2877937969 1.5544132892
N -0.0766052367 0.6025331607 0.8199096286
C -1.3020004501 0.8186930201 1.3552803880
O -1.5570976864 0.7133846095 2.5544661103
C -2.3743270252 1.2591594749 0.3432515025
C -3.6898287306 0.5630220768 0.6255546709
C -3.7629208220 -0.8327890787 0.6453340306
C -4.9723229646 -1.4862189701 0.8457464891
C -6.1378889050 -0.7382681458 1.0345383506
C -6.0839954474 0.6548974741 1.0186141439
C -4.8639996542 1.2922139244 0.8153324687
O -7.3564163982 -1.3219283490 1.2411850145
N -1.9028044820 1.1218562841 -1.0469205007
C 5.1424391950 -1.1093156833 0.3959197992
O 6.3554526376 -0.7933374923 -0.0832409984
O 4.8882893900 -2.1332160494 0.9906466749
C 2.8788640372 1.0313871093 -1.8621779691
H 5.0605426592 -0.4613420566 -2.5936701057
H 3.5892966901 -1.2328919591 -3.2027676179
H 4.5297783680 -2.0261221085 -1.9267034903
H 4.6332682836 0.9422676207 0.0144940400
H 2.0745526469 -1.8206123173 1.6036740749
H 0.0079266520 0.7371324118 -0.1827096254
H -2.5056789645 2.3317531782 0.5402613385
H -2.8610471528 -1.4250550467 0.5060312918
H -5.0169739486 -2.5721360594 0.8625290479
H -6.9946385841 1.2262154876 1.1681718525
H -4.8278193626 2.3783883645 0.8057507802
H -7.2562243049 -2.2835495202 1.2430277851
H -2.0606297684 0.1678469144 -1.3611640237
H -2.4747369957 1.7082158347 -1.6457026507
H 2.2535051152 0.8414845765 -2.7383972492
H 2.2913832247 1.6101261790 -1.1448434610
H 3.7414299315 1.6323401708 -2.1721140388
H 0.7551800144 0.0220252713 2.6183267226
H 6.9626331603 -1.5329355687 0.0977860756
