58
CONF22
C 3.1336439209 2.6329804213 0.5214203622
C 3.3114728776 1.6473776417 -0.6347228786
C 4.3580424605 2.1728444943 -1.6196555656
C 3.6638315556 0.2543660249 -0.0914999869
C 3.6769222359 -0.8563078239 -1.1409778766
C 4.1336250752 -2.2187770462 -0.6026186917
C 3.3186899764 -2.7717128824 0.5724152879
C 1.8277268414 -2.9043510785 0.2695151564
C 1.0462613966 -3.5324158697 1.4223337155
C -0.4465673696 -3.6306474316 1.1766729722
O -1.0754566888 -2.3077351090 1.2133960677
P -1.3724009288 -1.4954208243 -0.1229530862
O -1.2753854769 -2.2423039054 -1.3890063600
O -0.3750819654 -0.2378847186 0.0989754927
C -0.3415612453 0.8453148163 -0.7846791625
C -0.4190783070 2.1115172206 -0.2198321621
C -0.2983155838 3.2235604672 -1.0448779250
C -0.1129471406 3.0651224186 -2.4159663212
C -0.0507174443 1.7865606808 -2.9624396269
C -0.1607202358 0.6608872607 -2.1503609925
O -2.8406884980 -0.8618519065 0.0860383117
C -3.1212878599 0.2285988362 0.9095630208
C -3.8798221785 1.2478402046 0.3485502583
C -4.2070431388 2.3524057457 1.1260588319
C -3.7760998171 2.4352662545 2.4477107973
C -3.0230100691 1.3998912366 2.9936731915
C -2.6932636678 0.2831964236 2.2303787107
H 2.3633200728 2.2893680721 1.2198736029
H 4.0711392541 2.7459413449 1.0800743853
H 2.8377235734 3.6217743829 0.1555950329
H 2.3526866735 1.5687800206 -1.1652976155
H 4.0976642841 3.1814272496 -1.9575906980
H 4.4431835153 1.5415146801 -2.5085564529
H 5.3455623853 2.2230660612 -1.1439537204
H 4.6462697467 0.3028806821 0.4038936064
H 2.9357957906 0.0023623994 0.6911748335
H 4.3497097124 -0.5819821202 -1.9617248098
H 2.6764953550 -0.9414755029 -1.5869139284
H 4.1059676572 -2.9472317843 -1.4239223758
H 5.1849251895 -2.1418091789 -0.2945314561
H 3.7241078473 -3.7545806670 0.8484079581
H 3.4511597779 -2.1309276641 1.4542486175
H 1.6817984724 -3.5021324638 -0.6405515617
H 1.4203910925 -1.9119736915 0.0538415906
H 1.4114176573 -4.5530727373 1.6043567862
H 1.2171828664 -2.9688096404 2.3486274850
H -0.9460529769 -4.1897815700 1.9721460391
H -0.6677304998 -4.0977084350 0.2110397786
H -0.5718116483 2.2082258828 0.8496160106
H -0.3512208455 4.2169927669 -0.6115956395
H -0.0179241291 3.9354538023 -3.0564482188
H 0.0943344796 1.6570291928 -4.0299779544
H -0.1066007802 -0.3418507473 -2.5582525254
H -4.1886355966 1.1676689517 -0.6876194862
H -4.7954551506 3.1544690759 0.6926197159
H -4.0297399039 3.3006043732 3.0505592209
H -2.6901141021 1.4541021758 4.0252041483
H -2.1095078478 -0.5289380416 2.6475958475
