48
CONF17
C -3.8236927270 -2.5238266668 1.7819490409
C -3.7079320097 -1.1631807661 1.1137750743
C -3.4646915864 -1.3185245404 -0.3909358721
N -3.3805409276 -0.0300275968 -1.0875663227
C -4.6026183241 0.7672522949 -0.8496112106
C -4.8366572025 0.9254872208 0.6511148788
N -4.9539129180 -0.3965468568 1.2796145380
C -2.1605848573 0.5904317877 -1.2216823014
C -1.9787079640 1.6787730716 -2.1237928273
C -0.7817021363 2.3027588302 -2.3186393028
C 0.3683432183 1.8590372385 -1.6407255629
C 0.2327177995 0.7490665148 -0.7811813893
C -1.0034360397 0.1436700449 -0.5691948857
N 1.3663399362 0.2855927816 -0.1026364738
C 2.5619511641 0.8865868699 -0.2579105806
C 2.7506856196 1.9676269150 -1.0823598801
C 1.6433443622 2.5113106398 -1.8306086643
O 1.7787331659 3.5039203888 -2.6030630682
C 4.1113860350 2.5466517623 -1.1799369725
O 5.0755023934 2.1148604049 -0.5655131921
O 4.2205612208 3.5932011005 -2.0019698159
C 1.2650772631 -0.8416119581 0.7785034942
C 1.2112404357 -2.1286029384 0.2499143107
C 1.0996399111 -3.2471440567 1.0548161376
C 1.0465966217 -3.0290574148 2.4231179795
C 1.0989833381 -1.7691261061 2.9982380039
C 1.2044242719 -0.6682344967 2.1566208804
F 0.9408678542 -4.1049065298 3.2296037037
F 1.2621700523 -2.2834745079 -1.0845342757
F -3.0325599051 2.0767530678 -2.8772947323
H -4.6241770640 -3.1117703960 1.3200304593
H -2.8829028184 -3.0755215897 1.6864187069
H -4.0467063387 -2.4130429390 2.8480706548
H -2.8504660333 -0.6166988298 1.5520708579
H -2.5668629364 -1.9098316177 -0.5890770658
H -4.3203446257 -1.8575828926 -0.8199844769
H -5.4457413176 0.2336811483 -1.3051145691
H -4.5189957950 1.7480754468 -1.3135054305
H -4.0057218802 1.5218518130 1.0738761959
H -5.7666505120 1.4836918919 0.8072733356
H -5.1288578335 -0.2751569773 2.2729433163
H -0.7069717763 3.1199140756 -3.0272943403
H -1.0722228118 -0.6644096410 0.1441701142
H 3.3851055412 0.4628776606 0.3073836710
H 1.0597358272 -4.2440406980 0.6319188048
H 1.0526855744 -1.6559889425 4.0747898554
H 1.2360052272 0.3367589857 2.5638567908
H 3.2898421253 3.7578635804 -2.3920394133
