50
CONF25
C 5.5362766209 0.2023031981 1.6908921462
C 4.5381266374 -0.9698058555 1.6437134827
C 3.9859274265 -1.2318147365 3.0578695714
C 5.2921052178 -2.2227526831 1.1825972263
C 3.3780386265 -0.6121817853 0.7110760954
C 2.5932752574 0.5165229851 0.9831627408
C 1.5232159547 0.8737710301 0.1752022776
C 1.2312323154 0.0929713470 -0.9329078819
C 1.9826981921 -1.0260854589 -1.2446002362
C 3.0487628517 -1.3693772128 -0.4148355432
O 0.1742361791 0.5075628142 -1.7619345303
P -1.1202427413 -0.4237434985 -1.9468765660
O -0.9311927328 -1.7531615807 -2.5463921107
O -2.0805441231 0.5104943640 -2.8287500590
C -2.5549099059 1.7466939800 -2.3634526418
C -1.7619942649 2.8786889367 -2.4881170246
C -2.2762640068 4.1022297432 -2.0695412908
C -3.5606789209 4.1831514578 -1.5385157614
C -4.3403532644 3.0348752857 -1.4305374051
C -3.8410268097 1.8045597934 -1.8460410047
O -1.7036997767 -0.3633834509 -0.4394307860
C -2.9182971012 -0.9223989868 -0.0439910979
C -3.5049760131 -2.0030634317 -0.6928348336
C -4.7243944961 -2.4802358323 -0.2164237634
C -5.3381671147 -1.8979840662 0.8874270556
C -4.7254735304 -0.8228143115 1.5271686451
C -3.5136813935 -0.3274441183 1.0627653882
H 6.3737554133 -0.0411049852 2.3538708418
H 5.0692060396 1.1179942758 2.0642781981
H 5.9353950533 0.4103243192 0.6930226167
H 4.8010514537 -1.4996182318 3.7390450936
H 3.4835280897 -0.3496940674 3.4649348955
H 3.2632840430 -2.0537964427 3.0431897331
H 4.6413047971 -3.1027718526 1.1601468095
H 6.1079929683 -2.4314464970 1.8813474859
H 5.7316042098 -2.0876501086 0.1889838328
H 2.8124506283 1.1332533730 1.8486554186
H 0.9122979493 1.7431565031 0.3924238538
H 1.7306591896 -1.6236319098 -2.1132229871
H 3.6248730841 -2.2505322445 -0.6693913035
H -0.7657839834 2.7937151450 -2.9057993941
H -1.6681470494 4.9960418581 -2.1633479641
H -3.9553720366 5.1404744462 -1.2152264887
H -5.3443280905 3.0923671832 -1.0229928965
H -4.4311487584 0.8977459529 -1.7716901776
H -3.0154755613 -2.4643806333 -1.5429103369
H -5.1904175034 -3.3226869523 -0.7170898265
H -6.2860008234 -2.2808682395 1.2498770129
H -5.1941595017 -0.3618092507 2.3905469231
H -3.0245702930 0.5173401362 1.5346552754
