40
CONF4
C 4.0403480948 -3.0413600923 0.9873572847
C 2.7925428867 -2.2721657843 0.6109917375
O 3.0481729924 -1.4283235540 -0.5546237152
C 3.6550985929 -0.2584391305 -0.3103337894
O 3.9417199844 0.1736405897 0.7804778427
C 3.9357133027 0.5021203333 -1.6005472450
C 2.7195896717 0.6230337992 -2.5202005589
C 1.5903902282 1.3175884461 -1.8044457801
C 0.5542805849 0.5679529980 -1.2475833702
C -0.4906957961 1.1591711150 -0.5431113866
C -0.4847325063 2.5456448018 -0.3855819361
C 0.5076158488 3.3280141170 -0.9454116272
C 1.5347456419 2.7062104516 -1.6436343339
Cl 2.7786477117 3.7264145192 -2.3385119275
F -1.4449044080 3.1455512037 0.3305164957
N -1.5143046796 0.3703399230 0.0125399092
C -1.3357135990 -0.8296882707 0.6789325302
O -0.3206285085 -1.4472730002 0.9377574838
N -2.6641061422 -1.1799096207 0.9999130463
C -3.5165677935 -0.1994532313 0.5028266017
N -2.8478974838 0.7365561680 -0.0946444506
C -4.9907206739 -0.2263500163 0.6355553575
C -2.9808797635 -2.3713549978 1.7010989873
F -3.7872217903 -3.1753528943 0.9420723721
F -3.6846761747 -2.0851281216 2.8370355634
Cl 5.2916144100 -0.3491798566 -2.4793161184
H 3.8114793226 -3.7199008167 1.8152099279
H 4.8338031505 -2.3629972353 1.3099698934
H 4.4005044790 -3.6352531521 0.1427578742
H 2.4319743674 -1.6395240225 1.4245432714
H 1.9837033832 -2.9290237077 0.2874630591
H 3.0149388998 1.1804133594 -3.4132316905
H 2.4051649396 -0.3764698442 -2.8274543740
H 0.5676810947 -0.5103668335 -1.3549472853
H 0.4795950415 4.4025666753 -0.8146908609
H -5.4093242160 -1.1264177520 0.1755264469
H -5.3960894230 0.6564359834 0.1403982628
H -5.2873949386 -0.2193800351 1.6887228249
H -2.0567560169 -2.9019534422 1.9540793017
H 4.3254805277 1.4807606866 -1.3181715616
