61
CONF4
C -0.4640366844 -2.5523677836 -2.5606280388
C -1.6710895938 -1.6319910659 -2.3376757851
C -1.9723258009 -1.4003495083 -0.8774913952
C -2.7472126881 -2.3315892128 -0.1880272095
C -3.0633601654 -2.1705080655 1.1600596831
C -2.6070433999 -1.0254714796 1.8083658515
C -1.8289694827 -0.0675534380 1.1566401102
C -1.4863436145 -0.2715763053 -0.1926780751
C -0.5932062264 0.6774702748 -0.8813013990
C -0.9565743865 1.9101477338 -1.5759564801
O -2.0385463531 2.4653769475 -1.7378856884
N 0.2456937870 2.3741808342 -2.1244268783
N 1.3166971055 1.5361812348 -1.7970637534
C 0.7518250909 0.5568451963 -1.0131118426
O 1.5402465496 -0.4624376072 -0.5527332291
C 1.8904633538 -0.4139654326 0.7985621753
O 1.8502660003 0.6105262891 1.4236923500
C 2.2829402385 -1.7879858043 1.3020928911
C 2.8829609135 -1.6419163542 2.7017377614
C 3.2946481518 -2.4409454707 0.3463851174
C 0.9918113895 -2.6312800787 1.3598043263
C 2.5876995950 2.1735867991 -1.4191407685
C 2.4300079532 3.3767742729 -0.4866361436
O 2.1830915090 4.5894349572 -1.1906238254
C 0.8476509452 4.7328698508 -1.6605999489
C 0.4379269712 3.6874423578 -2.6977947344
C -1.4436188990 1.1892816094 1.8932732068
C -2.5321406437 2.2661414946 1.7695082400
C -3.8669513555 -3.2100705314 1.8923165257
H -0.6229619218 -3.5220461892 -2.0768927933
H -0.2990853139 -2.7269880963 -3.6285684879
H 0.4459787998 -2.1128393545 -2.1428073837
H -1.4989953810 -0.6728325655 -2.8359234509
H -2.5542655268 -2.0802019909 -2.8070926509
H -3.1219898127 -3.2020817576 -0.7231629651
H -2.8668524924 -0.8645609460 2.8527571138
H 3.1414125795 -2.6318235809 3.0891480502
H 2.1722350293 -1.1726654366 3.3858453103
H 3.7888586871 -1.0291948437 2.6831433866
H 2.8701178684 -2.5879491451 -0.6489778707
H 3.5802299100 -3.4183219673 0.7472804835
H 4.2019599499 -1.8348826817 0.2546952432
H 0.2461453552 -2.1692463630 2.0140222528
H 1.2358312459 -3.6232039381 1.7534936513
H 0.5455913011 -2.7447536358 0.3689339258
H 3.1144534336 2.4898462061 -2.3265012373
H 3.1863939963 1.3930208530 -0.9419433616
H 1.6470345123 3.1756421495 0.2613720448
H 3.3759468665 3.5321792569 0.0418393738
H 0.1353951259 4.6958668095 -0.8202123330
H 0.8021706635 5.7283811547 -2.1142868805
H -0.5376489386 3.9641557886 -3.1133460414
H 1.1646239312 3.6395318783 -3.5171310716
H -0.4979728284 1.5777944874 1.5057856405
H -1.2799180486 0.9496569284 2.9505416618
H -2.7052770259 2.5177666227 0.7191791272
H -2.2378124589 3.1751953779 2.3042820216
H -3.4770303470 1.9106264984 2.1930983303
H -4.6370612600 -3.6429865258 1.2473207816
H -3.2248080387 -4.0319089768 2.2311460067
H -4.3552108247 -2.7874275561 2.7742985021
