65
CONF348
C -4.1269490267 3.6805086270 -0.0502280778
C -2.7208698141 3.9993908959 -0.5533883952
C -1.9380014477 2.7487767437 -0.9652828920
C -0.5557060187 3.1009701061 -1.5356039511
C -1.7364215247 1.8329074932 0.2238142103
O -1.3446833435 2.1969901770 1.3168244763
O -2.0024623605 0.5510718336 -0.0905896392
C -1.8111544007 -0.4609639893 0.9484766267
C -3.0998290368 -0.6208185307 1.7367631144
C -2.9220017475 -1.6638094238 2.8500619045
C -2.1957756290 -2.8724089148 2.3378425658
C -1.5231922098 -2.9277643855 1.1724882967
C -1.4339618767 -1.7438255078 0.2281939148
C -0.0389840019 -1.6948778689 -0.4365283628
C 0.1200087969 -2.9879795983 -1.2658426357
C -0.1068937095 -4.1891239737 -0.3868128099
C -0.8440154527 -4.1377343361 0.7357285458
C 1.4423962931 -3.0789846137 -2.0309097800
C 1.0816998694 -1.4865474632 0.6088595806
C 1.6929568991 -0.0801908941 0.6162593246
C 2.5282973254 0.2587559250 -0.6042487982
C 3.0717904758 1.6727116035 -0.5822550462
C 3.9638180195 1.8833591168 -1.7865855083
C 5.1316483139 0.9064813752 -1.7040171610
C 4.7772761682 -0.5045757097 -1.2918910152
O 5.5414518220 -1.4365017758 -1.4501244303
O 3.6162888805 -0.7339110194 -0.6531563101
O 4.4215289647 3.2400189275 -1.7752278221
C -2.2150561550 -1.0822693208 4.0878487921
H -4.6683054677 4.5949902757 0.2094164741
H -4.7048597397 3.1507337027 -0.8152360682
H -4.0938773417 3.0488211390 0.8446602386
H -2.7770942848 4.6606722901 -1.4261426517
H -2.1532142954 4.5337628664 0.2175538245
H -2.5060544827 2.1978978448 -1.7229323130
H -0.0060430243 2.2002874707 -1.8287651980
H -0.6718993684 3.7360432865 -2.4186939069
H 0.0358875559 3.6452689182 -0.7926738228
H -1.0017161282 -0.1283106545 1.6043543524
H -3.3986069962 0.3426956325 2.1635375840
H -3.8879727907 -0.9432280348 1.0453073125
H -3.9224223553 -1.9839384233 3.1738471103
H -2.2141883920 -3.7586060342 2.9725179764
H -2.1738619724 -1.8980793311 -0.5731021055
H -0.0370316367 -0.8519361951 -1.1395691745
H -0.6814523528 -2.9698005417 -2.0226705523
H 0.3593748086 -5.1272909500 -0.6829572784
H -0.9593379577 -5.0241586209 1.3566467434
H 1.4377245256 -3.9546612863 -2.6882638396
H 1.5914101551 -2.1882493906 -2.6504846284
H 2.3003310619 -3.1708292590 -1.3588108115
H 0.6869142581 -1.6898398396 1.6117065362
H 1.8830410037 -2.2149765875 0.4594005672
H 0.9027195462 0.6790131469 0.6783182212
H 2.3226899601 0.0462992536 1.5057516715
H 1.9470936518 0.1015768222 -1.5229719056
H 3.6403399771 1.8466495833 0.3406147990
H 2.2292803015 2.3702420831 -0.6040483737
H 3.3824197373 1.6942327629 -2.7025704174
H 5.8238347574 1.2663850258 -0.9293757647
H 5.6965149666 0.8488592470 -2.6388412313
H 4.9579537039 3.3820495344 -2.5657826043
H -2.8000253883 -0.2585786739 4.5099129286
H -1.2199644386 -0.7048977308 3.8302113894
H -2.0928065459 -1.8487558049 4.8596660578
