53
CONF227
C -4.1936470090 -2.3511763022 -3.2554511466
O -3.8595739876 -1.9461767487 -1.8970205299
C -3.2793601931 -0.7542787522 -1.7795589078
O -3.0292891261 0.0009294520 -2.6944628978
C -3.0215192293 -0.3986339597 -0.3040016492
C -4.2426588190 0.4003919843 0.2157758482
C -3.7999270591 1.8353906401 0.0603947783
C -4.5769068342 2.9799468155 0.1369267933
C -3.9229285622 4.2051043068 0.0238306244
C -2.5423867687 4.3144645497 -0.1523487901
C -1.7736862717 3.1595433962 -0.2263925343
C -2.4114976090 1.9249079077 -0.1277341598
C -1.8757255269 0.5804230992 -0.1710214568
N -0.6611056347 0.2394360394 0.0718037611
N -0.4158624029 -1.1022919767 0.1413446616
C -1.5061487811 -2.1159304770 0.1097831044
O -2.7318242067 -1.5364177958 0.5026165031
C 0.8742605092 -1.5623120750 0.1642938447
O 1.1427314386 -2.7342155061 0.3877086440
N 1.8834049309 -0.5792549009 -0.0487219534
C 2.9994204872 -0.5803595767 0.8381665089
C 2.7715512077 -0.6278178871 2.2129515873
C 3.8471407880 -0.6534877038 3.0924578833
C 5.1309408405 -0.6163333378 2.5712618717
C 5.3773990472 -0.5517466245 1.2082510618
C 4.2985104091 -0.5465139970 0.3333318515
O 6.2304332952 -0.5669080125 3.4600819329
C 6.7292779151 -1.7589183594 3.8549124126
F 7.1591634456 -2.5181122516 2.8206634119
F 5.8301369831 -2.5082167211 4.5345293080
F 7.7692638002 -1.5197963355 4.6620400021
C 1.8285000824 0.3403181480 -1.0994217583
O 2.4491141361 1.3825693814 -1.1230879560
O 1.0487529279 -0.1226010615 -2.0875987148
C 0.7369289147 0.8405724546 -3.1257124226
Cl -4.8772684254 5.6778780895 0.1040543721
H -4.9033921124 -1.6423724132 -3.6866925187
H -4.6409100723 -3.3383254455 -3.1553383445
H -3.2861666537 -2.3936270915 -3.8612440477
H -4.3853837244 0.1531538915 1.2744371393
H -5.1680756986 0.1678792161 -0.3169254104
H -5.6500668767 2.9307062414 0.2839641791
H -2.0815945141 5.2915825713 -0.2390548611
H -0.7003180962 3.2232951453 -0.3723349737
H -1.2707066098 -2.8970542088 0.8324798066
H -1.5646954398 -2.5413938439 -0.9034243215
H 1.7563984211 -0.6379934294 2.5969503322
H 3.6915920931 -0.6833660310 4.1648284772
H 6.3962155595 -0.5190243579 0.8390922609
H 4.4672139227 -0.5167469262 -0.7372489387
H 1.6499569716 1.1508572406 -3.6377627317
H 0.0707686770 0.3155306761 -3.8085653353
H 0.2335485197 1.7065224773 -2.6878074854
