55
CONF172
C 2.3967459446 -0.2468306841 2.7598207105
C 3.5159711217 0.7146763416 3.1235162902
N 4.2476055971 1.1253103746 1.9213388648
C 3.3119043154 1.7536875925 0.9821424304
C 2.1892541695 0.7931590774 0.6215511044
N 1.4554790117 0.3792862121 1.8237090703
C 0.3723706792 -0.5569590880 1.5074459660
C -0.7721872243 0.0943277725 0.7239214019
C -1.9311620885 -0.8424532662 0.6154780901
C -2.6949046865 -1.1055493744 -0.4649290312
C -3.7471969409 -2.1406009909 -0.4016801804
C -4.5729099057 -2.2839205375 0.7211032143
C -5.5091589807 -3.3071959672 0.7995221266
C -5.6547268781 -4.2013872554 -0.2603536176
C -4.8761540941 -4.0567907892 -1.4023941828
C -3.9328713910 -3.0298415899 -1.4718211241
S -2.9275363008 -2.9228654509 -2.9370315500
C -2.5802749885 -1.1855039548 -2.9649463964
C -2.5222429287 -0.4424491059 -1.7708007590
C -2.3072983271 0.9337107819 -1.8683767100
C -2.0687412838 1.5349228569 -3.1010957413
C -2.0637326992 0.7773695015 -4.2700490338
C -2.3398735172 -0.5811019336 -4.1999763327
C -1.8086805738 3.0083830063 -3.1251726607
F -1.6577963557 3.4967279406 -4.3753395385
F -0.6791175126 3.3339868495 -2.4352163100
F -2.8169241502 3.7120602464 -2.5422905758
C 5.3747797641 2.0054241880 2.2512817535
C 6.3820652925 2.0341814464 1.1086913324
O 6.7727610507 0.7041556578 0.7497519496
H 1.8546181046 -0.5297218607 3.6697563979
H 2.8387204601 -1.1680819355 2.3292967828
H 3.0890020409 1.5905723817 3.6504868109
H 4.2110754014 0.2157979885 3.8084681735
H 2.8790028789 2.6767748651 1.4152761634
H 3.8426401454 2.0317893168 0.0655969978
H 1.5084118523 1.3027412098 -0.0678729906
H 2.6122847845 -0.0847171806 0.0923121282
H 0.7480167559 -1.4341692058 0.9432040635
H -0.0248636270 -0.9348250512 2.4582513099
H -0.4373377914 0.4019958385 -0.2702529610
H -1.0736949197 1.0090510346 1.2567891305
H -2.1453447439 -1.4184463174 1.5155225540
H -4.4728062929 -1.5752787312 1.5373330962
H -6.1330200528 -3.4010424024 1.6823661715
H -6.3887175306 -4.9989657223 -0.2095630646
H -5.0013004261 -4.7344686653 -2.2412020108
H -2.3323153697 1.5380764957 -0.9680700371
H -1.8763423902 1.2412921181 -5.2311496382
H -2.3804650828 -1.1717062146 -5.1094043952
H 5.8679797687 1.5956091090 3.1410538819
H 5.0484637417 3.0351544041 2.4908468470
H 5.9716188082 2.5620538944 0.2346879045
H 7.2814689484 2.5708938315 1.4278327361
H 5.9574579938 0.1817009199 0.8319281746
