45
CONF72
C -6.6796338332 0.6558517509 -2.0684482403
C -8.1753757309 0.9479083643 -1.9075490752
O -8.9641093886 -0.2214112231 -1.6832133988
C -5.9914217972 0.3203217365 -0.7671360204
C -4.4482876888 0.1405440395 -0.9138264437
C -3.7292172259 -0.5006317183 0.3241367414
C -2.1777231572 -0.2472200475 0.3382560990
C -1.3963790984 -1.2329113251 1.2696775776
C 0.0750510335 -0.8198086566 1.6683651804
C 1.0728000563 -0.5379503119 0.4959033668
C 2.5787802144 -0.5475287193 0.9507048806
C 3.5259924824 0.1874032066 -0.0640233158
C 5.0399355616 -0.1850522945 0.1297399619
C 6.0140688801 0.8542217360 -0.5229877032
C 7.4763545564 0.3300256121 -0.7093330058
F 8.2590309519 1.3614481900 -1.0535947834
F 7.9316053336 -0.1971974755 0.4355327612
F 7.5384414576 -0.5930145019 -1.6740583342
F 6.0709959129 1.9501361319 0.2632775611
F 5.5458929226 1.2057380813 -1.7428942922
F 5.2608172353 -1.3981197902 -0.4238105836
F 5.3132023949 -0.2484041056 1.4526250737
F 3.1619091333 -0.1456806898 -1.3224502453
F 3.3812173299 1.5208981252 0.1020835668
F 2.6828075914 0.0610900597 2.1519021061
F 2.9822391866 -1.8321740598 1.0680319366
F 0.9125526779 -1.4813146736 -0.4569007967
F 0.7813829650 0.6763387516 -0.0268170667
F 0.0109278739 0.2667069566 2.4639526822
F 0.5588409511 -1.8611180988 2.3908567304
F -1.3495467797 -2.4491707027 0.6888931604
F -2.0698807696 -1.3359533739 2.4421534641
F -1.9578311255 1.0186433055 0.7581242150
F -1.6935681268 -0.3871352536 -0.9188625920
F -3.9523473744 -1.8356341311 0.3058222887
F -4.2474561678 0.0131218567 1.4618047251
F -4.2070385371 -0.6524689926 -1.9877418982
F -3.9044868703 1.3630664546 -1.1514063793
F -6.2034478527 1.3065136340 0.1590160421
F -6.4854429567 -0.8448272236 -0.2249642644
H -6.1859114061 1.5425646365 -2.4824607189
H -6.5356369502 -0.1713343685 -2.7685406053
H -8.3399894205 1.6952088339 -1.1209267966
H -8.5274316070 1.3726779923 -2.8514348877
H -8.8290939467 -0.5126897371 -0.7736544256
