26
CONF2
C 3.1552280028 -0.2364086463 0.7727684590
C 1.8147203606 -0.2751054427 0.0971345030
C 1.3058342186 -1.4022852098 -0.4096122181
C -0.0255981072 -1.5325750986 -1.0875576568
C -0.8192542375 -0.2478410256 -1.2065986177
C -0.2569351450 1.0430728748 -0.6406676906
C 1.0938524222 1.0452948593 0.0439372378
C -1.4719533276 0.4040037022 -0.0089454867
C -2.8024062721 1.0870392302 -0.2452252446
C -1.3597489865 -0.2422128576 1.3532956373
H 3.0548360139 0.1032841211 1.8119597448
H 3.6348829301 -1.2189317228 0.7743449189
H 3.8240446634 0.4770599285 0.2743918642
H 1.8894314812 -2.3194955619 -0.3312411768
H 0.1390572870 -1.9373648674 -2.0956748373
H -0.6189398423 -2.3020413017 -0.5682034373
H -1.3757528062 -0.1515579050 -2.1362153665
H -0.4628465577 1.9413707504 -1.2186401766
H 1.7491548025 1.7611134849 -0.4720183302
H 1.0051243291 1.4340921714 1.0715176728
H -2.9719339854 1.8768900026 0.4971792538
H -2.8423303052 1.5422565926 -1.2399268100
H -3.6283951998 0.3692584446 -0.1663402294
H -2.1446992839 -0.9973910561 1.4814360955
H -0.3941701204 -0.7297836208 1.5067404553
H -1.4912026312 0.5082582332 2.1421611398
