47
CONF12
C -5.9556672721 -1.7199853522 3.4056125098
O -6.4894822148 -1.0577435146 2.2234058722
P -5.5168331469 -0.6684223987 1.0173298038
S -4.2487858703 -2.0127926142 0.4163234705
O -6.5520291177 -0.0963557271 -0.0557770096
C -7.2786161946 -1.0062797032 -0.9317258827
O -4.8727322438 0.7110358416 1.5794805567
C -3.7182570982 1.2619736525 1.0157916516
C -3.7680512658 1.8667284417 -0.2317693182
C -2.6061905902 2.4287343917 -0.7538755014
C -1.4225756673 2.4028033774 -0.0145910371
C -1.3990679035 1.8116173732 1.2523261953
C -2.5478295704 1.2237786050 1.7639092910
S 0.0211216852 3.2166537479 -0.6873511820
C 1.3148748724 2.0087120672 -0.4276643069
C 1.0919330582 0.6375743653 -0.5821694181
C 2.1417009262 -0.2576937301 -0.4222498168
C 3.4093420820 0.2279276721 -0.1285119138
C 3.6526520944 1.5863590661 0.0173631971
C 2.5949523549 2.4793384226 -0.1253322325
O 4.4359905654 -0.6997440770 0.0762845198
P 5.6375326807 -0.8900173619 -0.9965302996
S 5.1353840577 -0.7511681928 -2.8688794461
O 6.2620065112 -2.2744568114 -0.5004821125
C 5.6431065745 -3.5343229353 -0.8882705063
O 6.7042800486 0.1599593225 -0.4390375670
C 7.9201042005 0.4388744709 -1.1918486719
H -5.5143918299 -2.6802482540 3.1277008634
H -6.8088419427 -1.8702860768 4.0661378382
H -5.2109787565 -1.0817019845 3.8889098079
H -7.8818205895 -0.3686229698 -1.5768515180
H -6.5742821671 -1.5929022485 -1.5265250436
H -7.9216861796 -1.6631187762 -0.3402970684
H -4.6948815489 1.8849377665 -0.7947246671
H -2.6244373506 2.8833744724 -1.7387992405
H -0.4834461556 1.8008773703 1.8342527385
H -2.5467388732 0.7483381001 2.7389116783
H 0.1028257346 0.2653649119 -0.8268009841
H 1.9866927980 -1.3252277788 -0.5370923559
H 4.6484520419 1.9414302310 0.2596277432
H 2.7687832131 3.5421639372 0.0083330378
H 5.6566246761 -3.6373300987 -1.9760420097
H 6.2493628245 -4.3120472599 -0.4251624253
H 4.6175274433 -3.5800853635 -0.5119458245
H 8.4503513242 1.1972811827 -0.6170030127
H 8.5269274626 -0.4665815400 -1.2741777647
H 7.6650932130 0.8212961911 -2.1831666577
