47
CONF459
C 5.1844857516 -2.3738664829 -1.4226052735
C 3.9348830234 -1.6276335668 -1.0640340703
C 2.6562337925 -2.1248221007 -1.4565694362
C 2.5589280987 -3.4085644866 -2.2194035531
C 1.4982069111 -1.4350040942 -1.1300432947
C 1.5530192898 -0.2352864519 -0.4115652171
N 0.4321928618 0.5032984838 -0.0785875258
C -0.9175660056 0.1160149214 -0.5298169905
C -1.6855752909 -0.6340001729 0.5554001411
O -1.1915454732 -1.9816584695 0.5521142804
C -3.1966988068 -0.6391686261 0.2903546928
O -3.4849813442 -1.2316404503 -0.9777336007
C -3.8274348334 0.7586601021 0.2877697368
O -3.4337358764 1.5072320388 1.4410144874
C -5.3441892909 0.6712134402 0.3322192040
O -5.9429981024 1.9661698565 0.2501535213
C 0.5393961882 1.6440908104 0.6765837333
N -0.5648279864 2.2932386934 1.0134311159
C -0.4634379981 3.4435962177 1.7449939296
O -1.4501356747 4.0903034624 2.0937398678
N 0.8116414382 3.9041564923 2.1124477377
C 2.0144953105 3.3068862132 1.8232401236
O 3.0860590696 3.7741147857 2.1847883856
C 1.8704209760 2.0558292733 1.0375567829
N 2.9543200051 1.4028864167 0.7112870484
C 2.8254814147 0.2596435626 -0.0014764180
C 3.9910319059 -0.4560801160 -0.3457393429
H 5.2829145792 -2.4757158722 -2.5090993291
H 5.1690716548 -3.3880723956 -1.0086802546
H 6.0669337286 -1.8568276220 -1.0415275908
H 3.1204846272 -3.3445983413 -3.1584075645
H 1.5213162029 -3.6567907981 -2.4476747405
H 3.0002061520 -4.2327817976 -1.6472708809
H 0.5493927894 -1.8618311181 -1.4225975088
H -1.4316887201 1.0376679320 -0.8022053581
H -0.8315331118 -0.4936195432 -1.4271850231
H -1.5023209548 -0.1686120183 1.5310823556
H -1.4681479049 -2.4025005439 1.3772836152
H -3.6553393154 -1.2282889534 1.1038134376
H -3.0559532980 -2.0991915153 -0.9850466475
H -3.5373006651 1.2869716004 -0.6336924986
H -2.5362915151 1.8629139207 1.2897068931
H -5.6419797334 0.1589240089 1.2610941082
H -5.7109826794 0.0931876508 -0.5195161218
H -5.5267711514 2.5011182708 0.9400838665
H 0.8391324487 4.7637662531 2.6491509435
H 4.9411881102 -0.0453284678 -0.0188310581
