63
CONF46
C 1.9313502455 0.2935268064 1.3654730400
C 2.1408987613 -1.0523848829 0.6779872959
N 1.2866905602 -1.1710558936 -0.5083607079
C 1.6334344240 -0.1249425032 -1.4769963287
C 1.4061706199 1.2649819014 -0.8911005698
C 2.2336958873 1.4251555089 0.3837904067
N 2.0670004676 2.7485121420 0.9920182223
C 3.0740407147 3.6938599011 1.1589487291
C 4.4237633576 3.6778939774 0.8367243380
C 5.1753063628 4.8158744279 1.1461826880
C 4.5941629629 5.9293681968 1.7571228037
C 3.2349938645 5.9473793731 2.0828843101
C 2.4918924432 4.8195933813 1.7753860814
N 1.1557948121 4.5186275298 1.9600607359
C 0.8654399428 3.2488866333 1.4867666453
O -0.2307856169 2.6905682688 1.5061621250
C 1.4133840510 -2.5078385565 -1.1091883520
C 0.2592471943 -2.8840823509 -2.0430098152
C -1.0034358470 -3.3787619257 -1.3301368164
C -1.6987136210 -2.3622874351 -0.4046406966
C -2.1709338783 -1.0955367341 -1.0939105822
C -2.2632110786 0.0820508088 -0.3439049934
C -2.7303051754 1.2678551950 -0.9010436952
C -3.1046639593 1.2561160213 -2.2338872574
C -3.0288532633 0.1202510885 -3.0187960218
C -2.5585543502 -1.0559755896 -2.4356399783
F -3.5610058775 2.4105363261 -2.7939532014
C -2.8423508643 -3.0447576612 0.3288711765
C -4.0504278838 -3.3318861589 -0.3140124311
C -5.0784281570 -3.9991813044 0.3457131254
C -4.8758294782 -4.3728182757 1.6637601673
C -3.6990853909 -4.1099708875 2.3416564664
C -2.6838390525 -3.4424100348 1.6587984750
F -5.8781679151 -5.0206942269 2.3193272416
H 2.5883314685 0.3715339596 2.2389487089
H 0.8937977912 0.3719333256 1.7068443653
H 1.8858471805 -1.8609627216 1.3726770405
H 3.2135018970 -1.1710987065 0.4145127601
H 2.6925375635 -0.2246405500 -1.7972171178
H 1.0136456988 -0.2422781466 -2.3716961765
H 0.3441528906 1.3978677355 -0.6607972310
H 1.6976820709 2.0263160495 -1.6233517239
H 3.2931149783 1.3583298407 0.1089566646
H 4.8886298420 2.8210426467 0.3624823115
H 6.2330196794 4.8288946121 0.9042538149
H 5.2053092065 6.7967051752 1.9841526130
H 2.7763626897 6.8081729597 2.5577519411
H 0.4593179927 5.1162346186 2.3766177047
H 1.4517116017 -3.2406120635 -0.2920161520
H 2.3740055066 -2.5941431845 -1.6548764504
H 0.0165464133 -2.0449282195 -2.7043678974
H 0.6080322015 -3.6925715913 -2.6970317902
H -1.7246843573 -3.7425251366 -2.0734507261
H -0.7425998217 -4.2502155646 -0.7152772140
H -0.9688021971 -2.0533494727 0.3503712652
H -1.9557864425 0.0721125699 0.6985906854
H -2.7965383790 2.1819613184 -0.3208290638
H -3.3280775326 0.1554667007 -4.0609119560
H -2.4953129724 -1.9474990293 -3.0507953466
H -4.1988674076 -3.0264210983 -1.3456959700
H -6.0190006253 -4.2227856644 -0.1464033082
H -3.5830002211 -4.4167924630 3.3756827562
H -1.7515485813 -3.2271634673 2.1738237449
