28
CONF11
O -3.6746878599 0.8817005770 1.6835460750
C -2.3559266886 1.0837236430 1.1732886937
C -2.1535411730 0.3422284943 -0.1456061963
O -0.8814887722 0.7475626675 -0.7165289638
C -0.0259169940 -0.3908969840 -0.8332865293
C -0.5879989078 -1.4284318680 0.1322783569
C -2.0890284928 -1.1769510224 0.0102681193
O -2.6313111968 -1.7556023219 -1.1836676761
N 1.3495164881 0.0360049535 -0.5380447822
C 1.6121713378 0.7573796998 0.5975769673
C 2.8502915797 1.1831217161 0.9298001698
C 3.9671489420 0.8796136961 0.0736305599
O 5.1384794427 1.2052594491 0.2611847386
N 3.6160473331 0.1400700928 -1.0633263718
C 2.3652761406 -0.3138654962 -1.4288433058
O 2.1769634114 -0.9710085423 -2.4439706806
H -4.2923040565 1.3426850435 1.1012731706
H -2.1399006882 2.1496520268 1.0193142164
H -1.6664427534 0.7009353820 1.9340777075
H -2.9496326840 0.6168954476 -0.8496854061
H -0.0142155871 -0.7570823825 -1.8630017891
H -0.2505969921 -1.2228465571 1.1542011755
H -0.3033830098 -2.4489285234 -0.1340694454
H -2.6468996688 -1.5104036629 0.8937526786
H -2.5452581910 -2.7150060487 -1.1109698207
H 0.7467253264 0.9802830675 1.2114369606
H 3.0194944150 1.7547971481 1.8318676535
H 4.3664198967 -0.1108890974 -1.6964962710
