45
CONF40
C 7.2980994826 -1.4945439671 -3.3621536696
C 7.5599767989 -1.0668399016 -2.1279316597
C 6.8252350988 0.0769606245 -1.5481361260
O 5.9599365880 0.7221948200 -2.1049923819
O 7.2625176024 0.3122109979 -0.2857545098
C 6.6230591489 1.3643899465 0.4764815511
C 6.0112019183 0.7748343792 1.7399351234
C 4.7454665550 -0.0376965458 1.5648662150
C 3.4740620942 0.7738095938 1.1534791437
C 2.1136404066 0.0249614363 1.3837563838
C 0.9268073711 0.6334981308 0.5546049830
C -0.4863614311 0.2022038739 1.0901978920
C -1.6287661845 0.4051461029 0.0305782264
C -3.0633791061 0.4230576887 0.6697875777
C -4.2040164732 0.1713304976 -0.3800634809
C -5.6131081827 0.6415288692 0.1190849998
C -6.8077530780 0.0287772207 -0.6846955568
F -6.9665350414 -1.2663432194 -0.3935031155
F -6.6003746859 0.1621431594 -2.0021946472
F -7.9289437867 0.6824632489 -0.3537749173
F -5.7713557858 0.2942648254 1.4172109940
F -5.6889935286 1.9845376987 0.0070051184
F -3.9122711859 0.8427363504 -1.5171579524
F -4.2573382370 -1.1519696015 -0.6514415837
F -3.1346291203 -0.5391398882 1.6164305645
F -3.2627110794 1.6293043752 1.2466198677
F -1.4298673455 1.5814361882 -0.6051197804
F -1.5675108794 -0.6030471726 -0.8678768462
F -0.4471519995 -1.1050346751 1.4314512595
F -0.7769343511 0.9383888181 2.1866148473
F 1.0431099240 0.2248274108 -0.7295856805
F 1.0063258809 1.9825890601 0.6007058637
F 2.2526327190 -1.2726356574 1.0311546959
F 1.7955120577 0.0932082338 2.6981662419
F 3.5692581890 1.0960010614 -0.1613763244
F 3.4447702706 1.9216001618 1.8766679708
F 4.4472325476 -0.6499534895 2.7592233264
F 4.9200905225 -1.0281397875 0.6376098080
H 7.8324724038 -2.3365876388 -3.7887395845
H 8.3110555426 -1.5373218190 -1.5012928926
H 5.9012791666 1.8911917930 -0.1494352769
H 7.4166245832 2.0566133840 0.7678362928
H 5.8024431316 1.5843103874 2.4448806164
H 6.7326126864 0.1029061139 2.2175392663
H 6.5402408044 -1.0085083526 -3.9696985622
