48
CONF134
C -0.7399102176 -0.6537873115 0.7889869533
C -1.4754881397 -0.3951249529 -0.5137941048
N -1.4844601797 -1.6032740794 -1.3567482345
C -0.1256058375 -2.0960452447 -1.5849955815
C 0.5931291768 -2.3183312045 -0.2619166076
N 0.6325564400 -1.0880980400 0.5279957813
C 1.3674111213 -1.2630806125 1.7838964356
C 2.8704640634 -1.4476861158 1.5880009764
C 3.5156977398 -0.3530519628 0.7382373492
N 3.2295283529 0.9779611194 1.2501561270
C 2.5571191676 1.9599597637 0.5741186020
O 2.1206458145 1.9922107073 -0.5753947274
N 2.4895435794 2.9886295627 1.5335100347
C 1.9213821755 4.2305949928 1.4091281374
C 1.9780388584 5.0708533056 2.4744406790
C 2.6190486234 4.6554214233 3.6823480251
C 3.1856835695 3.4172780233 3.8001543976
C 3.1241002963 2.5411128359 2.6908083028
N 3.5826917663 1.3137676206 2.5399345512
C -2.3701193621 -1.6102988913 -2.4389046447
C -1.9744801279 -2.0513137928 -3.7161966888
C -2.9111181737 -2.1019869270 -4.7403348481
C -4.2326372148 -1.7174864668 -4.5818539817
C -4.6119665543 -1.2664443749 -3.3160493680
C -3.7125609440 -1.2133980339 -2.2637061371
Cl -2.3735641975 -2.6660149817 -6.3285692526
H -1.2976314940 -1.4068152611 1.3816620675
H -0.7149725334 0.2781717851 1.3663234777
H -2.4966712359 -0.0898522650 -0.2829982581
H -0.9838092535 0.4332062754 -1.0544535176
H -0.1734345420 -3.0560031428 -2.1077709919
H 0.4558855898 -1.3916509894 -2.2075048682
H 1.6131319029 -2.6467231270 -0.4860834752
H 0.0902222180 -3.1339817667 0.2961182572
H 0.9737563827 -2.1184945767 2.3669696333
H 1.1972743719 -0.3630549911 2.3884583875
H 3.0980779311 -2.4085123797 1.1140938006
H 3.3404885136 -1.4718604168 2.5767421828
H 3.1294741601 -0.3721747785 -0.2837087220
H 4.6023415170 -0.4925334726 0.7034471386
H 1.4602547911 4.4527853884 0.4539682640
H 1.5351741259 6.0559354567 2.3993229642
H 2.6537410833 5.3427740773 4.5205872003
H 3.6765304144 3.0848074297 4.7072537615
H -0.9529037411 -2.3386751231 -3.9232494449
H -4.9385077603 -1.7684460980 -5.4017053140
H -5.6415928180 -0.9652135889 -3.1489374840
H -4.0628256345 -0.8910890430 -1.2906052937
