45
CONF64
C 0.3589159181 -2.3759512864 -0.3890156885
C 1.8255917365 -2.2134714681 -0.7843127618
C 2.7797487950 -2.0840321002 0.4107261232
C 2.4061398683 -0.9823057361 1.4118085671
C 2.2553323085 0.4052606779 0.7882257208
C 1.7941815130 1.4517238102 1.8024516226
C 1.7709819088 2.8841609110 1.2592558160
C 0.9168138394 3.0832035123 0.0248380684
O -0.4578615000 2.7270297424 0.3646676009
C -1.3563674818 2.8117842267 -0.6335747397
O -1.0662793682 3.1581753575 -1.7645031310
C -2.7398603341 2.4294611733 -0.1740285408
C -2.8236375889 0.9811911916 0.3328042481
C -2.3635365150 -0.0409186265 -0.7055416081
C -2.5671612578 -1.4797151280 -0.2317990289
C -2.0634335238 -2.5440608778 -1.2149779922
C -0.5813927422 -2.4190313362 -1.5922048356
H 0.0706331645 -1.5380767110 0.2559353246
H 0.2336640823 -3.2860932350 0.2159767972
H 2.1359421214 -3.0705277665 -1.3968862683
H 1.9215194809 -1.3305592210 -1.4307141266
H 2.8187092821 -3.0430644626 0.9445641295
H 3.7943231965 -1.8972120749 0.0337542562
H 1.4694734863 -1.2468540936 1.9203279095
H 3.1737758714 -0.9413441658 2.1958820213
H 3.2115129778 0.7143524354 0.3410978205
H 1.5308476953 0.3561442587 -0.0340054293
H 0.7947941383 1.1805793410 2.1666723345
H 2.4582633433 1.4274514477 2.6761710287
H 2.7892837616 3.1895792825 0.9852438152
H 1.4341078259 3.5738745038 2.0424831293
H 0.9307173762 4.1269451408 -0.3049196979
H 1.2410842888 2.4538614112 -0.8094223355
H -3.0362756006 3.1190606401 0.6250490497
H -3.4139442219 2.5762927862 -1.0217326076
H -3.8648622914 0.7822681162 0.6137852155
H -2.2214335395 0.8752275629 1.2428856694
H -2.9079474198 0.1165624138 -1.6475360955
H -1.3012951747 0.1317840189 -0.9282398784
H -2.0742645023 -1.6093416826 0.7406358440
H -3.6377300396 -1.6441225426 -0.0513869245
H -2.2379575423 -3.5350788046 -0.7750867072
H -2.6673064850 -2.4999764869 -2.1312950840
H -0.3076777073 -3.2618732387 -2.2408638852
H -0.4261333292 -1.5123629385 -2.1923339414
