39
CONF247
C 8.1494081729 -0.0252400965 -2.5119930060
C 6.8620316929 0.6301583488 -2.0156406641
C 6.5553732169 0.2972129381 -0.5552380116
C 5.2559030529 0.9420943604 -0.0737756821
C 4.9691489439 0.7731577631 1.4258739734
C 4.7890802600 -0.7003753096 1.8246053128
C 4.4326317131 -0.9197256295 3.2947886151
C 3.7964945636 1.6394392603 1.8476747102
O 2.5908236182 1.1077558084 1.2023548488
C 1.4600764751 1.7657506486 1.4407859629
O 1.3373685374 2.7136124202 2.1877883648
C 0.2989499456 1.1525962821 0.7138047371
C -0.7362575671 0.6576802138 1.4977335796
C -1.8434470465 0.0709226145 0.9053224336
C -1.9443963976 -0.0156835728 -0.4869721589
C -0.9139820470 0.5130367786 -1.2828932716
C 0.2069211689 1.0940343150 -0.6770145933
Br 1.5780262330 1.8929773996 -1.7229238064
Br -1.0432267283 0.4443390287 -3.1713524071
Br -3.4603622132 -0.8214953804 -1.2809817016
Br -3.1968259993 -0.5994375583 2.0574835104
H 8.0865310622 -1.1165207218 -2.4362685149
H 8.3511483078 0.2280885802 -3.5575811856
H 9.0083893721 0.3010250573 -1.9149973277
H 6.9340174245 1.7199382750 -2.1294520914
H 6.0181943678 0.3093495054 -2.6411515062
H 6.5031747793 -0.7933685981 -0.4461649107
H 7.3889594108 0.6351199785 0.0774058828
H 4.4131443060 0.5341529471 -0.6475989853
H 5.2937956137 2.0168320229 -0.3008102159
H 5.8264419345 1.1756782503 1.9881419253
H 5.7224172244 -1.2289463505 1.6039467652
H 4.0201514861 -1.1509370556 1.1839363826
H 5.1450841682 -0.4092850897 3.9530671052
H 3.4304299782 -0.5485911083 3.5321158579
H 4.4538536177 -1.9856745330 3.5408283099
H 3.9244764940 2.6758061848 1.5186896468
H 3.6335740674 1.6296162180 2.9287454088
H -0.6667647761 0.7250725105 2.5770694911
