38
CONF33
C 4.6268214673 1.6490812742 1.7131856415
C 3.4434584206 0.8632175000 1.2614800140
N 2.3002684813 1.0076933089 1.9353855777
C 1.2852522595 0.2498011857 1.4828701105
N 1.3419351084 -0.5977168172 0.4572442068
C 2.5424683017 -0.6566034416 -0.1362275090
N 3.6201320407 0.0414102588 0.2097585565
O 2.5899161115 -1.5080827139 -1.1539166376
C 3.8466268366 -1.6330583876 -1.8686137678
N 0.1014146351 0.4011825436 2.1726107468
C -1.1635117229 -0.1572249236 1.9719153033
O -2.1060646723 0.1966202476 2.6612039406
N -1.2435735709 -1.1077837602 0.9768781906
S -2.7443391808 -1.6648467386 0.4034018442
O -3.4420152452 -2.3440661650 1.4966377393
O -2.4148327465 -2.4070426834 -0.8154144357
C -3.6918450994 -0.1897237612 0.0313012693
C -3.3734413436 0.8247008561 -0.8594620511
S -4.6444978077 2.0058215656 -0.8840075942
C -5.5656189376 1.1337801094 0.2748451985
C -4.9375912269 -0.0135823506 0.6784035158
C -2.2307482849 1.1076419626 -1.7409601697
O -2.1759492488 2.0976304292 -2.4490467363
O -1.2830356834 0.1694430644 -1.6744720309
C -0.1387149283 0.3688098663 -2.5457781023
H 5.1882375422 2.0179810095 0.8519357108
H 4.3241597180 2.4732848629 2.3588687218
H 5.2940574766 0.9871765627 2.2784451908
H 4.1291340405 -0.6730137512 -2.3054092735
H 3.6479773037 -2.3679820296 -2.6473112686
H 4.6303565447 -1.9854465188 -1.1950397027
H 0.1287414264 1.0724065419 2.9302291974
H -0.4322996757 -1.2152954853 0.3522842605
H -6.5235403187 1.5140421538 0.6049795050
H -5.3380844129 -0.7030848773 1.4087638079
H 0.4729794559 -0.5221850053 -2.4173225349
H 0.4091144734 1.2632971279 -2.2393938226
H -0.4733488445 0.4692523678 -3.5802526127
