29
CONF60
C 2.9580899084 0.4004243285 1.1221243741
C 2.7692926773 -0.0276887921 -0.3060043123
C 1.6375804732 0.1414810291 -1.0056500202
C 0.3562164260 0.7607218290 -0.5270383387
C -0.6546019174 -0.3157094041 -0.1012563788
C -2.0728234317 0.2059558863 0.2176780564
C -2.0595366878 1.2709069182 1.3155420622
C -2.9109454282 -0.9655755267 0.6738143589
C -4.0385313545 -1.3841671634 0.1047555619
O -2.6400848697 0.8444471057 -0.9382782622
C 3.9718806241 -0.6914491477 -0.9192322456
H 3.7944136466 1.1064943466 1.2027883325
H 3.2244879865 -0.4668784800 1.7395544125
H 2.0703267994 0.8647746518 1.5546886189
H 1.6172125463 -0.2412012857 -2.0272521596
H -0.0841284960 1.3545558789 -1.3367572722
H 0.5420759618 1.4447701134 0.3055065822
H -0.2680442998 -0.8449021183 0.7787968378
H -0.7462180020 -1.0640986056 -0.9010662950
H -1.4989989212 2.1505802830 0.9886066376
H -1.5943503959 0.8737190195 2.2220984768
H -3.0833236867 1.5755438700 1.5510972374
H -2.5171584274 -1.4868021856 1.5466184068
H -4.4604764263 -0.8816185680 -0.7612404909
H -4.5765557079 -2.2426054772 0.4951684014
H -2.6192017435 0.2077961802 -1.6658802981
H 4.2540111454 -1.5861274845 -0.3492170707
H 4.8398520057 -0.0199994327 -0.8929265191
H 3.7895381028 -0.9833477687 -1.9569363962
