48
CONF1
C -2.9618838284 0.4025473647 -1.7274871268
C -3.8543453442 -0.2542755494 -0.6646178932
C -3.9322375376 -1.7642606729 -0.9366186007
C -5.2642780732 0.3475771488 -0.7637943060
C -3.3219083195 0.0360465224 0.7649034837
C -1.8129326404 -0.2880276394 0.9399175788
N -1.4745227644 -0.5427621964 2.3410339552
C -1.3809848229 0.3399867694 3.3551197202
N -1.1535994847 -0.3022648602 4.4950665559
C -1.1342510851 -1.6087721905 4.1066565308
N -1.3269799617 -1.8053911961 2.8084496253
O -1.1067794623 0.8496737960 0.4948906847
C 0.2302772815 0.7261408397 0.1822561163
C 0.9944232320 -0.4207880824 0.3904433734
C 2.3384148570 -0.4142805726 0.0254583350
C 2.9438665858 0.7131749453 -0.5395933199
C 2.1493966373 1.8542648310 -0.7325688747
C 0.8105471849 1.8655460855 -0.3768284095
C 4.3717261164 0.7054281298 -0.9188706707
C 5.3186024514 0.0185910316 -0.1446756937
C 6.6624500644 0.0102594087 -0.5038290605
C 7.0903052106 0.6901373612 -1.6426175768
C 6.1600111605 1.3777919567 -2.4197359329
C 4.8154932997 1.3849817778 -2.0629400044
O -4.0953707898 -0.6104614216 1.7690793082
H -1.9685232982 -0.0552873428 -1.7724030057
H -3.4301568086 0.2790113382 -2.7095591151
H -2.8380318416 1.4733823427 -1.5374299487
H -4.2889265462 -1.9244774290 -1.9590545445
H -2.9575243685 -2.2564717327 -0.8500291017
H -4.6398001050 -2.2681155242 -0.2689704035
H -5.9337280563 -0.0888937986 -0.0172773562
H -5.6819465712 0.1524855555 -1.7568619132
H -5.2341382239 1.4322555767 -0.6125678471
H -3.4265095858 1.1099282475 0.9662944773
H -1.5280673877 -1.1909428803 0.3882537012
H -1.4711021733 1.4093284514 3.2171210726
H -0.9681138164 -2.4331321479 4.7887898786
H 0.5736208693 -1.3183958349 0.8273276757
H 2.9179017743 -1.3203188280 0.1722944291
H 2.5895767200 2.7548562934 -1.1489833725
H 0.2018715628 2.7523605850 -0.5205719996
H 5.0024951105 -0.4943911261 0.7585376600
H 7.3798428316 -0.5212206932 0.1141824446
H 8.1391904631 0.6843917392 -1.9219015592
H 6.4807588952 1.9039752571 -3.3137936116
H 4.0980004424 1.9045417552 -2.6908208897
H -4.0821286633 -1.5636364843 1.6083262460
