46
CONF135
C 0.0089403269 -1.6050748450 1.2862524058
C -1.2307043008 -2.1741687491 0.6405634619
C -2.5848777456 -2.0020143917 1.2840695316
C -2.2513097670 -1.2493427084 -0.0203639521
C -2.0656976903 0.2113509020 -0.0488397136
O -1.7337427059 0.9355584499 0.8696822767
O -2.3104046079 0.6715218703 -1.3064475015
C -2.1344627396 2.0860032048 -1.5221181008
C -0.7055273909 2.4603780969 -1.8270176842
C 0.3427801812 1.5568842312 -1.6946502318
C 1.6422650578 1.9715504676 -1.9767780598
C 1.9189813185 3.2604539987 -2.4076475793
C 0.8603735026 4.1568868934 -2.5497211940
C -0.4403322837 3.7656219624 -2.2572539135
O 2.6916060138 1.0663593379 -1.8963282944
C 2.9300175304 0.4529722614 -0.6799260377
C 2.6204629270 1.0574118753 0.5375503029
C 2.9546946554 0.4030058112 1.7203498299
C 3.5901903859 -0.8360464607 1.6942388353
C 3.8929256340 -1.4255321807 0.4678265473
C 3.5630289699 -0.7875852248 -0.7236727428
C -2.7565885224 -1.2948330829 2.5537522660
C -3.7159840957 -1.5475508804 3.4443192373
Cl -3.8294254769 -0.6817236595 4.9567158288
Cl -4.9642861404 -2.7483094495 3.2377343779
C -0.9902815649 -3.4813589633 -0.0822110082
H 0.7930703118 -1.4749876429 0.5326396688
H -0.1564712642 -0.6398026156 1.7632861126
H 0.3822134540 -2.3071711862 2.0397943583
H -3.2799239151 -2.8183746120 1.1145906117
H -2.7294187350 -1.6465939776 -0.9090309236
H -2.4922923489 2.6368369295 -0.6457979258
H -2.7772471940 2.3223458166 -2.3740914400
H 0.1720401554 0.5328542325 -1.3798491248
H 2.9420320273 3.5492654722 -2.6230497078
H 1.0573695973 5.1695539585 -2.8869752106
H -1.2580463393 4.4723254951 -2.3672577119
H 2.1289318700 2.0239619836 0.5612018017
H 2.7144240948 0.8722124114 2.6695091420
H 3.8443737598 -1.3399035117 2.6208462206
H 4.3846278304 -2.3928666335 0.4343330296
H 3.7909262041 -1.2347661201 -1.6856971402
H -2.0587285965 -0.5066255365 2.8090799177
H -0.2430616784 -3.3436969964 -0.8715899354
H -1.9075907508 -3.8665388418 -0.5357333683
H -0.6098686365 -4.2304473763 0.6207363238
