46
CONF2
C 0.8010728613 -3.4781636559 -0.7210580929
C 0.9898534479 -2.2103087830 -1.5488396216
C -0.3260616914 -1.6117200816 -2.0234613891
O -1.1341019833 -1.2231853590 -0.9066274662
C -0.4921843642 -0.3736927152 -0.0435172247
C 0.9098966419 -0.3185562327 0.0220263623
N 1.6786229369 -1.1669386805 -0.7694589244
C 3.0230798103 -1.1055340764 -0.7335364921
C 3.7155214194 -0.2266144842 0.0552424309
C 3.0073774290 0.6937435711 0.9149044235
O 3.5898054891 1.5112509415 1.6610816072
C 1.5483499213 0.6169694819 0.8600955882
C 0.7650929436 1.4548505173 1.6593397793
C -0.6006400839 1.3409993773 1.6192730005
C -1.2934483878 0.4494121759 0.7683342737
N -2.6737039512 0.3769719219 0.6636714154
C -3.3488465080 -0.8805991634 0.9953321122
C -4.6421942525 -0.9933569043 0.2040571615
N -5.5014693101 0.1597743439 0.4691239743
C -4.8031811339 1.3918409794 0.1042025552
C -3.5200020365 1.5420036274 0.9140965481
C -6.7633632151 0.0441529705 -0.2517681233
F -1.3320550709 2.1128973969 2.4547736575
C 5.2070804151 -0.2731741755 -0.0196380801
O 5.7957346429 -1.0455753517 -0.7483645753
O 5.8400309414 0.5922833992 0.7750302927
H 0.3274527775 -4.2548177667 -1.3286802713
H 1.7656628056 -3.8530542919 -0.3695760153
H 0.1662396650 -3.2822857043 0.1473665420
H 1.6106003303 -2.4185820422 -2.4284294146
H -0.9108320229 -2.3494469516 -2.5765344597
H -0.1405418530 -0.7362509469 -2.6607886922
H 3.5665490518 -1.7975614430 -1.3714846066
H 1.2493003106 2.1537514686 2.3312106936
H -3.5780743523 -0.9090183702 2.0748670156
H -2.6961107876 -1.7224542108 0.7583756053
H -4.3952563481 -1.0817272696 -0.8743816585
H -5.1721585611 -1.9048669197 0.5066619191
H -4.5558543821 1.4151061743 -0.9774069631
H -5.4587941914 2.2444216118 0.3191965144
H -2.9933507284 2.4454654435 0.5956002781
H -3.7760623890 1.6440179454 1.9800831638
H -7.4051834603 0.8987427659 -0.0133722881
H -6.6291266127 0.0093196104 -1.3509577956
H -7.2833480252 -0.8686726241 0.0575112632
H 5.1418004150 1.1133048872 1.2716922966
