48
CONF25
C 2.4367364865 -2.3566567843 -3.2526833503
C 2.9920989224 -0.9502724041 -3.4639588774
C 2.7124417687 0.0186178232 -2.3134055488
C 1.2048530026 0.1873702003 -2.1069113495
O 0.5498449526 0.8887539190 -2.8736687173
N 0.6730867497 -0.5107920299 -1.0720813886
C -0.7079335799 -0.4418640886 -0.7214291188
C -1.1029142805 -0.0020925956 0.7287934701
N -1.7452370609 -1.3134118618 0.9014310745
C -1.4497342564 -1.7564497461 -0.3831776175
O -1.7145233706 -2.7820729302 -0.9638158868
C -3.0096208519 -1.3655363987 1.6011168864
C -3.7749485706 -0.0456645492 1.2111235431
S -2.4238126461 1.2460483456 1.0156582955
C -4.4903462056 -0.2637548396 -0.1224434733
C -4.7579159406 0.4293744188 2.2754997680
C -2.8523706035 -1.5385356641 3.1037530464
O -3.6605533762 -2.1238288801 3.7896245342
O -1.7421621833 -0.9526634186 3.5793353643
O 3.3769318522 -0.4915081284 -1.1488454185
C 3.5581192118 0.3520750310 -0.0778628089
C 4.2921885697 -0.1851347617 0.9834954878
C 4.5234497760 0.5793171231 2.1190708161
C 4.0277814298 1.8807146845 2.2107634361
C 3.2963845717 2.4051000258 1.1508209664
C 3.0526604157 1.6512491300 0.0019500111
H 2.8248739180 -2.8041972616 -2.3331016805
H 1.3434000065 -2.3516188939 -3.1952006821
H 2.7237261833 -3.0007463495 -4.0884274468
H 4.0785797593 -0.9826478132 -3.5996845086
H 2.5670263530 -0.5033146328 -4.3688753486
H 1.2959192003 -1.0685147225 -0.5030646584
H -0.2573904720 0.1882769541 1.3953778716
H -3.5863786629 -2.2249452645 1.2458143014
H -5.2946960176 -0.9968760902 0.0083611079
H -3.8104119066 -0.6277435362 -0.8978186842
H -4.9267697160 0.6763738288 -0.4689723764
H -5.2534522155 1.3440505850 1.9386993024
H -5.5257203663 -0.3355436395 2.4311648973
H -4.2647283288 0.6349736429 3.2290920163
H -1.7150453490 -1.0823850876 4.5437714990
H 4.6733300549 -1.1978034561 0.8996476654
H 5.0963878217 0.1550098358 2.9378439670
H 4.2097487280 2.4761233024 3.0991017903
H 2.9007572463 3.4144852987 1.2080731113
H -1.2503826355 0.1224457623 -1.4859523385
H 3.1131986920 1.0061651705 -2.5729995317
H 2.4717267233 2.0876002254 -0.8020474984
