42
CONF13
C 1.3186094976 1.8763121262 4.2723896268
C 1.3389673770 2.8735918181 3.2997906797
C 0.8407926107 2.6177378559 2.0284704740
C 0.3076355186 1.3653268146 1.7142655122
C 0.2914398468 0.3693970817 2.6929295248
C 0.7967288928 0.6249303129 3.9652784187
C -0.2689109900 1.1328825981 0.3259723325
C -1.6826526704 1.6389684232 0.1632887000
C -2.0379082271 2.3345022690 -0.9917658519
C -3.3393502948 2.7845041097 -1.1869088873
C -4.2908248369 2.5235831052 -0.2099728936
C -3.9651284377 1.8275082482 0.9483691782
C -2.6589795958 1.3905226972 1.1272921333
Cl -5.9364287017 3.0880723974 -0.4397697747
C -0.1444112776 -0.3448837558 -0.0401598214
O -1.0718467380 -1.1110031834 -0.1342263797
C 1.2955319884 -0.7921334287 -0.3339340719
C 1.5410557818 -0.5914802493 -1.8404318208
O 1.6070197551 0.4747169183 -2.4128383746
C 1.6492169985 -1.9385610366 -2.4439838079
C 1.7933134217 -2.2710959116 -3.7866878964
C 1.8778662002 -3.6200596442 -4.1122072767
C 1.8229875784 -4.6088275140 -3.1193862129
C 1.6829854081 -4.2724085501 -1.7773663245
C 1.5959070812 -2.9235729923 -1.4543632417
C 1.4606183483 -2.2987078109 -0.1167872526
O 1.4841522596 -2.8610345351 0.9533938157
H 1.7118625515 2.0747322776 5.2640581380
H 1.7472486746 3.8520792073 3.5317434773
H 0.8533718316 3.3967473605 1.2713066733
H -0.1070386118 -0.6157777780 2.4650596501
H 0.7843129767 -0.1604024329 4.7139491955
H 0.3763016855 1.6608324741 -0.3912879809
H -1.2895368459 2.5276725607 -1.7557150999
H -3.6110415708 3.3294542345 -2.0833215915
H -4.7230847483 1.6325924507 1.6979624321
H -2.3984732904 0.8528426980 2.0330986381
H 1.9939407202 -0.1987378523 0.2643352960
H 1.8341136931 -1.4958697358 -4.5443670055
H 1.9879780862 -3.9174123859 -5.1500654566
H 1.8919100007 -5.6526724264 -3.4082904561
H 1.6397475388 -5.0268168270 -0.9991165022
