119
CONF557
C 2.7268302630 -1.1961581902 1.8246613743
C 3.4357383451 -2.4528722809 1.3072704818
C 4.9270476590 -2.2124587757 1.0800189059
C 5.6108507158 -1.6887020425 2.3491138576
C 4.9070749309 -0.4251044648 2.8851562017
C 5.6403103082 0.0952778108 4.1251321655
C 7.0890750184 0.4032075386 3.7891442701
O 7.7923601825 0.9659784443 4.9127005677
C 7.8771683872 -0.8397420026 3.3315211018
C 8.0580114704 -1.8194582907 4.4920772053
C 9.2291649886 -0.2977970746 2.6767515971
C 9.0417252463 -0.4314876095 1.1446233028
C 7.5423532347 -0.6600215238 0.9249676887
C 7.1256721323 -1.5098129899 2.1306160192
O 7.6118946862 -2.8599112406 1.9450147337
C 10.4745803729 -0.9143922613 3.2057764665
C 11.2218019745 -1.9382570954 2.7583590645
C 12.3451566222 -2.1498213123 3.6671491430
O 13.2409025477 -2.9679665201 3.6348809011
O 12.2719004903 -1.2153254916 4.6742008682
C 11.1187069765 -0.3845358871 4.4492357926
C 3.3841215527 -0.6648686485 3.1278371891
C 3.1528648775 -1.6669703325 4.2721515957
C 2.6516460401 0.6354038273 3.5289910660
C 2.5951935914 1.6988786300 2.4336262065
C 1.9503635382 1.1542492264 1.1680664059
C 2.6456583659 -0.1271860093 0.7223602936
O 0.5506279063 0.9124654826 1.4879794168
C -0.2904731198 0.8324868430 0.3822928737
C -1.6302608003 0.2796359810 0.8268010149
C -2.6218399503 0.2736016059 -0.3306560184
O -2.2110348300 -0.7340227702 -1.2593192674
C -2.6648285953 1.6603274287 -0.9980227154
O -3.3896758142 1.6499231613 -2.2420474204
C -4.7439733014 1.3188803261 -2.1586550706
C -5.4783933066 1.9326186906 -3.3336273111
C -6.9358043751 1.4849025292 -3.3507244065
O -7.5997938164 2.1053883217 -2.2471264560
C -7.0198237852 -0.0497885429 -3.2589991640
O -8.3617900839 -0.5171701357 -3.0332134013
C -9.2915967714 -0.2131507227 -4.0313066152
C -10.3943389635 -1.2555347920 -4.0101640804
C -11.5167138381 -0.8720102141 -4.9639914758
O -11.0143486416 -1.0135174462 -6.3007534234
C -11.9762585996 0.5638356380 -4.7064946172
O -12.9195936394 0.8729474598 -5.7387291801
C -10.7846775942 1.5297756481 -4.7148479214
C -11.1606198594 2.9527298041 -4.3611032497
O -9.8469928441 1.0777428082 -3.7176773872
C -6.1904958164 -0.5876651430 -2.0903261384
C -6.1323481896 -2.0994850764 -2.0444704627
O -4.8412084514 -0.1151788089 -2.2464323857
C -1.2594178364 2.1664957137 -1.3360792485
C -1.2546437577 3.5823917980 -1.8741475762
O -0.4743347060 2.1634830090 -0.1342863148
H 1.6930120457 -1.4659637678 2.0834670810
H 3.3039750116 -3.2737035212 2.0230324622
H 2.9628495892 -2.7767836210 0.3712862829
H 5.4125005658 -3.1379939826 0.7562202813
H 5.0630195637 -1.4860457362 0.2695323786
H 5.5260099420 -2.4692256188 3.1183058576
H 4.9926003702 0.3505160954 2.1103134150
H 5.5985429060 -0.6355664694 4.9403652699
H 5.1752614777 1.0174179799 4.4914638989
H 7.0998106330 1.1360489408 2.9667378779
H 7.4052077118 1.8319634128 5.0901316989
H 8.7643832801 -2.6105468012 4.2349476306
H 8.4137739090 -1.3081644364 5.3883982626
H 7.1060420977 -2.2979079892 4.7368048572
H 9.2875127955 0.7633451610 2.9418434191
H 9.6119500836 -1.2816418642 0.7554939264
H 9.4165853685 0.4523480700 0.6222580108
H 7.3315368461 -1.1694175150 -0.0183758348
H 6.9977628318 0.2902884286 0.9224760840
H 8.5498544564 -2.8274635606 1.7202003955
H 11.0803403766 -2.5524696931 1.8798667216
H 11.4459586420 0.6549291564 4.3182596474
H 10.4648826827 -0.4364113453 5.3263034020
H 2.0902289427 -1.9298469639 4.3197074613
H 3.4266851052 -1.2260648645 5.2361235537
H 3.7198415257 -2.5932233216 4.1551222123
H 3.0949115654 1.0576901932 4.4373459091
H 1.6240524793 0.3578966718 3.7963349171
H 3.6024687375 2.0514372052 2.1798100942
H 2.0308643107 2.5714865038 2.7813874605
H 1.9930116002 1.9058270010 0.3693375223
H 2.1349795463 -0.5542959144 -0.1497047909
H 3.6454093974 0.1582345184 0.3745181591
H 0.1489522603 0.2145349178 -0.4196658050
H -1.5140904541 -0.7393812446 1.2096403124
H -2.0070555533 0.9146721869 1.6365477044
H -3.6229174056 0.0340287609 0.0566084991
H -2.9352679468 -0.8035488995 -1.9010126043
H -3.1414072380 2.3702012460 -0.3024118069
H -5.1709512374 1.6424731384 -1.1939105555
H -4.9782604251 1.6073813203 -4.2527196391
H -5.4338509494 3.0248625970 -3.2800729525
H -7.3979164100 1.8107242530 -4.2938950548
H -8.5431430382 1.9165350192 -2.3735816416
H -6.6336460158 -0.4800876719 -4.1973806581
H -8.8046774429 -0.1559547312 -5.0195739287
H -9.9905542179 -2.2336062906 -4.2904766991
H -10.7829119147 -1.3200412669 -2.9878638488
H -12.3763828174 -1.5433722814 -4.8177251438
H -11.6882386244 -0.6554759993 -6.8944981525
H -12.4526076839 0.6046961732 -3.7142890579
H -13.3740639254 1.6915866074 -5.5079218788
H -10.3050383039 1.4955470592 -5.7059467507
H -11.6589374694 2.9861584100 -3.3863287032
H -11.8300392771 3.3744193732 -5.1164228764
H -10.2642128447 3.5781145995 -4.3204764059
H -6.6070301586 -0.1905095622 -1.1508083023
H -7.1339220063 -2.5130285001 -1.9092495722
H -5.5035938460 -2.4242602255 -1.2104434386
H -5.7126075188 -2.4906926372 -2.9771707937
H -0.8085906963 1.4782279813 -2.0698553786
H -0.2283139800 3.9039136490 -2.0722498719
H -1.7039386989 4.2654638382 -1.1455974127
H -1.8241329273 3.6374708344 -2.8044089799
