47
CONF4
C -6.9142028098 -2.0856569920 1.7474289663
O -6.2259969664 -1.5992200255 0.5601751067
P -4.8612051198 -2.2844952863 0.0893106068
S -3.5106663495 -2.6198125490 1.4439284257
O -5.4050653368 -3.5395828988 -0.7380658951
C -4.4691835562 -4.5182960423 -1.2710812341
O -4.4258848583 -1.2923960495 -1.1182396193
C -3.6060819341 -0.1825986285 -0.8893749942
C -2.2953962249 -0.2334766119 -1.3465637051
C -1.4762315166 0.8751254224 -1.1807428381
C -1.9646740038 2.0130135589 -0.5318842263
C -3.2836830458 2.0453828938 -0.0748954056
C -4.1164744227 0.9465661301 -0.2654608857
S -0.9684407701 3.4860058414 -0.3381425367
C 0.6330294113 2.8195415005 0.0979245507
C 0.7681333552 1.8054736153 1.0508728449
C 2.0304418453 1.3416700906 1.3949891428
C 3.1483317931 1.9187654287 0.8053007864
C 3.0357794448 2.9424913865 -0.1239862472
C 1.7670341636 3.3847411480 -0.4880502268
O 4.4100739945 1.4745573249 1.2125416586
P 5.3292710755 0.5421455937 0.2548105256
S 4.3854588327 -0.7937139836 -0.7922775383
O 6.4198445563 0.0233140636 1.3019099812
C 6.1132131579 -1.0994740043 2.1755309806
O 6.1553970265 1.6558059730 -0.5396355397
C 7.0325663163 1.2687551917 -1.6355502302
H -6.2576680903 -2.0077348128 2.6175522559
H -7.2326977837 -3.1209073175 1.5994779202
H -7.7820191487 -1.4378715176 1.8667471031
H -3.9110964577 -4.9839522304 -0.4550487462
H -5.0815558876 -5.2588421948 -1.7845710123
H -3.7853469000 -4.0387176882 -1.9768998577
H -1.9295732885 -1.1300724637 -1.8353634771
H -0.4557093387 0.8487837959 -1.5476706021
H -3.6634437172 2.9252736634 0.4340315048
H -5.1436434811 0.9616302603 0.0822017774
H -0.1099241996 1.3710151649 1.5169361868
H 2.1550453991 0.5468391475 2.1224908027
H 3.9243425517 3.3769403069 -0.5687725116
H 1.6635077106 4.1680227355 -1.2316941430
H 5.8914266494 -1.9873899929 1.5783757790
H 7.0097732186 -1.2573509839 2.7740497770
H 5.2664099016 -0.8520778585 2.8216488273
H 6.4584908835 0.7509963000 -2.4079349255
H 7.4402484785 2.2008110279 -2.0254715463
H 7.8380443252 0.6299727679 -1.2638115596
