37
CONF9
C 4.7852141154 -0.9548034695 -0.1297432367
C 3.5825217174 -0.0152742036 -0.0992529748
C 2.2986679510 -0.7281472187 0.3285356149
C 1.1084722836 0.2270612387 0.3389833499
C -0.2261063089 -0.3778377969 0.8506333553
C -0.7083767310 -1.5906196569 -0.0241325945
N -1.0390055887 -1.2126290893 -1.3780423023
C -2.2478801441 -0.8911734754 -1.8993245136
N -2.1235131711 -0.5356293774 -3.1651353710
C -0.7823756396 -0.6512208164 -3.3747394834
N -0.0788335681 -1.0556915113 -2.3246459031
C 0.0118772666 -0.9450221682 2.1807363069
N 0.1972501061 -1.4254537133 3.2154113638
C -1.3480505683 0.6617071615 0.9231716641
C -1.5010554954 1.6116971971 -0.0897593755
C -2.5616610015 2.5103857374 -0.0757421480
C -3.4806026140 2.4583544520 0.9641809932
Cl -4.8165704930 3.5888654145 0.9908125823
C -3.3546034743 1.5236928930 1.9839381115
C -2.2904467131 0.6301216889 1.9534023258
H 4.6209777928 -1.7784298516 -0.8326209383
H 4.9667264099 -1.3911504993 0.8581686894
H 5.6941440107 -0.4290536278 -0.4362301965
H 3.7801684182 0.8178790714 0.5876909229
H 3.4330759005 0.4282475828 -1.0922650056
H 2.4413490220 -1.1691708890 1.3235218261
H 2.1097886486 -1.5519408823 -0.3703788906
H 0.9491066622 0.5942933707 -0.6775295843
H 1.3292958296 1.0954661249 0.9710399276
H 0.0675572876 -2.3588724426 -0.0535013131
H -1.6048726812 -2.0157248212 0.4358246486
H -3.1635887314 -0.9329512363 -1.3239671313
H -0.3090880791 -0.4429157006 -4.3252371160
H -0.8004091221 1.6614234589 -0.9153508323
H -2.6736172836 3.2396433417 -0.8692795745
H -4.0745861630 1.4972955278 2.7933685254
H -2.1909506602 -0.0924211204 2.7574575632
