52
CONF154
C -0.4750462395 -1.3558943582 0.0498402954
C -1.5092555549 -1.2456768576 1.1305140649
C -2.7598944329 -0.8170689746 0.9077203544
C -3.3048716231 -0.4607396765 -0.4246867794
C -3.0190097093 0.9197442847 -1.0815188737
C -4.4147171279 0.5235546821 -0.6074666402
C -5.0409238575 1.1952947266 0.5929820686
C -5.4012860342 0.2541471983 -1.7255092924
C -2.1437173156 1.8624960620 -0.3733797564
O -2.1660036559 2.1495126202 0.8084727966
O -1.2264209862 2.3819264424 -1.2408431956
C -0.1885634440 3.2181080885 -0.6457250550
C 0.9105059192 2.3673511383 -0.0708024875
C 1.8103612843 1.7400554943 -0.9341228787
C 2.8158692385 0.9302181529 -0.4172073771
C 2.9448719640 0.7368209218 0.9576837214
C 2.0408860029 1.3621528902 1.8108143685
C 1.0263615001 2.1723622213 1.3068691109
O 3.7148146118 0.4077908469 -1.3279952318
C 4.3094737676 -0.8163593056 -1.0633844296
C 5.6753912836 -0.9234500935 -1.3007347343
C 6.2997812005 -2.1560076399 -1.1247022372
C 5.5668884806 -3.2650880556 -0.7086318781
C 4.1974798542 -3.1401232257 -0.4773329817
C 3.5586115568 -1.9172161065 -0.6575225552
C -1.0351591460 -1.6116135624 2.5064145783
H -0.0640818625 -2.3727971372 0.0114064081
H -0.8646007451 -1.0975813098 -0.9369449491
H 0.3673388489 -0.6864863449 0.2719387703
H -3.4358882157 -0.7307204716 1.7566995480
H -3.2662831315 -1.2555718735 -1.1686127685
H -2.8559469836 0.8880995185 -2.1535625184
H -5.8464306695 0.5609441619 0.9804747993
H -5.4810494862 2.1541152939 0.2978166647
H -4.3226749525 1.3809280569 1.3898331079
H -4.9209208344 -0.2400421762 -2.5750770722
H -6.2077895416 -0.3932259999 -1.3630566130
H -5.8487942224 1.1902640086 -2.0773850985
H 0.1758936279 3.8200961962 -1.4805171568
H -0.6321323879 3.8638041086 0.1151135365
H 1.7392991994 1.8791883737 -2.0088765844
H 3.7405262807 0.1146155972 1.3524802901
H 2.1371093373 1.2185010696 2.8824899705
H 0.3212143586 2.6510420943 1.9774098074
H 6.2316531202 -0.0483448846 -1.6200790540
H 7.3658783093 -2.2447110315 -1.3088890057
H 6.0580181315 -4.2222783502 -0.5681967219
H 3.6169828439 -4.0016953962 -0.1622885418
H 2.4920407607 -1.8149942381 -0.4874344300
H -0.1822132995 -0.9828031250 2.7949030363
H -0.6793853360 -2.6494029234 2.5323148070
H -1.8241887980 -1.4932403483 3.2535592875
