63
CONF90
C -9.7292429099 3.1873883976 0.1517097948
C -9.5700931950 2.6919042983 1.5889594305
C -8.9519409188 1.2947251163 1.6971986042
C -7.5243219649 1.1965840040 1.1595517941
C -6.8937812491 -0.1750240544 1.3973387267
C -5.4691944499 -0.2881001791 0.8570616790
C -4.8511599032 -1.6656624893 1.1000083526
C -3.3806709915 -1.7752448569 0.6891781876
C -3.1377579871 -1.5762433509 -0.8092072996
C -1.7187505203 -1.9366815310 -1.2578562993
C -0.6259636825 -1.0709723195 -0.6300299732
C 0.7661521004 -1.3806949554 -1.1783874837
C 1.8661011301 -0.5287967581 -0.5471139628
C 3.2602481867 -0.8502361296 -1.0828857163
C 4.3596695721 0.0037395509 -0.4534167931
C 5.7564627325 -0.3336775976 -0.9721607088
C 6.8551438095 0.5247805745 -0.3474479052
C 8.2535288025 0.1660963585 -0.8466521273
C 9.3486890819 1.0326408060 -0.2280785069
C 10.7531675196 0.6406934324 -0.6714151507
O 11.0987061682 -0.7021284123 -0.3145355478
H -10.3044426819 2.4715033887 -0.4464360905
H -10.2549603189 4.1466926382 0.1209860316
H -8.7613034803 3.3283348363 -0.3384881174
H -10.5531133831 2.6814886352 2.0758297511
H -8.9542633089 3.4027604141 2.1559355885
H -9.5891455626 0.5742958004 1.1648471631
H -8.9539910024 0.9853787671 2.7509717948
H -6.9038554220 1.9698840004 1.6352480501
H -7.5128335105 1.4122901063 0.0834559315
H -7.5210125723 -0.9487908279 0.9323500242
H -6.8915110468 -0.3921141278 2.4748098344
H -5.4751473794 -0.0640878707 -0.2174364370
H -4.8388402368 0.4800571743 1.3281158773
H -4.9417200772 -1.9091037882 2.1672017055
H -5.4365485304 -2.4245346622 0.5616435069
H -3.0027813889 -2.7660383760 0.9775157694
H -2.7961377284 -1.0442059473 1.2627768598
H -3.8559392776 -2.1929060020 -1.3672221409
H -3.3449681381 -0.5345388654 -1.0870210396
H -1.5216651499 -2.9927820619 -1.0253052330
H -1.6559698979 -1.8466980035 -2.3506673594
H -0.8601786735 -0.0105892245 -0.8031945278
H -0.6186104224 -1.2094345134 0.4587900717
H 0.9917467033 -2.4440000673 -1.0149735093
H 0.7710420008 -1.2321433200 -2.2673543593
H 1.6456243553 0.5342744091 -0.7183186890
H 1.8544973796 -0.6707008531 0.5427085482
H 3.4805801874 -1.9125396314 -0.9070518337
H 3.2727465809 -0.7128256480 -2.1732107734
H 4.1473718913 1.0657094171 -0.6409931097
H 4.3371812962 -0.1233050804 0.6381128257
H 5.7788072556 -0.2140673528 -2.0643722776
H 5.9704338512 -1.3938389669 -0.7774661680
H 6.8207505884 0.4163761658 0.7459582116
H 6.6506280053 1.5847622492 -0.5550140468
H 8.4642218237 -0.8881761942 -0.6310369170
H 9.2893171971 0.9801924865 0.8697438469
H 9.1846065558 2.0873786760 -0.4904173156
H 11.4917793656 1.3504293385 -0.2666605684
H 10.8267346177 0.6750443141 -1.7642662490
H 11.0700234417 -0.7652571622 0.6465850937
H 8.2905229807 0.2682489019 -1.9402834754
