56
CONF4
C -3.1435622040 1.6939894999 -0.3861555173
C -2.6537557650 0.2605255572 -0.0643659305
C -3.4147089026 -0.7334401236 -0.9655645164
C -4.8832785698 -0.8900633807 -0.5815733301
C -5.0132727451 -1.3187585456 0.8667286975
O -5.9443912059 -2.0030196860 1.2640567581
C -3.9925282152 -0.7972122417 1.7827569757
C -2.9569522556 -0.0197972292 1.3977194063
C -2.1085082517 0.6884716722 2.4131869877
C -0.6071443835 0.5921924044 2.1300278401
C -0.2895183798 1.0000249704 0.6874476501
C -1.1094921822 0.1937403467 -0.3409253585
C -0.5480118972 -1.2265712302 -0.5256179448
C 0.9389610293 -1.2017119642 -0.8786953622
C 1.8406905045 -0.4055667116 0.0854965682
C 1.2177829879 0.9805707833 0.3792876736
C 1.5818700123 1.8698934457 -0.8399353527
C 2.7326098343 1.1680207324 -1.5869994233
C 3.1546026547 -0.0091371123 -0.6854526122
C 4.2210940176 0.4651547867 0.3011525153
O 4.1417472393 1.5411274266 0.8711567273
C 5.4226348354 -0.4190012891 0.5641691809
O 6.2538654061 0.1256174339 1.5545081447
O 3.6311957769 -1.1520678416 -1.3989335868
C 2.1740050818 -1.2445385449 1.3234448525
O -0.7406139190 -2.0745817250 0.6157613720
H -2.9898713623 1.9073383614 -1.4492201653
H -2.6079929380 2.4497728965 0.1904261148
H -4.2072480780 1.8059709177 -0.1606574038
H -2.9638960292 -1.7287097088 -0.8898819250
H -3.3123568550 -0.4245543343 -2.0131550664
H -5.3901867161 -1.6275583264 -1.2095684495
H -5.4326933465 0.0537954108 -0.6935951357
H -4.1698489702 -0.9936102223 2.8378790320
H -2.4023569219 1.7495428934 2.3966363765
H -2.3453473138 0.3183081162 3.4153876076
H -0.0649284302 1.2511550761 2.8184958575
H -0.2737101386 -0.4275847397 2.3234128280
H -0.5859497315 2.0551548603 0.5908184115
H -0.9747431036 0.6695840651 -1.3245333653
H -1.0420244734 -1.6849850161 -1.3959065001
H 1.2960850564 -2.2325830174 -0.9559981367
H 1.0073988882 -0.7779482786 -1.8864973119
H 1.7315448808 1.3948048497 1.2535033396
H 1.8753643877 2.8652316859 -0.4983235425
H 0.7208409220 1.9985943812 -1.5039310463
H 3.5722242305 1.8398802521 -1.7890282831
H 2.3979685768 0.7550953315 -2.5436887255
H 5.9720239440 -0.5443427555 -0.3850896668
H 5.0700092345 -1.4233277755 0.8411233888
H 5.8595013666 0.9851052368 1.7816216068
H 4.2475041693 -0.8534432217 -2.0768997847
H 2.7045675876 -0.6536059172 2.0786391801
H 1.2742582629 -1.6599071378 1.7738799865
H 2.8045152739 -2.0924538798 1.0341570720
H -1.6759716750 -2.0585811407 0.8592108016
