53
CONF148
C -0.1359804793 -2.6804835578 1.7155842871
N 1.3016500218 -2.5052694597 1.9385433000
C 1.7972212727 -3.6785515156 2.6818464703
C 3.2817430274 -3.5723879232 2.9979272464
C 4.0775712500 -3.4194273602 1.7054952006
C 3.5377358964 -2.2283070643 0.9194942096
C 2.0308663162 -2.3527469024 0.6615777414
C 1.5110692459 -1.1703173071 -0.1730140237
C 1.5151973975 0.1663466136 0.5745677970
N 1.2514093030 1.2878730640 -0.3398988091
C 1.9679330219 2.4924686273 -0.1822521619
C 2.5780748690 2.8504468442 1.0258482340
C 3.3102963532 4.0311692174 1.1238621404
C 3.4136243948 4.8955234216 0.0387925358
C 2.7715798110 4.5748685569 -1.1550467369
C 2.0721476121 3.3778283577 -1.2671193295
S 1.3446382285 2.9158041376 -2.8271646705
C -0.0957251919 2.0910979686 -2.2012241403
C 0.0247831633 1.3417148322 -1.0152133253
C -1.1022361519 0.6586066662 -0.5507417778
C -2.2750946158 0.6847237770 -1.2956495475
C -2.3974534272 1.4103054091 -2.4739529227
C -1.2953834732 2.1422587615 -2.9059258512
S -3.6636694641 -0.2920877824 -0.7086207822
O -3.5359014515 -0.4424617171 0.7598356455
O -4.9085092192 0.2833876427 -1.2653604527
C -3.4004008126 -1.9118933293 -1.4590412039
H -0.5891866292 -1.7760204972 1.3033455705
H -0.6261911103 -2.8859026474 2.6723087465
H -0.3578568575 -3.5196612085 1.0280516042
H 1.2153021057 -3.7584114942 3.6074853687
H 1.6173274087 -4.6074099260 2.1006728472
H 3.5958759339 -4.4646266630 3.5514421939
H 3.4547545185 -2.7035840021 3.6464124717
H 5.1452737717 -3.2885463428 1.9141003082
H 3.9723533888 -4.3332994428 1.1046078865
H 4.0472540638 -2.1376279796 -0.0467815088
H 3.7408760422 -1.3100987943 1.4848511350
H 1.8759357197 -3.2640099430 0.0433327268
H 0.5136299510 -1.3951710597 -0.5621901820
H 2.1660817528 -1.0735197387 -1.0466234521
H 2.5115493209 0.3319168051 0.9841991704
H 0.8205437203 0.1563727676 1.4260233315
H 3.7875851122 4.2791522171 2.0664613138
H 2.8287391346 5.2427161795 -2.0089878762
H -1.0747768446 0.1155297591 0.3848326729
H -3.3258078441 1.4191353295 -3.0328991666
H -1.3596949939 2.7380846003 -3.8106848646
H -4.2231310617 -2.5477335136 -1.1203061561
H -3.4146160566 -1.7953618806 -2.5447984610
H -2.4387142066 -2.2974106221 -1.1121558434
H 2.4799135639 2.2126949569 1.8965088312
H 3.9782668184 5.8182045417 0.1182506230
