37
CONF34
C -5.9537734882 0.7485853252 2.6447803030
C -4.4331611006 0.7825459529 2.5796334437
N -3.8559384034 -0.3239919438 1.7945724122
S -3.7321151255 -0.2288953826 0.1420417783
O -4.3162118950 1.0278553234 -0.3196194723
O -4.0294640213 -1.5408048830 -0.4290655727
C -1.8334805511 -0.0174834470 -0.0084491595
C -1.3254697861 -0.1051168757 -1.4750369274
C 0.1484495896 0.3864367203 -1.7525461841
C 1.2799605727 -0.2804324136 -0.9042951725
C 2.7181162709 -0.0557107702 -1.4980874776
C 3.8553774846 -0.2934125748 -0.4423657040
C 5.2617575734 -0.5250437991 -1.0924302148
C 6.4553195358 -0.3384543574 -0.0982371829
F 6.6346761488 0.9524076246 0.1990819106
F 7.5723588573 -0.8035957762 -0.6725528698
F 6.2312972190 -1.0240057317 1.0320663329
F 5.4376832640 0.3484813043 -2.1106927438
F 5.3205291834 -1.7850804967 -1.5712152705
F 3.9255731156 0.7870748441 0.3679366559
F 3.5472773706 -1.3818326999 0.2988462095
F 2.8968530708 -0.9151054843 -2.5257246476
F 2.8183299611 1.2111477400 -1.9555565544
F 1.2371272045 0.2454503258 0.3440546163
F 1.0563278633 -1.6100272289 -0.8345271747
F 0.3889635634 0.1200978858 -3.0602822264
F 0.1897317707 1.7215912372 -1.5643592395
F -1.4376963471 -1.3796576587 -1.8977367215
F -2.1162826033 0.6819230463 -2.2433639868
F -1.5234417536 1.1834122646 0.5244731610
F -1.2532633906 -0.9903033896 0.7231860476
H -6.3841706947 0.8572096241 1.6459115684
H -6.3089460355 -0.1916146689 3.0790993289
H -6.3206232999 1.5681186337 3.2704746543
H -4.0845977610 1.7174764722 2.1333309774
H -3.9919757773 0.7176577015 3.5808683255
H -4.0750978870 -1.2669025495 2.0957870733
