23
CONF40
C 2.2787230639 -1.7694640651 -1.3440772475
C 1.3795644534 -1.3582921288 -0.1994336460
C 0.1093243558 -0.6142908594 -0.7365668210
C -1.0250056957 -0.3996347144 0.3287159887
C -2.0894302809 0.6672315462 -0.0748270849
C -3.2942071363 0.8688509707 0.9128256471
C -4.2110163721 -0.3142594061 1.3056968252
F -3.6091356811 -1.1044050006 2.2270787406
F -4.5152871613 -1.0554141775 0.2102040161
F -2.8251383323 1.4205291110 2.0573610193
F -4.1048556934 1.7793961051 0.3012478635
F -1.4866754920 1.8775050085 -0.1597491100
F -2.5822502161 0.3390818829 -1.2916893820
F -0.4768064236 -0.0257363872 1.5059895175
F -1.6572668185 -1.5848840948 0.4883307747
F 0.5168142067 0.5779595813 -1.2365784948
F -0.4129588145 -1.3454401385 -1.7559319105
F 2.0261195158 -0.5154963893 0.6485924209
F 0.9629257936 -2.4414802869 0.5129627126
I 4.0787313570 -2.7311372773 -0.6360397790
H 2.5886118305 -0.8924132666 -1.9110569599
H 1.7714078804 -2.4854359301 -1.9870043360
H -5.1350194175 0.0983643007 1.7339659883
