76
CONF1648
C 2.4735051859 -2.6006860509 -1.0773445875
C 2.8015874546 -1.3207030972 -0.3051600682
C 3.8430917410 -1.6111883094 0.7909810958
C 5.2307389151 -1.9896677620 0.2323544936
C 6.2178762705 -2.1261693033 1.3480112737
O 6.2082547763 -3.3644960745 1.8909236801
N 6.9876388372 -1.2332917333 1.8362593096
C 6.9998820878 0.1058874866 1.2742450530
C 7.9726803673 0.9776386235 2.0529915593
O 8.6123339008 0.3576790020 3.0513535123
O 8.1673817303 2.1483500289 1.7978568293
C 1.5619422449 -0.6647575899 0.3322480378
C 1.9123761696 0.6618204066 1.0770437622
C 0.6856688189 1.5972671420 0.9482568038
C -0.4006888981 0.6948907626 0.3604961712
C -1.6144899531 1.3602857576 -0.2779076169
C -2.3138714902 2.3319953929 0.6876463506
O -2.6410445566 1.7162205720 1.9542711714
C -3.5988125368 2.8932455690 0.0877599067
C -4.5474914047 1.8417565647 -0.5078191460
C -5.2873642507 1.0515401678 0.5865714123
C -6.2490850363 0.0193438758 0.0159869990
O -6.9433223355 -0.6858482230 1.0654839021
C -5.5095574105 -0.9324363917 -0.9141633029
C -4.8214709885 -0.1392273859 -2.0236522197
C -3.8160076096 0.9208001784 -1.5235737591
C -3.4009713175 1.7399402486 -2.7587358854
C -2.5833167652 0.2831978976 -0.8160639548
C -1.8505646597 -0.7484352846 -1.6880897826
C -0.5920862653 -1.3503453187 -1.0477020287
O -0.9366512605 -2.1614576320 0.0943462563
C 0.3758261218 -0.2470201961 -0.5920010612
C 0.9201797901 0.4882735648 -1.8276624091
H 1.8655789807 -2.3980728437 -1.9609455980
H 1.9247112449 -3.3033842989 -0.4392847812
H 3.3821615399 -3.1006177798 -1.4253080431
H 3.2526904362 -0.5955274730 -0.9989106553
H 3.9628324203 -0.7284537803 1.4257286383
H 3.4778130026 -2.4213873697 1.4360540652
H 5.5669322169 -1.2151798679 -0.4635776725
H 5.1893173376 -2.9389396448 -0.3074840381
H 6.8257441859 -3.3761576778 2.6412835080
H 6.0221910095 0.6070778076 1.3152909187
H 7.3263291374 0.1299542294 0.2244118016
H 8.2697509908 -0.5709391517 3.0414319984
H 1.1584286396 -1.3753595130 1.0650967252
H 2.1491357815 0.4664170716 2.1266503257
H 2.8032698316 1.1231222424 0.6342653202
H 0.8923418893 2.4328711163 0.2692730282
H 0.4013919974 2.0342467013 1.9115291675
H -0.7650401849 0.0422261021 1.1671023584
H -1.2600158579 1.9847352116 -1.1090219137
H -1.6296702799 3.1730545308 0.8800359168
H -1.8114623077 1.5017757100 2.3986743634
H -3.3058102184 3.5996819924 -0.6973019811
H -4.1228895761 3.4782990651 0.8537557432
H -5.3169785966 2.3865637499 -1.0773367352
H -4.5701979763 0.5337276121 1.2328866778
H -5.8382280717 1.7552337780 1.2234075105
H -7.0431194591 0.5253128723 -0.5505881902
H -6.2714066848 -1.1281177040 1.6015224643
H -4.7749844155 -1.5054318151 -0.3300766443
H -6.2144181285 -1.6529261505 -1.3455855752
H -5.5958158697 0.3908643259 -2.5971283644
H -4.3316376761 -0.8150317919 -2.7323645839
H -4.2784116837 2.2512129183 -3.1705146182
H -2.6478257510 2.4994077997 -2.5387407758
H -3.0005624550 1.0910099601 -3.5441577976
H -2.9525767940 -0.2554461367 0.0658126840
H -2.5246553755 -1.5803756512 -1.9262858516
H -1.5664803661 -0.3065330102 -2.6493861947
H -0.1067839053 -1.9863534973 -1.8006059754
H -1.6136315249 -2.7860497845 -0.1943917252
H 1.3901542006 -0.2195583032 -2.5182299969
H 0.1397231987 1.0158487351 -2.3800187234
H 1.6779356499 1.2227966918 -1.5425622381
