44
CONF5
C 2.5747567574 2.3416447949 -4.7120549388
C 2.3607492998 1.7232451682 -3.3683855613
N 1.5141892214 2.3581485237 -2.5418707768
C 1.3338559662 1.7669825492 -1.3554623990
N 1.9483733220 0.6341959289 -0.9742948794
C 2.7498892594 0.0906069714 -1.8873597419
N 3.0046386443 0.5848599039 -3.1034377230
O 3.3844245570 -1.0417844585 -1.6012970670
C 3.1473836065 -1.6261285878 -0.2999627480
N 0.4523942533 2.3935602565 -0.4864453760
C -0.1491133869 3.6579049738 -0.9461541390
C -0.0362014411 1.8943679982 0.7572663702
O -0.9379368491 2.4586573727 1.3469829240
N 0.5851814824 0.7612459499 1.2301329931
S -0.0746548899 -0.1446136111 2.5136762049
O 0.6499102956 -1.4182444787 2.4380853631
O -0.0588487993 0.6649686193 3.7265375461
C -1.8024526658 -0.4357654039 2.0749416308
C -2.7581103701 0.2992715612 2.7640661227
C -4.1070793449 0.0319620723 2.5575578531
C -4.4899841452 -0.9807081437 1.6858585441
C -3.5278220810 -1.7210000364 1.0081279061
C -2.1699735844 -1.4470659901 1.1794298844
C -1.1856572251 -2.1798145838 0.3281457511
O -0.3501240621 -1.6470904413 -0.3691157889
O -1.4000320625 -3.5054618827 0.3742602333
C -0.5154189133 -4.2922033419 -0.4556915142
H 1.7000398627 2.1399964464 -5.3408494972
H 2.6626773245 3.4263521906 -4.6197856310
H 3.4566683130 1.9187011876 -5.1925819492
H 3.7502216165 -2.5337996567 -0.2900957780
H 2.0879779446 -1.8636163968 -0.1720942079
H 3.4759915057 -0.9478123191 0.4927147020
H -0.7353849815 4.0607536876 -0.1239268947
H -0.7920749310 3.4823966436 -1.8123421889
H 0.6399502142 4.3532298760 -1.2355669535
H 1.1852260528 0.2507145145 0.5622336864
H -2.4344587303 1.0674484551 3.4553877349
H -4.8550251108 0.6115964597 3.0875837068
H -5.5414092816 -1.1999530473 1.5326122235
H -3.8216264023 -2.5125664871 0.3278848134
H -0.5983432013 -3.9833428441 -1.5006359590
H 0.5171238473 -4.1679583312 -0.1195553469
H -0.8398910034 -5.3238814759 -0.3260419334
