21
CONF8
C -1.9073766019 0.0232077571 -0.5993634099
C -1.1551188968 0.4905394531 0.6422223601
C 0.1298429765 1.2550936040 0.3246955400
C 1.0894616837 0.4326718209 -0.5732250427
C 1.1063137290 -1.0508891897 -0.1496155224
C -0.3315194128 -1.5088538167 0.1337235823
O -1.1854078326 -1.1719920087 -0.9836323874
O -0.8261050933 -0.7806511744 1.2393421260
O 1.9064358313 -1.2767970409 0.9997499646
O 0.7720406277 0.5894364168 -1.9543277783
O 0.7274405310 1.5290299365 1.5977713299
H -2.9423914545 -0.2407237487 -0.3549988017
H -1.8860709876 0.7397506917 -1.4254635264
H -1.7684519035 1.0448946777 1.3564026563
H -0.1258923301 2.1861632951 -0.2055250484
H 2.1052108010 0.8292956625 -0.4420021330
H 1.5418834321 -1.6417226134 -0.9637623890
H -0.4020523266 -2.5781303317 0.3559919654
H 1.4868513587 -0.7893644544 1.7248132552
H 0.1143493561 -0.0881969511 -2.1667491611
H 1.5505564069 2.0072379932 1.4439519336
