38
CONF25
C -6.7613219543 -0.4123531303 -0.3773759205
C -5.3070166166 -0.8224626985 -0.1936964592
C -4.9250785169 -0.6689380308 1.2801148787
O -4.5129378701 0.3403059164 1.7900932464
O -5.1709594442 -1.8225894404 1.9414222623
C -4.9239723235 -1.7646329477 3.3657110871
O -4.5300970121 0.0450056606 -1.0055074778
C -3.1892636307 -0.2044556703 -1.1164935324
C -2.4779305971 0.7084608422 -1.9006614257
C -1.1177822658 0.5448308076 -2.0971538811
C -0.4719971510 -0.5308896988 -1.5028385402
C -1.1592317077 -1.4424822942 -0.7264583677
C -2.5300863008 -1.2840706490 -0.5278630368
O 0.8905870439 -0.7541117097 -1.7602651479
C 1.7933249443 -0.0321282960 -1.0644430715
C 3.1547061973 -0.2279177296 -1.3769874263
C 4.1009699725 0.4913769443 -0.6804069203
C 3.6733562793 1.3823033334 0.3082230283
C 2.3131209484 1.5085991748 0.5467887572
N 1.3961099126 0.8109587186 -0.1292186559
C 4.6846588316 2.1978817743 1.0511057850
F 5.7441608479 1.4459965858 1.4395131005
F 4.1638642388 2.7695373370 2.1575584913
F 5.1856017735 3.1988693076 0.2814145326
Cl 3.6269333354 -1.3553654878 -2.6141301573
H -7.4108119212 -1.0541055028 0.2230902108
H -7.0387097420 -0.5095700642 -1.4295530316
H -6.8938134100 0.6274204267 -0.0678043628
H -5.1665618353 -1.8686512474 -0.4987162131
H -5.5663453960 -1.0121242788 3.8299542213
H -5.1577291544 -2.7596949898 3.7426693846
H -3.8781886724 -1.5107758646 3.5552645648
H -3.0124148764 1.5396828377 -2.3462302062
H -0.6280394380 -2.2738885542 -0.2767126476
H -3.0550620642 -2.0065935522 0.0853941613
H 5.1550309077 0.3598357304 -0.8976979632
H 1.9396254201 2.1874021807 1.3082224176
H -0.5541444526 1.2461266248 -2.7024714571
