55
CONF153
C 3.0633595749 -1.6758755415 -5.3700717635
O 3.9218814313 -1.5609337765 -4.2393337289
C 3.3396027882 -1.3316280830 -3.0280048341
C 4.2168919624 -1.2169331585 -1.9460807857
C 3.7169466201 -0.9831682852 -0.6770405316
C 2.3427674166 -0.8554884238 -0.4492267664
C 1.4798163136 -0.9817506110 -1.5358697046
C 1.9639560020 -1.2156047869 -2.8188156164
C 1.8580173786 -0.5650243218 0.9458131463
S 0.5663163061 -1.8283432775 1.3996224596
C -0.2481303247 -1.0493709131 2.7821113462
C -0.1708659047 -1.6493117348 4.0421360146
C -0.8730549075 -1.1291455378 5.1216761275
C -1.6376886942 0.0224899660 4.9564303681
C -1.7070361328 0.6406811166 3.7157755716
C -1.0308752394 0.1095131556 2.6141390094
N -1.1628820524 0.7417631379 1.3526066580
C -2.5082669678 0.9188602918 0.7879297804
C -2.9364898309 -0.3392122122 0.0285735270
N -4.2648184305 -0.1815704166 -0.5599036412
C -4.2161483165 0.6424112556 -1.7671441603
C -4.8503910929 -1.4827453751 -0.8715322014
C -0.0972291749 1.0561323918 0.5451821041
O -0.2335023478 1.5103033301 -0.5802658888
C 1.2904763972 0.8487026143 1.1660448843
O 2.2260132800 1.7488851921 0.5621209059
C 1.9837001382 3.0677691457 0.8028735594
C 2.9091851787 3.9264354659 -0.0045991903
O 1.1225186895 3.4563393232 1.5549114412
H 3.7186291435 -1.8466796804 -6.2251861831
H 2.4880748794 -0.7546926662 -5.5292607522
H 2.3747199765 -2.5241833641 -5.2636503442
H 5.2821931048 -1.3158761208 -2.1232895769
H 4.4077432865 -0.8895331073 0.1562271360
H 0.4098625827 -0.8910992690 -1.3892385827
H 1.2610952872 -1.3024056455 -3.6377511948
H 2.7007952224 -0.6829769819 1.6355204407
H 0.4418047370 -2.5368544756 4.1585195400
H -0.8112379288 -1.6127056635 6.0907370999
H -2.1687671683 0.4522383617 5.7992328680
H -2.2760314492 1.5559812026 3.5923726031
H -2.4749059570 1.7909408954 0.1328751088
H -3.2160743063 1.1109687328 1.5974595159
H -2.1657880171 -0.5856838933 -0.7277821630
H -2.9658249177 -1.1726518159 0.7416428242
H -3.5992908490 0.1852050034 -2.5656573214
H -3.8015623518 1.6293811484 -1.5470402958
H -5.2304546542 0.7846213420 -2.1539454330
H -4.9362227685 -2.0819683917 0.0406797360
H -5.8559068745 -1.3439923446 -1.2826375449
H -4.2558160608 -2.0575246575 -1.6092079924
H 1.2374229157 1.0562479853 2.2398853241
H 2.5579682060 3.9193674286 -1.0415772010
H 2.8893095505 4.9458982285 0.3783121507
H 3.9241925515 3.5237991136 0.0027017719
