58
CONF36
C -1.1962404515 -0.8413148580 -3.0453486489
C -0.5804933786 -1.4769425789 -1.8104914261
O 0.1942370072 -0.4510568497 -1.1587956533
C 1.0993309555 -0.9562837315 -0.1997161564
O 2.1898816633 -1.6191030089 -0.8118440326
C 2.9930447941 -0.7020476694 -1.5820922062
C 3.5139165299 0.4078934674 -0.6977015618
N 2.3979391015 1.1411267694 -0.0738005135
C 2.9315563378 2.2025922288 0.7907381067
C 3.5346472868 3.2872034091 -0.0280829905
N 4.7167500537 3.8070332947 0.1617172744
N 4.8145009664 4.7866976350 -0.8013244181
C 3.7083261588 4.8746682734 -1.6095963955
O 3.4922469786 5.6264368500 -2.5581753701
N 2.8844958768 3.8885458085 -1.0744530625
C 1.5655758384 0.2066912329 0.7002499618
C 0.3644666850 0.8647084847 1.3382809111
C -0.0849034657 0.4045863106 2.5766346816
C -1.2239143717 0.9402744394 3.1740237469
C -1.8915713182 1.9510974883 2.5080159055
F -2.9991235789 2.4909924059 3.0829235424
C -1.4771488155 2.4408801883 1.2799949108
C -0.3451208457 1.8833909776 0.6960955473
C -1.6353201008 -2.0173679094 -0.8666065352
C -2.4743219469 -1.1364067391 -0.1796480656
C -3.4671110705 -1.6348434888 0.6544056752
C -3.6296499588 -3.0072923588 0.8394545503
C -2.7796558442 -3.8748910961 0.1672006116
C -1.7909689315 -3.3875807508 -0.6879184889
C -2.9600389005 -5.3566005987 0.3263436884
F -3.8317508370 -5.8579210839 -0.5917075890
F -1.7992058587 -6.0328224290 0.1661730032
F -3.4508062291 -5.6863549706 1.5437666005
C -4.3875361596 -0.7088237195 1.3961582652
F -5.6826347663 -1.1046299928 1.2945883248
F -4.3246844367 0.5612179828 0.9442798385
F -4.1047915907 -0.6732811504 2.7263818563
H -1.8036945518 -1.5764771698 -3.5802257555
H -0.4070253184 -0.4812254331 -3.7110688157
H -1.8357850821 0.0003821037 -2.7613789372
H 0.0842011486 -2.2981186422 -2.1094050318
H 0.6158758683 -1.7152017329 0.4311757489
H 3.8212786541 -1.2899123008 -1.9843623612
H 2.4021142784 -0.2960890536 -2.4128786949
H 4.1036195221 1.1042356761 -1.3057616463
H 4.1821299627 -0.0190810273 0.0746729434
H 3.6963016877 1.8373032061 1.4984447005
H 2.1073005251 2.6239352529 1.3780039982
H 5.6515902186 5.3421070544 -0.8867654269
H 1.9749649347 3.6404899237 -1.4334714640
H 2.1630324648 -0.2705651545 1.5014450438
H 0.4614200576 -0.3837685147 3.0871210625
H -1.5815542399 0.5877838628 4.1351617823
H -2.0344637913 3.2348257552 0.7943856070
H -0.0053167474 2.2480045849 -0.2672611348
H -2.3417620753 -0.0662535577 -0.2978719879
H -4.4030463981 -3.3872236091 1.4977980417
H -1.1351048072 -4.0756225711 -1.2121456427
