46
CONF57
C -0.3621891074 1.1562744755 -2.4923772760
C 0.2991012702 1.4269656141 -1.1424769856
C 0.1516063188 2.8707752962 -0.6519180544
C -1.2835434922 3.3389104066 -0.4854285790
O -2.0236442946 2.4575705866 0.4112120258
C -1.8994555851 2.7076073329 1.7224448049
O -1.2712252870 3.6184713600 2.2112739074
C -2.7291222797 1.7345973161 2.5641583399
C -4.1504717130 2.2600766970 2.6945719739
O -2.8220001279 0.4343461597 1.9850776172
C -1.6678833023 -0.2775385613 1.8251819778
C -0.4228170842 0.1012541497 2.3316377617
C 0.6887269718 -0.7084656586 2.0998217490
C 0.5478639654 -1.8802252357 1.3787692852
C -0.6905325191 -2.2714343233 0.8790675252
C -1.7954350836 -1.4663066913 1.0984535619
O 1.6606389884 -2.7098355955 1.2231556095
C 2.2218121012 -2.8051028075 -0.0109848716
C 3.2405613061 -3.7572329229 -0.1583229618
C 3.9014722449 -3.9378659627 -1.3513467300
C 3.5449793781 -3.1454634851 -2.4539882742
C 2.5318748691 -2.1894370307 -2.3236503148
C 1.8764613316 -2.0227012435 -1.1124280152
C 4.2143677297 -3.3161878198 -3.6964920091
N 4.7570100442 -3.4516973006 -4.7110763540
F 3.5738566268 -4.5065456637 0.9047999692
H -1.4516378185 1.2393124617 -2.4311859644
H -0.0103378885 1.8576488787 -3.2572921527
H -0.1398043358 0.1434036938 -2.8436920028
H -0.1162619709 0.7493975333 -0.3872676873
H 1.3711801668 1.2031007080 -1.2053176493
H 0.6748813538 2.9953298489 0.3026782637
H 0.6289496494 3.5558029796 -1.3660664699
H -1.3212185881 4.3571580307 -0.0891188335
H -1.8407426141 3.2894223290 -1.4234784102
H -2.2536326123 1.6853859372 3.5524387431
H -4.7291831366 1.5952263943 3.3400606754
H -4.1362460952 3.2603499550 3.1341519722
H -4.6252244041 2.3036521192 1.7112160400
H -0.2926056471 1.0166036069 2.8962864552
H 1.6641689573 -0.4297651117 2.4830841074
H -0.7800268640 -3.1988563882 0.3230592883
H -2.7727904951 -1.7420127447 0.7186062856
H 4.6824291474 -4.6854159527 -1.4233800183
H 2.2619570311 -1.5759964102 -3.1754100912
H 1.0941331960 -1.2805570456 -1.0114855316
