44
CONF30
C 4.7695483585 0.1961202222 -0.4440525010
N 3.3255309257 0.0900408779 -0.2282188245
C 2.7798416087 1.4222060269 0.0367561170
C 3.0395790328 -0.8436235842 0.8690782394
C 1.6436624304 -1.4827265350 0.8016084470
C 0.5123539494 -0.5552016025 1.1070265402
C -0.6200352312 -0.3992651286 0.3977269385
C -1.6559389730 0.5717121258 0.8425327574
C -2.0029239518 0.5660938294 2.2060669883
C -2.9525475020 1.4304165275 2.7287250991
C -3.5945599767 2.3303409460 1.8820806072
C -3.2681760357 2.3426347645 0.5337970929
C -2.3106399253 1.4796949537 -0.0159549298
C -2.0627663458 1.6367660502 -1.5053323422
C -0.8493271716 0.9274270789 -2.1142820080
C -0.9986196841 -0.5642784302 -2.0624522032
C -1.2590974093 -1.3248242344 -3.2020716144
C -1.4269967061 -2.7049677417 -3.1169360977
C -1.3344194381 -3.3381849567 -1.8808355529
C -1.0722999193 -2.5879236976 -0.7378794982
C -0.9024490884 -1.2038849856 -0.8184386980
H 4.9659190783 0.8851574147 -1.2724126148
H 5.1833556725 -0.7824771346 -0.7083889051
H 5.3102569443 0.5729508280 0.4466626702
H 3.2289816913 1.8887824298 0.9362548324
H 2.9740814345 2.0759195556 -0.8204368977
H 1.6990052932 1.3688428313 0.1870419199
H 3.1837373490 -0.3598337718 1.8569198027
H 3.7703365846 -1.6577538075 0.8086955313
H 1.5112390461 -1.9489359377 -0.1794389448
H 1.6388053649 -2.2941217553 1.5459385413
H 0.6453742511 0.0726035118 1.9891765414
H -1.5228562837 -0.1596724197 2.8548880424
H -3.1994509545 1.3920749021 3.7850347206
H -4.3441703634 3.0140713749 2.2677586889
H -3.7627340648 3.0503523250 -0.1275629644
H -1.9791296929 2.7108732355 -1.7118257599
H -2.9622835443 1.2978908117 -2.0385505766
H -0.7429467215 1.2541727779 -3.1535590803
H 0.0612092609 1.2297483755 -1.5820153579
H -1.3247496197 -0.8291642695 -4.1672144216
H -1.6279028261 -3.2832373593 -4.0133551702
H -1.4655584745 -4.4130180068 -1.8050880553
H -1.0002372611 -3.0737978941 0.2310108953
