51
CONF48
C 5.8972832035 0.6778687574 1.4422990132
C 5.2611502402 -0.6392824538 1.7975386064
C 5.9253219410 -1.6612464701 2.3922374339
C 7.3646901173 -1.7345952631 2.7685070670
O 8.0323713714 -2.8019474639 2.0669059870
C 3.8575706506 -0.8125344901 1.4928876995
C 3.0395526070 0.1127356299 0.9245607060
C 1.6605575830 -0.1320765799 0.6548479300
C 0.7498128791 0.7130753878 0.0791704626
C 1.0950524850 2.1030954351 -0.3747436899
C -0.5998122059 0.2399649831 -0.0997269857
C -1.6019815836 0.9456034744 -0.6867445905
C -2.9795403166 0.5757986648 -0.9604461561
C -3.7108017876 1.4002461431 -1.7674193502
C -3.1991798460 2.7169924786 -2.3017698269
C -5.0962637154 1.0741833168 -2.2535163782
C -5.5117509613 -0.3656767527 -2.0005923197
C -5.1146846781 -0.7363773360 -0.5829140987
C -3.5879138600 -0.7016209908 -0.3581661749
C -3.3945380412 -0.7308199355 1.1721414117
C -2.9712362958 -1.9636808956 -0.9933914250
H 6.9696059573 0.6909752246 1.6347202353
H 5.7399675723 0.9037349538 0.3820996937
H 5.4430060129 1.4923288697 2.0177647589
H 5.3662923915 -2.5742839289 2.5961904146
H 7.8890266863 -0.7830507245 2.6124307771
H 7.4665431899 -1.9927782757 3.8292805584
H 7.8235211404 -2.6938631260 1.1315575717
H 3.4306448811 -1.7804815686 1.7543958528
H 3.4512241124 1.0832933912 0.6644530063
H 1.2963179943 -1.1188308062 0.9421954428
H 0.9251698483 2.2108449550 -1.4523789316
H 0.4601134069 2.8417690141 0.1275516302
H 2.1333780863 2.3644484792 -0.1739992686
H -0.7734813041 -0.7672571759 0.2604545755
H -1.3241020912 1.9275666598 -1.0527389121
H -2.4936083742 2.5708664152 -3.1297948911
H -2.6962930480 3.3217751860 -1.5421256012
H -4.0322183063 3.3089518202 -2.6917693404
H -5.8073709606 1.7636844364 -1.7685561223
H -5.1508177674 1.3148750879 -3.3248281391
H -6.5906713999 -0.4848388278 -2.1482485002
H -5.0184243344 -1.0275007977 -2.7218109549
H -5.4794855986 -1.7353847753 -0.3152066955
H -5.5904996424 -0.0277575690 0.1095470814
H -2.3584867405 -0.8681284861 1.4809079990
H -3.7523532750 0.2035369324 1.6163955589
H -3.9815982652 -1.5547482393 1.5935502342
H -3.1889012923 -2.0109859609 -2.0640711069
H -1.8861633810 -1.9978605165 -0.8874441287
H -3.3859972806 -2.8606072865 -0.5190808090
