52
CONF4
C 1.8121190405 0.6267017393 -0.2063886818
C 2.9270906803 1.3586815672 -0.9711373392
C 4.2358805865 0.6964151906 -0.4723739573
C 3.8119613172 -0.4647785323 0.4763120486
O 4.7454157548 -1.5407318837 0.3160816370
C 3.8228518998 -0.0227810850 1.8710971600
C 3.8567706398 0.3075618411 3.0300459782
C 2.3586322672 -0.7968802957 -0.0119138358
C 2.4713766609 -1.5829308492 -1.3255169111
C 1.4544895875 -1.5329947312 0.9741622473
C -0.0001232838 -1.5375493547 0.4799643967
C -0.5374737212 -0.1242753212 0.1849935336
C 0.3927766745 0.6661172442 -0.7628738102
C -0.1056758194 2.1021726615 -0.9016917330
C -1.5347170714 2.1275010999 -1.4387627423
C -2.4804872792 1.2991636624 -0.6195219822
C -3.7283470516 1.7485441456 -0.3671485819
C -4.6461825453 0.8691306615 0.2871436393
C -4.3063972227 -0.3263674955 0.8472810668
C -2.8756437601 -0.7341023938 0.9105758762
C -2.0368014687 -0.1265780993 -0.2575259524
C -2.2786414991 -0.9769343314 -1.5250201570
C -5.5371710850 -0.8194030031 1.3310978408
N -6.5415721376 -0.0026509956 1.0797038004
O -5.9688519613 1.0940015886 0.4055529374
H 1.7640219977 1.0725471818 0.8006388680
H 2.9158709021 2.4348434797 -0.7805425431
H 2.8057677569 1.2207989481 -2.0516950272
H 4.8919759350 1.3938166408 0.0511915276
H 4.8138465721 0.2546315635 -1.2879725322
H 4.6715540405 -2.1115122413 1.0901940904
H 3.8894662307 0.6163195338 4.0471458819
H 2.8769199544 -2.5783464261 -1.1285697448
H 3.1359773025 -1.0996441450 -2.0450691330
H 1.4960886883 -1.7000005592 -1.8021760503
H 1.5015794366 -1.0308100197 1.9480096467
H 1.7953528972 -2.5660327445 1.1244041203
H -0.0799701912 -2.1619660920 -0.4162741473
H -0.6213635996 -2.0160358742 1.2435801430
H -0.5162104162 0.4300270009 1.1389831118
H 0.3866669096 0.2022149293 -1.7606311014
H 0.5490306447 2.6704772022 -1.5718316426
H -0.0669538153 2.5926094769 0.0813134360
H -1.9143380352 3.1520343880 -1.5103650505
H -1.5201483673 1.7302949161 -2.4654954632
H -4.0562551203 2.7292821849 -0.6975120915
H -2.7791500945 -1.8239230612 0.8898151328
H -2.4514710772 -0.3976110249 1.8692787182
H -1.6940312811 -0.6197910098 -2.3767158321
H -3.3378110805 -0.9325238199 -1.7974116230
H -2.0213382996 -2.0253001397 -1.3489752283
H -5.7463573733 -1.7434328269 1.8565629493
