63
CONF17
C 4.1692893065 0.2417605173 5.0343804362
O 4.8913891169 0.0778459419 3.7864772798
C 4.1695283523 0.3141368042 2.6932540832
O 3.0097591339 0.6600955292 2.6566361521
O 4.9743210927 0.1252109005 1.6250834862
C 4.3130203741 0.1483360942 0.3471311522
O 3.7694088056 -1.1251707871 0.0731604464
C 2.4524853008 -1.3430561699 0.3493839312
C 1.4494870224 -0.8989687503 -0.4822594277
C 1.7098715363 -0.1955700939 -1.7833518754
O 2.8261520882 0.2284523471 -2.0760813090
N 0.6426550976 -0.1010174066 -2.6322963368
C 0.8692221499 0.0061396868 -4.0774825617
C 0.7776579909 -1.4016090783 -4.6633543916
O -0.4791685261 -2.0153221500 -4.3423036578
C -0.6817999009 -2.1303334686 -2.9325519849
C -0.6497514237 -0.7284429060 -2.3195342003
N -0.9279331230 -0.7015178426 -0.8998483251
N 0.1477132293 -1.2871008334 -0.2023586475
C -0.1563195653 -2.0970124007 0.8436676251
C 0.8077678912 -2.5584106290 1.6844407302
C 2.1848214460 -2.1855590438 1.5238720778
O 3.0996391862 -2.5363294887 2.2921702900
C -1.1931692432 0.6940325966 -0.3709381780
C -2.3314578905 1.3592610943 -1.1089236476
C -3.6084304907 0.7770023010 -1.1977618299
C -3.9062896045 -0.5647932146 -0.6157791681
S -3.9947478801 -0.5241106005 1.2189693640
C -2.4817862713 0.1878859006 1.8398835815
C -2.4802780559 0.2361683757 3.2439644348
C -1.3981945456 0.7379411932 3.9487225550
C -0.2854495655 1.2163913225 3.2623215070
C -0.2867769195 1.1824222813 1.8767835608
C -1.3630517040 0.6734927388 1.1347632725
C -4.6065298413 1.4970973294 -1.8432992977
C -4.3620838752 2.7471175258 -2.3974316341
C -3.1083526338 3.3186547426 -2.3195505731
C -2.0977185954 2.6132139803 -1.6739915791
F -5.3710296151 3.3862231719 -3.0189083908
F -5.8483277380 0.9847621690 -1.9522073711
H 4.8915754660 0.0029841661 5.8133703200
H 3.3230368124 -0.4481967373 5.0671840766
H 3.8204826593 1.2721054132 5.1335752190
H 5.1067951886 0.3260900367 -0.3755541525
H 3.5462113564 0.9247220933 0.3320397144
H 1.8513701066 0.4450454054 -4.2612308806
H 0.0948490461 0.6523906511 -4.5059555577
H 0.8324206222 -1.3672715208 -5.7544661813
H 1.6044917229 -2.0173907403 -4.2757512786
H 0.0928148516 -2.7685692314 -2.4782157583
H -1.6656443607 -2.5848381556 -2.7878004476
H -1.4261225832 -0.1298261366 -2.8109827394
H -1.2100033441 -2.3290727342 0.9486687448
H 0.5305318425 -3.2064823199 2.5076564041
H -0.3054771679 1.3105156560 -0.5625407111
H -3.1736278743 -1.3095902341 -0.9241197203
H -4.9020463079 -0.9092827702 -0.9027736633
H -3.3457790078 -0.1342600391 3.7868292273
H -1.4286639234 0.7533124171 5.0334890624
H 0.5750754640 1.6048255840 3.7948189700
H 0.5822371384 1.5487714511 1.3379300840
H -2.9329619182 4.2933428911 -2.7610586026
H -1.1071106110 3.0513544544 -1.6081212402
