82
CONF131
C -5.3877908155 -0.8373856367 -2.8404639700
C -4.3905392759 0.2862174800 -2.7637095165
C -3.7888920004 0.7504927255 -3.8659794332
C -4.0742662999 0.8734647924 -1.4111480342
C -5.2743987446 1.3113217008 -0.5555388610
C -4.6568703996 1.4575731789 0.8377572979
C -3.7078305682 0.2427933293 0.9887246828
C -3.2667564489 -0.0828868355 -0.4815342068
C -1.7413704356 -0.0120355494 -0.7137024575
C -1.1839579495 1.4371255291 -0.7357599255
C 0.1538301815 1.5978937434 -0.0182358684
C 1.1195355122 0.4884107083 -0.4331005395
C 2.6220662243 0.8350584164 -0.0492363558
C 2.7504117526 1.5526688816 1.3133788679
C 4.2041648104 1.8627524847 1.6879429436
C 5.1063228817 0.6353443179 1.7199875428
C 5.0044771673 -0.2081631694 0.4211743962
C 3.5116161522 -0.4460416406 -0.0084269101
C 2.8753972489 -1.5745655732 0.8570400158
C 1.3811782924 -1.4455337481 1.1505511574
C 0.5743347499 -0.9268510969 -0.0398200530
C -0.9884764922 -0.9213647789 0.2948188979
C -1.3225211096 -0.4562200975 1.7547076980
C -2.4910456137 0.5424405061 1.8809506054
C -1.5157813929 -2.3661021224 0.1463718169
C 0.8418555958 -1.8613639638 -1.2422067815
C 5.8270657081 0.5193572034 -0.6661116974
C 5.7265740958 -1.5583313986 0.6059490532
O 4.7565797556 -0.0867615816 2.9216559531
C 3.0608880481 1.8023816040 -1.1743968408
C -4.4664828843 -0.9134621738 1.6731676732
O -5.6150419495 -1.4101557108 0.9717388908
H -6.3770499236 -0.5097414927 -2.5015396379
H -5.0984069418 -1.6777982364 -2.1986864941
H -5.4812081095 -1.2081518302 -3.8641298417
H -3.0750769842 1.5690107784 -3.8136117633
H -3.9921999463 0.3262578623 -4.8459124046
H -3.4688290964 1.7685142960 -1.5846749662
H -5.7253902078 2.2379718972 -0.9274110787
H -6.0437274448 0.5354505577 -0.5389576887
H -4.0719845442 2.3859406640 0.8822181538
H -5.4042390512 1.5001808739 1.6380949573
H -3.5745873188 -1.1064192451 -0.7217938436
H -1.5678713108 -0.4409141691 -1.7093514999
H -1.0501256866 1.7442231558 -1.7813266102
H -1.9028116160 2.1436580254 -0.3097480316
H 0.0153111683 1.6016829205 1.0663769171
H 0.5642585466 2.5815731347 -0.2703750845
H 1.1125531009 0.5008415164 -1.5335332330
H 2.3024860266 0.9434687121 2.1049789683
H 2.1945742287 2.4963140142 1.2939823172
H 4.6283925721 2.5927059717 0.9919935163
H 4.2377288703 2.3341902662 2.6770901047
H 6.1550025494 0.9659185132 1.8125469892
H 3.5703291268 -0.8124138460 -1.0425167676
H 3.0709483163 -2.5325486827 0.3623504553
H 3.3798039441 -1.6181382376 1.8221247956
H 1.2505023089 -0.7763191433 2.0034287673
H 1.0006136781 -2.4230887800 1.4726070744
H -1.5314510499 -1.3458793334 2.3608212093
H -0.4600991821 0.0139362486 2.2305310023
H -2.8121293144 0.5750915172 2.9314544790
H -2.1304706243 1.5492576353 1.6538313688
H -0.8815099859 -3.0700396173 0.6944835146
H -1.5558423393 -2.6831742176 -0.8994401279
H -2.5215888283 -2.4665828112 0.5550492486
H 1.8628645966 -1.7265850743 -1.6043067556
H 0.1736863191 -1.6352759927 -2.0796231875
H 0.7222496964 -2.9167217514 -0.9815373187
H 6.8951704573 0.4054438306 -0.4510729127
H 5.6252311734 1.5871244870 -0.7332263841
H 5.6332810709 0.0764504206 -1.6485121404
H 5.7431018596 -2.1016537298 -0.3461421583
H 5.2665396042 -2.2133277788 1.3475616125
H 6.7668275206 -1.3827934244 0.9053716244
H 5.3785452559 -0.8177468487 3.0193427507
H 3.3139382632 1.2460772966 -2.0833185549
H 3.9136722737 2.4273771866 -0.9142105208
H 2.2423718817 2.4852433968 -1.4224483190
H -3.7818366566 -1.7407635521 1.9001370957
H -4.8511675155 -0.5391114155 2.6289765376
H -5.3046583164 -1.9367872340 0.2255086230
