47
CONF39
C -7.7068684550 -2.4289951153 -0.5677686213
O -6.6155625581 -2.8350035199 0.3049772810
P -5.5452267113 -1.7561201295 0.8012597690
S -6.2197400068 -0.0513072915 1.4409216764
O -4.6623847916 -2.6278260661 1.8091619444
C -5.1029039377 -2.8196808671 3.1836336854
O -4.5610565909 -1.6945377895 -0.4866063720
C -3.6277234084 -0.6652935237 -0.6477788231
C -2.5128538252 -0.5920035280 0.1786704472
C -1.5807310021 0.4172199831 -0.0290536418
C -1.7538183420 1.3244879100 -1.0776600177
C -2.8736621838 1.2264329653 -1.9076988346
C -3.8233341167 0.2354516998 -1.6838235296
S -0.6315275970 2.6875767702 -1.3609576392
C 0.9563100741 2.0083310852 -0.8981923439
C 1.7778930641 2.7528095523 -0.0508746235
C 3.0522402849 2.2927245993 0.2687982385
C 3.4800696782 1.0796173871 -0.2526904752
C 2.6711013066 0.3222494930 -1.0920426601
C 1.4089728083 0.7945349590 -1.4243710216
O 4.7247317370 0.5548988589 0.0942573538
P 6.1198567027 1.2763610995 -0.3570852956
S 6.1170546517 2.0493771975 -2.1317290000
O 7.1437960623 0.0948526326 -0.0273197955
C 7.1576602073 -1.1023364255 -0.8548540412
O 6.4635773450 2.3421704626 0.7775012518
C 6.4911165020 1.9457141085 2.1839139474
H -7.3096069841 -2.0411417016 -1.5098969771
H -8.3202766902 -1.6726878250 -0.0717973840
H -8.2884623492 -3.3324424374 -0.7481426415
H -5.1982179961 -1.8523758733 3.6830148214
H -6.0554232074 -3.3558494909 3.2019137446
H -4.3250538727 -3.4172460147 3.6578307463
H -2.3810458558 -1.3082220496 0.9825014481
H -0.7180182802 0.4903050154 0.6242731334
H -3.0071029337 1.9226268115 -2.7294767165
H -4.7011958092 0.1499903297 -2.3150623695
H 1.4237536671 3.6893201274 0.3668197635
H 3.6958728571 2.8647184746 0.9287263535
H 3.0400792328 -0.6165369997 -1.4910768724
H 0.7766582924 0.2192256594 -2.0924839543
H 7.3862710970 -0.8364582307 -1.8902237194
H 7.9441830241 -1.7342071029 -0.4438813038
H 6.1920785246 -1.6111972190 -0.7933388832
H 7.3416716361 1.2857898378 2.3653805268
H 6.6020896067 2.8735608639 2.7438246465
H 5.5547580213 1.4511215082 2.4555528018
