45
CONF258
C 5.3804652837 0.9142366233 -2.0881091599
C 4.2932140310 1.5470542934 -1.2220300980
C 3.0232696956 0.6989379941 -1.1780269056
C 1.9428049049 1.3332107071 -0.3128677137
N 0.7504430073 0.4901288992 -0.3005625818
C -0.3851011273 0.8513877252 0.3640904157
C -1.5761122087 0.1109493473 0.1717865491
C -2.7468167106 0.4638273625 0.8314990599
C -2.7953851391 1.5329649673 1.7179264711
C -1.6171972483 2.2495128543 1.9370856125
C -0.4365776574 1.9220158830 1.2697235274
C -1.5792830749 3.4025357067 2.8715479111
O -0.5889058222 4.0740469895 3.0927225101
O -2.7689797114 3.6367074976 3.4614296212
S -4.2433460161 -0.4987632640 0.5424644300
O -3.9478559271 -1.9139388690 0.8125235333
O -5.3322518513 0.1725591507 1.2670676708
N -4.6249413207 -0.3963106953 -1.0875823493
O -1.6006929551 -0.8999886604 -0.7630485752
C -0.9572412683 -2.1012178226 -0.4625382204
C -0.7888675949 -2.9753257721 -1.5307913173
C -0.1734512007 -4.2022557357 -1.3050462974
C 0.2722491205 -4.5458234353 -0.0293090372
C 0.0928880949 -3.6535989929 1.0249986159
C -0.5275167685 -2.4233074625 0.8190161550
H 5.6564057765 -0.0746950075 -1.7061490034
H 5.0338862911 0.7898477876 -3.1198796773
H 6.2830899952 1.5325496953 -2.1076884195
H 4.0482382825 2.5456562568 -1.6059529467
H 4.6688928593 1.6879679930 -0.2003797338
H 3.2576486573 -0.3001662386 -0.7878600602
H 2.6380377388 0.5639486680 -2.1982683597
H 1.7056823793 2.3430247453 -0.6865338925
H 2.3136413689 1.4440628124 0.7145215231
H 0.6139210252 -0.0787194911 -1.1246980565
H -3.7190947437 1.7873116818 2.2184225408
H 0.4451489172 2.5232648857 1.4521436115
H -2.6645069045 4.4006252099 4.0533662347
H -3.8818928976 -0.7984551558 -1.6577028725
H -4.7976026459 0.5703106982 -1.3605824782
H -1.1379860423 -2.6892491343 -2.5175007465
H -0.0398256392 -4.8901455799 -2.1339601479
H 0.7548761955 -5.5022692106 0.1413874983
H 0.4333008259 -3.9126377360 2.0226338603
H -0.6766716731 -1.7317779759 1.6415722937
