63
CONF36
C 4.1701242189 1.4969214219 -2.2692292555
O 3.5057199975 1.7474313262 -1.0128811960
C 4.1929035377 1.3030861699 0.0513321058
O 5.2849600140 0.8020602795 0.0399867228
O 3.4375871763 1.5770255351 1.1464032889
C 3.7867557010 0.8384415849 2.3254009993
O 3.2085211521 -0.4534005516 2.2578793491
C 1.8509491198 -0.4553867655 2.3136205487
C 1.1063503973 -0.8210396362 1.2196566075
C 1.6991064436 -1.2863138105 -0.0800835743
O 2.8949764887 -1.2249678975 -0.3210984691
N 0.8040667601 -1.8212239170 -0.9875639141
C 1.2827113023 -2.8026877834 -1.9610826429
C 0.9836579259 -4.1946088641 -1.4066754777
O -0.4070641618 -4.3416613264 -1.1030302948
C -0.8497446523 -3.4008396017 -0.1289412619
C -0.6183134122 -1.9876609596 -0.6687654952
N -1.0877107258 -0.9343782614 0.2069455717
N -0.2767862578 -0.9045320347 1.3609839450
C -0.8991200688 -0.6283394782 2.5409002443
C -0.1996878716 -0.2762366829 3.6477264859
C 1.2329963606 -0.1187998143 3.6147020612
O 1.9176938422 0.2483786529 4.5746465840
C -1.0773279748 0.4204020192 -0.4883739484
C -2.0529126110 0.4409277563 -1.6404978864
C -3.4218915234 0.1742440267 -1.4665339961
C -3.9872505544 -0.1910148356 -0.1339157097
S -4.0647571343 1.2365657910 1.0182834176
C -2.4239749482 1.9188870518 1.1653429828
C -2.3910618088 2.9744959187 2.0903380125
C -1.2152872481 3.6459273497 2.3782672283
C -0.0364408923 3.2898080322 1.7305250494
C -0.0648779623 2.2606757329 0.8050108755
C -1.2368433435 1.5482628737 0.5067804124
C -4.2548534185 0.2755599727 -2.5750587434
C -3.7615255331 0.6180580614 -3.8288292466
C -2.4156134719 0.8728203082 -4.0048364533
C -1.5701496094 0.7797298409 -2.9045207482
F -4.6115325646 0.6893136445 -4.8635150425
F -5.5714836293 0.0339260614 -2.4524004656
H 5.1414282951 1.9972647315 -2.2946507310
H 3.5077550615 1.9063184208 -3.0320697552
H 4.3072767259 0.4212673100 -2.4056740265
H 3.3845998893 1.4113628162 3.1617299881
H 4.8640833803 0.6825204021 2.3818017381
H 2.3545401093 -2.6551697980 -2.1120137082
H 0.7546597709 -2.6507369491 -2.9108631928
H 1.2160865056 -4.9686494899 -2.1433337377
H 1.5895433384 -4.3650731580 -0.5016417430
H -0.3142739911 -3.5401387798 0.8247842959
H -1.9173597046 -3.5839263685 0.0240857989
H -1.1793256594 -1.8951753130 -1.6087617169
H -1.9805757960 -0.7007681851 2.5086362577
H -0.7183273720 -0.0872085353 4.5796286577
H -0.0838749602 0.5643124987 -0.9318161035
H -3.4180801376 -0.9995351287 0.3247376249
H -5.0323733597 -0.4953486370 -0.2225235706
H -3.3089318040 3.2600210798 2.5965399282
H -1.2239396939 4.4476911583 3.1092136659
H 0.8956317207 3.8016290839 1.9420520679
H 0.8583033342 1.9803653049 0.3056868135
H -2.0486356952 1.1376820549 -4.9897600510
H -0.5110817215 0.9814375701 -3.0308446662
