47
CONF31
C 0.6415913740 -0.7782194337 -0.7830124289
C 1.6453735375 -1.9375442348 -0.6514159097
C 2.3958772900 -1.9973821895 0.6857188945
C 2.7521498600 -0.5991979184 1.2046493251
O 3.5793661351 -0.7904246053 2.3516598331
C 1.4393550112 0.1381904172 1.4780140832
C 0.9881514197 0.4865265576 0.0481690975
C 2.2857933563 1.1210581322 -0.5029633353
C 3.3824325204 0.2738180842 0.1182464750
C 4.6787155897 0.3010133337 -0.1783473434
C -0.3463478073 1.3274126251 0.0545143281
C -0.1877403124 2.5845692797 -0.7591490311
O 0.0989198459 3.6506184926 0.0166041530
O -0.2592093376 2.6499645191 -1.9700345370
C -1.4357035898 0.4011320438 -0.5319430701
C -2.7038076959 0.1345480670 0.2782513857
C -3.4195088939 1.3282028870 0.8866866570
C -3.6644572060 -0.7011673518 -0.6448914865
O -4.3118363218 0.1405516974 -1.6060046148
C -2.9467115604 -1.7700896310 -1.4320355860
C -1.6219947282 -1.9235131722 -1.4033656806
C -0.8278220427 -1.0049511037 -0.5233575488
O -1.0665167928 -1.4536307334 0.8838665072
C -2.1777392000 -0.8299859236 1.3405970835
O -2.6312458835 -1.0553572811 2.4392412832
H 0.6458284589 -0.4636594742 -1.8373392992
H 1.1416319331 -2.8915182025 -0.8410195510
H 2.3870564380 -1.8194822898 -1.4481809919
H 3.3165442191 -2.5772349418 0.5570606865
H 1.7931235246 -2.4884358369 1.4590963984
H 3.8489206819 0.0843113440 2.6633696079
H 1.6315923110 1.0725773396 2.0224486459
H 0.7306787223 -0.4670080413 2.0438336632
H 2.3268174375 1.1432812639 -1.5962966531
H 2.3845639552 2.1530281849 -0.1407144291
H 5.3840189589 -0.3313707553 0.3539314488
H 5.0718343424 0.9563225142 -0.9508257835
H -0.5635153306 1.6146497533 1.0861198960
H 0.2460509874 4.4188240395 -0.5626779073
H -1.6683769937 0.7047166388 -1.5550029287
H -3.6705450469 2.0543028049 0.1090050420
H -4.3414598488 1.0093315799 1.3837474251
H -2.7894774895 1.8236190194 1.6296219542
H -4.4240957509 -1.1723829966 -0.0021230537
H -5.0414827363 0.5943935333 -1.1643444793
H -3.5780654187 -2.4105231006 -2.0423139106
H -1.1187273031 -2.7038851252 -1.9670943039
