49
CONF35
C -3.2663740957 -2.3647212398 1.2419513706
C -2.5113625792 -1.2172371469 0.6369001009
C -3.1180674725 -0.0614780199 0.3255277178
C -2.4359712100 1.0928806279 -0.3078744110
C -1.5822273268 2.0441570757 0.5616132921
C -2.8635747380 2.5112440527 -0.1373267441
C -4.0093639589 2.8201090781 0.8017673923
C -2.7782195758 3.4480332713 -1.3208679942
C -0.2296298269 2.3305416796 0.0828071808
O 0.1448982362 2.4065218190 -1.0721017928
O 0.6303681876 2.4456830633 1.1439275595
C 2.0404161043 2.4357638185 0.8281615391
N 2.4644167397 1.1237355953 0.4256894058
C 2.3839804472 -0.0111592690 1.2497968336
O 2.0840382679 0.0041187861 2.4277080038
C 2.7416911205 -1.1776155977 0.3991909979
C 3.0120089323 -0.7372721331 -0.8408755709
C 2.8596206132 0.7438919321 -0.8703819691
O 3.0616947317 1.5003537740 -1.7975354093
C 3.4005196823 -1.5993020705 -1.9851661703
C 3.0987502814 -3.0662167470 -1.6417072129
C 3.5617846357 -3.4199441125 -0.2224721836
C 2.8174334699 -2.5937804181 0.8380910048
C -1.0445709338 -1.4569583683 0.4240037692
H -3.1854266125 -3.2566117241 0.6078327451
H -2.8387331043 -2.6351133913 2.2157245091
H -4.3248019197 -2.1280284468 1.3779039718
H -4.1838711236 0.0393869634 0.5263610575
H -1.9480039075 0.8934692013 -1.2616073118
H -1.6641392768 1.9008350526 1.6334062747
H -4.9642386558 2.7082850435 0.2755159578
H -4.0184397744 2.1586681113 1.6719536599
H -3.9363991047 3.8538063252 1.1556188014
H -1.9669068621 3.1767848273 -1.9972103652
H -3.7227178472 3.4124408273 -1.8750819806
H -2.6229501721 4.4791580207 -0.9843643825
H 2.2722759711 3.1349352994 0.0214519423
H 2.5254335376 2.7280273353 1.7605665878
H 4.4707967807 -1.4606182286 -2.1948975891
H 2.8701069196 -1.2829901354 -2.8910459868
H 2.0168609636 -3.2341926647 -1.7198905586
H 3.5823618494 -3.7219350522 -2.3718105238
H 4.6379878697 -3.2229831190 -0.1364406990
H 3.4109482097 -4.4863168617 -0.0303104158
H 1.7979324582 -2.9782786900 0.9861041368
H 3.3105953847 -2.6589134214 1.8150891413
H -0.5627791862 -1.7174223413 1.3754430705
H -0.8888644567 -2.3128463893 -0.2451769364
H -0.5292875723 -0.5908962993 0.0027157635
