27
CONF34
C -3.6223015465 -0.2577555337 -1.1132096269
C -5.0314491610 0.0575594985 -0.6377162110
O -5.1942591204 1.4780548377 -0.5618480134
C -2.5374057863 0.1567113725 -0.1408323958
C -1.1598518506 -0.4987453095 -0.4722139803
C 0.0720166957 0.1134952596 0.2792268409
C 1.3331141106 -0.8215921601 0.2731092347
C 2.6648662205 -0.0659198065 0.6058141701
C 3.8483755309 -1.0047317024 1.0129268071
F 3.9925746401 -1.9902468934 0.1157647951
F 3.6475483445 -1.5372572882 2.2224479158
F 4.9763973843 -0.2819113618 1.0464515146
F 2.4547198803 0.7930224750 1.6304416586
F 3.0545909523 0.6318673312 -0.4826688379
F 1.1516671117 -1.8017774321 1.1879275532
F 1.4639655604 -1.3831195875 -0.9509320121
F 0.4049208196 1.2825300302 -0.3187841619
F -0.2613628318 0.3605318358 1.5660138235
F -1.2362176651 -1.8229340881 -0.1753832895
F -0.9372762702 -0.3710527567 -1.8050377185
F -2.8639739293 -0.1996100575 1.1403146246
F -2.3419709061 1.5149246723 -0.1411431823
H -3.5454284505 -1.3399670522 -1.2638982865
H -3.4225539359 0.2278082195 -2.0726784529
H -5.7290205975 -0.3778116534 -1.3659028593
H -5.2186112752 -0.4108837793 0.3372553241
H -6.0948100935 1.6507162536 -0.2611028604
