36
CONF4
C -2.8955913322 -1.5729448536 2.0288234704
C -2.6574564131 -1.4458930298 0.5360689836
C -3.8963454791 -1.0520589708 -0.2389582772
O -1.6801195365 -0.3658715277 0.2903013600
C -0.3777342478 -0.6611089477 0.4348208920
O 0.0503528935 -1.7719516253 0.6845841688
C 0.4850830285 0.5393285811 0.2562127862
C 1.6377572073 0.4291317558 -0.6398314043
O 2.5652974829 1.2289438976 -0.6713270738
O 1.5372350243 -0.6311859633 -1.4628158916
C 2.6642587927 -0.8958267112 -2.3688285824
C 3.7444729571 -1.6418149917 -1.6068548996
C 2.0822495782 -1.6945560324 -3.5165173064
C 0.2604675878 1.6933225057 0.9659699091
S 1.3504385423 3.0755528946 0.9345083764
C 0.2572031247 4.1947517137 1.9079429430
C -0.4793953498 3.3514359873 2.9202366059
S -1.1403236857 1.8950039139 2.0165864604
H -3.3209096178 -0.6464527502 2.4264186663
H -1.9674252086 -1.7981524941 2.5600454549
H -3.6039300839 -2.3868296067 2.2111629713
H -2.2236700781 -2.3667136471 0.1351068067
H -3.6751057925 -0.9495705445 -1.3046736498
H -4.6590009250 -1.8262495367 -0.1152623151
H -4.2996549354 -0.1055965686 0.1349032179
H 3.0387151789 0.0701972347 -2.7204591785
H 4.1084841581 -1.0533581297 -0.7607427487
H 4.5870298055 -1.8438158646 -2.2750889463
H 3.3562890315 -2.5967281839 -1.2383130202
H 2.8723200720 -1.9170435197 -4.2393790873
H 1.2948176490 -1.1316160081 -4.0249041440
H 1.6671543335 -2.6405847451 -3.1547234735
H -0.4287407752 4.7007036570 1.2225686472
H 0.9051389618 4.9318413801 2.3914210373
H 0.1770526661 3.0038903153 3.7227761423
H -1.3364152129 3.8818203204 3.3451444912
