44
CONF32
C 4.6153101477 -0.2109097509 -2.1944278671
C 3.2622181908 0.4671545915 -2.0069523223
C 3.1486257804 1.3103264507 -0.6825130152
N 1.7480571584 1.3228680003 -0.3371456585
C 0.9585090846 0.1182362028 -0.6114840355
S 1.9443649880 -0.8591714905 -1.8237569940
C -0.2057318161 1.0508337801 -1.0986157552
C 0.7559424981 2.2104577992 -0.7352170776
O 0.7367412643 3.4156636658 -0.8159168992
N -1.5013357544 0.9830040982 -0.4995502845
C -1.6948811602 1.2335280589 0.8207289812
O -0.7856086496 1.6114075571 1.5568426041
C -3.1068484409 0.9489018580 1.3381593776
C -3.2005632002 -0.5446543246 1.6277237728
C -4.0571703788 -1.3596993389 0.8880937503
C -4.1537204301 -2.7247733285 1.1456256700
C -3.3778362887 -3.2897994476 2.1574695652
C -2.5093103057 -2.4887974438 2.9038415999
C -2.4265797291 -1.1299745042 2.6360710809
O -3.4262162821 -4.6195863133 2.4665899205
N -3.3678508751 1.8328921709 2.4758747053
C 3.9644026636 0.7186420787 0.4569675443
O 5.2018252333 1.2430539126 0.4891460933
O 3.5621650698 -0.1255426838 1.2249456844
C 2.9460334522 1.3704032396 -3.1992012894
H 5.3994603154 0.5496526084 -2.2646250977
H 4.6162997960 -0.7837611308 -3.1259067583
H 4.8522319598 -0.8915790203 -1.3724063458
H 3.4895916741 2.3318585430 -0.8784077505
H 0.7280495447 -0.4941379383 0.2635333070
H -2.2783705308 0.6668819409 -1.0607556524
H -4.6661353575 -0.9238976349 0.1002283540
H -4.8322882254 -3.3474782430 0.5684325455
H -1.9087180535 -2.9419053542 3.6860947763
H -1.7474822765 -0.5160689128 3.2212771849
H -4.0643585815 -5.0607597244 1.8900339412
H -4.1575513799 1.4675418156 2.9983977853
H -2.5663199976 1.8032805903 3.1005855271
H 3.7400682199 2.1172523687 -3.3150715230
H 2.8900219093 0.7750656142 -4.1140884627
H 1.9947308019 1.8949782003 -3.0756730332
H 5.7025017249 0.8069023728 1.2008843060
H -3.8221969378 1.1774439972 0.5377456767
H -0.3076033241 1.0010242693 -2.1862670430
