63
CONF252
C 3.3623258603 0.6038303022 0.9589188463
C 2.1064736976 -0.1002769805 1.4630341016
N 1.0107473012 -0.0002551254 0.4887618444
C 1.4101021206 -0.6438519080 -0.7709222104
C 2.6362709828 0.0357253003 -1.3740179728
C 3.7902602341 -0.0084059300 -0.3738460982
N 5.0132689660 0.6043389054 -0.8998506508
C 6.2342471245 -0.0420958885 -1.0618172038
C 6.6307023986 -1.3488666900 -0.8155216699
C 7.9601449190 -1.6833589960 -1.0916724614
C 8.8589638153 -0.7408365488 -1.5956931368
C 8.4617440043 0.5762037558 -1.8436661991
C 7.1446490401 0.9062658659 -1.5694546084
N 6.4463388717 2.0924584802 -1.6949566209
C 5.1309784127 1.9376446657 -1.2844669179
O 4.2587997993 2.8039740893 -1.2666448207
C -0.1999893136 -0.6216272416 1.0432372517
C -1.4664820307 -0.3327602208 0.2417909064
C -2.7053658787 -0.8416709902 0.9777544407
C -4.0002284056 -0.6233111829 0.1785195785
C -5.2187504458 -1.2983094970 0.7875052087
C -6.3064489512 -1.5973217340 -0.0413982925
C -7.4662395834 -2.1770612772 0.4610954752
C -7.5212116489 -2.4536340010 1.8173742321
C -6.4726130055 -2.1802621693 2.6754456516
C -5.3193972642 -1.5994794811 2.1477148289
F -8.6508351208 -3.0198842479 2.3225587210
C -4.2719265750 0.8565532880 -0.0413599176
C -4.1765230640 1.4198173340 -1.3149283535
C -4.4055527675 2.7792489599 -1.5241808723
C -4.7310626301 3.5602896367 -0.4307438227
C -4.8383795108 3.0449215859 0.8510515042
C -4.6080707524 1.6853704958 1.0338259019
F -4.9588988833 4.8885684866 -0.6198776155
H 4.1662274993 0.4957162631 1.6956173497
H 3.1610318625 1.6716433471 0.8249536351
H 1.7802856186 0.3595437527 2.4027265974
H 2.3453448541 -1.1622001848 1.6824550551
H 1.6265367940 -1.7207783757 -0.6073683035
H 0.5827570955 -0.5838562591 -1.4838703270
H 2.4005858482 1.0761058454 -1.6181930674
H 2.9223938331 -0.4779591236 -2.2986340078
H 4.0414453160 -1.0608678029 -0.1966517354
H 5.9439235427 -2.0903699779 -0.4233160914
H 8.2960164672 -2.6986509627 -0.9077976687
H 9.8841221174 -1.0323452172 -1.7990869082
H 9.1545436997 1.3138737678 -2.2343872211
H 6.8110137786 2.9697229696 -2.0307223096
H -0.3363041422 -0.2228775217 2.0570777448
H -0.0707767396 -1.7185251760 1.1482442047
H -1.5461812695 0.7489023840 0.0766708792
H -1.4235267892 -0.8065485491 -0.7463620452
H -2.5978720225 -1.9153507998 1.1810172346
H -2.7764923532 -0.3379416864 1.9501162183
H -3.8517905567 -1.0697993968 -0.8129708605
H -6.2453861099 -1.3698598718 -1.1025041620
H -8.3088241961 -2.4136172017 -0.1798104925
H -6.5546935982 -2.4169039698 3.7309073010
H -4.4950586423 -1.3865443996 2.8194324681
H -3.9158469155 0.7902242472 -2.1610326298
H -4.3331463322 3.2226056817 -2.5114959048
H -5.1004386686 3.6941583428 1.6796255921
H -4.6979283048 1.2655963275 2.0317912801
