43
CONF1
C -3.3311696648 3.8881267031 0.6604401420
N -3.2240591891 2.7030480117 -0.1944664096
C -2.6958135449 1.4832720210 0.0614021120
C -2.8458867845 0.6996676475 -1.0901220068
C -3.4867564829 1.5813185805 -1.9825364399
N -3.7029966724 2.7779920676 -1.4466404160
Cl -3.9415713046 1.3124890423 -3.6204480787
C -2.3486024388 -0.6674290704 -1.2988230470
O -1.4077562621 -1.1474473224 -0.6951183901
O -3.0489685608 -1.3099408547 -2.2408040251
C -2.5889155697 -2.6512683995 -2.5506140624
S -2.0703605818 0.9748617190 1.6590852494
O -2.2931564510 2.0698037322 2.5998107732
O -2.5809330883 -0.3640413340 1.9512775960
N -0.4138349657 0.7668816075 1.4270884191
C 0.3465635791 1.7637312159 0.8399015932
O -0.0624337566 2.9013170092 0.6514238663
N 1.6324765568 1.3965563194 0.4795871582
C 2.2761295503 0.1613696018 0.5066008265
N 3.5297549217 0.1878586290 0.0522820035
C 4.1653357684 -0.9887579767 0.0610131119
C 3.5800764203 -2.1726317143 0.5054273946
C 2.2694934599 -2.0616285764 0.9520888302
N 1.6057529439 -0.8972797177 0.9611354870
O 1.6601975547 -3.1670731859 1.3894043584
C 0.2937001890 -3.0457540904 1.8553334800
O 5.4284341901 -1.0568513401 -0.3750193110
C 6.0471035367 0.1664617872 -0.8392284420
H -4.0168914338 3.6938212006 1.4865816385
H -2.3456540915 4.1450869265 1.0492400643
H -3.7160068935 4.6879050371 0.0294390216
H -3.2512695725 -3.0035163016 -3.3396215851
H -1.5533852225 -2.6206254992 -2.8966421873
H -2.6680647547 -3.2858878464 -1.6650797705
H -0.0603704437 -0.2005716097 1.3341367980
H 2.1758666061 2.1541966668 0.0865255177
H 4.1106313796 -3.1150603839 0.5044706175
H 0.0126313297 -4.0535356587 2.1585905851
H 0.2395642056 -2.3645890965 2.7091885353
H -0.3558081801 -2.6939039580 1.0496491920
H 7.0536773132 -0.1259679420 -1.1361477446
H 5.4988730827 0.5725572548 -1.6926266814
H 6.0844042327 0.9054394521 -0.0353811841
