57
CONF69
C -4.9424121963 -0.8923575469 -2.4781815871
C -3.7375503356 -1.3033188986 -1.6436064791
C -2.8141666872 -0.1285880842 -1.3380958138
O -3.0270049375 0.9837244529 -1.8277729604
N -1.7592602460 -0.3797160288 -0.4975408144
C -1.5661005044 -1.7114167631 0.0058564166
C -0.8665293430 -2.6441089959 -0.7592543380
C -0.6770825569 -3.9361979138 -0.2777001982
C -1.1828940795 -4.2978268361 0.9693834409
C -1.8796514318 -3.3633423058 1.7331962743
C -2.0720634135 -2.0705828235 1.2540917268
C -0.8121658743 0.7178340609 -0.0770240921
C 0.2751394635 0.1343168680 0.8426653347
C 1.3951606208 1.1306031638 1.1260558152
N 2.0367019053 1.5611067193 -0.1181913907
C 1.0534448876 2.2295508798 -0.9734450383
C -0.1062633026 1.2987668116 -1.3191558931
C 3.1816311963 2.4361404019 0.1273576438
C 4.3611301593 1.7196101323 0.8028013969
C 4.7761651568 0.4664515147 0.1024008584
C 4.7334679922 -0.8231912249 0.5615610464
C 5.1711076628 -1.7875600921 -0.3904572198
C 5.5463300528 -1.2298488534 -1.5798148788
S 5.3663316491 0.4974861274 -1.5428756070
C -1.6015841223 1.8071434862 0.6592234025
O -2.2254906622 1.2435124596 1.8104185131
C -2.9773028367 2.2199661986 2.5227246743
H -5.5386392327 -0.1348202945 -1.9623849644
H -5.5777038506 -1.7627308916 -2.6655857271
H -4.6341870845 -0.4763860781 -3.4406319998
H -4.0558167242 -1.7598991696 -0.6994282599
H -3.1579597174 -2.0780239940 -2.1596339346
H -0.4751056728 -2.3494969717 -1.7285091300
H -0.1316322340 -4.6594356517 -0.8759044773
H -1.0342913158 -5.3053326985 1.3449983897
H -2.2755427020 -3.6410943361 2.7051691786
H -2.6084453893 -1.3292549617 1.8372736776
H 0.7224320521 -0.7407382443 0.3603426561
H -0.1608047474 -0.1949069869 1.7893489534
H 2.1340905044 0.6260838202 1.7566089658
H 1.0187532927 1.9980185478 1.7050123198
H 1.5496832116 2.5290260372 -1.9044958821
H 0.6744836875 3.1587653702 -0.5017569933
H -0.8244217698 1.8318544055 -1.9448658902
H 0.2822306766 0.4527567949 -1.8991077234
H 3.5173789720 2.8207782602 -0.8441843217
H 2.9038305298 3.3146019999 0.7436901308
H 5.1933086696 2.4327253013 0.8486299422
H 4.1195450883 1.4601298102 1.8383971856
H 4.3903161277 -1.0706922535 1.5603205372
H 5.2058374969 -2.8540044301 -0.1991922467
H 5.9191497997 -1.7184609523 -2.4700341955
H -0.9157600004 2.6104054951 0.9655026794
H -2.3565248525 2.2402977547 -0.0077815528
H -2.3312142862 3.0339694236 2.8847595163
H -3.7676014885 2.6518454304 1.8907888950
H -3.4344780566 1.7167405457 3.3780334668
