82
CONF100
C -2.4225168514 2.8565686181 -1.9254553355
C -1.7118520809 2.6047249826 -0.6241154569
C -0.5675276717 3.2368007650 -0.3318674795
C -2.3646385960 1.6828471909 0.3785311919
C -3.5948985371 2.3355370332 1.0437588858
C -4.2186714690 1.1726372639 1.8109151434
C -4.0388042419 -0.0737547895 0.9048271088
C -2.9548332421 0.3438166870 -0.1448420029
C -2.0354079389 -0.8320961040 -0.5469804421
C -1.0789879598 -0.4550554946 -1.6812657698
C -0.0288709929 -1.5379836485 -1.8768735096
C 0.9404181066 -1.6408931542 -0.6775281650
C 2.2805240683 -0.8155038328 -0.9732786215
C 2.0757137701 0.5124990044 -1.7442277438
C 3.3949698551 1.2475235845 -2.0185356894
C 4.1679558021 1.5970674882 -0.7486915658
C 4.3509580634 0.3666140053 0.1812288087
C 3.0231670537 -0.4576310328 0.3466380758
C 2.0716239021 0.2564686652 1.3479745367
C 0.5701737009 0.0234393235 1.1577915588
C 0.2307940143 -1.3976597882 0.7094328127
C -1.3360446232 -1.6443161633 0.6135339643
C -2.0733962361 -1.3095353291 1.9345637359
C -3.5886452425 -1.2921376034 1.7331546773
C -1.5770180392 -3.1606433021 0.3640761138
C 0.8174750691 -2.3725215692 1.7540672724
C 5.4981108581 -0.4864465676 -0.4058290787
C 4.8634865381 0.8229578103 1.5597569679
O 3.5686487475 2.7414177170 -0.0971968288
C 3.0850352265 -1.7944067573 -1.8604920208
C -5.3511972511 -0.4565774679 0.2115795460
O -5.9644074922 0.6025718593 -0.5383834303
H -3.4690074925 3.1375573782 -1.7607806887
H -2.4367339316 1.9577056645 -2.5514681770
H -1.9340149165 3.6565084108 -2.4873878993
H -0.0513003808 3.0663197355 0.6102029861
H -0.1185529280 3.9444174821 -1.0242641973
H -1.6433110506 1.4856115491 1.1771921757
H -3.3135939872 3.1783951124 1.6834136597
H -4.2814777343 2.7061756252 0.2741122152
H -3.6654382605 1.0227359134 2.7460229723
H -5.2670802777 1.3404544736 2.0873615414
H -3.4982469719 0.6068353610 -1.0629338999
H -2.7377393938 -1.5514423826 -0.9925533377
H -1.6577374739 -0.3153876970 -2.6032682816
H -0.5942393625 0.5021675499 -1.4761916219
H 0.5307258492 -1.3629636653 -2.7997950342
H -0.5424102226 -2.4930998442 -2.0321749535
H 1.2843380446 -2.6819584330 -0.6411427391
H 1.4066210761 1.1770998066 -1.1833719865
H 1.5835099893 0.3348959319 -2.7052441761
H 4.0338764145 0.6516331408 -2.6767511495
H 3.1907617182 2.1785610452 -2.5615251591
H 5.1733884050 1.9469203030 -1.0206944342
H 3.3330784888 -1.4101910549 0.7975750863
H 2.3583985019 -0.0484657122 2.3600798520
H 2.2356739990 1.3355148337 1.3213001230
H 0.1788771654 0.7326856693 0.4277685551
H 0.0812911080 0.2589711497 2.1090484081
H -1.8121957486 -2.0463984873 2.7010709352
H -1.7692227826 -0.3337832769 2.3254149882
H -3.9049602660 -2.2201076729 1.2403396421
H -4.1032247899 -1.2703033665 2.7017818558
H -2.5956352196 -3.3433091382 0.0114333615
H -1.4417575673 -3.7350833478 1.2850820809
H -0.8982015464 -3.5777200280 -0.3828360493
H 0.3518118880 -2.2259828462 2.7344532942
H 1.8899105404 -2.2198278048 1.8801657521
H 0.6781495782 -3.4150863062 1.4595886887
H 6.4531162177 0.0222485985 -0.2350263259
H 5.4144639028 -0.6616828586 -1.4774375609
H 5.5419841751 -1.4601241980 0.0931072118
H 5.8086025386 1.3642764548 1.4389972452
H 5.0539282783 -0.0519350288 2.1929695549
H 4.1703073828 1.4824876335 2.0804880395
H 2.6105932270 2.6762209531 -0.1928448503
H 3.8931500760 -1.3306818279 -2.4229478396
H 2.4194487545 -2.2589686895 -2.5955570361
H 3.5149743804 -2.5944962480 -1.2483114854
H -5.1579401908 -1.2572337488 -0.5130154243
H -6.0565424404 -0.8450373375 0.9634654077
H -6.2717548835 1.2685421169 0.0888222297
