41
CONF89
C 1.0931433880 -4.1158350210 -2.0106098970
C 2.0964439221 -3.0400456652 -2.3326753427
O 1.8389505845 -1.9342176541 -1.3910324094
C 2.5747417351 -0.8580953162 -1.5169168740
N 3.5235917402 -0.6983020984 -2.4029415266
C 4.1812976179 0.4665106400 -2.4174169804
C 3.9738743615 1.5457866951 -1.6011531056
C 2.9523110717 1.3720451990 -0.6582622251
N 2.4311328948 2.1641968636 0.2843357504
C 1.4816447013 1.3722676001 0.8247553212
N 1.3251427456 0.1479119044 0.3340836122
N 2.2815942605 0.1495138156 -0.6338202309
S 0.2969131831 1.9738454162 2.0392546078
O 0.7986866022 3.2324412505 2.5843360409
O -0.0780816814 0.8413923527 2.8857766566
N -1.0663706821 2.3753012909 1.1007325232
C -1.7296565869 1.3265733167 0.4166530135
C -2.5445875895 0.4091765825 1.1056212318
C -3.1261204440 -0.6562625522 0.4165861612
C -2.9598896324 -0.7952137634 -0.9537777142
C -2.1842201911 0.1188987349 -1.6565765338
C -1.5640908849 1.1501099718 -0.9666209169
Cl -0.5316374294 2.2479174430 -1.8648299438
C -2.8502699619 0.4831678215 2.5692325644
O -2.9831117655 -0.5070956740 3.2601810605
O -3.0406391970 1.7336196954 3.0020527058
C -3.3167582445 1.8631527999 4.4198559761
F 5.1342012453 0.5396144488 -3.3554328377
H 0.0714842259 -3.7508021560 -2.1453754805
H 1.2156012148 -4.4726444542 -0.9848047113
H 1.2532739649 -4.9565621421 -2.6914994860
H 3.1289020743 -3.3674892834 -2.1842571636
H 1.9811844821 -2.6472923317 -3.3462243862
H 4.5395106196 2.4639728520 -1.6760655170
H -0.8469856708 3.1812555339 0.5170108561
H -3.7331745048 -1.3614420518 0.9725100997
H -3.4351285346 -1.6142379500 -1.4821392594
H -2.0383958534 0.0221142672 -2.7262462975
H -2.4866210863 1.4499506345 4.9976637306
H -3.4150098452 2.9334230576 4.5950652210
H -4.2428772254 1.3420180314 4.6729711879
