56
CONF1
C -3.1380902768 1.6867493484 -0.3914862145
C -2.6412723854 0.2537577459 -0.0796421617
C -3.3897074894 -0.7372485733 -0.9946230487
C -4.8589969604 -0.9090009472 -0.6205359393
C -4.9935350050 -1.3524445789 0.8228892466
O -5.9230751695 -2.0447995751 1.2091840273
C -3.9817274222 -0.8320020698 1.7498035192
C -2.9506301901 -0.0420919721 1.3783452139
C -2.1140312885 0.6639994938 2.4051096739
C -0.6101344321 0.5857272624 2.1296875334
C -0.2864029161 1.0049919941 0.6917175398
C -1.0949686635 0.1995018712 -0.3458242615
C -0.5265939175 -1.2178078968 -0.5331126447
C 0.9663183226 -1.1792737853 -0.8676429814
C 1.8574298704 -0.3849551876 0.1075448695
C 1.2234725946 0.9942063786 0.3965246053
C 1.5984888861 1.8900254597 -0.8165746203
C 2.7621904262 1.2017892934 -1.5529693394
C 3.1824741037 0.0169358755 -0.6565760959
C 4.2405740329 0.4904256282 0.3349305676
O 4.1192465180 1.5420828510 0.9413243286
C 5.4751820836 -0.3534347313 0.5547577609
O 6.3053597308 0.1973772782 1.5448888628
O 3.7830316923 -1.0647915387 -1.3620924541
C 2.1897958974 -1.2311151944 1.3391636685
O -0.7212550456 -2.0758131163 0.5974029869
H -2.9762997894 1.9126654677 -1.4507868531
H -2.6137538429 2.4403222309 0.1980099817
H -4.2046470004 1.7881944475 -0.1748550543
H -2.9324559124 -1.7301389713 -0.9252307538
H -3.2840616837 -0.4174288703 -2.0386339003
H -5.3557962685 -1.6451743002 -1.2580989512
H -5.4162550904 0.0308357690 -0.7272257750
H -4.1639988053 -1.0394434061 2.8019815724
H -2.4184904991 1.7221383281 2.3973534934
H -2.3527565441 0.2819199326 3.4023519818
H -0.0791901477 1.2464145764 2.8250823791
H -0.2653368823 -0.4311855325 2.3199304219
H -0.5886305086 2.0586064857 0.5976248743
H -0.9561297868 0.6808966518 -1.3262772809
H -1.0084173731 -1.6718097966 -1.4128312488
H 1.3204985003 -2.2145423182 -0.9421195688
H 1.0232122659 -0.7381589994 -1.8723815425
H 1.7266607535 1.4076242651 1.2766239272
H 1.8819413716 2.8848529557 -0.4651447866
H 0.7435573168 2.0194628765 -1.4888703695
H 3.6036279143 1.8721620045 -1.7442995713
H 2.4464431091 0.8040024390 -2.5237057810
H 5.9992552851 -0.4375472146 -0.4108957398
H 5.1629718011 -1.3750596872 0.8186051719
H 5.8828724313 1.0330963051 1.8049588784
H 3.1651654429 -1.3668192206 -2.0365228559
H 2.8552037980 -2.0519867068 1.0480045751
H 2.6895126691 -0.6332697897 2.1091137592
H 1.2970127142 -1.6813744299 1.7702654301
H -1.6548570548 -2.0520464990 0.8476784642
