63
CONF22
C 1.7521047878 -1.7935969701 2.1577003689
C 0.5214654867 -2.6565137154 1.8926894859
N -0.1095897194 -2.2768407838 0.6243376775
C 0.8226114357 -2.5250615395 -0.4815589806
C 2.0730110617 -1.6632230951 -0.3435707146
C 2.7448827845 -1.9327181557 1.0028543335
N 3.9331797072 -1.1020742975 1.1963352440
C 4.0126062121 0.2876687584 1.2475413143
C 3.0555112322 1.2917881812 1.1555348453
C 3.4919904002 2.6168407359 1.2484066139
C 4.8401196317 2.9309115457 1.4299173575
C 5.8058698367 1.9259591521 1.5262433041
C 5.3725397826 0.6138772819 1.4327846255
N 6.0653765379 -0.5813596114 1.4883004753
C 5.2046047934 -1.6536532183 1.3442793671
O 5.4983918114 -2.8477668822 1.3464627754
C -1.3809722647 -2.9854978743 0.4164284906
C -2.2899694615 -2.2500659639 -0.5684471997
C -2.8148728436 -0.9316842732 0.0053981747
C -3.3188953124 0.0471418116 -1.0672996986
C -4.0188830751 1.2280776446 -0.4145812297
C -3.2891462504 2.1956204849 0.2837272005
C -3.9243221087 3.2572643890 0.9202230687
C -5.3051820434 3.3355123955 0.8415977264
C -6.0678704128 2.4048081496 0.1600627175
C -5.4089675892 1.3480568613 -0.4668581665
F -5.9354200297 4.3728713911 1.4579014137
C -2.2356753984 0.5304281405 -2.0204038459
C -0.8838896174 0.5762966682 -1.6694590644
C 0.0751553071 1.0744800274 -2.5502246954
C -0.3429853955 1.5242419381 -3.7890696550
C -1.6699569663 1.4930440066 -4.1843223714
C -2.6082012359 0.9916209192 -3.2878314932
F 0.5851098640 2.0107556271 -4.6576463712
H 2.2300629838 -2.1035873352 3.0935856758
H 1.4394536639 -0.7497065366 2.2693024470
H -0.2040933277 -2.5172267535 2.7016034311
H 0.8144632524 -3.7271026556 1.8910398738
H 1.1118662338 -3.5961115206 -0.5147691452
H 0.3294590467 -2.2922074423 -1.4305115785
H 1.7928702040 -0.6083152785 -0.4274913989
H 2.7714101017 -1.8885843566 -1.1571793077
H 3.1200501616 -2.9634139273 0.9976646813
H 2.0038865329 1.0732270724 1.0177293049
H 2.7602493120 3.4149730101 1.1780217345
H 5.1458378046 3.9697099514 1.4983262714
H 6.8558312245 2.1586783638 1.6688061791
H 7.0593946462 -0.6912963938 1.6123169504
H -1.8927084866 -3.0519259098 1.3852327291
H -1.2066793789 -4.0235027535 0.0742268514
H -1.7500953816 -2.0657637852 -1.5044633931
H -3.1344571845 -2.9004119150 -0.8270246407
H -3.6421359612 -1.1378761418 0.6953804568
H -2.0329030738 -0.4475697914 0.6017257787
H -4.0702411344 -0.4755240315 -1.6734212984
H -2.2060211447 2.1259738553 0.3285669220
H -3.3651028063 4.0119987435 1.4628928931
H -7.1471812633 2.5057488220 0.1201337732
H -5.9912923789 0.6058324243 -1.0056730258
H -0.5572774913 0.2040575735 -0.7032435786
H 1.1261822910 1.1082459042 -2.2820581086
H -1.9558135057 1.8488905377 -5.1684000491
H -3.6547424546 0.9606180451 -3.5797726391
