36
CONF124
C 3.9386360078 2.4677654061 -1.3077513278
C 2.5020652066 2.2469383049 -0.8154949660
C 2.0752817698 0.8167499018 -0.9406203354
C 1.0524625435 0.3808123119 -1.6777566033
C 0.6381311027 -1.0542736337 -1.8018800950
C -0.7899130263 -1.3041028521 -1.3018708122
C -1.1200365689 -0.8617360662 0.1305802378
C -2.6582779737 -0.8081882623 0.1415553633
C -3.0041513942 -0.2028181704 -1.2226847815
C -1.8786301752 -0.6437741996 -2.1385590962
O -1.8424517254 -0.4896391881 -3.3451402015
C -0.5068289597 -1.7739320955 1.1981561060
C -0.8976906658 -1.3303523261 2.5824117488
O -1.6820250190 -1.9064641370 3.3119215137
O -0.2887838655 -0.1760224599 2.9146833363
C -0.6380528835 0.3725279379 4.2102710505
H 4.0258424585 2.2204465764 -2.3706916096
H 4.6406307934 1.8339385844 -0.7554355938
H 4.2436329496 3.5099682193 -1.1712524398
H 1.8096962231 2.8881395780 -1.3734742870
H 2.4414834926 2.5503797319 0.2389678538
H 2.6736437196 0.0874891008 -0.3887563520
H 0.4516531500 1.1082639391 -2.2283870591
H 1.3348030098 -1.6933162893 -1.2481429343
H 0.6791648421 -1.3663563009 -2.8538210048
H -1.0066381047 -2.3843192377 -1.3808016128
H -0.7307342654 0.1554982170 0.2715243748
H -3.0532695972 -0.2265998771 0.9792257609
H -3.0584753221 -1.8270143911 0.2173707622
H -2.9608422826 0.8952611966 -1.1859823042
H -3.9816931056 -0.4763124495 -1.6289844500
H -0.8567414756 -2.8007941006 1.0592837818
H 0.5855718894 -1.7549736484 1.1140101878
H -0.3652038682 -0.3290421383 5.0021126027
H -1.7094165090 0.5826297774 4.2536860057
H -0.0628420851 1.2932224528 4.2986507794
