65
CONF469
C -1.7558560329 4.5046983993 -1.9470975274
C -1.5664823473 3.1684468213 -1.2333455829
C -2.9034166386 2.4959616851 -0.8416653117
C -3.7716006525 2.1585343922 -2.0542247539
C -2.5665173972 1.2916726102 0.0094024084
O -2.4391439241 1.3254483026 1.2206895742
O -2.3568242181 0.1895759469 -0.7338597661
C -1.9209157838 -1.0213791572 -0.0399093362
C -3.1322083962 -1.8233093168 0.4032251563
C -2.6879616972 -3.0728317579 1.1799050315
C -1.5329880392 -3.7447664111 0.4983221193
C -0.7943608015 -3.1952009133 -0.4845715228
C -1.0696774470 -1.8045108258 -1.0255803452
C 0.2539186536 -1.1024009159 -1.3952039900
C 0.9446090178 -1.9343738544 -2.4949750668
C 1.1038405626 -3.3588558248 -2.0365910943
C 0.3119883384 -3.9111248081 -1.1014120413
C 2.2667763313 -1.3317827888 -2.9779048679
C 1.1440783860 -0.8689963891 -0.1516114025
C 1.2712202475 0.6165542613 0.1896877022
C 1.9634255174 0.8656882546 1.5168154205
C 3.4107750356 0.4195561523 1.5663212062
C 4.0486934198 0.8927261405 2.8609820539
C 4.0116768697 2.4157700743 2.8928128846
C 2.6972447619 3.0365464486 2.4806978490
O 2.4197334459 4.1943073125 2.7308108985
O 1.8216841156 2.3166081482 1.7583509386
O 5.3800496155 0.4024281450 3.0395682238
C -2.3469807362 -2.7566789041 2.6475890635
H -2.3618048870 5.1874725698 -1.3413966593
H -0.7865693493 4.9801179492 -2.1250387601
H -2.2483928077 4.3814470077 -2.9157857502
H -1.0004154342 2.4765747007 -1.8707161994
H -0.9739344399 3.3231337032 -0.3233419570
H -3.4439258759 3.1813378722 -0.1783617433
H -3.2049105707 1.5887199245 -2.7963140145
H -4.6449279271 1.5689245930 -1.7600653270
H -4.1300506597 3.0769679472 -2.5257766939
H -1.3306317759 -0.7141445039 0.8286413189
H -3.7858596604 -1.2033593640 1.0257436552
H -3.6956250134 -2.1194084954 -0.4901178296
H -3.5296639492 -3.7796831498 1.1920790690
H -1.2769991747 -4.7461979617 0.8448308336
H -1.6541496739 -1.9132425732 -1.9529821987
H 0.0026744061 -0.1274381940 -1.8319892492
H 0.2628606824 -1.9333654130 -3.3614778284
H 1.9009932368 -3.9491399851 -2.4854833475
H 0.4781587449 -4.9380774277 -0.7810165877
H 3.0338275628 -1.3481817714 -2.1972883758
H 2.6515559168 -1.9004012006 -3.8306829292
H 2.1231339488 -0.2938009972 -3.2958331140
H 0.7310383342 -1.4057593185 0.7131658353
H 2.1374260201 -1.2964457617 -0.3129300921
H 1.8195187064 1.1393368492 -0.6050830922
H 0.2741260277 1.0692783118 0.2426888691
H 1.3995894687 0.3817943614 2.3259561152
H 3.9610992182 0.8229324425 0.7042954753
H 3.4402882217 -0.6730390174 1.5133778191
H 3.4832749997 0.4900802990 3.7101624907
H 4.7509001781 2.8018780822 2.1752269323
H 4.2782871187 2.8156007623 3.8744670665
H 5.9173217695 0.7248662369 2.3029552197
H -1.5405053994 -2.0186502255 2.7127322129
H -2.0175364976 -3.6597478411 3.1712805364
H -3.2249525614 -2.3586926447 3.1668501928
