29
CONF23
C 3.4826200418 -1.1670075688 0.5933570531
N 3.1731123053 0.2286611034 0.3047530190
C 2.0128788862 0.6447620030 -0.2652518127
O 1.6034723405 1.7840321648 -0.2929985021
O 1.3760799912 -0.4230812771 -0.8745796815
C 0.0879160612 -0.1605616609 -1.3365019637
C -0.0836061060 0.3269638862 -2.6218994035
C -1.3715469014 0.5247115053 -3.1077888145
C -2.4687239546 0.2308060499 -2.3047064522
C -2.2781232221 -0.2569131113 -1.0154292155
C -0.9945561352 -0.4503351194 -0.5067615723
C -0.7714708506 -0.9947295606 0.8989997073
O 0.1482128959 -0.2087561039 1.6410797507
C -0.6341606668 0.9088267482 2.0847219023
C -2.0357585869 0.2986228498 2.2973742773
O -1.9685050025 -0.9902848540 1.6551369562
H 3.5081220652 -1.7518796486 -0.3291071869
H 4.4724795649 -1.2111139655 1.0534268509
H 2.7511303199 -1.6164457381 1.2762269415
H 3.6069998978 0.9389284463 0.8702678833
H 0.7912967237 0.5525150816 -3.2214764640
H -1.5147536627 0.9091029928 -4.1122992295
H -3.4751827691 0.3784144011 -2.6822203618
H -3.1261174049 -0.5015844097 -0.3852339760
H -0.3823065989 -2.0192210131 0.8691410644
H -0.6365358198 1.6938630052 1.3183080430
H -0.1807374415 1.2894538881 3.0021371845
H -2.8198149959 0.9139304957 1.8393361139
H -2.2724217788 0.1283201082 3.3519875924
