58
CONF1
C 3.7416871517 -2.1703592472 -1.4111495849
C 3.7446620980 -1.9384173740 0.1023518367
C 4.6418608077 -2.9703730017 0.7892508513
C 4.1888929815 -0.5102862446 0.4548291908
C 3.1366119713 0.5605103099 0.1683245693
C 3.6569084397 1.9846325266 0.3734688263
C 2.6049130090 3.0670516308 0.1048662929
C 1.5235522453 3.1477872381 1.1853968342
C 0.4346262244 4.1877195818 0.9058151651
C -0.4235535248 3.9022221607 -0.3084720564
O -1.1788963498 2.6504031203 -0.1039570091
P -0.9401781158 1.3537349710 -0.9782454026
O -0.1999557500 1.5305420456 -2.2475272231
O -2.4057702454 0.7405076413 -1.2523711788
C -3.1391760954 0.0078414934 -0.3071267285
C -3.6319864117 -1.2215473523 -0.7245747329
C -4.3762579664 -1.9849694835 0.1696647844
C -4.6161755749 -1.5198115855 1.4615960062
C -4.1198185600 -0.2791687023 1.8544660633
C -3.3793279180 0.5011416463 0.9684639563
O -0.2953597615 0.3701042535 0.1268215289
C -0.1842733046 -1.0143700063 -0.0271812481
C 0.0425928873 -1.6135783191 -1.2596096516
C 0.1528076935 -3.0018142487 -1.3136779989
C 0.0509910585 -3.7685568827 -0.1565234422
C -0.1642056904 -3.1425260019 1.0707781723
C -0.2852688333 -1.7590341273 1.1421698008
H 3.3794540200 -3.1759667181 -1.6507674601
H 3.0996945392 -1.4558278227 -1.9351054603
H 4.7592561629 -2.0714311636 -1.8096791664
H 2.7167568649 -2.0751176331 0.4715750382
H 4.6113147838 -2.8606598638 1.8786438450
H 5.6831697228 -2.8459331169 0.4662901045
H 4.3331775609 -3.9916541928 0.5399560249
H 4.4463495648 -0.4667826956 1.5222600861
H 5.1143121136 -0.2832067786 -0.0961891281
H 2.2713029569 0.3790022282 0.8172669781
H 2.7686786334 0.4665261629 -0.8627313092
H 4.0387261945 2.0927742859 1.3990681519
H 4.5138695473 2.1424001254 -0.2945771443
H 3.0953957924 4.0467121088 0.0297241191
H 2.1500647695 2.8728555608 -0.8761196116
H 2.0016940013 3.3990560072 2.1405922291
H 1.0543725598 2.1681604028 1.3280671761
H -0.2188568744 4.2883896440 1.7804228822
H 0.8917069690 5.1727137435 0.7373751754
H 0.1620998416 3.8100542044 -1.2265071412
H -1.1842163764 4.6738452348 -0.4470057560
H -3.4195771943 -1.5707703550 -1.7293972678
H -4.7621966118 -2.9493707296 -0.1448162653
H -5.1911024121 -2.1207698486 2.1583592614
H -4.3088390277 0.0918606370 2.8567703285
H -2.9922195789 1.4688570324 1.2669959447
H 0.1371348030 -1.0140150074 -2.1581772083
H 0.3301010670 -3.4802555718 -2.2715509192
H 0.1423799662 -4.8483793187 -0.2088438383
H -0.2419752694 -3.7319010360 1.9788652525
H -0.4614348336 -1.2519516764 2.0848725812
