45
CONF6
C 3.8403455532 2.0804662422 -3.7139578537
C 4.3958208091 1.0699898506 -2.7108034508
C 3.7094710901 1.1168539604 -1.3423848574
C 2.2240069781 0.7575691848 -1.3771346041
C 1.5981295795 0.7063970272 0.0145861440
C 0.0946075866 0.3827933298 0.0048452998
C -0.4981896695 0.4673862232 1.4219341734
C -2.0112409754 0.2690661041 1.4672061172
C -2.5877646739 0.4034967538 2.8755570520
C -4.1017666348 0.2034490643 2.9261470025
C -4.6692587762 0.3423321156 4.3371148505
C -0.1838406679 -0.9592409338 -0.6381204172
C -0.9632228722 -1.0571407499 -1.7914085616
C -1.2220231946 -2.2908754561 -2.3828591432
C -0.7016100751 -3.4540382524 -1.8260821211
C 0.0779511901 -3.3717315175 -0.6748342471
C 0.3326608894 -2.1370614967 -0.0888634728
H 3.8789439787 3.0969205857 -3.3058815092
H 2.7994048810 1.8643416749 -3.9721177991
H 4.4172578936 2.0714774746 -4.6437852194
H 4.3063658433 0.0563199281 -3.1233966744
H 5.4689452079 1.2521782250 -2.5741659228
H 4.2235987955 0.4245223143 -0.6621577586
H 3.8328214424 2.1202309258 -0.9099112586
H 1.6744199662 1.4882565559 -1.9852441036
H 2.0962508349 -0.2140092334 -1.8732616451
H 1.7415458995 1.6738854902 0.5151169373
H 2.1254631013 -0.0372026924 0.6282633829
H -0.4042821885 1.1476826922 -0.6083909569
H -0.0112653403 -0.2795638479 2.0642873890
H -0.2452248894 1.4490135481 1.8452506028
H -2.4922592054 1.0030620374 0.8047643920
H -2.2626210319 -0.7196564043 1.0622759742
H -2.3389362214 1.3943118631 3.2815747041
H -2.1034792194 -0.3280003754 3.5379256760
H -4.3470239949 -0.7879163153 2.5234526796
H -4.5838635402 0.9316449823 2.2606040528
H -4.4593599094 1.3362315833 4.7470490516
H -4.2228547451 -0.3950906488 5.0129963966
H -5.7535986287 0.1963163503 4.3514433951
H -1.3732887644 -0.1515332259 -2.2307909984
H -1.8313282944 -2.3423276764 -3.2799490142
H -0.9009937340 -4.4174720526 -2.2840340249
H 0.4889486647 -4.2738343055 -0.2319278392
H 0.9423380781 -2.0894997968 0.8089429569
