44
CONF42
C -5.4132400061 1.3047464242 -0.3152820072
N -3.9626212539 1.0886724644 -0.3830967697
C -3.6213956914 -0.1180831849 -1.1705132306
C -3.9657438883 -1.3193009244 -0.2453337642
C -3.8154709686 -0.7375531838 1.1845187198
C -3.3964521680 0.7393492147 0.9403108835
C -1.8722305246 0.8915053276 0.8456411546
C -1.3206986394 -0.0816888829 -0.1859211474
C -2.1201073259 -0.0574848606 -1.4842642060
O 0.0657065238 0.3172366121 -0.4424146161
C 0.9187526474 -0.6239004850 -0.8667046033
O 0.6238891713 -1.7887699371 -1.0528459065
C 2.3289636904 -0.0766369050 -1.0432624569
C 2.3459076790 1.2876092748 -1.7256027045
O 1.6877954868 1.1363789121 -2.9891281362
C 3.0476427556 -0.0438940508 0.2939391048
C 2.6149270438 0.7863885769 1.3336566132
C 3.2966486143 0.8083792039 2.5473546223
C 4.4162043218 0.0012549767 2.7400716185
C 4.8514738329 -0.8288659856 1.7102104295
C 4.1703607930 -0.8508858729 0.4953896514
H -5.9799157184 0.4503363631 0.0914327678
H -5.6170789857 2.1764875412 0.3152165590
H -5.7928201495 1.5147971326 -1.3206674072
H -4.1913833939 -0.1300063498 -2.1049889224
H -4.9883813076 -1.6610524110 -0.4256719187
H -3.3015268253 -2.1695299657 -0.4274757546
H -3.0721853706 -1.2729186950 1.7829033182
H -4.7630609979 -0.7813851338 1.7278661858
H -3.7854803944 1.4182960533 1.7056529532
H -1.4075571835 0.7029037418 1.8198711500
H -1.6363116749 1.9180456271 0.5434402645
H -1.2960300925 -1.0960450822 0.2224014111
H -1.9054254647 0.8724522122 -2.0232786664
H -1.8288858626 -0.9008546192 -2.1190702235
H 1.8371277555 2.0346091956 -1.1040019543
H 3.3923067767 1.5965779645 -1.8595179244
H 1.7385926395 1.4120791391 1.1990771151
H 2.9501816056 1.4575945831 3.3456612681
H 4.9453902713 0.0193268839 3.6877208650
H 5.7226653776 -1.4614161009 1.8504248111
H 4.5136366604 -1.4986233894 -0.3063165195
H 2.8409518101 -0.7938251104 -1.6916279485
H 1.6271787805 2.0080354619 -3.3984719936
