37
CONF34
C -5.1806663077 0.8619096568 -1.8336731935
C -4.9989811422 -0.5179628006 -1.8212427563
C -3.9373851600 -1.0710423536 -1.1160449400
C -3.0441107411 -0.2458126529 -0.4309260342
C -3.2138033781 1.1458203502 -0.4502763221
C -4.2975156062 1.6849933776 -1.1452406348
C -2.3296500963 2.1164301479 0.2918947825
O -2.7663908502 2.7428643073 1.2596125131
N -1.0911418107 2.2801829152 -0.2149246604
C -0.0859103686 3.1080455888 0.4462739872
C 0.6043728657 2.3563408836 1.5826845714
C 1.3530139506 1.1345978860 1.1278682755
C 1.7050161868 0.1016158939 2.0096908511
C 2.3674325669 -1.0259366526 1.5569040560
C 2.6894678433 -1.0871652323 0.2061502563
C 2.3379174997 -0.0235554433 -0.6176974250
N 1.6883545088 1.0487560984 -0.1656305911
C 3.3578563693 -2.3004609877 -0.3656615653
F 4.0935413850 -2.9612866041 0.5562438803
F 2.4500679851 -3.1884859094 -0.8527772856
F 4.1816385425 -1.9867624284 -1.3923195946
Cl 1.3147097976 0.2175049767 3.7124471753
C -1.9052885881 -0.8860880605 0.3139300102
F -2.1611765045 -2.1741601217 0.6320005246
F -0.7553547174 -0.8945382007 -0.4199002769
F -1.6175846560 -0.2462819180 1.4751064248
H -6.0123192643 1.2987075421 -2.3767431141
H -5.6873928340 -1.1667485222 -2.3519531052
H -3.8063626327 -2.1466282172 -1.0909959129
H -0.5822082635 3.9914460611 0.8556751124
H 0.6341543984 3.4313996715 -0.3072152575
H -0.1400800402 2.0693502133 2.3317024868
H 2.6262105768 -1.8284046608 2.2380380213
H 2.5840321727 -0.0359167052 -1.6768292190
H -4.4392124529 2.7611405374 -1.1432059241
H 1.3044507088 3.0324390387 2.0933872096
H -0.7954261889 1.7005484455 -0.9867196427
