37
CONF7
C 0.3210465622 0.3579677717 -2.5266566929
Si -0.2279231385 0.1821113569 -0.7483113659
C -1.4222012085 -1.3129089334 -0.5804484633
N -0.7506121085 -2.5962700401 -0.7240396792
C -0.4202514261 -3.4977348006 0.2259154391
N 0.2823636852 -4.4915177024 -0.3006424842
C 0.3623443121 -4.1312892776 -1.6073619585
N -0.2414372089 -2.9855425772 -1.9160507205
C 1.2288967216 -0.1343076661 0.3899145554
C 1.5129834268 0.6856464464 1.4912893627
C 2.5875756770 0.4243553918 2.3362890050
C 3.3797128818 -0.6789856368 2.0678364986
F 4.4216617707 -0.9452811587 2.8850029803
C 3.1469224070 -1.5179132302 0.9902707472
C 2.0716941331 -1.2345668094 0.1562597142
C -1.2065783044 1.6796538123 -0.1824603308
C -1.8294350090 1.7007340301 1.0758004222
C -2.5677505622 2.7962042242 1.5092223784
C -2.6813068275 3.8854467714 0.6599545375
F -3.3990563779 4.9536066365 1.0667954878
C -2.0874883738 3.9179232201 -0.5902023614
C -1.3531126741 2.8091860154 -0.9997926001
H 1.0065458847 1.2031062031 -2.6477333241
H -0.5340372932 0.5003362107 -3.1959539838
H 0.8375093391 -0.5519726857 -2.8454628188
H -1.8963615431 -1.2994232154 0.4068093344
H -2.2214588546 -1.2462841065 -1.3281735560
H -0.7078242488 -3.3897539825 1.2632658154
H 0.8681990057 -4.7228346629 -2.3592801954
H 0.8909424964 1.5530354234 1.6935063130
H 2.8144457781 1.0577991893 3.1866302293
H 3.7935439048 -2.3708624858 0.8176739608
H 1.8960482226 -1.8883103939 -0.6943283101
H -1.7341651922 0.8482624735 1.7445088958
H -3.0500266821 2.8163808953 2.4801392068
H -2.2040345373 4.7931088336 -1.2195789096
H -0.8873734528 2.8308936446 -1.9806073040
