29
CONF1
C -2.3041890489 0.2517033371 0.8537544738
C -3.7622677315 0.3575078241 0.4175672091
C -4.1135801258 -0.5894435230 -0.7061289691
O -5.2254192427 -1.0306259697 -0.9028061037
N -3.0586944815 -0.9251502448 -1.5596966185
C -1.7330466161 -0.5172066245 -1.5039012787
O -0.9230647969 -0.8767587779 -2.3288857678
C -1.3966203108 0.4488167583 -0.3606643916
N 0.0083766428 0.3485215321 -0.0518232351
C 0.6396837160 -0.8544312166 0.3092026558
O 0.0692836804 -1.8984132343 0.5370011947
C 2.0913398530 -0.5400326972 0.3496061240
C 3.1660868673 -1.3480415015 0.6716054581
C 4.4384290496 -0.7743341375 0.6136642531
C 4.6123046559 0.5617426850 0.2461630271
C 3.5199541140 1.3704511138 -0.0763096340
C 2.2649180329 0.7929976874 -0.0175216220
C 0.9309816992 1.3792084867 -0.3084631626
O 0.6435830610 2.4947849444 -0.6808890731
H -2.0731761022 1.0135069036 1.6037812588
H -2.1082857808 -0.7296982369 1.2966049862
H -3.9822590278 1.3726277503 0.0569944057
H -4.4547243792 0.1554955492 1.2372918950
H -3.2925546656 -1.5494080335 -2.3239559524
H -1.5420092510 1.4631405175 -0.7644019167
H 3.0187152222 -2.3852912939 0.9523018637
H 5.3084735924 -1.3757931544 0.8554665609
H 5.6144654239 0.9757882440 0.2088703313
H 3.6432960503 2.4083348124 -0.3661280721
