44
CONF130
C 4.3492430650 1.9072522974 -2.7474964686
C 3.4937101987 1.3364124773 -1.6210761837
C 2.7633322723 -0.0072427367 -1.9943669264
N 1.5815652779 -0.0583241241 -1.1652669294
C 0.8821525410 1.2036151611 -0.8864590279
S 2.0969506963 2.5387616024 -1.2561367174
C 0.6635415709 0.6986089624 0.5817003752
C 1.4465588747 -0.5546726015 0.1258301933
O 1.8294760758 -1.5782305080 0.6412018495
N -0.6608231653 0.5216101133 1.0810495377
C -1.1267345262 1.1775705176 2.1776150775
O -0.4434195187 1.9614106134 2.8311924679
C -2.6098225241 0.9337616993 2.5113102794
C -3.1228170772 -0.4168106484 2.0678310699
C -4.0400252028 -0.5275925986 1.0230607646
C -4.5005269049 -1.7711581681 0.5964476487
C -4.0390241628 -2.9268274385 1.2253196773
C -3.1186392648 -2.8343465971 2.2738062114
C -2.6705079670 -1.5889789346 2.6860645924
O -4.4498599296 -4.1772773326 0.8623256582
N -2.7837569261 1.1182344227 3.9562065601
C 2.3745445923 -0.0753144612 -3.4630358303
O 3.3454338778 -0.6474230584 -4.1946173181
O 1.3338195408 0.3421693221 -3.9181290958
C 4.3377879596 1.1130088619 -0.3662292993
H 5.1496016857 1.2017350764 -2.9922946538
H 4.8111006697 2.8432857164 -2.4216339345
H 3.7633979917 2.1082339828 -3.6482843638
H 3.4187124163 -0.8500863895 -1.7532349752
H -0.0317940321 1.3615236466 -1.4640008942
H -1.2755819631 -0.1336719798 0.6174136792
H -4.4052048148 0.3704079013 0.5315041770
H -5.2188143852 -1.8433528385 -0.2159586812
H -2.7655270861 -3.7424799247 2.7518605805
H -1.9546403083 -1.5202632779 3.4996068198
H -5.0807761283 -4.1109030964 0.1329050015
H -2.3351176148 1.9891441384 4.2254873905
H -3.7741996053 1.2246339435 4.1500798024
H 3.7499480007 0.6906592631 0.4532178813
H 5.1618243489 0.4267828805 -0.5937473079
H 4.7577873250 2.0631928131 -0.0267671520
H 3.0776290245 -0.6299270605 -5.1303253866
H -3.1366447568 1.7006856081 1.9116370226
H 1.2486133654 1.2789419645 1.3016977063
