37
CONF360
C 0.2136718559 -0.6037047870 -3.2056005716
C -1.1319487986 -1.2851683334 -3.0886634891
O -1.3037175316 -1.9191394577 -1.7785766539
P -1.6484293301 -1.0189750096 -0.5173793680
O -2.3738616785 0.2496971859 -0.7565096087
O -2.3169047125 -2.1175987493 0.4071462105
C -2.6450976923 -1.7604049451 1.7987035511
C -1.7434588508 -2.5240497685 2.7382432647
O -0.1837411710 -0.7713884826 0.1737332099
P 0.3069713601 0.5881066619 0.9353848834
O -0.4688072374 0.9215161536 2.1463422591
O 1.8238405678 0.2244109024 1.2271496111
C 2.7464661770 -0.1147102036 0.1420180597
C 4.0919492096 -0.3935951657 0.7658942777
O 0.3671216017 1.6855301513 -0.2178178953
C -0.5404549957 2.8409739382 -0.2024610336
C 0.1105807958 3.9999404218 0.5144995237
H 0.3373026569 -0.2330740851 -4.2283738243
H 1.0240423468 -1.3064607759 -2.9914125254
H 0.2918443928 0.2482078613 -2.5231698293
H -1.9577165996 -0.5849188170 -3.2477242979
H -1.2249318536 -2.1140961825 -3.7933242714
H -3.6950906674 -2.0361432205 1.9219121415
H -2.5450344596 -0.6786757935 1.9367681745
H -2.0287533699 -2.2968291848 3.7703455904
H -1.8385159087 -3.6016211439 2.5787986492
H -0.6993351022 -2.2314434971 2.6006205231
H 2.7891585069 0.7307115416 -0.5526431225
H 2.3543129486 -0.9928111018 -0.3824272142
H 4.0279419527 -1.2299503181 1.4668252602
H 4.8078197541 -0.6520019221 -0.0202137832
H 4.4620991198 0.4866421173 1.2979894732
H -0.7209930139 3.0568884977 -1.2579526467
H -1.4840281615 2.5448530276 0.2604116009
H 1.0635172688 4.2636399359 0.0470219089
H -0.5513948855 4.8708666616 0.4682332163
H 0.2835762938 3.7547755743 1.5662091217
