45
CONF1314
C 11.0534965832 -0.5087002551 -1.0511885391
C 9.7919562651 -0.1307683377 -1.2529094897
C 8.7327710800 -0.4697825796 -0.2809526184
O 8.8785331399 -1.0917226692 0.7531527673
O 7.5377597733 0.0140063042 -0.6963062691
C 6.4185530409 -0.2566179213 0.1810161880
C 5.2104741722 0.3605672555 -0.5072418410
C 3.9476983312 0.1010692872 0.2792582121
C 2.6943146668 0.7956530990 -0.3400941298
C 1.3160112973 0.3068231978 0.2414967163
C 0.1360279689 1.3085762997 -0.0268109809
C -1.2889153441 0.7740820342 0.3688716583
C -2.4603189865 1.6893738036 -0.1325242764
C -3.8708882232 1.4580250804 0.5410098867
C -4.4584750479 0.0098785418 0.4894075352
C -5.9960125657 -0.0502364271 0.7965998639
C -6.5004700890 -1.4783150417 1.1925411167
F -6.0870080334 -1.8079765032 2.4202958675
F -6.0534223534 -2.3900710536 0.3174806877
F -7.8395063410 -1.4816103509 1.1768136471
F -6.2944491289 0.7866678506 1.8157525157
F -6.6748595501 0.3343876077 -0.3044893933
F -4.2599565275 -0.5077724029 -0.7427281838
F -3.8033737685 -0.7496065931 1.3992002760
F -3.7955958831 1.8557289191 1.8272555890
F -4.7242666955 2.2793124565 -0.1203205959
F -2.1544895732 2.9844465228 0.1177535885
F -2.5962493281 1.5296836694 -1.4654122514
F -1.4884835276 -0.4528969599 -0.1610722164
F -1.3376775785 0.6858960860 1.7175919281
F 0.1318284056 1.6239113965 -1.3438578383
F 0.3660393673 2.4245826457 0.7002444870
F 1.0396395849 -0.8866987595 -0.3282987045
F 1.4158719595 0.1392463656 1.5806393891
F 2.6818380741 0.5500414477 -1.6749098770
F 2.8285983792 2.1324737024 -0.1574737388
F 4.0778928802 0.5556904581 1.5646894986
F 3.6859178200 -1.2434052203 0.3542681601
H 11.8329319162 -0.2608957703 -1.7636289462
H 9.4929062435 0.4352756909 -2.1295039657
H 6.6100882749 0.1952605815 1.1580731915
H 6.3096650791 -1.3382974701 0.3027198067
H 5.0897153240 -0.0672895885 -1.5059036477
H 5.3414836541 1.4427010609 -0.6068999187
H 11.3300672818 -1.0750327295 -0.1666408847
