54
CONF16
C -3.7025967995 -1.9076535956 3.8555206434
C -4.3767478480 -1.2021332848 2.6802404680
C -4.0417868446 -1.9034445242 1.3203074648
N -2.7115233760 -1.4334848688 0.9549259021
C -2.4674675747 0.0043153959 1.1629720709
S -3.6668080502 0.5278594338 2.4569092037
C -0.9900752723 -0.3560258743 1.5551814314
C -1.4476909711 -1.8103846073 1.3711950270
O -0.9476675748 -2.9094176642 1.5223913561
N 0.0849267813 0.1012313621 0.7359119494
C 1.0205106256 0.9686944144 1.2150461951
O 1.0100056796 1.4295154157 2.3427393494
C 2.0933109409 1.4365897816 0.2105627280
C 1.5775218311 2.7072818108 -0.4633507711
C 1.8330296680 3.9351407747 0.1488546918
C 1.3367389157 5.1100020107 -0.4041987383
C 0.5841850446 5.0696822672 -1.5741997638
C 0.3259765548 3.8468911329 -2.1850920379
C 0.8155112817 2.6675624007 -1.6317373863
C 2.5190122143 0.4236944139 -0.8266719474
O 1.7923839329 -0.3477445641 -1.4133482755
O 3.8515738367 0.5287864195 -1.0531382819
C 4.4173052151 -0.2945622486 -2.0452739898
C 4.4881210613 -1.6663186233 -1.8603419673
C 5.1173967484 -2.4343609156 -2.8342323944
C 5.6642179168 -1.8304733838 -3.9636299770
C 5.5825428495 -0.4506063801 -4.1236374623
C 4.9531453563 0.3307066050 -3.1588172257
C -4.2843435571 -3.4210723324 1.3904711340
O -5.4276604746 -3.8095537985 1.4204565095
O -3.2582831445 -4.2676358089 1.4399759401
C -5.8796665756 -1.0792658930 2.9020424356
H -3.8463994963 -1.3280062459 4.7704088896
H -2.6256318195 -2.0278369397 3.7064247901
H -4.1453266555 -2.8999922181 4.0032646698
H -4.7455381244 -1.5337904238 0.5661069290
H -2.5701771389 0.6236535298 0.2668899137
H -0.7784923702 -0.1175806172 2.6024033034
H 0.2323473149 -0.2857331661 -0.1903413194
H 2.9613456144 1.7003253652 0.8169212521
H 2.4101759617 3.9648946815 1.0675086649
H 1.5406132997 6.0591583114 0.0806812255
H 0.2006578574 5.9874872573 -2.0075842781
H -0.2589060747 3.8069453649 -3.0983850180
H 0.6083528756 1.7191172418 -2.1167155842
H 4.0562136704 -2.1207780765 -0.9762052143
H 5.1800420930 -3.5098930056 -2.7069759779
H 6.1550797888 -2.4360137723 -4.7178797189
H 6.0097015634 0.0237058386 -5.0008477694
H 4.8767007496 1.4078164269 -3.2581832241
H -2.3648992905 -3.8354730961 1.4368963447
H -6.3645336404 -0.5766933143 2.0616204775
H -6.0826249985 -0.5084153010 3.8128337694
H -6.3138002699 -2.0767141016 3.0114081028
