37
CONF19
C 5.3447258940 -0.3408656378 1.9148432294
C 4.3724100589 -1.3603482555 1.3625905694
C 5.0303478983 -2.4136039203 0.4917614527
O 3.4209436041 -0.5878781334 0.5356064626
C 2.2183560633 -1.1213972367 0.3220839552
O 1.8098550343 -2.1536821542 0.8214658416
C 1.3627537673 -0.2725722465 -0.5616933125
C 1.7822666835 0.3759084341 -1.7306980377
C 0.8949259923 1.1299565921 -2.4892746037
C -0.4126545061 1.2435543083 -2.0558822901
C -0.8860981290 0.6296211378 -0.8969124529
C 0.0261493807 -0.1416780890 -0.1793134040
C -2.2786434417 0.7417956830 -0.4593183829
N -2.9762103673 -0.3611523740 -0.1485985259
N -4.1759743086 0.0540839836 0.2607424080
C -4.2890028024 1.4095292613 0.2191070615
C -3.0673523078 1.8876261420 -0.2381190958
Br -2.4882634172 3.6695686743 -0.3817258987
C -5.5337922266 2.1087823405 0.6457107651
F -5.7215990758 2.0356790450 1.9897780138
F -6.6358447922 1.5618259398 0.0742754599
F -5.5114822620 3.4100811407 0.3147110557
C -5.1945505217 -0.9305154548 0.6211949550
F -1.2699534144 1.9396356024 -2.8250821834
Cl 3.4050338136 0.2028154107 -2.3600351501
H 5.8845749861 0.1553860092 1.1024380931
H 4.8244470732 0.4129860377 2.5116220160
H 6.0715220910 -0.8492621415 2.5546848824
H 3.7957270530 -1.8261857434 2.1669407649
H 4.2905109052 -3.1026849954 0.0768000862
H 5.7376199989 -2.9896052926 1.0959367715
H 5.5789721704 -1.9389529791 -0.3277505486
H 1.2003977873 1.6016409126 -3.4155945023
H -0.3057424895 -0.6437917877 0.7228086638
H -5.7312510347 -0.5996341813 1.5119791830
H -4.6775457004 -1.8661182244 0.8323739423
H -5.8955798607 -1.0705482147 -0.2057622319
