71
CONF255
C 7.4816834312 -2.1293862373 2.8463090067
C 7.2943769633 -1.9003266855 1.3743890148
C 6.0215078496 -1.7242120243 0.8071946599
C 5.8538313521 -1.4405836135 -0.5595980457
C 6.9900922271 -1.3569010659 -1.3645667321
C 8.2587081266 -1.5566766243 -0.8281366048
C 8.4049886782 -1.8222031057 0.5282135191
C 4.4811172000 -1.2460670539 -1.1389012797
N 4.8632837611 -1.7873813360 1.6252915644
C 4.4470833554 -2.8766880222 2.3161260929
O 5.0332902918 -3.9598048552 2.3364271664
C 3.1871371094 -2.6416162394 3.1466932481
N 2.3602781656 -1.5511230348 2.6449141809
C 1.5212597790 -0.9513432165 3.6883717663
C 0.7348948184 0.2147272102 3.1111099266
N -0.1188869897 -0.2258062075 2.0012335744
C 0.7242207012 -0.8319494871 0.9640210350
C 1.5114247980 -1.9997754753 1.5338311733
C -0.8880408428 0.9114495522 1.4787134884
C -1.9990700769 0.5051876721 0.5146978587
C -2.8268969609 1.7141972291 0.0836556474
C -3.9748457750 1.3317892311 -0.8658308627
C -4.9416756438 2.4697818394 -1.1514181562
C -4.5834962132 3.8155994989 -1.0453880962
C -5.4889472030 4.8303930942 -1.3557391770
C -6.7569499548 4.4728893711 -1.7737977180
C -7.1587925114 3.1523877792 -1.8919983478
C -6.2383903008 2.1585738897 -1.5774709875
F -7.6487899713 5.4559974943 -2.0755296856
C -3.4436482239 0.7518613344 -2.1672817262
C -2.7558185468 1.5608521053 -3.0774361559
C -2.2413942172 1.0387116738 -4.2596398477
C -2.4321559302 -0.3094320969 -4.5168071649
C -3.1083644845 -1.1468456035 -3.6487790319
C -3.6124618021 -0.6004626349 -2.4690371186
F -1.9357810440 -0.8277581262 -5.6734750593
H 8.5035918796 -1.8808985482 3.1421258788
H 6.7866885823 -1.5205665247 3.4332351361
H 7.2898793013 -3.1747147153 3.1097897549
H 6.8731050239 -1.1416575409 -2.4229077655
H 9.3967057973 -1.9543501266 0.9517854654
H 3.9621928716 -0.3973840979 -0.6776873339
H 3.8566340879 -2.1302630074 -0.9714176424
H 4.5415514845 -1.0622738540 -2.2135880394
H 2.6502625254 -3.6028333654 3.2146638212
H 3.5349042141 -2.3954002841 4.1591755721
H 0.8201581270 -1.6933113001 4.1161268130
H 2.1661064171 -0.5886344113 4.4967316843
H 1.4455819882 1.0000623030 2.7828912587
H 0.1009837628 0.6441143710 3.8955324586
H 0.0952561456 -1.2020065995 0.1483146944
H 1.4286116388 -0.0884470868 0.5370595538
H 2.1448589698 -2.4283655837 0.7483574671
H 0.8111562677 -2.7884837547 1.8695129443
H -0.2212450094 1.6468435656 0.9836939586
H -1.3395905839 1.4231374560 2.3387097248
H -1.5789140156 0.0254022262 -0.3762634471
H -2.6469992417 -0.2349372497 1.0024993118
H -3.2526514978 2.2056908263 0.9681886674
H -2.1701734487 2.4453249572 -0.4047046097
H -4.5541570833 0.5383871786 -0.3767343256
H -3.5890709087 4.0943816496 -0.7148487382
H -5.2159371964 5.8769515876 -1.2725576612
H -8.1658238785 2.9139878903 -2.2172424755
H -6.5341702095 1.1163945307 -1.6658447956
H -2.6212043792 2.6178590052 -2.8654451243
H -1.7074703384 1.6595151578 -4.9712124081
H -3.2361985056 -2.1968410522 -3.8893076362
H -4.1427690090 -1.2427494745 -1.7715805312
H 9.1345140587 -1.4936432699 -1.4667382529
H 4.1954713360 -1.0199851836 1.6165655918
