46
CONF136
C -3.8944660796 -0.0369653127 -1.6320670336
C -2.5150757182 -0.0158958795 -2.2482631034
C -2.5113378967 0.3123052435 -3.7240930919
C -1.4946737940 -0.9882472456 -1.6930331675
C -0.5307995669 -1.6740333475 -2.5579587543
C -0.2909202110 -2.9852421872 -2.5495768489
Cl 0.8754475391 -3.7287640975 -3.6131639810
Cl -1.0877778917 -4.1133560329 -1.4868061607
C -1.3271838948 0.5061573340 -1.4406621582
C -1.5164741228 1.0214730459 -0.0705019436
O -2.0364856045 0.4343528875 0.8574904120
O -1.0394552185 2.2894102581 0.0206355028
C -1.1530939808 2.9176712983 1.3185588350
C -0.1463721495 2.3930277329 2.3097796210
C 0.9974766262 1.7254893401 1.8833732381
C 1.9106910858 1.2610416760 2.8264405944
O 3.0738360972 0.6156856078 2.4475262749
C 3.0276258892 -0.2508625967 1.3662936882
C 1.9886609745 -1.1665980833 1.2070542384
C 2.0327830599 -2.0568990525 0.1390946223
C 3.1020718737 -2.0402029584 -0.7558972006
C 4.1361649800 -1.1247333200 -0.5753470206
C 4.1031930402 -0.2223187774 0.4853630168
C 1.7233080451 1.4852774802 4.1858136444
C 0.5863020807 2.1739849831 4.5997122050
C -0.3536365190 2.6151953885 3.6733864506
H -4.5185651910 -0.7589859718 -2.1693373174
H -4.3649600149 0.9488453292 -1.7214167084
H -3.8690380728 -0.3174267293 -0.5781821329
H -3.0541328577 -0.4612043170 -4.2787315102
H -3.0189267635 1.2680520153 -3.8912178866
H -1.5028415619 0.3876376312 -4.1355811224
H -1.8407112116 -1.5433406137 -0.8262869380
H 0.0373419059 -1.0849674014 -3.2717409429
H -0.5718470245 1.0248626613 -2.0219699557
H -0.9791993110 3.9786175200 1.1165553785
H -2.1696638320 2.7909930159 1.7023007419
H 1.1749279795 1.5515917167 0.8277891488
H 1.1614592335 -1.1810939397 1.9090856337
H 1.2277580008 -2.7739629049 0.0137763859
H 3.1288087508 -2.7396103198 -1.5847195032
H 4.9739796260 -1.1056625448 -1.2653653338
H 4.8985651417 0.4998075767 0.6377126076
H 2.4538994202 1.1159248588 4.8973390924
H 0.4238780637 2.3477530571 5.6587918756
H -1.2505405225 3.1281579628 4.0080463961
