60
CONF455
C 7.3368713683 -1.1617267872 1.7632825935
C 6.8305039154 -0.4293907387 0.5234571608
N 5.7372478276 -1.1419757926 -0.1443641887
C 6.1095156288 -2.1290883488 -1.1613280466
C 6.2114099094 -1.5353371782 -2.5664613017
C 4.4577858911 -0.8797096039 0.2559247429
O 4.1968328930 -0.1233223427 1.1982590859
N 3.4585226567 -1.5275235279 -0.4695469466
C 2.0819896306 -1.3585756806 -0.2335782739
C 1.5432435523 -1.2937527629 1.0473074153
C 0.1640104044 -1.1799520539 1.2600650283
C -0.7001850924 -1.1213570557 0.1427545292
C -0.1604952848 -1.2053977447 -1.1441555538
C 1.2104647296 -1.3188920379 -1.3262818802
O -2.0271734042 -0.9471578797 0.3760763548
C -2.9194161433 -0.8825149364 -0.7477616280
C -4.3340475752 -0.7091866438 -0.2018961882
C -4.5293628856 0.5894157841 0.5860555349
N -4.4469699799 1.7271639712 -0.3394575107
C -5.2045866241 2.9508934038 0.0353825484
C -6.7054166098 2.6871261142 -0.1205538695
C -4.7806775224 4.0386617009 -0.9556540366
C -4.8917379950 3.4115616927 1.4674270879
O -5.2345332011 -0.7371232659 -1.3105172832
C -0.2798105434 -1.1481339919 2.6867331929
O 0.5211060502 -0.8280507694 3.5605731425
C -1.6788314397 -1.5533810206 3.0680991735
H 8.1722916259 -0.6128999808 2.2095279717
H 7.6869336126 -2.1677745407 1.5105590096
H 6.5405588991 -1.2465047087 2.5080462727
H 7.6387747555 -0.3131668182 -0.2072721572
H 6.4808057659 0.5707672767 0.7911769610
H 7.0795073874 -2.5443538767 -0.8665396220
H 5.4054652597 -2.9677032067 -1.1375769796
H 6.5252978018 -2.3054430143 -3.2778052697
H 6.9478238897 -0.7263964422 -2.5894002459
H 5.2518221264 -1.1288128369 -2.9025161079
H 2.1867130312 -1.3516359048 1.9142284877
H -0.7992892617 -1.1659089789 -2.0170522752
H 1.6080785301 -1.3742683775 -2.3361409161
H -2.6538030249 -0.0377970990 -1.3987807308
H -2.8649898255 -1.8108765732 -1.3300569534
H -4.5720902571 -1.5632173167 0.4438334814
H -5.5304158395 0.5536560906 1.0260422564
H -3.8067943444 0.6381471874 1.4135090184
H -3.4716407635 1.9920114902 -0.4427667980
H -7.2650528832 3.6083989265 0.0686873801
H -7.0664084605 1.9321842670 0.5843185485
H -6.9270298493 2.3465980891 -1.1373311510
H -4.9944833499 3.7270483036 -1.9832300391
H -3.7075269021 4.2459503308 -0.8707460868
H -5.3219158341 4.9675001581 -0.7533088612
H -5.2041613122 2.6635701408 2.2030382924
H -5.4183275810 4.3448349738 1.6934247145
H -3.8165874883 3.5871428997 1.5876694614
H -2.3605761867 -0.7151643546 2.8894656550
H -1.6905934571 -1.8014487698 4.1309058896
H -2.0405571714 -2.3900893257 2.4662916526
H -5.2524892767 0.1909532753 -1.6126357120
H 3.6879777597 -1.8446669050 -1.3987208811
