30
CONF12
N 5.5197637503 -0.4835795940 0.6313794607
C 4.1808563561 -0.2546357925 0.5581351990
N 3.7738617312 0.9461028663 1.0469786428
C 2.4759161731 1.2229447507 0.9478072295
N 2.0145957440 2.3925123578 1.4184751839
C 1.5682447318 0.2852600282 0.3499680177
N 0.2617179261 0.5771936291 0.2194320181
C -0.5313512749 -0.3107511514 -0.3483076823
C 0.0115897075 -1.5900256506 -0.7556600168
N -0.7956377474 -2.5526179948 -1.2689760224
N 1.3061259009 -1.8763525039 -0.6447284658
C 2.1169615453 -0.9377927375 -0.1064559672
N 3.4351029964 -1.2137058438 -0.0060243703
C -1.9598595161 0.0403360403 -0.4965971406
C -2.6336188207 0.6416340374 0.5754504996
C -3.9664855138 1.0156208392 0.4525743267
C -4.6474777749 0.8013151435 -0.7449371028
C -3.9837559258 0.2145989764 -1.8197224479
C -2.6508732538 -0.1671030295 -1.6983697983
H 5.8479842480 -1.4216381615 0.4693886891
H 6.0712010790 0.1127715404 1.2261606228
H 1.0392670171 2.6205340847 1.3178663013
H 2.6528794738 3.0678723933 1.8053233728
H -0.4080184273 -3.4803186678 -1.3488316662
H -1.7923019597 -2.4828436472 -1.1432074902
H -2.1019815082 0.8055191509 1.5071881805
H -4.4772378004 1.4722420292 1.2947727673
H -5.6886159476 1.0930102386 -0.8402444387
H -4.5016308448 0.0597995410 -2.7610809202
H -2.1372216682 -0.5979027508 -2.5520984935
