56
CONF1
C -1.0154914757 -2.1494678082 3.5268157094
C -1.6440280944 -2.8700384252 2.3342451745
C -0.8216399510 -4.0749124387 1.8752072146
N -1.9326694240 -1.9593247275 1.2187940105
C -3.1853047478 -1.8028005376 0.6557026504
C -4.3905362356 -2.4496538667 0.9332634710
C -5.5010327136 -2.1000808986 0.1777402370
C -5.4187580362 -1.1386010609 -0.8426901182
C -4.2227374294 -0.4980347805 -1.1213530492
C -3.0899174626 -0.8142968322 -0.3607725711
C -1.7270545363 -0.3809270392 -0.3947628941
C -1.0483323921 -1.0933487493 0.5873581110
C 0.3646494589 -0.9594208449 0.9219968910
C 0.9103097999 0.2387991217 1.1462972344
C 2.3788473096 0.5112316174 1.2331880910
C 2.7146214296 1.5660327154 0.1652815270
C 4.1940756546 1.9433217751 0.0861362324
C 4.4103399572 3.1638230604 -0.8290577418
C 3.7939263952 2.9114575390 -2.1803980129
O 4.0026082963 1.9134207607 -2.8443788178
O 2.9542244626 3.8887477952 -2.5626219567
O 4.9953635677 0.8339235547 -0.3448132634
O 3.1032294551 -0.6978340121 1.0660743072
C -1.1358284615 0.5459640012 -1.3659950468
C -1.7029125821 1.8047736733 -1.6047196996
C -1.1468332032 2.6855405984 -2.5290064563
C -0.0141396993 2.2857851741 -3.2126036489
C 0.5764134925 1.0492544244 -3.0245874830
C 0.0032931072 0.1843083148 -2.1005843797
F 0.5470284222 3.1466460441 -4.1166735582
H -0.9773254952 -2.8318638289 4.3812991916
H 0.0021604813 -1.8200346027 3.3067827168
H -1.6085872042 -1.2742435999 3.8066125225
H -2.6238358696 -3.2372457979 2.6543078391
H 0.1912415894 -3.7808929290 1.5877074606
H -1.2970226538 -4.5649718224 1.0210372017
H -0.7394226764 -4.7995438903 2.6910893605
H -4.4742922014 -3.2101798364 1.7017581110
H -6.4493609767 -2.5890818087 0.3749268613
H -6.3048225387 -0.9015401901 -1.4223100466
H -4.1581461035 0.2331012706 -1.9211182870
H 1.0108592492 -1.8334829989 0.9004152270
H 0.2652439965 1.1146858064 1.1987847741
H 2.6083189360 0.9480352694 2.2257071302
H 2.3819022384 1.1909106832 -0.8104822666
H 2.1263403843 2.4680712363 0.3788882773
H 4.5691117871 2.1999004398 1.0849544189
H 3.9847550148 4.0635061628 -0.3790908742
H 5.4875955448 3.3116549863 -0.9638790083
H 2.5326272761 3.6230944795 -3.3998275477
H 4.8157324252 0.7220875817 -1.2936750579
H 3.9537253729 -0.4696665078 0.6568121960
H -2.5800275605 2.1064943759 -1.0409850982
H -1.5749369998 3.6646140273 -2.7121752346
H 1.4612313266 0.7753846274 -3.5890346466
H 0.4452207060 -0.7930815785 -1.9399286783
