76
CONF5
C 5.1551493846 3.3403670892 -0.9422193629
C 4.0509050577 2.9990829908 0.0652300167
C 4.3834361079 3.6895194781 1.4015911291
C 2.7161331253 3.5492310567 -0.4746293906
C 3.9144950710 1.4917822372 0.2906823645
C 2.9494635998 1.0037506225 1.1811249968
C 2.7678028790 -0.3580788541 1.3852568887
C 3.5410860756 -1.3037071021 0.7060278769
C 4.5295213632 -0.8237343393 -0.1546744800
C 4.7091413095 0.5445130135 -0.3607115389
C 3.3069021189 -2.7923326915 0.9426657596
C 3.6146827428 -3.6830630551 -0.2740074605
C 2.9095477715 -3.3679074859 -1.6007665173
C 1.3978743722 -3.6004024816 -1.6469713928
N 0.5990466979 -2.6399173425 -0.8623957527
C 0.6265121042 -1.2950053693 -1.4605000886
C -0.1723999797 -0.3030332007 -0.6242525776
C -1.6253040498 -0.7528965346 -0.4631296854
C -1.6294460387 -2.1710431909 0.1137546168
C -0.7931285945 -3.1090055908 -0.7491450407
C -2.4592928582 0.2352595206 0.4007241761
C -3.8881076279 -0.2869814700 0.5575578390
C -4.6986388033 -0.4324559364 -0.5729218734
C -5.9932409063 -0.9273306886 -0.4615622982
C -6.5043780473 -1.2804902224 0.7865547883
C -5.7060885524 -1.1327373687 1.9161130365
C -4.4058709443 -0.6402111180 1.8042576272
C -2.5289841506 1.6479402939 -0.2002812820
C -2.4390452796 1.8941258120 -1.5738005922
C -2.5495217999 3.1894722119 -2.0748579948
C -2.7554180434 4.2628511664 -1.2129651524
C -2.8538778680 4.0279348117 0.1564812017
C -2.7433017484 2.7337101426 0.6558736747
O -1.8996725110 0.3053404198 1.7195144585
O 1.9978162134 -3.0372770192 1.4548396422
H 4.9549733458 2.8995403608 -1.9244344991
H 6.1358259420 2.9944577087 -0.5991314782
H 5.2065566761 4.4267387415 -1.0661500849
H 3.5994942889 3.5239657883 2.1464183744
H 5.3271920791 3.3099605885 1.8077407342
H 4.4831812889 4.7701484454 1.2500659809
H 1.8973249362 3.3805346496 0.2312353699
H 2.7979730651 4.6280519041 -0.6482409822
H 2.4560850038 3.0654783335 -1.4223873159
H 2.3134787015 1.6975231731 1.7237576016
H 5.1708568590 -1.5156870319 -0.6920087044
H 5.4809329803 0.8607002595 -1.0532435974
H 3.9935444479 -3.1106559453 1.7414187129
H 4.6969641043 -3.6607320102 -0.4504947454
H 3.3774201844 -4.7117177918 0.0260229845
H 3.3412699147 -4.0288185908 -2.3625246431
H 3.1501145846 -2.3504094088 -1.9267442649
H 1.0655720263 -3.5894140810 -2.7015019971
H 1.1835655434 -4.6018678423 -1.2516017281
H 0.2203924018 -1.3299897036 -2.4906949391
H 0.3032678415 -0.2311815420 0.3606380440
H -2.0894938079 -0.8011321817 -1.4572203751
H -2.6502270931 -2.5633550279 0.1727273579
H -1.2230980679 -2.1512861558 1.1320604722
H -0.7798460187 -4.1117042021 -0.3061174388
H -1.2504514693 -3.1970068286 -1.7542911416
H -4.3209753969 -0.1514756265 -1.5512059343
H -6.6060189053 -1.0334158173 -1.3516312301
H -7.5158309119 -1.6644779651 0.8752951756
H -6.0923947650 -1.4030084011 2.8944513114
H -3.7922424757 -0.5347029347 2.6902079718
H -2.2742808420 1.0800114132 -2.2709665227
H -2.4691088774 3.3570165739 -3.1446399099
H -2.8386480384 5.2719498856 -1.6042218363
H -3.0197122068 4.8547392517 0.8406519674
H -2.8278577884 2.5592354872 1.7232143374
H -1.0544450093 0.7678979856 1.6527156710
H 1.6644633795 -0.9536925070 -1.5236377503
H 2.0020567440 -0.7009234362 2.0728223478
H 1.3773811480 -2.8149083505 0.7006695019
H -0.1074202872 0.6849109262 -1.0922217307
