42
CONF9
C -1.5509423124 -1.3259273233 5.1750313069
C -2.5673568484 -1.3897913972 4.2284740205
C -2.2605489814 -1.3105802686 2.8736798058
C -0.9403516829 -1.1628517425 2.4457624716
C 0.0745359736 -1.1038501062 3.4031880623
C -0.2304090226 -1.1852480182 4.7568873976
C -0.6633037020 -1.0303155159 0.9657750461
C -0.3337267495 0.3910956751 0.5387212567
C 0.9300608248 0.9358050866 0.7830556253
C 1.2396423978 2.2220701772 0.3561225112
C 0.2890684307 2.9819918652 -0.3193169508
C -0.9758701165 2.4520152946 -0.5561652411
C -1.2836424016 1.1643207055 -0.1313028369
C 0.4182819158 -1.9753206810 0.4342520382
O 1.0521846121 -2.7392042091 1.1170419148
C 0.7031600146 -1.8914944025 -1.0771393638
C 1.9425596545 -1.0178489448 -1.3947926049
O 3.0326956640 -1.1094545877 -0.8835789211
C 1.5447319638 -0.0722123021 -2.4671769792
C 2.3263659441 0.8888433156 -3.0971226945
C 1.7307472214 1.6561675898 -4.0921856130
C 0.3871720612 1.4664142571 -4.4448518127
C -0.3918905956 0.5062628886 -3.8090246591
C 0.2074060448 -0.2592389827 -2.8158352098
C -0.3933481575 -1.3290929520 -1.9859711608
O -1.5448774796 -1.7111910235 -2.0307932554
H -1.7844700752 -1.3906978686 6.2328437205
H -3.6000358053 -1.5050159185 4.5420077943
H -3.0580415251 -1.3642467888 2.1372309705
H 1.1093340634 -1.0150739994 3.0950154783
H 0.5695273343 -1.1456017573 5.4893657560
H -1.5727907630 -1.3198147817 0.4233076457
H 1.6867620485 0.3438904088 1.2886894443
H 2.2296530175 2.6257081359 0.5425154049
H 0.5331901462 3.9829948411 -0.6598876614
H -1.7227488657 3.0387656661 -1.0815395210
H -2.2635166842 0.7433238576 -0.3381100138
H 0.9364425659 -2.9186761446 -1.3836870454
H 3.3642067888 1.0247507940 -2.8119384808
H 2.3113077534 2.4151049282 -4.6068716323
H -0.0469956616 2.0819409256 -5.2262656441
H -1.4341677202 0.3512830072 -4.0673583438
