76
CONF60
C -0.5545654258 -2.0048161541 -1.0754042937
C -1.8131203199 -1.2688338452 -0.6407156692
C -3.0451364394 -1.9123972864 -1.2181377003
C -4.3027994586 -1.7435525884 -0.7859830810
C -5.4245299294 -2.4948101745 -1.4557284308
O -6.1369125926 -3.3501592940 -0.5367709687
C -4.7574346501 -0.8012963322 0.3068912727
C -3.8437604860 0.3904318259 0.6280154294
O -2.9323343043 0.1275036241 1.7130025817
C -4.6358256300 1.6410686549 1.0829333211
O -5.5060101138 1.6218169322 1.9440285683
C -4.1285314054 2.8071693024 0.3595850860
C -4.6111328148 4.1898193737 0.6298467714
C -3.2324795177 2.3870428286 -0.5561571276
C -3.0702476512 0.8969932288 -0.6002941469
C -1.6894346761 0.2696393175 -0.8920359530
O -1.4768694976 0.5719740156 -2.2747345823
C -0.4994110362 0.7775418014 -0.0302829007
C -0.3083678689 2.2946254945 -0.0189087464
C 0.8182585751 0.1428469856 -0.5191100712
O 1.7958927396 0.2896972595 0.5522411666
C 3.0171821753 0.7933626950 0.2423381051
O 3.3057531177 1.1623807636 -0.8942232861
C 3.9122582805 0.8426993798 1.4001699845
C 3.4773883438 0.3609556734 2.6482929685
C 4.2899834782 0.3855204128 3.7657092046
C 5.5833858549 0.9086644739 3.6463564096
C 6.0502820181 1.3920637260 2.4400223889
C 5.2385060253 1.3761199680 1.2782478313
N 5.7171961522 1.8528103932 0.1056123001
C 7.0451020919 2.4128189300 -0.0618229496
C 0.7725158150 -1.2999124481 -0.9518752655
O 1.8100715256 -1.5942344183 -1.9101101577
C 1.6692282267 -1.1673718224 -3.1775703514
C 2.8312264392 -1.5814363101 -4.0216334443
O 0.7064614114 -0.5345372827 -3.5788184012
C 0.4747460644 -2.4753978421 -0.0572906907
C 0.2638001073 -2.2868229199 1.4290000687
C 1.1831430116 -3.7797165114 -0.3713297229
H -0.6540000818 -2.6412673518 -1.9517969646
H -1.8997610991 -1.3564735905 0.4453745370
H -2.8899099859 -2.6011849033 -2.0480925338
H -6.1272191721 -1.7873129096 -1.9216378739
H -5.0272182760 -3.1503471403 -2.2353761719
H -6.7317980421 -2.7985822592 -0.0141208213
H -5.7303241403 -0.3949333489 -0.0071702236
H -4.9640832571 -1.3520439485 1.2349139881
H -3.4714230908 -0.0582407038 2.4958082068
H -5.6976878255 4.2505666824 0.5033575479
H -4.3952804703 4.4768565108 1.6651179742
H -4.1378204400 4.9105030054 -0.0404615307
H -2.7385628593 3.0384744753 -1.2695350968
H -3.6486028404 0.5709158430 -1.4772339472
H -0.6864557077 0.0998600819 -2.6031651800
H -0.6851345202 0.4501426079 0.9943322804
H 0.6431746396 2.5471220987 0.4598866957
H -1.0982942686 2.7927062188 0.5473743695
H -0.2943964574 2.6961040433 -1.0371883003
H 1.1759234980 0.7268205679 -1.3720448115
H 2.4744761300 -0.0414769436 2.7235319042
H 3.9306032508 0.0066151939 4.7158991887
H 6.2380125668 0.9375494589 4.5127414553
H 7.0564244083 1.7888440394 2.3799805872
H 5.0928644178 1.8122154292 -0.6870057038
H 7.8300363530 1.6798048558 0.1663663242
H 7.1552441702 2.7209247584 -1.1028467031
H 7.2008084080 3.2919360247 0.5772447227
H 2.7663008141 -1.1078512986 -5.0001365083
H 3.7692346932 -1.3159419829 -3.5273795885
H 2.8159919058 -2.6703297296 -4.1372216653
H -0.4010175283 -3.0719298898 1.8065617267
H -0.1639921620 -1.3224793234 1.7000945072
H 1.2242219659 -2.3772826597 1.9469109780
H 1.2429314098 -3.9730899487 -1.4436847248
H 2.1998470028 -3.7744289379 0.0366831031
H 0.6334094416 -4.6030364383 0.0970291750
