60
CONF20
C -1.3781714137 1.5214212765 -1.5106312467
Si -1.4050055673 1.9344627200 0.3095495672
C -2.5401852364 3.3619869611 0.6990916218
O 0.1059885153 2.3122411367 0.8388771322
Si 1.5286843482 2.8877808101 0.2529608451
C 2.7640791297 2.8460074633 1.6468361350
C 1.2833242623 4.6052651121 -0.4298034550
O 2.0464468990 1.9476538672 -0.9950846996
Si 2.4556954670 0.3997218322 -1.3629441303
C 2.2114209355 0.1761721809 -3.1938085373
C 4.2241991914 0.1031820365 -0.8390832936
O 1.4469241374 -0.6353546723 -0.5774555912
Si 1.3315629199 -1.7663937982 0.6154722911
C 1.3035434566 -0.9398618561 2.2822448832
C 2.7262396020 -2.9986408703 0.4662084956
O -0.0797672571 -2.5798909064 0.4118102417
Si -1.3796070836 -2.7572308617 -0.5820947676
C -0.8724121363 -2.6020861274 -2.3680011932
C -2.1315637963 -4.4190775537 -0.2015580812
O -2.4840705766 -1.5790623558 -0.2567321820
Si -2.9130060994 -0.6540943277 1.0376460947
C -2.7885153392 -1.6332831816 2.6176497669
C -4.6402296658 -0.0309950581 0.7106997354
O -1.8793288881 0.6187833506 1.1743734897
H -0.7509983351 0.6395260306 -1.6726269735
H -2.3823169668 1.2912065155 -1.8829183785
H -0.9722082459 2.3443161224 -2.1088426440
H -2.2237663278 4.2722421673 0.1780784049
H -2.5351897988 3.5699156014 1.7742625098
H -3.5716883888 3.1450932592 0.4015213374
H 2.8362586894 1.8384396737 2.0686152451
H 2.4653318589 3.5207009225 2.4557353306
H 3.7595981925 3.1451198437 1.3027829834
H 0.8951523813 5.2822287962 0.3383287909
H 2.2239190145 5.0205707463 -0.8059974983
H 0.5702586907 4.5936663528 -1.2613857846
H 2.8600676631 0.8504173471 -3.7624044085
H 1.1754294715 0.3972038488 -3.4718858235
H 2.4319162994 -0.8510532994 -3.5022570736
H 4.8884059660 0.8375808927 -1.3070449163
H 4.3365460956 0.2013648446 0.2466654382
H 4.5696950150 -0.8951487899 -1.1267014585
H 2.2761820287 -0.4973030193 2.5232120512
H 1.0660947822 -1.6636834042 3.0693715801
H 0.5486122008 -0.1467213984 2.3024607964
H 3.6979574615 -2.5441408288 0.6839886405
H 2.5776854602 -3.8256302859 1.1687043949
H 2.7673567545 -3.4214450326 -0.5436476879
H -0.1656636154 -3.3925290231 -2.6431067160
H -1.7408297412 -2.6789348055 -3.0304116703
H -0.3869384382 -1.6388418726 -2.5515574139
H -1.4347469231 -5.2310929607 -0.4338990747
H -3.0475598557 -4.5807321311 -0.7789752593
H -2.3844768535 -4.4900077634 0.8616961660
H -1.7716940200 -2.0183032387 2.7481925798
H -3.0253933601 -1.0067718312 3.4837815982
H -3.4782656856 -2.4838264651 2.6157384322
H -4.9679072215 0.6570104714 1.4970058444
H -5.3547309117 -0.8593269953 0.6635881968
H -4.6883389397 0.5001835262 -0.2462900686
