21
CONF1
C 2.4588716413 -0.9054037004 0.0115202346
C 1.3198910578 -0.0940179663 0.6302598200
C 0.0170968076 -0.2932417469 -0.1071969218
C -1.1599633503 0.5175690529 0.5024997294
C -2.5609442596 0.3431096527 -0.1574508496
F -2.9939801176 -0.9181453015 -0.0407973771
F -2.5276258182 0.6748571270 -1.4543647734
F -3.4351753968 1.1513830592 0.4659605000
F -0.8456645001 1.8373428082 0.4383805699
F -1.2899670346 0.1681499344 1.8099486883
F -0.3452745049 -1.6154842622 -0.1043252858
F 0.1432609600 0.0848689846 -1.4181617371
C 3.7817147930 -0.6289460729 0.7192211906
O 4.1564412251 0.7493111466 0.6731208535
H 2.2391492272 -1.9774643799 0.0758824393
H 2.5562132345 -0.6625185715 -1.0537437071
H 1.5656117598 0.9717649754 0.6154995302
H 1.1669456845 -0.3844404105 1.6748369937
H 4.5707144195 -1.2664323337 0.2936326246
H 3.6995184484 -0.8718032293 1.7844445311
H 4.3570997170 0.9736483731 -0.2424206440
