26
CONF42
C -3.4422820342 -0.3521978648 -0.5039668527
C -2.2962088848 -0.2895661663 0.5001736450
C -0.9571844851 0.0224454121 -0.1739651755
C 0.2218681461 -0.0314806443 0.8197277820
C 1.6020131574 0.3632370948 0.2628824797
C 2.1557868995 -0.4085536357 -0.9264102832
O 1.5145681209 -0.0464574052 -2.1592554227
O 1.6107598735 1.7382282970 -0.1253374324
O 0.0560532452 0.8870185408 1.9071386592
O -0.8211927664 -0.9789808838 -1.1729517781
O -2.5839451517 0.7358156667 1.4597155347
O -4.6923690595 -0.4533894019 0.2027699090
H -3.4889347563 0.5876374347 -1.0644800647
H -3.3015084649 -1.1788747198 -1.2055167279
H -2.2088005629 -1.2672885528 1.0090740303
H -1.0172308656 1.0347280193 -0.6090948431
H 0.2887570870 -1.0701856693 1.1895687024
H 2.3007717321 0.2065638861 1.1031088341
H 2.0113847495 -1.4843286481 -0.7907711600
H 3.2319426980 -0.2043238303 -1.0047625033
H 1.1233711449 2.2042531563 0.5702391189
H -0.0849490030 -0.7025441749 -1.7540176268
H 1.4842356107 0.9220218811 -2.1576170496
H -4.8155108851 -1.3746515832 0.4575428434
H -0.8933025441 0.9617158228 2.1004842930
H -3.5222544019 0.6430084887 1.6807346362
