51
CONF53
C 5.9211501736 1.4104680097 0.4911665013
C 5.3564200585 0.5028903467 1.5505673610
C 6.0766620979 0.0154805379 2.5927383591
C 7.5197408424 0.2300429310 2.8941908392
O 8.2418873655 -1.0247994847 2.9150530850
C 3.9576579358 0.1392731467 1.4553529733
C 3.0851480600 0.5606524064 0.4993114283
C 1.7140477216 0.1620591628 0.4750592772
C 0.7492322632 0.5245149326 -0.4299449528
C 1.0171375427 1.4413760208 -1.5903211816
C -0.5809910415 -0.0058983132 -0.2506071494
C -1.6410839220 0.2732410734 -1.0570694241
C -3.0276348561 -0.1531488508 -0.9769583602
C -3.9210645070 0.4332043718 -1.8313684374
C -3.5335000337 1.4039824610 -2.9211551340
C -5.4062295797 0.2142603180 -1.7561211416
C -5.8587125258 -0.4880162645 -0.4868261129
C -4.9269961378 -1.6594501696 -0.2304355124
C -3.4714203883 -1.2218734390 0.0377801681
C -3.3784824542 -0.6896500021 1.4823619731
C -2.6208881491 -2.5014361987 -0.1057892756
H 5.7387889958 0.9926842762 -0.5047624044
H 5.4296224834 2.3895421343 0.5221709475
H 6.9933323472 1.5681645219 0.6029949488
H 5.5626815076 -0.6388443520 3.2974039698
H 7.9948257060 0.9306617159 2.1981186543
H 7.6379465215 0.6354176019 3.9060380478
H 8.1006280877 -1.4425418651 2.0556136584
H 3.5843174652 -0.5280855118 2.2325972883
H 3.4431912402 1.2316042229 -0.2761864327
H 1.4056572497 -0.5102542525 1.2767532135
H 0.3828560734 2.3337660210 -1.5328615479
H 2.0548875066 1.7699731423 -1.6321604539
H 0.7813696457 0.9441703999 -2.5383051508
H -0.6940629722 -0.6558384839 0.6093506216
H -1.4338836404 0.9598730228 -1.8704959446
H -4.3415813183 1.4717105786 -3.6554473261
H -2.6231266761 1.1187007255 -3.4541938562
H -3.3805420369 2.4145391255 -2.5197871951
H -5.8999158515 1.1905812777 -1.8638427294
H -5.7181985900 -0.3631564582 -2.6420328795
H -5.8329144892 0.2138476562 0.3551487442
H -6.8951586526 -0.8281856045 -0.5871172777
H -4.9431539164 -2.3156956471 -1.1124053535
H -5.2659832510 -2.2615557980 0.6213041682
H -2.3746974114 -0.3437941879 1.7351671901
H -4.0623297129 0.1506709285 1.6347057666
H -3.6507454202 -1.4839953748 2.1869620755
H -3.0684269091 -3.2977303872 0.5001616579
H -2.6096274270 -2.8349754121 -1.1490000484
H -1.5878390261 -2.3784280491 0.2202296114
