53
CONF26
C -2.3995961679 4.7348426705 -0.3286455760
C -0.9460851650 4.3346018938 -0.4146768848
O -0.8405953373 2.9440435740 0.0006437997
C 0.4177943985 2.4367301357 0.0054479412
O 1.3872509872 3.1051058741 -0.3435564576
C 0.4559911288 1.0546959933 0.4602389864
C 1.6560111843 0.4071108057 0.5494217599
N 1.7100552617 -0.8598984895 1.0544228063
C 0.6556760845 -1.4828779304 1.6753308121
C -0.5800937391 -0.9015653315 1.6409378968
C -0.8450540967 0.3164106825 0.7585534475
C -1.5306992547 -0.1025588842 -0.5435324616
C -0.8320746997 -0.9462709825 -1.4180519193
C -1.3702804774 -1.3796647635 -2.6212984888
C -2.6499724365 -0.9704582661 -2.9897689922
C -3.3733651609 -0.1351433531 -2.1486313822
C -2.8120325294 0.2858059954 -0.9436071375
Cl -3.8138339700 1.3414196682 0.0541944262
C -1.6819229221 -1.4864699052 2.3957835376
O -1.6327998379 -2.4519003457 3.1488170647
O -2.8397921850 -0.8116139995 2.1732167252
C -3.9956737189 -1.3041471958 2.8787431527
C 1.0266764964 -2.7602519777 2.3654910119
C 3.0080046348 0.9981570237 0.1816043023
O 4.0864301903 0.1019953260 0.4268899781
C 4.6474213582 -0.5057371163 -0.7466995357
C 3.8104851082 -1.6487545304 -1.2975083896
N 3.6559183435 -2.6976071213 -0.2766816310
H -2.4949157865 5.7878903663 -0.6101595582
H -2.7805056147 4.6132140066 0.6893616394
H -3.0139084175 4.1366286688 -1.0061112211
H -0.3180888296 4.9430155524 0.2442676923
H -0.5596745501 4.4252896992 -1.4350786486
H 2.5947191166 -1.3685638718 0.9728953262
H -1.5164422969 0.9929110621 1.2872025593
H 0.1663351618 -1.2675473682 -1.1354064812
H -0.7949413603 -2.0330458978 -3.2691496573
H -3.0888842866 -1.2973519292 -3.9268488075
H -4.3710512249 0.1920269241 -2.4195765317
H -4.8154275289 -0.6507327906 2.5800729889
H -4.2073105423 -2.3379815726 2.5928299244
H -3.8377116678 -1.2507318132 3.9593641640
H 2.0382433848 -3.0603070263 2.0818108605
H 0.9891199557 -2.6323129496 3.4511168998
H 0.3249482749 -3.5578997926 2.1184108889
H 2.9955237938 1.3307151658 -0.8626015611
H 3.1715627366 1.8894176768 0.7961918822
H 4.8052857439 0.2532700318 -1.5260327803
H 5.6273027331 -0.8829404327 -0.4319063146
H 2.8134590503 -1.2801921020 -1.5755750700
H 4.2921276486 -1.9962691875 -2.2263713124
H 4.5563113057 -3.1312394757 -0.0954562521
H 3.0500796064 -3.4332607965 -0.6251413276
