42
CONF113
C -5.0749369940 1.8875711613 3.4882204352
C -4.7670239836 2.5147529849 2.1307945952
C -3.9905144337 1.5780340669 1.2399568504
O -4.7692253263 0.4379582624 0.9121761105
C -4.1568145089 -0.0857864248 -0.2625890415
C -3.6106298075 1.1686472194 -0.9891427811
O -3.6981638890 2.2063262876 -0.0097884702
C -2.1948217086 1.0196964721 -1.5132827905
O -1.3561518342 0.6329430112 -0.4290109732
C -0.0209602188 0.4792351984 -0.6731236111
C 0.5800384524 0.6421333678 -1.9210431140
C 1.9561797870 0.4527582758 -2.0519950945
C 2.7197874158 0.1152255784 -0.9476778076
C 2.1240352083 -0.0413586619 0.3032562958
C 0.7581150092 0.1357612345 0.4374834234
O 4.0955104158 0.0220435429 -1.0977915506
C 4.7124716484 -1.1745154682 -0.8029666719
C 4.0382447467 -2.3935614599 -0.7599064280
C 4.7581715364 -3.5552489073 -0.4941284038
C 6.1314428593 -3.5104554607 -0.2772409197
C 6.7911632746 -2.2841777255 -0.3299289638
C 6.0886744204 -1.1147769177 -0.5888638783
H -4.1547380301 1.5986419601 4.0071470713
H -5.6917772106 0.9927282975 3.3720264854
H -5.6120233342 2.5929508849 4.1279221429
H -4.1692995830 3.4250049911 2.2504403957
H -5.6870794971 2.7902170168 1.6041956082
H -3.0426055201 1.2530621484 1.7094546015
H -3.3406994919 -0.7751948240 -0.0047912797
H -4.9186740936 -0.6138367626 -0.8407768796
H -4.2504072514 1.4509981945 -1.8365050587
H -1.8569243681 1.9774869733 -1.9328103866
H -2.1750884781 0.2564737656 -2.3089273235
H 0.0007559090 0.9122551489 -2.7948654582
H 2.4413109859 0.5750082221 -3.0142377681
H 2.7362444122 -0.3001582802 1.1608472138
H 0.2722695104 0.0246714136 1.4007596612
H 2.9691537994 -2.4324470830 -0.9348503775
H 4.2338510682 -4.5052497789 -0.4626152652
H 6.6831420714 -4.4210468941 -0.0710524145
H 7.8625811092 -2.2350339580 -0.1632366064
H 6.5854171878 -0.1516851853 -0.6315314721
