51
CONF223
C 5.2819047006 -0.4502383707 3.9179346217
C 4.3761943891 -0.2298617500 2.7373620392
C 4.7819489298 -0.5645021128 1.4428885913
C 3.9264986874 -0.3962881720 0.3566942811
C 2.6428816031 0.1176300207 0.5327416431
C 2.2333497672 0.4592970312 1.8229141064
C 3.0874391228 0.2878328098 2.9072493664
C 1.7372255281 0.3425932263 -0.6653292858
C 1.7548532666 1.8047783876 -1.1115299786
N 0.3570946655 -0.0498336292 -0.3865695047
C -0.0285951109 -1.3398665542 -0.3135437989
O 0.7339157266 -2.2869337438 -0.5144741140
C -1.4910246854 -1.5754829622 0.0978582946
C -1.6507874919 -1.5284504131 1.6348152062
C -3.0462552631 -2.0117600019 2.0410975902
C -0.5772508389 -2.3572806681 2.3409845084
N -2.3961573869 -0.6101460139 -0.5061720004
C -2.5221200748 -0.5180356635 -1.8542638015
O -1.9362855657 -1.2419998005 -2.6484924849
O -3.3824633365 0.4742195691 -2.1900977998
C -3.5200533318 0.7636308882 -3.6218040832
C -2.3613617690 1.6372440121 -4.0676575509
C -4.8678100053 1.4383742605 -3.7743536525
H 5.1405135228 0.3256174659 4.6759084625
H 5.0694529746 -1.4147905391 4.3945673298
H 6.3323304219 -0.4562354759 3.6152954540
H 5.7776586422 -0.9703513106 1.2834328588
H 4.2601528531 -0.6726640215 -0.6406701576
H 2.7490971348 0.5581110410 3.9045147535
H 2.0995689095 -0.2888342084 -1.4851025141
H 1.3829482109 2.4540224810 -0.3110634580
H 2.7782735640 2.1065929664 -1.3470464260
H 1.1320519771 1.9438466980 -2.0010406078
H 1.2349268378 0.8576845827 1.9838523519
H -1.7327569287 -2.5864547762 -0.2545894338
H -1.5302590899 -0.4778121716 1.9395692185
H -3.1731629694 -3.0649039505 1.7654533892
H -3.1704003056 -1.9269922906 3.1249113022
H -3.8463358718 -1.4374918837 1.5654112194
H 0.4283762239 -1.9680743366 2.1592952033
H -0.7569050464 -2.3450225712 3.4201939663
H -0.6063178623 -3.3985497005 2.0014947099
H -2.8874414211 0.0532814791 0.0740035816
H -3.5053153872 -0.1921203806 -4.1544271576
H -2.4561954587 1.8562242219 -5.1356772166
H -2.3671281372 2.5839733342 -3.5175051219
H -1.4053332170 1.1332588786 -3.9033711955
H -5.6728566984 0.7859649433 -3.4255971062
H -5.0401740727 1.6699151809 -4.8292891992
H -4.8961189737 2.3734473493 -3.2058727252
H -0.3237977411 0.6735622315 -0.2042261774
