39
CONF9
C -0.5145259977 -2.0743343073 -2.4201113977
C 0.2135231004 -0.8897474766 -1.7759815098
C -0.5620255198 0.4163554015 -2.0357944130
C -1.7009454633 0.6509912006 -1.0345522396
C -1.2506167056 1.4989453380 0.1744801958
C 0.1196897420 1.1660783558 0.7209585699
C 0.8425472181 0.0576307495 0.5387820079
C 0.4352466172 -1.1697446115 -0.2675581791
C 1.5970120209 -2.1657158250 -0.0350088381
C 2.8067193896 -1.2665116477 0.2261770151
C 2.2318697761 -0.1634954995 1.1253658973
C 3.1100626735 1.0756248264 1.2418316861
C -2.2778705619 1.4968391838 1.2960962413
C -2.9032711708 2.6206970495 1.6621934768
C -2.5387011174 0.1837099719 1.9790782466
H -0.0211941659 -3.0262019772 -2.1999927432
H -0.5578361802 -1.9593675163 -3.5082880678
H -1.5438460790 -2.1390196824 -2.0462038517
H 1.2028712629 -0.7956543887 -2.2465688914
H 0.1228358444 1.2715465127 -1.9985525584
H -0.9586853835 0.3817530346 -3.0573814921
H -2.1124881592 -0.3092427368 -0.7073756350
H -2.5290107117 1.1853748956 -1.5140566011
H -1.1850344960 2.5369426149 -0.1834046245
H 0.5447018317 1.9586922383 1.3379220794
H -0.5017520209 -1.5789679864 0.1307985076
H 1.3981930632 -2.7769101728 0.8534332450
H 1.7413787737 -2.8457124641 -0.8795109084
H 3.1586242105 -0.8204690833 -0.7143534346
H 3.6497428198 -1.7921794991 0.6858262864
H 2.1027233525 -0.5989594438 2.1301441612
H 4.1057111095 0.8047601913 1.6093570210
H 3.2232228483 1.5552972716 0.2628708873
H 2.6905552553 1.8118282649 1.9341915628
H -2.7050932110 3.5644161513 1.1602018060
H -3.6297099943 2.6268199213 2.4709793848
H -3.1807008933 0.3137046572 2.8536864324
H -3.0271385930 -0.5253766809 1.3005133443
H -1.5967850933 -0.2803959423 2.2940678513
