119
CONF690
C -7.4811730271 -1.6631129056 5.2000174538
C -7.8181424742 -0.4664799776 4.3122422615
C -9.3271679035 -0.2153814505 4.2846579697
C -7.2927863651 -0.6901979258 2.8788962888
C -7.6210874174 0.5280298812 2.0045706845
O -7.1409525151 1.6301331661 2.2943015548
N -8.4080266758 0.3603773088 0.9204304557
C -8.7155417080 1.5020162022 0.0307099519
C -9.3567242834 0.8230894087 -1.1581093229
C -8.6152762512 0.7167318546 -2.4635132912
C -9.8500179285 1.5841147627 -2.3431919957
C -10.0653751877 -0.3803502543 -0.5796504077
C -9.0462316630 -0.8901862149 0.4629736397
C -8.0412958168 -1.8375074983 -0.1268621242
N -8.2816741407 -3.1042783219 -0.4294655975
C -7.1095843830 -3.5826072727 -0.9594746305
C -6.1375836063 -2.5978887754 -0.9724116207
N -6.7656440617 -1.4906583638 -0.4344102023
C -4.7362697842 -2.6236601626 -1.3422085205
C -3.8424520645 -1.6265266385 -0.8990131046
C -2.5145762204 -1.7307390409 -1.2468641098
C -2.0179338462 -2.7915366262 -2.0181220136
C -2.8930034871 -3.7776116618 -2.4628536163
C -4.2387108621 -3.6812635150 -2.1268645720
C -0.5730520723 -2.6177113298 -2.1945344803
C -0.1672612411 -1.4558882493 -1.5193038104
C -1.3739531420 -0.8119979627 -0.8821357261
F -1.5791621843 0.4771024531 -1.3420291094
F -1.2317089341 -0.6789214674 0.4882264616
C 1.1434336725 -1.0329351070 -1.5029948066
C 2.1100555214 -1.7951141417 -2.1883721374
C 1.6999445734 -2.9540680862 -2.8674753413
C 0.3712343221 -3.3739717117 -2.8782699196
C 3.5269715137 -1.3828748841 -2.1841182666
C 4.0876482452 -0.8296465784 -1.0272538443
C 5.4201128937 -0.4499890474 -1.0872865053
C 6.2107267371 -0.5899141823 -2.2515914358
C 5.6454638025 -1.1456142063 -3.4005243250
C 4.3156729468 -1.5354351387 -3.3494085666
N 7.4867527071 -0.1008037252 -2.0227568925
C 7.4722917349 0.3091154467 -0.7695030214
N 6.2635686977 0.1146595706 -0.1556366345
C 8.6526419670 0.9154282805 -0.0727680117
C 9.6570532331 -0.1309588839 0.4809874846
C 10.9110882796 0.6361712520 0.9584379014
C 10.4262525452 1.3479675626 2.2612975397
C 8.9445102915 0.9363706543 2.3180432402
C 8.9905706178 -0.5091496663 1.8133348109
N 8.2727618051 1.6087729620 1.1771065704
C 7.6332768022 2.7924167420 1.2971972973
O 7.4460374319 3.3361202149 2.3911680847
C 7.0861777886 3.4520367113 0.0212593754
C 7.6914951998 4.8620742876 -0.1338402933
C 9.2175280710 4.7671326694 -0.2023050366
C 7.1352065778 5.5608619686 -1.3730281494
N 5.6327135905 3.4672289455 0.1611825383
C 4.7168669991 3.1092914406 -0.7734340999
O 3.5056594279 3.1246306128 -0.5863242128
O 5.2948797969 2.7343614443 -1.9396953530
C 4.3728645626 2.3513879994 -2.9839849266
N -5.8474663459 -0.8566696528 2.8264850527
C -5.2554449434 -2.0490833002 2.5724003321
O -5.8342240418 -3.1140875039 2.4109118951
O -3.9034734376 -1.9041849614 2.5243399698
C -3.1722462457 -3.1229639161 2.2678178110
H -6.4050740376 -1.8581662186 5.2244573087
H -7.8154303576 -1.4772774566 6.2255170579
H -7.9854744214 -2.5655857659 4.8354983709
H -7.3153206808 0.4276841024 4.7039838436
H -9.7046831972 -0.0618268864 5.2999549748
H -9.5858280195 0.6698765032 3.6939009893
H -9.8524326924 -1.0787521017 3.8583804829
H -7.7294676291 -1.6118391278 2.4854408700
H -9.4101190700 2.1873153611 0.5363006068
H -7.8041803382 2.0529245207 -0.2182179296
H -7.6543677674 1.2162055338 -2.5409462351
H -8.7024065397 -0.2140741699 -3.0157798767
H -10.7624045449 1.2366619622 -2.8179003158
H -9.7105738622 2.6609455450 -2.3439960746
H -10.9826478359 -0.0762267756 -0.0615841258
H -10.3100777515 -1.1460638987 -1.3180056436
H -9.5622274296 -1.3984720256 1.2837318582
H -7.0075788356 -4.6139286617 -1.2680683073
H -6.3716193953 -0.5670480790 -0.3353246288
H -4.1756534032 -0.8068186968 -0.2703134317
H -2.5412220928 -4.6079238796 -3.0667381161
H -4.9265266808 -4.4412507488 -2.4824367666
H 1.4264074987 -0.1171536585 -0.9925358205
H 2.4453388005 -3.5549529435 -3.3786549977
H 0.0891272840 -4.2805655649 -3.4041247654
H 3.5092467714 -0.7216892109 -0.1157242466
H 6.2262329434 -1.2540382449 -4.3109149645
H 3.8523815831 -1.9425008882 -4.2423204080
H 6.0265130723 0.3851656685 0.7872141139
H 9.1597610627 1.5830973339 -0.7782155216
H 9.8492100238 -0.9346621124 -0.2304305922
H 11.7197194322 -0.0685674639 1.1698554231
H 11.2680154052 1.3404204712 0.2014361700
H 10.9534181870 0.9778921792 3.1456324701
H 10.5387089625 2.4343422074 2.2242554838
H 8.4229031086 1.1382581501 3.2520725937
H 9.6292270915 -1.1395436471 2.4368377388
H 8.0052284886 -0.9707489473 1.7090268674
H 7.3264723522 2.8711000936 -0.8705760797
H 7.4098021454 5.4337703783 0.7601309433
H 9.6563760912 5.7642225528 -0.3029868901
H 9.6406915410 4.3039667555 0.6954257220
H 9.5271227479 4.1748117209 -1.0721089751
H 7.4179712223 5.0169910821 -2.2817759513
H 7.5399500829 6.5752750127 -1.4446825549
H 6.0441096120 5.6339968959 -1.3421263487
H 5.2553833039 3.7899986868 1.0403610587
H 3.7314755618 3.1948610532 -3.2517575987
H 5.0016744920 2.0654576372 -3.8267162329
H 3.7616875772 1.5037007289 -2.6640313031
H -5.2679460544 -0.0399957742 2.9577759537
H -2.1236020567 -2.8274780587 2.2454454488
H -3.3489153919 -3.8500506857 3.0646214265
H -3.4646117661 -3.5492778607 1.3043287481
