42
CONF54
C -2.3520663779 -1.4874733069 0.0730676302
C -2.6392467674 -0.0452290092 -0.3601256589
C -1.9370975649 1.0018907430 0.5079877006
C -1.9716853043 2.3988835302 -0.1103482290
C -1.4228776645 3.5049420353 0.7982435165
C -0.0553136504 3.1918029628 1.4120260338
C 1.0006539258 2.8842913686 0.3804764147
O 1.0495021318 3.3477780944 -0.7355398995
O 1.9253505161 2.0203245532 0.8793130990
C 3.0069058490 1.6683240138 -0.0132496561
C 2.6258013844 0.5285982305 -0.9226234551
O 2.4401821876 -0.6460481207 -0.0982762605
C 2.1079565123 -1.7742100031 -0.7769696741
O 1.9958192978 -1.8146103017 -1.9799762393
C 1.9438890141 -2.9537252267 0.1517079287
C 0.7681781403 -3.8601090755 -0.2362690347
C -0.5919085944 -3.3325570453 0.2299623785
C -0.9473388773 -1.9503854440 -0.3155463478
H -3.0863087932 -2.1647196568 -0.3815902243
H -2.4832562297 -1.5750816037 1.1612374601
H -3.7196847543 0.1451684643 -0.3404569141
H -2.3245383121 0.0812912533 -1.4057944705
H -2.4030374105 1.0178101609 1.5041085234
H -0.8927258085 0.7022381568 0.6648483563
H -3.0049031357 2.6520365782 -0.3813285762
H -1.4027593337 2.3868500706 -1.0478282659
H -1.3553775105 4.4369908641 0.2277825198
H -2.1216779063 3.6828392247 1.6248688813
H 0.3074334407 4.0624736470 1.9749020706
H -0.1055295472 2.3649694217 2.1253715007
H 3.2851993473 2.5366956656 -0.6181390383
H 3.8337209575 1.3822387910 0.6412139528
H 3.4228017687 0.3433840621 -1.6521093462
H 1.7030101634 0.7433335432 -1.4706035450
H 2.8827599000 -3.5177951110 0.0757198774
H 1.8606799708 -2.6048437326 1.1857151985
H 0.7718763060 -3.9846801208 -1.3251572529
H 0.9350373504 -4.8508589977 0.2005817647
H -1.3672483961 -4.0502993467 -0.0693200765
H -0.6105604815 -3.3008576208 1.3286558638
H -0.8562074703 -1.9521334263 -1.4098102049
H -0.2154078869 -1.2195379680 0.0513234015
