33
CONF66
C 5.1336246884 1.0700343842 0.9283048758
C 5.4398699628 1.9127056571 -0.3132330966
O 5.8927157356 1.1492934916 -1.4324117276
C 3.9729562506 0.1073334397 0.8335697794
C 2.5998726768 0.7508581421 0.4603753999
C 1.3442374658 -0.1317401072 0.7829204598
C 0.0560079823 0.3118611811 0.0007671426
C -1.2700783074 -0.2453995190 0.6325180978
C -2.4853909246 -0.2129533964 -0.3610877171
C -3.8725745313 -0.3262167761 0.3602352813
C -5.0487693518 -0.7331643214 -0.5882249397
F -6.2071281399 -0.5559161754 0.0605168899
F -5.0461622953 0.0333807397 -1.6878928150
F -4.9530611465 -2.0173176097 -0.9472588538
F -4.1794563516 0.8697426805 0.9055174715
F -3.7960739027 -1.2546959210 1.3414125469
F -2.4602922969 0.9503030568 -1.0507772112
F -2.3622067393 -1.2414533108 -1.2300457306
F -1.5787805136 0.5008017166 1.7171727739
F -1.0690767988 -1.5255467658 1.0176120105
F -0.0105626990 1.6623574793 -0.0072817710
F 0.1481192926 -0.1347382444 -1.2727779788
F 1.0873530191 -0.0513606497 2.1099869659
F 1.6105465493 -1.4180467266 0.4628805382
F 2.4742978386 1.9209199210 1.1328811449
F 2.6018082297 1.0183017268 -0.8747759077
F 4.2215529941 -0.8759665933 -0.0893437293
F 3.8049142601 -0.5201884084 2.0458947746
H 6.0037310763 0.4543271176 1.1824177432
H 4.9389396022 1.7398600612 1.7718789140
H 6.2656709132 2.5781556145 -0.0473685041
H 4.5857870698 2.5450882142 -0.5854282535
H 5.1340097810 0.7136311463 -1.8392671570
