21
CONF45
C 2.4130387790 -0.5940000375 -0.3907817970
C 1.1210514446 -0.1123874486 0.2734944086
C 0.0310270072 0.1447385773 -0.7376479369
C -1.2728574420 0.7997931999 -0.1905421055
C -2.0000835390 0.0513982655 0.9637693454
F -3.1621937159 0.6616504009 1.2298327540
F -1.2512598184 0.0651680517 2.0821504860
F -2.2488451895 -1.2236845310 0.6335231622
F -2.1580511375 0.9243211555 -1.2071217471
F -0.9662603733 2.0396664134 0.2738498653
F -0.3308870367 -1.0174812197 -1.3681549256
F 0.4731716158 1.0013099255 -1.7125002216
C 3.4792309165 -0.9112309937 0.6417644782
O 3.7479789622 0.2877845514 1.3750177841
H 2.2199418843 -1.4950511087 -0.9831985930
H 2.7920538557 0.1754288752 -1.0703910272
H 1.3027492737 0.8081155844 0.8349808289
H 0.7578026924 -0.8661277082 0.9801346999
H 4.3851323113 -1.2706542276 0.1309195995
H 3.1270651894 -1.7095438195 1.3154615457
H 4.4141282980 0.0948932434 2.0421857948
