30
CONF1
C 3.4066800598 4.5265361357 0.1430217393
C 2.0136064940 4.6530907120 0.2054510505
C 1.2038207993 3.5359022544 0.1320062293
C 1.7487008687 2.2459237299 -0.0071217370
C 3.1611871850 2.1247007960 -0.0696172377
C 3.9685933385 3.2748141985 0.0073422658
C 3.7483678465 0.8283219874 -0.2101916666
C 2.9958148601 -0.2949526473 -0.2865870195
C 1.5652514984 -0.2396717529 -0.2305910096
C 0.7519852708 -1.3738200547 -0.3080411190
C -0.6547619274 -1.3329190181 -0.2545816138
C -1.2648054525 -0.0318629586 -0.1109165663
C -0.4578991565 1.1061817685 -0.0337007283
C 0.9255243084 1.0444074734 -0.0887202028
C -2.6877819207 0.0160943800 -0.0547157815
C -3.4672826070 -1.1045969769 -0.1318342990
C -2.8485413686 -2.3648204619 -0.2731715666
C -1.4863223215 -2.4796254805 -0.3330607698
Br -3.5796552993 1.7030692422 0.1375859397
Br 1.5910536261 -3.0940093844 -0.4986091754
H 4.0373864023 5.4073267714 0.2013006288
H 1.5630697993 5.6343408168 0.3123532129
H 0.1308720126 3.6746836216 0.1842411161
H 5.0473661445 3.1579741073 -0.0426228276
H 4.8313839092 0.7576801167 -0.2556465145
H 3.4740750515 -1.2596813359 -0.3929427769
H -0.9548906444 2.0593359043 0.0722369155
H -4.5464986814 -1.0259260176 -0.0849859521
H -3.4707053374 -3.2513264684 -0.3344073930
H -1.0286229689 -3.4538727899 -0.4411956643
