47
CONF16
C -0.4112931102 0.8802480878 2.8638768138
C -0.6484614071 1.6307720263 1.5736698061
C -1.8436603192 2.5463267654 1.4281688687
C -1.8622250466 1.1771027274 0.7556928095
C -1.7631357679 1.0989754724 -0.7071066367
O -1.4569086030 1.9820277483 -1.4777475326
O -2.0306463928 -0.1825205121 -1.1190462958
C -1.7418277724 -0.4322671618 -2.5104320116
C -2.3872066618 -1.7091387411 -2.8197518968
N -2.8665031038 -2.7221255567 -3.0979916413
C -0.2473582187 -0.5115488391 -2.7780274973
C 0.2448083497 -0.1431652780 -4.0260705375
C 1.6156927816 -0.2257475469 -4.2636858008
C 2.4821750162 -0.6649382409 -3.2714642710
C 1.9694525318 -1.0261346645 -2.0245847272
C 0.6023683977 -0.9599967845 -1.7691270703
O 2.8941625039 -1.3957119322 -1.0760504551
C 2.4594317729 -2.0375509155 0.0804351493
C 1.8451048408 -3.2843591207 0.0099242649
C 1.4879337928 -3.9251620354 1.1925174490
C 1.7518895986 -3.3298110500 2.4259283624
C 2.3781803307 -2.0869357631 2.4757734049
C 2.7328838740 -1.4299142768 1.2989355660
C -2.7776994994 2.7960047445 2.5286020456
C -3.3326789294 3.9742748463 2.8130800684
Cl -4.4369546208 4.1849964638 4.1484043747
Cl -3.0377031085 5.4375928484 1.9135352627
C 0.6239389476 2.0385239589 0.8671608661
H 0.0997751763 1.5293382770 3.5836197667
H 0.2342463146 0.0170531569 2.6686713866
H -1.3344377765 0.5156402537 3.3184570856
H -1.6891485601 3.3695200821 0.7373012365
H -2.4574507883 0.3977915984 1.2193919552
H -2.1937980097 0.3450170780 -3.1384942423
H -0.4302297161 0.2115675893 -4.7983008577
H 2.0143481128 0.0626583331 -5.2308634278
H 3.5517353063 -0.7235575037 -3.4430615765
H 0.2067652629 -1.2326391844 -0.7976109991
H 1.6511535256 -3.7398414364 -0.9560254091
H 1.0082312940 -4.8978538469 1.1482122698
H 1.4734704276 -3.8363854840 3.3442033313
H 2.5889213774 -1.6196565963 3.4325856968
H 3.2180996557 -0.4596495671 1.3174440592
H -3.0525520210 1.9662159557 3.1728065227
H 0.4303260535 2.6290550131 -0.0296778952
H 1.1996882981 1.1499840738 0.5837684713
H 1.2370964774 2.6359252232 1.5499996780
