48
CONF132
C 0.3009702244 2.9894624398 2.8661305212
O -0.5414397955 1.8201401933 2.8201393396
N -0.9603233394 1.6141825059 1.5253191699
C -1.7141715671 0.5697047756 1.4039109972
C -2.0772563121 -0.3438540605 2.5126991514
C -3.4096538243 -0.4747015312 2.9157200407
C -3.7583156907 -1.2941206285 3.9830949348
C -2.7742923290 -2.0091387127 4.6611647361
C -1.4429500320 -1.9034058662 4.2715484651
C -1.1104426268 -1.0775580303 3.2091652193
O 0.2517116603 -0.9381182492 2.9293574985
C 0.6828061761 -1.1181108747 1.6622241671
C 1.8326373176 -0.4428144894 1.2745829097
C 2.2468837036 -0.6023991087 -0.0418630144
N 1.5999500709 -1.3956229901 -0.8884306496
C 0.5272476239 -2.0251140791 -0.4045525213
N 0.0362023591 -1.9295200319 0.8299100572
O 3.3448387002 0.0865482922 -0.4317633971
C 3.5931085925 0.1807155350 -1.8003787106
C 4.6653068110 -0.5166895361 -2.3341382931
C 4.9774400297 -0.3668089481 -3.6819808097
C 4.2148251234 0.4770906159 -4.4849377502
C 3.1405564509 1.1813652627 -3.9477957201
C 2.8354323557 1.0347487907 -2.6001749461
Cl 1.4997782188 1.9203384569 -1.8985628692
F 2.4811982352 0.3772954097 2.1143363591
C -2.2266269839 0.3147955265 0.0482233631
N -2.9524243596 -0.7445128210 -0.1178916269
O -3.4741378578 -0.9875783791 -1.3888099245
C -3.4611245911 0.1482518295 -2.2806668531
C -2.0989970742 0.7842076506 -2.2414213936
O -1.8471644297 1.2162692918 -0.8812761860
H 1.1770785349 2.8524153075 2.2254866049
H -0.2616389688 3.8766121669 2.5598442483
H 0.6069283602 3.0771577066 3.9096684820
H -4.1714134606 0.0873977918 2.3862926927
H -4.7973980897 -1.3728068731 4.2843527006
H -3.0389603456 -2.6535663396 5.4929282294
H -0.6579511463 -2.4527790154 4.7799059676
H -0.0009178897 -2.6846537231 -1.0905340617
H 5.2395468647 -1.1699298738 -1.6857592531
H 5.8156234284 -0.9120831994 -4.1019439851
H 4.4536501762 0.5958838268 -5.5363568225
H 2.5452549900 1.8453524168 -4.5644798381
H -3.6963640681 -0.2514590150 -3.2692425534
H -4.2324022143 0.8638069959 -1.9681002228
H -1.3190852278 0.0730106012 -2.5354625519
H -2.0435238685 1.6805931030 -2.8607566158
