52
CONF132
C 1.3423682199 -2.3598539320 -2.0116649535
C 1.5820187014 -0.9059334683 -1.6728603474
C 2.7651232544 -0.2960463425 -2.4270698971
C 2.9954383960 1.1454804508 -1.9801847249
C 3.1256518324 1.2344748981 -0.4519939937
C 2.0666352484 0.4163123584 0.2891755408
O 1.8631505624 -0.8590381711 -0.2462585985
O 0.8447784280 1.1957533580 0.3009888377
C -0.0428150323 0.7913116316 1.2660243120
C -1.2185268519 0.1822441943 0.9162750784
O -2.0983817483 -0.2462427710 1.8654398393
C -1.8357125271 -0.0910476399 3.1957075761
C -2.7772687790 -0.5958995317 4.0782356780
C -2.5394986234 -0.4200827659 5.4423436092
C -1.3985264674 0.2383374214 5.9180262308
C -0.4730813292 0.7323398282 5.0144669398
C -0.6752069661 0.5722325345 3.6154255708
C 0.2756272883 1.0607935496 2.6517470915
O 1.3250254451 1.6714502412 2.9919863319
O 0.6274206385 1.3632360201 5.4591294298
O -3.4039878983 -0.8749511433 6.3815833835
C -1.6977078465 -0.0901357892 -0.4343753632
C -1.4930203758 0.8378570554 -1.4653843312
C -1.9323259363 0.5621758561 -2.7484389860
C -2.5888645700 -0.6514614449 -3.0183812112
C -2.8089212482 -1.5659349536 -1.9929867803
C -2.3736014281 -1.2874344359 -0.7038484973
O -2.9743571116 -0.8395780310 -4.3101877255
O -1.7150860401 1.4784087826 -3.7344204895
O 4.3743347382 0.6749490211 -0.0327173600
O 1.8814737074 1.9044211447 -2.4639789903
O 2.5643891473 -0.3544833351 -3.8387692056
H 1.0952707407 -2.4591993233 -3.0710829950
H 2.2364453174 -2.9565211893 -1.8008696242
H 0.5080236578 -2.7502155676 -1.4215932251
H 0.6803455767 -0.3149728158 -1.8768457528
H 3.6638727038 -0.8836563729 -2.2077261067
H 3.9287095784 1.5168207060 -2.4310223714
H 3.0375988577 2.2843609191 -0.1375976401
H 2.3981330661 0.2515379616 1.3185788966
H -3.6646655765 -1.0999392019 3.7115360575
H -1.2435952545 0.3588976788 6.9841446462
H 1.1366624229 1.6260818766 4.6381000156
H -4.1570733849 -1.3093689593 5.9564558869
H -0.9895544300 1.7779164908 -1.2771660364
H -3.3170206215 -2.5006560174 -2.2137056692
H -2.5362309258 -2.0116759130 0.0858041815
H -3.4188985931 -1.6930217421 -4.4075819035
H -2.0854308032 1.1419429142 -4.5636259586
H 5.0818948144 1.1995025667 -0.4294516386
H 2.1139782348 2.8403635892 -2.4292516520
H 1.9449891926 0.3581471314 -4.0561551063
