42
CONF4
C 0.7741333083 0.1066482203 2.4186781733
C 0.0719642427 -1.1244993187 1.8529923248
C -1.1288639789 -1.5402062969 2.7386209000
C -2.2771286859 -0.7522548217 2.1624733773
C -1.9774062896 -0.3389981058 0.8624122276
C -0.6037592422 -0.8325630879 0.4736843134
N 0.0882822517 0.1013877136 -0.3929749491
C 1.1635884498 -0.2125401352 -1.1446218030
N 1.7448451579 0.8172256252 -1.8180138706
C 2.8003445789 0.4568939659 -2.5419488870
N 3.3072097997 -0.7659580582 -2.6746433585
C 2.6293008435 -1.7138196709 -1.9807574421
N 1.5630277040 -1.4918120594 -1.1923190388
N 3.0751958203 -2.9786461371 -2.0813180311
C 3.5198753622 1.5950735578 -3.2349747605
C 4.6261524261 2.1603896628 -2.3668083363
F 4.0862773029 1.1326427516 -4.4413359773
C -2.8831594256 0.3949067782 0.1120965522
C -4.1255555744 0.7369827748 0.6666006522
C -4.4175252947 0.3202087546 1.9692768825
C -3.5040609079 -0.4241872741 2.7210946211
C -5.1187750723 1.5337528014 -0.1361307923
H 0.0747087373 0.9451183315 2.5229730687
H 1.5994581821 0.4299829541 1.7769453832
H 1.1825782685 -0.1181931794 3.4086090127
H 0.7933023315 -1.9410911355 1.7528601589
H -1.3260259101 -2.6162618807 2.6389807650
H -0.9559368748 -1.3375688001 3.8006400150
H -0.7006624861 -1.7806232404 -0.0723139812
H -0.1093688728 1.0864583096 -0.2923892401
H 2.5934496845 -3.7220762690 -1.6048392218
H 3.8545224603 -3.1874106271 -2.6818829205
H 2.7893226906 2.3657694773 -3.5013424289
H 5.3496407149 1.3774476236 -2.1216181966
H 5.1322156166 2.9739718618 -2.8929481797
H 4.2003483715 2.5533978633 -1.4392529621
H -2.6383005818 0.7110906564 -0.8997478041
H -5.3755064171 0.5889242358 2.4065443703
H -3.7530368201 -0.7302796401 3.7336487489
H -4.6739446497 2.4666663696 -0.4982896579
H -5.4498567897 0.9719825416 -1.0168290608
H -6.0008689240 1.7820663997 0.4588628462
