31
CONF4
F 1.5432410641 -1.6261614445 1.1247818650
C 1.7588787539 -0.7129312894 0.1503735191
F 2.1483559809 0.4474865333 0.7208320691
C 0.4557050908 -0.4978153885 -0.6759078871
F 0.7925081386 0.0767123764 -1.8511409805
F -0.1076869602 -1.7031954222 -0.9068780076
C -0.5939493665 0.4177170884 0.0468585394
F -0.1888304970 1.7031619228 -0.0519311932
F -0.6405191195 0.0672351398 1.3539556884
C -2.0388225547 0.2949970867 -0.5528795120
F -1.9516741875 0.2437580597 -1.9005742903
F -2.5981298436 -0.8507987122 -0.1019577082
C -2.9703115960 1.4932264305 -0.1657559080
F -2.7935339810 1.7958665852 1.1419284156
F -2.6418109119 2.5640853513 -0.9181133734
C -4.4932832600 1.2108249208 -0.3831917939
F -5.1661169064 2.3623230913 -0.2556256528
F -4.9563315620 0.3442381189 0.5235485524
F -4.7049733893 0.7182353821 -1.6115478127
S 3.2188439923 -1.3614884495 -0.9210575331
O 3.8306503987 -0.1827015109 -1.5222317325
O 2.6808247819 -2.4890829137 -1.6754354828
N 4.2763374340 -1.9797836302 0.2030093350
C 4.9705811458 -1.0894633637 1.1564947584
C 6.2392546644 -1.7693402028 1.6506614789
H 3.9331950682 -2.8543518137 0.5893834407
H 5.2127938485 -0.1687659010 0.6188737786
H 4.3182817306 -0.8290280463 2.0011856640
H 6.0130268207 -2.7038231412 2.1742411125
H 6.7594903161 -1.1118780702 2.3527492546
H 6.9086415931 -1.9926426250 0.8163882188
