49
CONF90
C -3.1790339453 -0.1721659895 4.6275232785
C -3.4506965369 -0.6419330260 3.2139502590
C -2.4195464953 -0.3610212619 2.0968650791
C -3.7944672112 0.3437405795 2.1384389224
C -4.7474527068 -0.0445765365 1.0239081134
C -3.8783421954 1.8225837535 2.4513678136
C -1.1631544981 0.3422086972 2.3381525282
O -0.9236041037 1.2573326400 3.1008236676
O -0.1753421814 -0.1920699927 1.5303858428
C 1.1184837288 0.4476998474 1.6354654565
C 1.7281092272 0.1236011225 2.9320062223
N 2.2259450148 -0.1482904898 3.9381718951
C 1.9673043446 -0.0444579268 0.4881329597
C 2.4057647039 -1.3689650750 0.4475818081
C 3.1513047192 -1.8049402425 -0.6418027791
C 3.4659489151 -0.9385419650 -1.6857121003
C 3.0154555143 0.3788551242 -1.6315070633
C 2.2667222300 0.8336964985 -0.5481673457
O 3.3311354103 1.3190513523 -2.5873880136
C 3.5396604385 0.9072424781 -3.8982273065
C 2.6097983035 0.1085772248 -4.5590439140
C 2.8287628982 -0.2121609848 -5.8953546349
C 3.9551916881 0.2672131326 -6.5633505935
C 4.8682636666 1.0736525670 -5.8877996004
C 4.6670142789 1.3958699413 -4.5473650941
C -4.0568363650 -2.0321248042 3.1961991419
H -4.1282264498 -0.1154481081 5.1727732404
H -2.6914496572 0.7990322486 4.6780334859
H -2.5409502268 -0.8984573335 5.1428567131
H -2.3355159895 -1.1449665304 1.3516672390
H -4.6234823617 -1.0769056794 0.6952770449
H -5.7829713470 0.0890426167 1.3582171635
H -4.5871356735 0.6067350796 0.1582340198
H -3.7016899178 2.4052599899 1.5406576428
H -3.1646676222 2.1503094288 3.2040280091
H -4.8897138921 2.0543721201 2.8047893850
H 0.9979293570 1.5355841030 1.5888124808
H 2.1671405184 -2.0508064722 1.2577863463
H 3.5040872919 -2.8304151447 -0.6793564022
H 4.0584787535 -1.2817743627 -2.5264385500
H 1.9275668777 1.8643691878 -0.5273201430
H 1.7312481212 -0.2529054871 -4.0344459172
H 2.1082635271 -0.8332185235 -6.4183911645
H 4.1174192192 0.0155218810 -7.6062252108
H 5.7463039146 1.4524913424 -6.4013965175
H 5.3691751507 2.0194317748 -4.0038896664
H -3.4339627389 -2.7138333265 3.7849240534
H -4.1514965008 -2.4464923780 2.1919939302
H -5.0527395672 -2.0070032865 3.6538272927
