42
CONF50
C 3.2438822648 1.4761246112 0.1612265412
C 1.9080318556 0.7586426016 0.3081515731
C 1.9793378503 -0.3463646289 1.3889730431
C 0.8248240717 -1.3034699919 1.3200888622
C 0.7334607459 -2.2679663880 0.3032411973
C -0.3235088288 -3.1557112419 0.1670832607
C -1.3456902011 -3.0915879370 1.1028705756
C -1.3271855538 -2.1739690854 2.1412597558
C -0.2446226880 -1.3037798787 2.2264154587
Cl -0.2630479368 -0.1697744429 3.5662212598
Cl -2.6817790120 -4.2134720271 0.9753635154
Cl 2.0207939272 -2.3965828153 -0.8861408841
N 0.8266466563 1.7185015331 0.5807906761
C -0.5160522131 1.5509318075 0.3277493148
O -1.3808296118 2.1602873548 0.9634842075
C -0.9171248227 0.6494938280 -0.7702419272
C -0.3248953822 0.3136174613 -1.9823587507
N -1.1774973061 -0.5163343872 -2.6169163073
N -2.2952170031 -0.7538784415 -1.9126428544
C -2.1538362514 -0.0396325724 -0.7957730356
C -3.2440005160 0.0014704838 0.2200631613
F -3.9579261790 -1.1749818025 0.2153178766
F -4.1575267695 0.9951280473 -0.1091781901
C -0.9827102886 -1.1532882529 -3.9130871972
O 1.0971479419 2.5005348347 1.7140395107
C 1.1939278379 3.8939872445 1.3505377537
H 3.1837736872 2.2498684879 -0.6086856565
H 3.5543869599 1.9332624448 1.1044383614
H 4.0029809001 0.7482157492 -0.1368592127
H 1.6657154432 0.2950079634 -0.6455028772
H 2.9100877334 -0.8988507290 1.2296116339
H 2.0417925286 0.1198804506 2.3734368358
H -0.3429489888 -3.8790890773 -0.6381302010
H -2.1279115198 -2.1347038064 2.8689895040
H 0.6009712469 0.6199424746 -2.4468454433
H -2.8938128058 0.1972382331 1.2360139897
H -0.0459307256 -0.7902152418 -4.3367577638
H -1.8128162870 -0.8981866494 -4.5757338987
H -0.9333410991 -2.2376971098 -3.7848308249
H 0.2477346140 4.2491202674 0.9309218437
H 2.0123673994 4.0563452083 0.6422119206
H 1.4023481357 4.4119350339 2.2892356824
