55
CONF236
C 4.5688599679 -4.2682876826 -0.9780414816
O 4.9404652411 -2.8976275929 -1.1854566728
C 4.0332041134 -1.9406695593 -0.8487000717
C 4.4368289488 -0.6169508503 -1.0595791182
C 3.5813246202 0.4249864204 -0.7405992090
C 2.3062201662 0.1816652768 -0.2147988284
C 1.9197389199 -1.1424846650 -0.0053992196
C 2.7677615311 -2.2027753060 -0.3146606176
C 1.4010759638 1.3533810745 0.0547460438
S 0.6594779232 1.1774543684 1.7520296338
C -0.7296132032 2.2927101443 1.6595574653
C -0.7581405828 3.4222125636 2.4820082531
C -1.8687192738 4.2581018895 2.4950827378
C -2.9511001242 3.9856104042 1.6616082302
C -2.9264635890 2.8758452316 0.8260189718
C -1.8273278993 2.0149015043 0.8249325259
N -1.8556335360 0.8604551453 -0.0081772441
C -2.9327489273 -0.1211305855 0.2059294671
C -2.5416775876 -1.0927482808 1.3224370614
N -3.5777706025 -2.1000647728 1.5552692115
C -3.3640822185 -2.7453306633 2.8544415311
C -3.5693148432 -3.1182690484 0.4990865773
C -0.8474257960 0.5263024142 -0.8680304579
O -0.8498875171 -0.5151376475 -1.5191643392
C 0.2793193046 1.5507782154 -0.9948110751
O 0.8280738123 1.3882414697 -2.3159890492
C 1.4862915920 2.4556309751 -2.8383517713
C 2.0542079825 2.1170613055 -4.1805315272
O 1.5980241341 3.5184131446 -2.2646241139
H 5.4250497537 -4.8581885431 -1.3056777399
H 3.6888312009 -4.5308610023 -1.5762538171
H 4.3691367598 -4.4640410696 0.0817283503
H 5.4238295120 -0.4237240152 -1.4674023029
H 3.9062320917 1.4491466074 -0.9054517251
H 0.9411385667 -1.3620961158 0.4089610198
H 2.4330036189 -3.2168054456 -0.1341744970
H 2.0008273222 2.2678354419 0.0481100798
H 0.0963384832 3.6342968340 3.1158834597
H -1.8819945914 5.1266685665 3.1451693897
H -3.8128527702 4.6448038234 1.6505581936
H -3.7607131337 2.6736304608 0.1621254151
H -3.1048036528 -0.6372463699 -0.7396087716
H -3.8435319788 0.4143970153 0.4831953406
H -1.5643050895 -1.5541246109 1.0790109421
H -2.4058589579 -0.5141388858 2.2445507897
H -4.1502023605 -3.4871032232 3.0293864805
H -3.4086238211 -1.9982010080 3.6533079393
H -2.3862389324 -3.2604505118 2.9136479570
H -2.6008378370 -3.6515870273 0.4444521850
H -4.3559254476 -3.8535556221 0.6956965770
H -3.7676046152 -2.6677838304 -0.4771908373
H -0.1155958902 2.5659921629 -0.9001397693
H 1.3150056443 1.5956920980 -4.7928299268
H 2.3951120919 3.0251893254 -4.6759707746
H 2.9036137192 1.4399813493 -4.0373172625
