42
CONF20
C -1.1854697700 -1.8407469866 3.1880739092
C -0.7899282079 -1.9613008380 1.7194611752
C 0.3895121557 -1.0660296396 1.3517816862
C 0.8282998882 -1.3620060212 -0.0871246838
O 1.5574819245 -2.3189364495 -0.3189747658
N 0.3150947284 -0.5337328462 -1.0273947573
C 0.5029659040 -0.7553165779 -2.4577125836
C -0.7164591894 -1.3695585239 -3.1044799895
C -1.4228946359 -0.6907443997 -4.0954432570
C -2.5519658322 -1.2629342655 -4.6778082753
C -2.9842096288 -2.5192940306 -4.2684470234
C -2.2824020265 -3.2037880467 -3.2772917216
C -1.1550445180 -2.6336580935 -2.6992705539
O -0.0369478390 0.2928461349 1.5426863057
C 0.9261230677 1.2655452920 1.5947750548
C 0.4660373168 2.5372577208 1.9394755885
C 1.3495998604 3.6053835912 2.0146887010
C 2.6988104434 3.3834042066 1.7430041509
C 3.1665165516 2.1307180348 1.4007103066
C 2.2792771083 1.0597598526 1.3211773643
F 3.5659309388 4.4116635827 1.8124934541
C 0.8735322222 4.9821880508 2.3862425597
F 1.1143199152 5.8777341360 1.4010892371
F 1.4856489796 5.4401272222 3.5016174018
F -0.4575451799 5.0023240613 2.6251727442
H -1.4878452926 -0.8194171161 3.4323393221
H -2.0217810998 -2.5071851745 3.4160185765
H -0.3498052496 -2.1140173720 3.8407269224
H -1.6350527228 -1.7076795003 1.0672650040
H -0.4946404513 -2.9886785144 1.4811376881
H 1.2420974144 -1.2876414808 2.0074941114
H -0.3392265441 0.1731584449 -0.7253769967
H 0.7474920243 0.1975116465 -2.9399197574
H 1.3659161572 -1.4216287156 -2.5568738623
H -1.0876639561 0.2920882619 -4.4164506020
H -3.0937484297 -0.7247703286 -5.4490529396
H -3.8635156324 -2.9666800186 -4.7203438776
H -2.6122870373 -4.1881330397 -2.9604320015
H -0.5997535171 -3.1684077244 -1.9332777290
H -0.5866844127 2.6775900637 2.1519579333
H 4.2216556557 1.9968803092 1.1916251990
H 2.6585587317 0.0861044885 1.0353532992
