45
CONF168
C -6.8364528778 -0.0526965573 -1.3547994258
C -8.2705959918 -0.5424825102 -1.5922446577
O -8.4789272264 -0.8266996343 -2.9756814075
C -6.5526116492 0.1773481475 0.1064812172
C -5.1628703709 0.8062716360 0.4491627363
C -3.9213037647 0.0532794381 -0.1328957191
C -2.5680662395 0.4450804308 0.5608490790
C -1.3046552549 0.0665851186 -0.2986681374
C 0.0150357569 0.0056692087 0.5593133356
C 1.3374516532 0.0042708995 -0.2857863056
C 2.6534581922 -0.0320894093 0.5798446922
C 3.9236575976 -0.4171738340 -0.2662862391
C 5.2676799064 0.0065014436 0.4259951098
C 6.5184020621 -0.7461540719 -0.1456834675
C 7.8813779103 -0.0554931475 0.1929196858
F 8.0338851550 1.0719787365 -0.5086543625
F 7.9469221501 0.2268633847 1.5016209708
F 8.8789703988 -0.8924377015 -0.1206313612
F 6.4219489414 -0.8244552201 -1.4929947938
F 6.5504769454 -1.9933040817 0.3693576717
F 5.1844875629 -0.2555495386 1.7498531604
F 5.4414686489 1.3357545303 0.2505400601
F 3.9279914642 -1.7578612244 -0.4412163550
F 3.8580933882 0.1847716671 -1.4739043983
F 2.8368410508 1.1972076584 1.1140633521
F 2.5302735333 -0.9292730765 1.5790162772
F 1.3161677333 -1.0792848878 -1.0979141320
F 1.3817855761 1.1254371595 -1.0357873950
F 0.0486917059 1.0768822326 1.3877676102
F -0.0330226440 -1.1268370793 1.2923169726
F -1.1796181654 0.9817369500 -1.2816592515
F -1.4957624245 -1.1515416144 -0.8561034078
F -2.5012852431 -0.1870083236 1.7534297152
F -2.5508110992 1.7810158125 0.7686955176
F -3.8334083097 0.3405206837 -1.4555497553
F -4.0995833291 -1.2797604208 0.0110567463
F -5.1504435563 2.0748033109 -0.0304652809
F -5.0402161312 0.8561912691 1.8012430019
F -7.4677172219 1.0526253053 0.6454864341
F -6.6665396693 -0.9847188156 0.8229754789
H -6.6656026467 0.8870231273 -1.8916174355
H -6.1333791691 -0.7989164429 -1.7367225338
H -8.4410346284 -1.4818862695 -1.0594769813
H -8.9937104993 0.1978249238 -1.2290938978
H -8.4838603081 0.0116587781 -3.4543279124
