52
CONF48
C -2.9546073194 -3.5784128950 0.0215257603
C -2.3104320778 -2.6720512384 1.0351782701
C -2.4896441548 -1.2853736945 0.9340232772
C -1.8929448610 -0.4325146473 1.8618565927
C -1.1280182220 -0.9544417885 2.9125486938
C -0.9553379137 -2.3265020682 3.0090439965
C -1.5368867098 -3.1868348323 2.0749663536
O -1.9876866604 0.9289165663 1.8246208399
C -2.6242254701 1.5382746831 0.6936252370
C -2.3324977608 3.0375214960 0.7619593068
C -0.8402963862 3.3562586588 0.6878932429
N -0.3374536309 3.0521083948 -0.6587188356
C 1.0465694683 3.4818470267 -0.8846506585
C 2.1096180733 2.7016476875 -0.0757053385
C 2.0589075009 1.2277792420 -0.3789528917
C 2.6738487169 0.7319794156 -1.5405805122
C 2.5773196393 -0.6099326091 -1.8881506675
C 1.8383086172 -1.4960357274 -1.0671811783
C 1.2258157885 -1.0073133775 0.0790845473
C 1.3377532396 0.3461657463 0.4182433278
O 1.7951154811 -2.7941948829 -1.4866440891
C 1.0472619824 -3.7088066352 -0.6762937259
O 3.1519528252 -1.1732581556 -2.9889843354
C 3.9010178804 -0.3078133209 -3.8511510212
O -3.0381303758 3.6811006935 -0.3031543606
H -2.6808150607 -4.6217437828 0.1954386809
H -4.0464890342 -3.4979369376 0.0643347073
H -2.6515848182 -3.3062311336 -0.9953984941
H -3.0945065806 -0.8929412600 0.1239239796
H -0.6711629486 -0.2741130207 3.6240866344
H -0.3540690834 -2.7327391677 3.8170832177
H -1.3870194947 -4.2593839002 2.1550034171
H -2.2362248494 1.1111303600 -0.2413652711
H -3.7086787853 1.3698007473 0.7269328025
H -2.7317595774 3.4294374062 1.7052662991
H -0.7054857230 4.4310854577 0.8623725871
H -0.3231783397 2.8208798278 1.4989050266
H -0.3692728315 2.0451070541 -0.8057891231
H 1.1205202006 4.5507673445 -0.6492204951
H 1.2684615770 3.3646952918 -1.9531922395
H 1.9561428157 2.8681735003 0.9957705749
H 3.0945207472 3.1095009784 -0.3322934746
H 3.2343610197 1.4158978622 -2.1684031805
H 0.6515484446 -1.6663083334 0.7203574968
H 0.8499622042 0.7022544064 1.3211503395
H -0.0056859364 -3.4090231032 -0.6134224464
H 1.1271166143 -4.6771087732 -1.1714891498
H 1.4668826402 -3.7736950468 0.3350445342
H 3.2645054570 0.4844713843 -4.2627552046
H 4.7491917763 0.1395975761 -3.3195764872
H 4.2671213674 -0.9419402755 -4.6590817613
H -2.4197288840 3.6602528315 -1.0540689936
