22
CONF3
C -3.4700234749 -0.2389615839 -1.5510301973
N -3.1011554661 0.1638077363 -0.1881474948
S -2.2580303905 1.5591148398 0.1097060631
O -2.7608655170 2.5866981290 -0.7960722995
O -2.1603234462 1.7103066220 1.5575437096
C -0.4592530554 1.2801806790 -0.5121949327
C 0.3945772205 0.3663079406 0.4145584221
C 1.6922927281 -0.1855976464 -0.2673766942
C 2.7545938190 -0.7443144316 0.7342949165
F 2.1809588150 -1.6008511719 1.5919800616
F 3.3326939851 0.2454020882 1.4207033894
F 3.7005603512 -1.3940914622 0.0424685854
F 1.3512571569 -1.1894444088 -1.1058087204
F 2.2799047962 0.8044582825 -0.9770821150
F -0.3647998566 -0.7031482145 0.7831703570
F 0.7385139006 1.0606970146 1.5154832079
F -0.5417753056 0.7202355931 -1.7451012291
F 0.1177436218 2.4869334251 -0.6141269899
H -2.6963239478 -0.8413858014 -2.0391205130
H -3.6560399127 0.6595663985 -2.1417240546
H -4.3999197950 -0.8118194621 -1.4957507780
H -2.8524113647 -0.5745708399 0.4601120097
