39
CONF140
C 7.8081998607 2.3692508163 -2.1391205263
C 6.4249074021 2.3545743124 -1.4912755977
C 6.3461323689 1.4069437135 -0.2942899373
C 4.9669424701 1.4056371354 0.3652139709
C 4.8405699098 0.4357261033 1.5521342572
C 4.7416567247 -1.0273420480 1.0942797143
C 4.9320718673 -2.0504395764 2.2124259657
C 3.6862258944 0.8342069717 2.4630276335
O 2.4385807112 0.8653599318 1.6931387887
C 1.5379829409 -0.1000189906 1.9035998391
O 1.6081047368 -0.9729750857 2.7408010601
C 0.4271468089 0.0098166212 0.9018444846
C 0.7912583799 0.1405618188 -0.4346418579
C -0.1708051845 0.1417450882 -1.4313268497
C -1.5266379983 0.0323966395 -1.1099441149
C -1.9030355455 -0.0710957629 0.2407124564
C -0.9246328206 -0.0876339447 1.2431381402
Br -1.4246690462 -0.1570152045 3.0739713103
Br -3.7374818020 -0.1871022970 0.6998882967
Br -2.8287595996 0.0308120003 -2.4810329478
Br 0.4342376364 0.3011151064 -3.2253050601
H 8.0818255157 1.3703048174 -2.4967239611
H 7.8446199246 3.0536689635 -2.9925404339
H 8.5720657789 2.6863334481 -1.4204446803
H 6.1573286347 3.3689697269 -1.1667097328
H 5.6716888416 2.0586497227 -2.2335043159
H 6.6115887275 0.3946120145 -0.6254189590
H 7.1010760724 1.6981996081 0.4495625439
H 4.2034408087 1.1563816088 -0.3845119213
H 4.7429181349 2.4254257777 0.7070935713
H 5.7405565435 0.5412100117 2.1786593490
H 5.4984534635 -1.2006374485 0.3214783968
H 3.7714711501 -1.1828266775 0.6015429551
H 5.9050972227 -1.9172556440 2.6982111873
H 4.1556932278 -1.9651280699 2.9786057275
H 4.8912513462 -3.0696748846 1.8159953282
H 3.8117247285 1.8573108730 2.8258811032
H 3.5625510988 0.1560901567 3.3090298221
H 1.8394115040 0.2240093422 -0.6940922329
