52
CONF90
C 1.3170288508 -2.4238763804 -1.8267103023
C 1.5222120161 -0.9516239778 -1.5520450596
C 2.5861144204 -0.3105272464 -2.4453261923
C 2.8559671889 1.1371063413 -2.0215596846
C 3.1965948107 1.2081262808 -0.5275846682
C 2.1812579051 0.4377636338 0.3160435771
O 1.9217596920 -0.8490272577 -0.1541023456
O 0.9772271290 1.2627874224 0.3361994416
C 0.0534258218 0.8663781140 1.2753472025
C -1.1409286714 0.3326638415 0.8821562189
O -2.0552888362 -0.1090656338 1.7876401988
C -1.8088111902 -0.0278308677 3.1295248057
C -2.7861658439 -0.5330330529 3.9708422730
C -2.5656003890 -0.4340680119 5.3456359248
C -1.4064248646 0.1507638553 5.8703011220
C -0.4444851025 0.6470719414 5.0071010181
C -0.6274076937 0.5637989837 3.5983711340
C 0.3634948150 1.0553036175 2.6767554306
O 1.4325674451 1.5990518522 3.0605868127
O 0.6725038608 1.2068249434 5.5024971206
O -3.4650693438 -0.8962175356 6.2466673743
C -1.5870606958 0.1614991453 -0.4975225317
C -2.1155018240 -1.0720005407 -0.9017657853
C -2.4745768606 -1.2717504599 -2.2243582581
C -2.3275593780 -0.2257132383 -3.1543196648
C -1.8394607597 1.0100229734 -2.7435196342
C -1.4662348423 1.2060395253 -1.4190926836
O -2.6977396788 -0.5172707554 -4.4306691582
O -2.9537731510 -2.4868489011 -2.6071175785
O 4.4502734873 0.5759984463 -0.2675214028
O 1.7457280400 1.9790515344 -2.3616621884
O 2.1829044669 -0.3559566182 -3.8133317416
H 0.9832525194 -2.5646462477 -2.8573851456
H 2.2511688242 -2.9756321151 -1.6784705974
H 0.5532316649 -2.8294008247 -1.1569059618
H 0.5733310660 -0.4155530009 -1.6888330657
H 3.5161843814 -0.8846060503 -2.3643424309
H 3.7052581711 1.5238816807 -2.5979138508
H 3.2014844627 2.2566971183 -0.1994394808
H 2.5514456061 0.3161493767 1.3373689982
H -3.6876418249 -0.9791651881 3.5654044195
H -1.2651266220 0.2130291186 6.9432705710
H 1.2115030476 1.4866017051 4.7083467830
H -4.2271641571 -1.2780925992 5.7883371407
H -2.2135055857 -1.8926445187 -0.1989625603
H -1.7539062952 1.8168194279 -3.4659871219
H -1.1074523458 2.1776189351 -1.0972168559
H -2.5643208964 0.2515036385 -5.0022126930
H -3.1471591205 -2.4652520933 -3.5561979720
H 5.1406008582 1.1053688999 -0.6874013047
H 1.0506564529 1.8485048110 -1.6985871949
H 1.5311883338 0.3533752429 -3.9263544268
