45
CONF53
C 7.7375973180 0.3565572578 1.0811727116
C 6.2628588152 0.7269088261 0.9327117727
C 5.6506397727 0.1974276617 -0.3636622933
C 4.1760384840 0.5628980800 -0.5300365456
C 3.5751013932 0.0140193453 -1.8247981639
C 2.1331291714 0.4565749598 -2.0873438643
C 1.1308472892 -0.0414603058 -1.0467080918
C -0.3159332851 0.3232673944 -1.4200122575
C -1.3218150748 -0.1470102579 -0.4029233691
C -1.7721753841 -1.4692225932 -0.4565107942
N -2.6603446043 -1.8390268847 0.5109790904
C -3.0878843327 -0.9702815870 1.5036154310
N -3.9529498682 -1.6301822941 2.2939854678
C -4.0009201155 -2.8603455481 1.7366301212
N -3.2436908528 -3.0621615769 0.6549908194
N -2.6595008789 0.2872463808 1.5840846354
C -1.7919739448 0.6826016074 0.6438987789
C -1.3107545417 2.1128719840 0.7264107126
C -1.7635036332 2.8797202728 1.9623310124
N -1.3894971888 -2.4159491043 -1.3354014996
H 8.1579591856 0.7436940031 2.0148127511
H 8.3272189930 0.7638029443 0.2522035021
H 7.8680571765 -0.7314236459 1.0791201641
H 6.1508579201 1.8188787757 0.9640314960
H 5.6952010312 0.3332473059 1.7863397026
H 5.7588325568 -0.8962237507 -0.3943856423
H 6.2205078416 0.5876857249 -1.2189677694
H 4.0673076580 1.6570308908 -0.5159642787
H 3.6156113252 0.1838905052 0.3344947294
H 3.6196015252 -1.0841833570 -1.8073916527
H 4.2017834494 0.3354034938 -2.6675479555
H 1.8226316818 0.0932764111 -3.0764142215
H 2.0906720128 1.5541113460 -2.1317622524
H 1.2200353573 -1.1312266088 -0.9419633970
H 1.3566116667 0.3849575105 -0.0622774535
H -0.3923385848 1.4069283204 -1.5425165595
H -0.5514780818 -0.0961006421 -2.4072898236
H -4.6160159887 -3.6608917473 2.1306047029
H -1.6484959644 2.6369250465 -0.1782876107
H -1.3493484589 3.8917865381 1.9366000092
H -1.4217886933 2.3913587930 2.8790193344
H -1.9254079680 -3.2692228294 -1.3857566139
H -0.8758786685 -2.1447914018 -2.1572810900
H -0.2152013376 2.1151318099 0.6692928097
H -2.8524858717 2.9546815971 2.0102675944
