41
CONF25
C -2.5636388211 -1.8244225962 0.1477267649
C -4.0257925814 -1.5866196420 -0.1701089805
O -4.3267801462 -0.1605003115 -0.1318968846
C -4.5740282575 0.3600410766 1.0779597380
O -4.6720522641 -0.2644696061 2.1093657167
C -4.7840521850 1.8750870768 1.0081829362
C -6.2441506580 2.1812265142 0.7137376510
O -4.0155902835 2.4955665551 -0.0223219135
C -2.6596828919 2.3300985386 0.0090560229
C -1.9786490234 2.7229076384 -1.1455660127
C -0.6042065502 2.5657377382 -1.2313643618
C 0.0780616954 2.0168633733 -0.1567349047
C -0.5730317012 1.6527047820 1.0074020857
C -1.9534846576 1.8055698512 1.0947753743
O 1.4780612261 1.8948933576 -0.2579185530
C 2.0061063634 0.6799923519 -0.1899812301
N 3.2496720167 0.4158912569 0.0263114869
C 3.3027752984 -0.9752970728 -0.0635426042
C 2.0213334276 -1.4709130561 -0.3299063944
O 1.1667816385 -0.3909998246 -0.4191614773
C 1.7063333091 -2.8043374239 -0.4663652162
C 2.7905199605 -3.6710560133 -0.3239825885
C 4.0883956542 -3.2254492050 -0.0607677811
C 4.3606183700 -1.8654590033 0.0737114605
Cl 2.5037801546 -5.3947292704 -0.4851949469
H -2.3376059684 -1.5329270024 1.1763348474
H -2.3365599901 -2.8895602256 0.0354573949
H -1.9211937616 -1.2542516673 -0.5296054786
H -4.2705075195 -1.8812678124 -1.1928407979
H -4.6842130498 -2.1053334878 0.5319702601
H -4.5071766458 2.2760004773 1.9922600250
H -6.5218351767 1.7793871703 -0.2638284452
H -6.3984184176 3.2628047734 0.7107413841
H -6.8778723963 1.7327495645 1.4826612779
H -2.5469575688 3.1324037878 -1.9728772728
H -0.0612588901 2.8510637739 -2.1253383083
H -0.0121868122 1.2414900773 1.8401233289
H -2.4542791241 1.5059910827 2.0074346856
H 0.7046457108 -3.1591339730 -0.6715877994
H 5.3648563072 -1.5138203009 0.2794782280
H 4.8850473859 -3.9528841144 0.0381300493
