63
CONF6
C 4.9808037768 0.6295009399 -1.9064992967
O 4.6820698879 1.0896138911 -0.5692559734
C 3.4378456788 1.5395698330 -0.4025189706
O 2.6141293682 1.7129015472 -1.2677032625
O 3.1799764138 1.8701714422 0.8873280773
C 3.8237704194 1.1382069792 1.9478253177
O 3.3442675701 -0.1933582556 1.9682148833
C 1.9983860014 -0.2911589110 2.1549021449
C 1.1947630625 -0.7629048651 1.1482570640
C 1.7106359324 -1.3168067500 -0.1506350550
O 2.9036657089 -1.3622773098 -0.4170495831
N 0.7566738535 -1.8083674306 -1.0149041880
C 1.1562916059 -2.7961667336 -2.0177703038
C 0.8722538714 -4.1853047360 -1.4501459116
O -0.4999933478 -4.3134249932 -1.0661856094
C -0.8696935883 -3.3649339973 -0.0701962331
C -0.6495018236 -1.9518403106 -0.6181367511
N -1.0568453985 -0.9050672039 0.2920008492
N -0.1716356104 -0.8824026972 1.3939568295
C -0.7136728257 -0.5802376227 2.6072763899
C 0.0542063386 -0.1601571700 3.6432963019
C 1.4676692848 0.0757082806 3.4851264184
O 2.2055654169 0.5274032091 4.3672859438
C -1.0732315877 0.4612399778 -0.3734012829
C -1.9967717073 0.4990540105 -1.5662807060
C -3.3563240076 0.1529692547 -1.4734664885
C -3.9495050541 -0.3809705866 -0.2112725534
S -4.1311264911 0.8833481595 1.1128521704
C -2.5884915605 1.7606555501 1.2881646767
C -2.6886153654 2.7900574678 2.2368804262
C -1.6004177138 3.5868018283 2.5520403680
C -0.3851705954 3.3917289664 1.9033141117
C -0.2825340237 2.3871338249 0.9554353360
C -1.3583434955 1.5456283707 0.6408086371
C -4.1483753073 0.3096385447 -2.6053572776
C -3.6227701109 0.7817213653 -3.8026942880
C -2.2857583902 1.1140157233 -3.8977141621
C -1.4793373446 0.9677967601 -2.7738098429
F -4.4343278852 0.8980696077 -4.8649379763
F -5.4541126784 -0.0098055318 -2.5646158302
H 6.0181747557 0.2985773886 -1.8687516848
H 4.8582849628 1.4470252114 -2.6208825915
H 4.3177798595 -0.2002072398 -2.1585542289
H 3.5544198961 1.6780203644 2.8569318909
H 4.8999645016 1.0636248752 1.7945844409
H 2.2178694399 -2.6659957594 -2.2381616491
H 0.5692760567 -2.6303255932 -2.9293768073
H 1.0508172078 -4.9602222720 -2.2008033967
H 1.5273948286 -4.3660223870 -0.5821179086
H -0.2820080189 -3.5122036537 0.8511532803
H -1.9291211080 -3.5316819031 0.1458875373
H -1.2596854654 -1.8438041032 -1.5247038318
H -1.7914868629 -0.6910476922 2.6577728317
H -0.3980341002 0.0445635794 4.6059223264
H -0.0653528467 0.6680528648 -0.7565960611
H -3.3648675928 -1.2161713766 0.1739533986
H -4.9774072686 -0.7113559308 -0.3763381717
H -3.6397255682 2.9595696337 2.7338690238
H -1.7091731089 4.3658342948 3.2995263111
H 0.4752737644 4.0104545096 2.1322041564
H 0.6639223840 2.2298055021 0.4467957149
H -1.8940108196 1.4805023061 -4.8396262515
H -0.4287258894 1.2352562114 -2.8312602035
