52
CONF25
C -0.1521394203 -2.1953163589 -1.6422689302
C -0.8906405737 -2.0203116401 -0.3474608642
C -1.9663254092 -1.2303476158 -0.1905841455
C -2.6425181327 -0.4910831998 -1.2729725079
C -2.5813718857 1.0637911712 -1.3922792920
C -3.8773758172 0.3278812785 -1.0607007324
C -4.5007382838 0.4523349378 0.3102994549
C -4.8966579341 0.3268643278 -2.1819035940
C -1.8040391170 1.8248521411 -0.4109234881
O -1.7080196794 1.6238510051 0.7847773526
O -1.1260945384 2.8297692006 -1.0470342152
C -0.2642084333 3.6410295429 -0.2289875914
C 1.1136886808 3.0505442230 -0.0609030125
C 1.4068939816 1.7325930253 -0.4053020758
C 2.6917550073 1.2458102643 -0.2015680172
C 3.7014633607 2.0359446040 0.3312925950
C 3.4018381525 3.3523307553 0.6723517833
C 2.1200342708 3.8569138921 0.4785015432
O 2.9678509858 -0.0577243965 -0.6025028022
C 3.1172018831 -1.0207215640 0.3738597325
C 2.8255764560 -0.8022635848 1.7194638135
C 2.9825547909 -1.8519405460 2.6233071198
C 3.4186368487 -3.1032428921 2.1977823346
C 3.7013497718 -3.3051515493 0.8465529459
C 3.5548765623 -2.2697941815 -0.0685459003
C -0.3331688607 -2.8079879140 0.8030898276
H -0.5363928077 -1.5664335987 -2.4470715427
H 0.9082931424 -1.9523361379 -1.4978269990
H -0.1875139381 -3.2429712194 -1.9677750619
H -2.3972350119 -1.1551814242 0.8041603537
H -2.5691604537 -0.9476048637 -2.2564800866
H -2.4996023254 1.4396656009 -2.4063390768
H -5.1540099304 -0.4088640366 0.4906054950
H -5.1170401861 1.3569499054 0.3539161242
H -3.7628059793 0.5081286263 1.1089452808
H -4.4170760835 0.2312251890 -3.1603422342
H -5.5894290900 -0.5128093930 -2.0555454665
H -5.4802243550 1.2541123568 -2.1714211841
H -0.2003803488 4.6018294846 -0.7466655254
H -0.7290028984 3.7988691299 0.7503155323
H 0.6591492372 1.0710350513 -0.8297769590
H 4.6949938007 1.6238901202 0.4741567882
H 4.1770306955 3.9900299767 1.0851801293
H 1.8982965639 4.8870816737 0.7433896853
H 2.4742589152 0.1656139929 2.0580599678
H 2.7517233484 -1.6829217713 3.6706555997
H 3.5349070545 -3.9140836994 2.9090169300
H 4.0403559035 -4.2764203784 0.4996353522
H 3.7703036564 -2.4134820390 -1.1223557451
H -0.3527150961 -3.8824352338 0.5779332118
H -0.8946141380 -2.6354863156 1.7251810598
H 0.7174695679 -2.5460251185 0.9783715365
