44
CONF255
C -2.7150905722 -3.0295033427 -3.2348889955
S -3.1237297333 -2.1751868616 -1.7023315001
O -3.4534751029 -3.1929571682 -0.6793333576
O -4.1328701324 -1.1396794037 -2.0142309011
C -1.5995013857 -1.3284150536 -1.1719555225
C -1.6637147623 -0.4669592397 -0.0661065638
C -0.4770862780 0.1813725840 0.3018312415
C 0.7304275687 -0.0448405248 -0.3700169301
C 0.7494649881 -0.9462095530 -1.4334114552
C -0.4128869228 -1.5749227027 -1.8511895869
C 1.9890088696 0.7019711043 -0.0557481146
O 2.0010980330 1.9094114977 0.0700307661
C 3.2561554672 -0.1547797433 0.0602776321
C 3.8455226269 0.0455303950 1.4732448865
O 3.7007474210 -0.8270507136 2.3028975534
C 4.6005653627 1.3216663082 1.6935570497
C 5.6430208568 1.5343726791 0.5849319424
C 5.0000892210 1.5272799458 -0.8112298042
C 4.2566234432 0.2468039707 -1.0406522478
O 4.4110564180 -0.4837866761 -1.9975533531
Cl -0.4932505816 1.2381557774 1.6940442107
C -2.9324116634 -0.2038530310 0.6997947678
O -3.3854737190 1.1062626747 0.3128103985
C -4.3335984567 1.6777964341 1.1878125690
C -5.7517936270 1.2438669783 0.8522734299
F -6.0762893061 1.5173775598 -0.4308914239
F -6.6396954038 1.8930138415 1.6448784637
F -5.9488240828 -0.0858885164 1.0337954514
H -2.3751923144 -2.3069971149 -3.9792318263
H -1.9783825693 -3.8111057807 -3.0416660368
H -3.6672243172 -3.4729832778 -3.5406708825
H 1.6787758658 -1.1387717474 -1.9603462278
H -0.3678651875 -2.2501025344 -2.6949323087
H 3.0072607136 -1.2097991082 -0.0546515405
H 3.8771399198 2.1473920321 1.6632145352
H 5.0607987165 1.2907830561 2.6833392791
H 6.4085117668 0.7525573771 0.6426164418
H 6.1402804953 2.4943766057 0.7427894333
H 5.7435611889 1.6502830987 -1.6015521499
H 4.2757612626 2.3508985095 -0.8718594299
H -3.6936771722 -0.9572778480 0.4920267871
H -2.7223279435 -0.2237500695 1.7770187428
H -4.1403581774 1.4297960294 2.2406161436
H -4.2911496986 2.7638520652 1.0591257403
