37
CONF137
C -1.3996566142 -2.9030124967 -2.6959147668
C -0.5167464295 -1.6879369623 -2.5385694470
O -1.3172423397 -0.5581226393 -2.0500749677
P -1.1820959089 -0.0347757495 -0.5644846798
O -2.0979919775 1.0701491476 -0.2197668333
O -1.2641649592 -1.3580946613 0.3169188107
C -1.6053665545 -1.2851334124 1.7451745243
C -3.0734574412 -1.5850002659 1.9311841030
O 0.3942046170 0.4091117876 -0.5238141985
P 1.3735376331 0.5875059078 0.7703476289
O 1.7078625351 -0.6794036925 1.4498020938
O 2.5734350779 1.4147794384 0.1282032146
C 3.7643770044 0.7173922876 -0.3644871151
C 3.4847959274 -0.0404554315 -1.6431295051
O 0.6337515110 1.6288270204 1.7085947971
C 0.2353557819 2.9592158864 1.2250959548
C -0.8821367402 3.4441725249 2.1135255225
H -1.7997952163 -3.2174916871 -1.7288411840
H -0.8108788054 -3.7256983263 -3.1142793091
H -2.2306789568 -2.6914265671 -3.3739725718
H 0.3124541964 -1.8755138020 -1.8487738941
H -0.1069123163 -1.3537615907 -3.4953029854
H -1.3425010576 -0.2965002270 2.1348037437
H -0.9618465515 -2.0276110718 2.2210993831
H -3.6872930843 -0.8263717167 1.4381893441
H -3.3222999240 -2.5678867776 1.5214270721
H -3.3103895229 -1.5845575704 3.0000617367
H 4.1275601315 0.0556984338 0.4278833041
H 4.4887583313 1.5189679529 -0.5229311124
H 4.4237467346 -0.4530686487 -2.0258838653
H 2.7961382472 -0.8723351389 -1.4678764689
H 3.0581681359 0.6201513270 -2.4029904511
H 1.1196481159 3.6015439988 1.2807524442
H -0.0950103847 2.8776294552 0.1852452086
H -1.1801212881 4.4490941605 1.7992009756
H -1.7475916417 2.7827134776 2.0261629665
H -0.5596154404 3.4872053330 3.1574209395
