34
CONF2
C -3.1352895877 0.4698779960 -1.8149281584
N -2.3238870230 -0.2378844743 -0.8127046438
C -1.7097764313 0.5095265940 0.2166147632
C -0.4075693360 0.2307394174 0.6704459898
C 0.1648225526 1.0270765154 1.6693289485
C -0.5447523480 2.0944097501 2.1849508696
Cl 0.1969573646 3.0895352993 3.4295852349
C -1.8311843585 2.3948445793 1.7487285924
C -2.4021070189 1.5904587115 0.7768718006
N 0.3838496845 -0.8104723880 0.1213015466
C 1.7626753388 -0.5169064297 -0.1623831642
C 2.0575602818 0.4917326372 -1.0763883023
C 3.3868686965 0.8024852611 -1.3457729845
C 4.4115723674 0.1043475387 -0.7100353050
C 4.1050065594 -0.9032403884 0.2028040579
C 2.7786043961 -1.2153219484 0.4847201349
C -0.0967577286 -2.0872065250 -0.0946874950
O 0.5850159250 -2.9728178388 -0.5939584588
C -1.5523476869 -2.2882031362 0.2673610533
C -2.3866759768 -1.6080383414 -0.8014118266
O -3.0335102958 -2.2401545203 -1.6305686896
H -3.0485746336 -0.0574274112 -2.7659349444
H -2.7509241598 1.4845324009 -1.9239722965
H -4.1911345040 0.5039122728 -1.5253599660
H 1.1668255936 0.8061021152 2.0175845781
H -2.3804326850 3.2312345945 2.1642492539
H -3.4089896604 1.8066454785 0.4382358005
H 1.2499414918 1.0261909993 -1.5672730986
H 3.6203332924 1.5876879599 -2.0576591907
H 5.4476650793 0.3467545017 -0.9233968746
H 4.9004758834 -1.4442241717 0.7052630179
H 2.5298747000 -1.9887842873 1.2030647970
H -1.7739925532 -1.8735047559 1.2565961690
H -1.7701435215 -3.3539080065 0.2487287061
