57
CONF74
C -4.9974625202 -2.1493044865 -0.4473990946
Si -4.2059941166 -0.4837204920 -0.1108059660
C -5.4190541827 0.6507968106 0.7493174840
C -3.6117474041 0.2796449315 -1.7192057213
O -2.9244944775 -0.6972596242 0.9167667360
Si -1.3359398698 -1.1131186890 0.8448940015
C -0.7166092057 -1.2171154598 2.5997599777
C -1.1326851202 -2.7110627220 -0.0965505249
O -0.5008433502 0.0392531506 0.0127833424
Si -0.1355467370 1.6405777221 0.1709838812
C -1.4966282984 2.5292432479 1.0851296080
C 0.1392110196 2.3265159485 -1.5398760325
O 1.2338918632 1.7872009423 1.0705964063
Si 2.8588463180 1.6064355940 0.8623055436
C 3.6128325277 3.2750051832 0.5183447182
C 3.5322610394 0.8393240917 2.4237678627
O 3.1569174357 0.6597953259 -0.4459481618
Si 3.2215172687 -0.8918763314 -1.0176085264
C 1.9364428364 -1.0824678040 -2.3639147541
C 2.8858446265 -2.1062818118 0.3723755274
C 4.9400650812 -1.1658676429 -1.7094024640
H -5.2979350965 -2.6342142258 0.4876729774
H -5.8913574098 -2.0427721908 -1.0719589095
H -4.3068770316 -2.8223654357 -0.9669446762
H -5.7567609374 0.2135762805 1.6949378256
H -4.9614312314 1.6196887765 0.9754796061
H -6.3027729696 0.8321741869 0.1279517892
H -4.4326549005 0.3575797282 -2.4408708975
H -2.8184994035 -0.3210243473 -2.1779024440
H -3.2122880598 1.2866428079 -1.5594377881
H -0.8578286899 -0.2607376426 3.1144069000
H 0.3506299240 -1.4579139692 2.6368988807
H -1.2583950117 -1.9837520549 3.1632985107
H -1.4546682911 -2.5898543620 -1.1368726073
H -0.0876843322 -3.0372413429 -0.1119993641
H -1.7310555862 -3.5109389582 0.3521628260
H -2.4373089306 2.4946774307 0.5263692008
H -1.2331079784 3.5802307443 1.2433322541
H -1.6779971436 2.0763426601 2.0653165350
H -0.7411162912 2.1745139652 -2.1730769323
H 0.3486645094 3.4009665506 -1.5020999830
H 0.9896545448 1.8320309015 -2.0203842622
H 3.2192979014 3.6868602172 -0.4171467061
H 4.7011357598 3.2054862680 0.4201592489
H 3.3870342964 3.9836181763 1.3216811295
H 3.0098122211 -0.0927297340 2.6612372569
H 3.3967306998 1.5198229638 3.2711623700
H 4.6014976467 0.6195973870 2.3352472616
H 0.9328163795 -0.8926634084 -1.9688533321
H 1.9540148482 -2.0960810539 -2.7802336793
H 2.1184412628 -0.3816826349 -3.1861162781
H 1.9265639372 -1.8886197562 0.8538690764
H 2.8419415882 -3.1322140423 -0.0105004182
H 3.6672981472 -2.0702361542 1.1385553279
H 5.1606934989 -0.4421782800 -2.5012950311
H 5.7018925550 -1.0522620930 -0.9305655023
H 5.0421684839 -2.1702873695 -2.1348402259
