29
CONF21
C 1.9854275086 -2.7836635471 -1.0646631767
N 2.6688840738 -1.5551418421 -0.6686702556
C 2.1311059962 -0.3247636785 -0.7049824759
O 2.6563618913 0.7062053644 -0.3158565368
O 0.8723767063 -0.3691451301 -1.2774226152
C 0.1315158513 0.8109635965 -1.2482489905
C 0.3539900054 1.7931142405 -2.2011171113
C -0.4426089863 2.9348530466 -2.1912379536
C -1.4454388295 3.0782193773 -1.2351939065
C -1.6570503325 2.0809095365 -0.2867129995
C -0.8664535981 0.9323942567 -0.2823047653
C -1.0569069305 -0.1767634665 0.7111756998
O 0.0520203123 -0.2300113143 1.6119105207
C -0.4389627081 -0.9403457460 2.7671987891
C -1.9790042993 -0.8266371572 2.6567410149
O -2.1857850695 0.0435435104 1.5287464521
H 1.7144952052 -2.7628194728 -2.1244525267
H 2.6690229527 -3.6166543397 -0.8947711804
H 1.0790163129 -2.9432120215 -0.4714104758
H 3.5851980586 -1.6158653403 -0.2548640760
H 1.1411104823 1.6577081455 -2.9354181822
H -0.2786279350 3.7102093593 -2.9326362687
H -2.0681688504 3.9668234343 -1.2296421655
H -2.4404697864 2.1872929932 0.4546776743
H -1.1513241057 -1.1534610047 0.2001036917
H -0.0354433672 -0.4493821930 3.6556981266
H -0.1126792377 -1.9867066103 2.7403094925
H -2.4450272052 -0.3627044793 3.5278133161
H -2.4365749092 -1.8049588191 2.4652305827
