53
CONF51
C -4.1781626608 -2.4539202726 -2.3982814948
O -3.6931857616 -1.5211645777 -1.3916814960
C -3.6381858093 -0.2422077484 -1.7660579982
O -3.9280655589 0.1835181083 -2.8599103618
C -3.2121308494 0.6477083073 -0.5825621681
C -4.4175966373 0.7953354812 0.3799631492
C -4.0952269814 -0.1724323139 1.4923533347
C -2.7529840883 -0.5787165825 1.4430293730
C -2.1357330769 0.0357151107 0.2852416653
N -0.8770035161 0.2303994486 0.1125703610
N -0.5339871398 0.9913162081 -0.9670856757
C -1.5324175648 1.7628849541 -1.7632631217
O -2.7401316469 1.9065917387 -1.0469590373
C 0.7751493103 1.0802007137 -1.3569745827
O 1.1583134853 1.9132542889 -2.1659423468
N 1.6658099598 0.1596450536 -0.7377886764
C 2.9444134899 0.6656783904 -0.3455191194
C 2.9965996893 1.7273111482 0.5552072148
C 4.2259098044 2.2557811345 0.9308922008
C 5.3777815539 1.6968281541 0.4001327841
C 5.3460942397 0.6332254464 -0.4894354038
C 4.1132421032 0.1233989794 -0.8760177517
O 6.6329210454 2.1788333447 0.8374904440
C 7.1650934940 3.1916624170 0.1176645304
F 8.3396099823 3.5130834890 0.6715541122
F 6.3844696154 4.2966116031 0.1068682434
F 7.3824646633 2.8603420452 -1.1759604609
C 1.3600122850 -1.2027751193 -0.7272803440
O 0.5093274110 -1.7158618405 -1.4254959587
O 2.1409288217 -1.8539311271 0.1459486141
C 1.9769922138 -3.2948610715 0.1508634551
C -2.2177784534 -1.4216435553 2.4141979719
C -3.0457629711 -1.8748945672 3.4338564653
C -4.3813299516 -1.4699334716 3.4593579103
C -4.9308764340 -0.6174028863 2.5039930604
Cl -5.4135694041 -2.0615992958 4.7518407323
H -3.5175027215 -2.4341767969 -3.2672370694
H -4.1567702671 -3.4291619141 -1.9154577993
H -5.1953638479 -2.1854039894 -2.6909282462
H -4.4268685239 1.8258220056 0.7540370516
H -5.3789473901 0.6006302776 -0.1023282867
H -1.1383835848 2.7659404097 -1.9282622067
H -1.6893781115 1.2519331581 -2.7228493833
H 2.0781624057 2.1351539555 0.9653291161
H 4.2912413669 3.0768245587 1.6356581719
H 6.2694806126 0.2210732220 -0.8802293050
H 4.0601667703 -0.6953278736 -1.5853217207
H 0.9590751666 -3.5540413787 0.4498804747
H 2.6982410229 -3.6585878777 0.8810936817
H 2.1917040832 -3.7007403345 -0.8402454785
H -1.1788105349 -1.7315310631 2.3720561447
H -2.6666338329 -2.5423170074 4.1989409257
H -5.9704186939 -0.3140702757 2.5590539878
