42
CONF7
C 4.2807545661 -3.1763603918 -0.0747561858
C 3.3769689116 -2.0265825881 -0.3758945096
N 2.2665773102 -2.2721043578 -1.0690914983
C 1.4914804194 -1.1910227283 -1.2810624836
N 1.7559507474 0.0498996927 -0.8719866534
C 2.8951950895 0.1596771669 -0.1791528624
N 3.7467161131 -0.8228223424 0.0976081569
O 3.1516485830 1.3994202850 0.2342084541
C 4.3268337031 1.5865467813 1.0530190411
N 0.3422871874 -1.4435132041 -1.9936506465
C -0.7875834765 -0.6459883718 -2.2682756154
O -1.7826185475 -1.1559102350 -2.7408849785
N -0.6447276642 0.6923525185 -1.9712102550
S -2.0265817667 1.6775504942 -1.7171464842
O -1.4899014643 2.8020744468 -0.9415711760
O -2.7101795120 1.8941636836 -2.9858497249
C -3.0931366898 0.6816608170 -0.6731507753
C -4.3772282463 0.3819086092 -1.1124943836
C -5.2292196912 -0.3308629004 -0.2782034329
C -4.7859752239 -0.7542073177 0.9726848022
C -3.4912724050 -0.4767608235 1.3980264650
C -2.6341101913 0.2455174555 0.5729489263
O -1.3275670764 0.4673115716 0.9215646837
C -1.1349695440 1.4449271861 1.9564906623
C 0.3419261800 1.6655400338 2.1216570933
Cl 1.1765001537 0.1900844999 2.7938257073
H 5.3244383183 -2.8765922738 -0.1918447910
H 4.0469504248 -4.0289277780 -0.7119219073
H 4.1437524662 -3.4700937361 0.9722629246
H 4.2506100849 0.9870799719 1.9630967614
H 4.3331634915 2.6505140778 1.2888709026
H 5.2269732403 1.3071672418 0.5009276094
H 0.2062832625 -2.4136702683 -2.2426355101
H 0.1723447511 0.9489395502 -1.4031622660
H -4.6863529137 0.7061424467 -2.0993860552
H -6.2337273045 -0.5672993830 -0.6107788417
H -5.4481447816 -1.3233353329 1.6170868770
H -3.1249499640 -0.8361967021 2.3541207016
H -1.5985783368 1.1096205376 2.8934647946
H -1.5874678522 2.3963017721 1.6404922554
H 0.8153393222 1.8877214090 1.1632932430
H 0.5215997224 2.4801293060 2.8265131754
