59
CONF134
C 3.4707211972 -2.7309779644 -1.7317058100
C 2.1138903271 -2.1298341113 -1.2612729159
C 2.4078936287 -0.6517899528 -0.9434928690
C 3.9141360858 -0.6088915210 -0.6184605859
C 4.4801528793 -1.5664891627 -1.6771929143
C 4.2012201659 -1.1182504177 0.7947275653
C 3.7457557012 -0.1926815807 1.8956113042
O 3.5409965149 -0.6013312552 3.0298917878
N 3.5645397595 1.1572988907 1.5778848792
C 3.8996888121 1.7167768170 0.3385132219
O 3.7249128337 2.9089798394 0.1326005771
C 4.4923068575 0.7969856355 -0.6963946460
C 2.9748407130 2.0586032035 2.5902692353
C 1.4698874128 2.2343265175 2.3855065467
C 0.6394846511 1.0046197279 2.7528183561
C -0.8338630319 1.1755564956 2.3824978331
N -1.0587094128 1.0591988542 0.9322320614
C -1.1531252287 -0.3495358411 0.5290397560
C -1.3267385977 -0.4663322975 -0.9820159630
N -2.5223650390 0.2646798414 -1.4023527459
C -2.4654448112 1.6678857804 -0.9910147043
C -2.2778860043 1.7657261717 0.5208126352
C -3.7121339231 -0.3720236891 -1.6208113670
N -3.6876631589 -1.7227830830 -1.7373725670
C -4.8485775700 -2.3149115341 -2.0094531121
C -6.0416232730 -1.6186936616 -2.1660359034
C -5.9574666779 -0.2390095362 -2.0175963546
N -4.8207973679 0.3983539899 -1.7457170956
H 3.4068457787 -3.1561608613 -2.7367995020
H 3.7823564068 -3.5393742664 -1.0630858559
H 1.3347150205 -2.2240706648 -2.0223785358
H 1.7514032691 -2.6513141605 -0.3697017915
H 1.7840864891 -0.2510782294 -0.1374892562
H 2.2336087501 -0.0296121685 -1.8300991738
H 5.5013808092 -1.8890982597 -1.4486006016
H 4.5031154659 -1.0407220236 -2.6398052190
H 3.7364439314 -2.0874539246 0.9964080832
H 5.2846058882 -1.2541061658 0.9247027608
H 5.5789270407 0.7665061316 -0.5288528840
H 4.3205169257 1.2573766814 -1.6731888154
H 3.4852472362 3.0194191174 2.5037003071
H 3.1889368861 1.6292187110 3.5708082688
H 1.1470953139 3.0817755331 3.0038645330
H 1.2790160273 2.5116601956 1.3424164109
H 0.7204164365 0.8175171024 3.8307944231
H 1.0391972903 0.1127307005 2.2574750299
H -1.1636197738 2.1739484990 2.6981742441
H -1.4559896900 0.4460760902 2.9339073697
H -0.2419531742 -0.8795148957 0.8268240577
H -2.0087602992 -0.8499167277 1.0272360111
H -1.4067105614 -1.5110733435 -1.2783256800
H -0.4612534122 -0.0195933437 -1.4882721778
H -1.6076628934 2.1320265953 -1.4946966595
H -3.3753433821 2.1811412527 -1.2982066815
H -2.1874464898 2.8211659559 0.8029982714
H -3.1783285709 1.3552508571 1.0220419508
H -4.8220686258 -3.4003251542 -2.1031184153
H -6.9767053089 -2.1191234666 -2.3834736222
H -6.8446948326 0.3857959084 -2.1178400238
