44
CONF96
C 2.2147552543 2.3097107456 -2.2970207204
C 2.6561064798 1.4412416076 -1.1699836591
N 1.9902423226 0.2821402519 -1.0015399641
C 2.3995989847 -0.4671392507 0.0243262572
N 3.4038946757 -0.1653455146 0.8598406140
C 3.9884719976 0.9987171086 0.5897428334
N 3.6629262646 1.8482388816 -0.4019777381
O 4.9996082677 1.4170631251 1.3415642085
C 5.4236328210 0.5665392889 2.4370216921
N 1.7641017932 -1.6620320639 0.2891105666
C 0.6358286800 -2.2474499023 -0.2972519347
O 0.1447634175 -3.2546764417 0.1849426594
N 0.1615721093 -1.6075266464 -1.4195897335
S -1.3592233342 -1.9707294751 -2.0966619673
O -1.5590533293 -0.8854839436 -3.0688841912
O -1.3534998430 -3.3586978303 -2.5642553354
C -2.5337206146 -1.8220771802 -0.7417011720
C -3.3306455541 -2.9419092387 -0.5179895318
C -4.3118621435 -2.8989129376 0.4642146219
C -4.4742054657 -1.7396837276 1.2123126261
C -3.6613578179 -0.6325362149 0.9849509107
C -2.6666469703 -0.6341318310 0.0033891129
C -1.7587919552 0.5570450470 -0.1970482612
C -2.2778732003 1.8646981295 0.3999998019
C -1.3810448403 3.0183254145 0.0407511338
F -1.8120958386 4.1780775194 0.5955347292
F -0.1012562828 2.8328161629 0.4646863407
F -1.3153791941 3.2284914507 -1.3004207391
H 2.1854749495 1.7291948036 -3.2237973490
H 1.1948198093 2.6594453987 -2.1047809484
H 2.8774137043 3.1670544681 -2.4088737907
H 5.7601610550 -0.4002397244 2.0563157095
H 6.2478396609 1.1049901460 2.9023686269
H 4.6044677855 0.4265999382 3.1456257681
H 2.1117011312 -2.1704191436 1.0927229574
H 0.5972281994 -0.7007695820 -1.6648924476
H -3.1814155331 -3.8355973872 -1.1116601569
H -4.9386153923 -3.7664146091 0.6393375659
H -5.2361308345 -1.6908015623 1.9834714429
H -3.8117582384 0.2522958924 1.5919847078
H -1.5785979574 0.7012913259 -1.2655212467
H -0.7870068090 0.3311445766 0.2592119148
H -3.2782417853 2.1067734023 0.0267947908
H -2.3161874239 1.8306795168 1.4925731177
