44
CONF18
C -0.2315593085 3.7232422428 0.7077623185
C -0.3557310807 2.4253408220 -0.0853189609
C 0.5854937469 1.3426454317 0.4702136133
C 0.4780960646 0.0367408517 -0.2785339855
C -0.7152321067 -0.7128454180 -0.4226490689
C -0.7892266297 -1.7633121789 -1.3835576197
C 0.3397922141 -2.1428735780 -2.0929603807
C 1.5529371004 -1.5029906298 -1.9003683429
C 1.5831005496 -0.4151333706 -1.0090793151
O 2.7426985276 0.2977404395 -0.8375523918
C 3.8572727133 -0.0607259726 -1.5056993140
C 3.9289435539 -1.0960486020 -2.3670770288
C 2.7596058482 -1.9096691875 -2.6384552130
O 2.7744285282 -2.8601386700 -3.4252515912
C 5.0406888160 0.8014576984 -1.2037408622
O 6.1211170278 0.6266069681 -1.7214437422
O 4.7594470286 1.7606344438 -0.3129512931
C -2.0646133874 -2.4414548817 -1.6854722983
O -2.1380101493 -3.4084555183 -2.4570292339
C -3.2160804333 -1.8567141955 -1.0525314645
C -3.0679745828 -0.9204091017 -0.0776852014
N -1.8527382101 -0.4285938561 0.3391291697
C -1.7355581342 -0.0806543906 1.7899695984
C -0.8044912027 -1.0318171434 2.5276263157
C -4.2892544813 -0.2413380574 0.4736549359
O -4.3383864798 0.9438801657 0.7235771487
O -5.3228301045 -1.0858141548 0.5881321597
H -0.8844029046 4.4987217539 0.2964378598
H -0.5109681686 3.5674633754 1.7558638461
H 0.7971958737 4.0990705114 0.6869076316
H -1.3946974547 2.0781917706 -0.0692307137
H -0.1022017543 2.5985949930 -1.1379384899
H 1.6087199091 1.7108870427 0.3887171472
H 0.4150626965 1.2082618139 1.5421334367
H 0.2650921020 -2.9505458102 -2.8123625544
H 4.8675167564 -1.3131346910 -2.8613181280
H 5.5694170795 2.2783659182 -0.1620903163
H -4.2049715851 -2.1769148734 -1.3543036990
H -1.4505971952 0.9649002006 1.9136580857
H -2.7336113051 -0.1793795479 2.2144443906
H 0.2281862708 -0.9693824282 2.1763389300
H -0.8187850831 -0.7740674164 3.5905480355
H -1.1474113145 -2.0648482859 2.4166588452
H -6.1054796418 -0.5754855840 0.8613058206
