33
CONF7
C -4.1265518950 1.1821030654 1.6942979719
C -4.1716103112 -0.1800457544 1.0094619770
C -4.6425479620 -0.1322791724 -0.4395318137
S -3.5499929256 0.8480829707 -1.5675748521
C -1.9956169814 -0.0133783160 -1.3592361015
C -1.8760440469 -1.3677448096 -1.7262006088
C -0.6758729911 -2.0541982752 -1.5930239561
C 0.4305492194 -1.3569491850 -1.1078676539
C 0.2970634933 0.0074035441 -0.7612105010
C -0.9015326956 0.6987728765 -0.8623454624
N 1.5539834269 0.3904042882 -0.3259849107
C 2.3472541557 -0.7184937238 -0.4321235513
N 1.7309469942 -1.7865891883 -0.8907292887
N 3.6850464416 -0.7262776428 -0.0897599217
C 4.3906002088 0.3509924627 0.3873469719
O 3.9225407490 1.4595939688 0.5780787863
O 5.6673631296 -0.0196964889 0.6056132957
C 6.5717804920 0.9920606408 1.1099809551
H -3.4146172269 1.8465030483 1.1958800842
H -3.8248007070 1.0822495348 2.7411025096
H -5.1094964779 1.6655583593 1.6686555744
H -4.8578718259 -0.8454426757 1.5504159464
H -3.1841633538 -0.6561174742 1.0495834848
H -5.6181041538 0.3618521857 -0.5195581728
H -4.7447084933 -1.1412943254 -0.8508178983
H -2.7430406646 -1.8814971646 -2.1281563933
H -0.5933428796 -3.0989181396 -1.8737491950
H -0.9976711816 1.7386475263 -0.5700947947
H 1.8702106006 1.2906726747 0.0041378956
H 4.1653371359 -1.6059599246 -0.2163713612
H 6.0561934445 1.9463068078 1.2188840927
H 7.3931771126 1.0783598751 0.3963152492
H 6.9455416615 0.6453187276 2.0753028445
