48
CONF3
C -4.5841497966 -0.9669760243 1.3973975428
C -4.3269845496 -0.5338865240 -0.0540082079
C -5.5989004216 0.1419082909 -0.5958595335
C -4.0187610726 -1.7637538574 -0.9189901132
C -3.1839191943 0.4984582366 -0.1839969359
C -1.7477087055 -0.0295012046 -0.0044265748
N -1.4686793707 -0.5722111353 1.3223384179
C -1.4470471963 0.0614603521 2.5150649963
N -1.1885294468 -0.8067055730 3.4847598421
C -1.0612288681 -1.9859248271 2.8112119132
N -1.2161129002 -1.8954118856 1.4980792252
O -0.9214329355 1.1037162764 -0.2390895325
C 0.4407932939 0.9354150934 -0.3615949998
C 1.1764807818 2.1189285270 -0.4410474695
C 2.5530459906 2.0676384433 -0.5892832521
C 3.2326834000 0.8411107343 -0.6543062084
C 2.4720029685 -0.3297806487 -0.5678424470
C 1.0875042725 -0.2973860654 -0.4215926272
C 4.7008660803 0.7899363326 -0.8089416732
C 5.4589512345 -0.2020112766 -0.1693981880
C 6.8412405617 -0.2501308168 -0.3188154825
C 7.4967889240 0.6933639841 -1.1077595864
C 6.7556621905 1.6854917234 -1.7468863134
C 5.3730719732 1.7330514344 -1.6005683288
O -3.4291428252 1.5737766566 0.7190066645
H -5.4917937666 -1.5790998051 1.4278795866
H -3.7692986090 -1.5720848178 1.8025014428
H -4.7368104132 -0.1016822688 2.0477463039
H -6.4382297428 -0.5588659893 -0.5456629877
H -5.8567749464 1.0287715342 -0.0105145873
H -5.4662138005 0.4421735139 -1.6413079146
H -4.9026771364 -2.4081118913 -0.9590743239
H -3.1951731022 -2.3559983114 -0.5087256671
H -3.7645617192 -1.4742457581 -1.9453927013
H -3.1995214837 0.8654277234 -1.2227494786
H -1.5456191643 -0.8310904998 -0.7214853366
H -1.6123217259 1.1241371640 2.6202801204
H -0.8435735672 -2.9302024885 3.2942604923
H 0.6571049768 3.0696564935 -0.3779350638
H 3.1113904085 2.9976080677 -0.6292521769
H 2.9613359730 -1.2963566737 -0.6364552866
H 0.5429037585 -1.2316576781 -0.3653288825
H 4.9640575512 -0.9277202633 0.4687700971
H 7.4094561886 -1.0221043088 0.1912913279
H 8.5754286747 0.6560043053 -1.2230681105
H 7.2547875825 2.4210120781 -2.3705215662
H 4.8057471212 2.4968341739 -2.1236905446
H -2.8561362292 2.3091163187 0.4649848751
