53
CONF59
C 1.9994718433 3.7052263940 -0.0129943118
C 2.2364682609 2.3947217951 -0.7720273223
C 3.7055202105 2.3609285418 -1.2344426352
C 1.3522850624 2.3680433493 -2.0287376881
O -0.0201856792 2.5199538489 -1.6585550224
C -0.9228840042 1.8716932959 -2.5654585928
C -0.9196328462 0.3732692278 -2.3813753135
C -1.3708635801 -0.1567114684 -1.1707225922
C -1.3382899918 -1.5306248663 -0.9673511351
C -0.8524018889 -2.3908021102 -1.9513732393
C -0.3988122439 -1.8576373560 -3.1513994819
C -0.4352982452 -0.4809346621 -3.3723128310
O -1.7107619319 -2.1167174354 0.2277223132
C -2.6973795461 -1.5221512867 0.9975473420
C -3.8972167623 -1.0875418973 0.4376604446
C -4.8815818367 -0.5661421540 1.2713946782
C -4.6763947820 -0.4875154609 2.6484651563
C -3.4764190020 -0.9390746210 3.1925570570
C -2.4786087309 -1.4559223991 2.3695222623
C 1.9207858043 1.1559053668 0.0674453810
C 1.3182432974 1.2329930679 1.3249779843
C 1.0094414454 0.0888040162 2.0601895233
C 1.3291214967 -1.1452380772 1.5229141978
C 1.9136699210 -1.2706703142 0.2734120924
C 2.2032958259 -0.1184623615 -0.4438446399
O 0.9944995267 -2.3448182343 2.1962290573
C 1.6471702303 -2.6579493293 3.3255443359
F 1.1961721445 -3.8482236745 3.7390868192
F 1.4472856351 -1.7699966559 4.3279946557
Br 3.6376647657 -2.7970960464 3.0871339421
H 0.9571236143 3.8203046268 0.2930254923
H 2.2532706034 4.5474700860 -0.6646100685
H 2.6354204783 3.7609335323 0.8766035906
H 3.9195015971 1.4944512960 -1.8662715178
H 4.3715836866 2.3253764649 -0.3669392394
H 3.9364223881 3.2637689447 -1.8090916634
H 1.6433102282 3.1907291082 -2.7021613721
H 1.5032525051 1.4194667923 -2.5615272071
H -0.6775190556 2.1294183198 -3.6058960705
H -1.9112572119 2.2800474740 -2.3306623549
H -1.7304609258 0.5056408215 -0.3895505471
H -0.8318069564 -3.4589836126 -1.7622380612
H -0.0176409061 -2.5219192870 -3.9207750736
H -0.0836163462 -0.0683732136 -4.3135502874
H -4.0546220586 -1.1581386194 -0.6335011228
H -5.8185660334 -0.2274981304 0.8401484715
H -5.4495426324 -0.0814198008 3.2923130913
H -3.3089225893 -0.8863829948 4.2638261169
H -1.5385848697 -1.8122710152 2.7768131002
H 1.0653509818 2.1950089621 1.7535345012
H 0.5221189474 0.1669833843 3.0245384088
H 2.1313393024 -2.2548354118 -0.1266335853
H 2.6494805631 -0.2268421289 -1.4265963612
