80
CONF23
C -5.2485376797 -0.5420776403 -0.8787723464
C -6.3134754331 -0.6716387923 0.2058074525
C -7.4247929434 -1.4360033749 -0.5271795809
C -6.6629686806 -2.4634865373 -1.3732442539
N -5.3656804811 -1.8092835531 -1.6091105765
C -4.3871898160 -2.4413714201 -2.2976511814
O -4.5696975353 -3.5178242310 -2.8560553803
C -2.9959000760 -1.7860948795 -2.3443405636
C -1.9466593854 -2.8244661638 -1.8831100017
C -0.5274687445 -2.4606249541 -2.2297716726
C -0.1185100060 -2.4299002184 -3.5661161592
C 1.1925053763 -2.1220695246 -3.9032613228
C 2.1247316736 -1.8527311086 -2.9035118505
C 1.7322614834 -1.8908196919 -1.5706023231
C 0.4118664691 -2.1837434870 -1.2368972181
N -2.9458804017 -0.5408811187 -1.5897206424
C -2.1830594378 0.5354828280 -1.8879133224
O -1.3913083679 0.6843028731 -2.7976443229
C -2.5690092028 1.6243813112 -0.8599615837
C -3.0781462474 2.8629802989 -1.5777691317
N -1.4399350829 2.0020713040 -0.0261701136
C -0.7108261450 1.1454444784 0.7396141486
O -1.0129522986 -0.0372218728 0.9038748257
C 0.5482859810 1.7306902756 1.3450828273
C 0.6798609653 1.3559971588 2.8176374901
N 1.9239100608 1.8938551337 3.3749531577
C 1.9237375090 1.6802024216 4.8233057464
C 3.1015357947 1.3011072210 2.7134564972
C 4.4104051753 1.7857484813 3.3820180751
C 5.5832878579 1.2796446804 2.6081638671
C 6.8856049198 0.9816041169 2.9155259169
N 7.5275104289 0.5108467768 1.7715776498
C 6.6375406129 0.4877493885 0.7194274597
C 6.7307049592 0.0985420020 -0.6171390696
C 5.5732783034 0.2102527513 -1.3807923434
C 4.3531656667 0.6900088658 -0.8582133276
C 4.2631139843 1.0838028004 0.4707883958
C 5.4208638469 0.9707386771 1.2343635551
C 3.0585489516 1.6474256357 1.1952547574
C 1.7491300773 1.1757577350 0.5727478023
O -3.6153949045 1.0430686489 -0.0835196707
C -3.8064852860 -0.3347004909 -0.4284533104
O -3.5102373867 -1.1709206384 0.6249831744
H -5.4850130155 0.3034276877 -1.5438686181
H -6.6295759565 0.3003368467 0.5902055174
H -5.9123027447 -1.2656483285 1.0318095634
H -7.9854418942 -0.7540590505 -1.1761724530
H -8.1336520767 -1.9112924559 0.1543742498
H -7.1546259503 -2.7024939523 -2.3209561915
H -6.4990175435 -3.4063597712 -0.8370367198
H -2.7966611114 -1.5287394978 -3.3927747476
H -2.2196512872 -3.7630001037 -2.3758014798
H -2.0559613742 -2.9709826678 -0.8044454643
H -0.8370607482 -2.6537705867 -4.3507787963
H 1.4911694476 -2.1004246799 -4.9466696467
H 3.1548217494 -1.6254676732 -3.1604720715
H 2.4616630105 -1.6948855596 -0.7905854667
H 0.1068542665 -2.1984409394 -0.1949287098
H -2.2978692410 3.2638305989 -2.2307730989
H -3.9385735634 2.5939014758 -2.1934512739
H -3.3901988495 3.6160657211 -0.8479508901
H -1.1114507106 2.9508085161 -0.1076458601
H 0.5424682259 2.8258967205 1.2647985225
H 0.6189984936 0.2542973940 2.9088607060
H -0.1605914726 1.7776444976 3.3818200433
H 0.9760486608 2.0407061689 5.2343710036
H 2.0320343943 0.6140647415 5.1029684017
H 2.7222225326 2.2489469133 5.3046564993
H 3.0735800454 0.1921679242 2.7978012749
H 4.4606444385 1.4349838421 4.4161658602
H 4.3927791620 2.8851599011 3.4104114027
H 7.4261861649 1.0579102731 3.8484146189
H 8.4856339125 0.2124708499 1.7352349173
H 7.6512495881 -0.2775770514 -1.0514268968
H 5.6084335243 -0.0843003584 -2.4249938945
H 3.4930464853 0.7387963427 -1.5178391840
H 3.1015360048 2.7470965890 1.1302880241
H 1.7025419724 0.0809736499 0.6020412770
H 1.6889165513 1.4708084633 -0.4805140468
H -2.5909160377 -0.9386978085 0.8794115936
