51
CONF28
C -0.6759908414 0.3881020256 2.7587936881
C -1.2177222115 1.2608867306 1.6646671398
C -2.5085203450 1.2121252401 1.3025492220
C -3.1250475273 2.0702465799 0.2631606701
C -3.0619509302 1.7001710013 -1.2484652463
C -4.3719568815 1.6907006814 -0.4705116858
C -5.0773149049 0.3911980100 -0.1559634930
C -5.3217687727 2.8137945663 -0.8353449485
C -2.3079717749 0.4993453670 -1.6336391350
O -2.3837102651 -0.6139818094 -1.1462915231
O -1.4320192643 0.8086854418 -2.6287877871
C -0.4837465167 -0.2431900300 -3.0057987775
C 0.6471519481 -0.3206499633 -2.0409398176
C 0.7445937419 -1.1054704192 -0.8417119867
C 1.9448468034 -0.8135379072 -0.2734494307
O 2.6099432942 0.1075947138 -1.0509224660
C 1.8056491173 0.3913086190 -2.1176447175
C 2.6493379573 -1.2800561153 0.9489027612
C 3.9529198462 -1.9870040108 0.6339190990
C 5.1792868871 -1.4102666608 0.9653068965
C 6.3748348084 -2.0587047634 0.6569926318
C 6.3543570360 -3.2924991838 0.0122152120
C 5.1318776144 -3.8750851781 -0.3228908930
C 3.9406947347 -3.2249275208 -0.0158145965
C -0.2097383816 2.1523966749 1.0013759499
H 0.1207144989 -0.2599089678 2.3704338836
H -1.4530694230 -0.2412453394 3.2005623519
H -0.2230501201 0.9958062178 3.5525261200
H -3.1621415649 0.5092616014 1.8161791836
H -2.9787268378 3.1403328409 0.4024218639
H -2.9093400535 2.5450544575 -1.9117362011
H -5.7669075449 0.5488613263 0.6812641446
H -5.6670193807 0.0685106808 -1.0209963902
H -4.3857565890 -0.4092358293 0.1014191912
H -5.9157818992 2.5445332028 -1.7157592616
H -6.0113082550 3.0048039093 -0.0052435795
H -4.7821358971 3.7402620825 -1.0523947319
H -0.1346643705 0.0636843783 -3.9929064816
H -1.0160544209 -1.1941320214 -3.0801488698
H 0.0059277835 -1.7903235893 -0.4539252539
H 2.1922595874 1.1021891245 -2.8326234520
H 1.9700992875 -1.9577633458 1.4762952101
H 2.8445641543 -0.4295217453 1.6136559136
H 5.1986718002 -0.4475460953 1.4691390363
H 7.3218112424 -1.5980499872 0.9219351989
H 7.2840202302 -3.7992894464 -0.2273708557
H 5.1077397652 -4.8385670480 -0.8232060093
H 2.9893331656 -3.6798291444 -0.2806936554
H -0.6374872703 2.7379492573 0.1851432901
H 0.6109707093 1.5446213646 0.5972672609
H 0.2392962574 2.8383597295 1.7307605373
