27
CONF38
C 2.7978648684 -0.2260373429 -0.0150823688
C 4.2174470472 -0.6723010909 0.3328525064
C 5.1937778062 0.4955634113 0.4236023656
O 5.2899546690 1.2360599598 -0.7953983569
C 1.8534243615 -1.4233222619 -0.1218128508
C 0.4752609252 -1.1157062430 -0.6669820891
C -0.3567747165 -0.0983355035 0.1732499736
C -1.8939557285 -0.1007174206 -0.1142822471
C -2.6428994902 1.1747877983 0.3925416787
F -3.9644566069 0.9642640935 0.3063077571
F -2.3353921554 2.2436820032 -0.3500187206
F -2.3302038723 1.4256797067 1.6730653329
F -2.4554274912 -1.1667217593 0.4977935762
F -2.1091270979 -0.1899548065 -1.4467753709
F 0.1216887786 1.1520036338 -0.0567882155
F -0.1789580069 -0.3848820720 1.4906795366
F -0.2536535038 -2.2777991400 -0.7268672131
F 0.5643286045 -0.6257783409 -1.9390908109
H 2.4439270978 0.4696393932 0.7540288853
H 2.8122777360 0.3265064763 -0.9595424584
H 4.2222202970 -1.2043495004 1.2944812823
H 4.5783348660 -1.3895596260 -0.4189620754
H 6.1836945884 0.1353564141 0.7427589326
H 4.8480296859 1.2165021327 1.1727620531
H 1.7283091992 -1.9167007181 0.8471288058
H 2.2621927472 -2.1684752324 -0.8157663025
H 5.6804529675 0.6610841026 -1.4628417506
