33
CONF4
C 6.6528549923 1.2435433174 0.9557142932
C 5.4858585877 1.4272691584 1.5689026640
C 4.6898496895 0.2709672256 2.0295636318
O 4.9841092052 -0.8973210515 1.9012425965
O 3.5507141065 0.6991269706 2.6389895843
C 2.6722717023 -0.3386938624 3.1175476368
C 1.8735839728 -0.9940861237 1.9967956032
C 1.0070896589 -0.0157340252 1.2256010247
C -0.0633084676 -0.7405827677 0.3531896794
C -0.7923311535 0.1632372295 -0.6992048291
C -2.1392743020 -0.4525628334 -1.2170531110
C -2.6364756221 0.1853076835 -2.5589355480
C -4.1487004414 -0.0751569232 -2.8618989826
F -4.4037295761 0.2847459517 -4.1273430276
F -4.4376841903 -1.3761929105 -2.7159471475
F -4.9314627453 0.6429401598 -2.0499452557
F -2.4552532210 1.5257363608 -2.5200221452
F -1.9200072290 -0.3302927661 -3.5801115343
F -1.9704144540 -1.7794607439 -1.4196291347
F -3.0914665171 -0.2695205940 -0.2732646701
F -1.0622029906 1.3650870772 -0.1449824180
F 0.0326499881 0.3395708235 -1.7574768928
F -0.9896828500 -1.2782840879 1.1908917886
F 0.5500273032 -1.7520586832 -0.3122193510
F 0.3489634360 0.8218239216 2.0821061628
F 1.7626922104 0.7588539946 0.3897969104
H 7.2471330297 2.0824581328 0.6110012745
H 5.0726454868 2.4137548276 1.7519561908
H 2.0147382650 0.1608986289 3.8305907278
H 3.2588739642 -1.1089137914 3.6271421560
H 2.5408904369 -1.5000090325 1.2958670251
H 1.2196260557 -1.7500423899 2.4458857813
H 7.0312584157 0.2394922138 0.7891634747
