46
CONF34
C -2.7087161629 3.2095881532 -0.2477231262
C -2.1743534444 1.8022827638 -0.0387652422
C -2.7202018645 0.8423839988 -1.0980224469
O -2.5570694590 0.8791682709 -2.2950210357
N -3.4531900704 -0.0975629492 -0.3946157575
C -3.4762413521 0.1672662342 0.9812286367
O -4.0396728126 -0.4649541149 1.8344047118
O -2.7473285395 1.2782628840 1.2082746928
N -4.0883337656 -1.1915387028 -0.9438677443
C -3.2522160066 -2.2134298148 -1.4544134791
C -3.7719972625 -3.0595678987 -2.4394395950
C -3.0074957140 -4.1192658437 -2.9122604565
C -1.7223785143 -4.3442515895 -2.4192418956
C -1.2123636915 -3.4953428559 -1.4405393394
C -1.9682093272 -2.4331845103 -0.9511174327
C -0.6640472109 1.6844443618 0.0137796722
C 0.1214259834 2.3950383841 -0.8994999354
C 1.5024005757 2.2584499648 -0.9013330491
C 2.1113603637 1.3981859999 0.0098132553
C 1.3445525882 0.6700401668 0.9162522483
C -0.0381850555 0.8159319811 0.9100917373
O 3.4785281320 1.2677052733 -0.0909147923
C 4.2071054692 0.8850739831 1.0286818662
C 4.0905203308 1.5745793876 2.2329224259
C 4.8974299108 1.1999360234 3.3030774537
C 5.8141297966 0.1575810417 3.1676168715
C 5.9235888289 -0.5128456363 1.9515514705
C 5.1164974307 -0.1542033213 0.8740000990
H -3.8006853067 3.2001083928 -0.2014578949
H -2.3112710059 3.8691766580 0.5270114147
H -2.4066087125 3.5821530478 -1.2280494765
H -4.8296620041 -0.9032145174 -1.5744421227
H -4.7704333340 -2.8830323487 -2.8299781310
H -3.4192676623 -4.7686657587 -3.6786893483
H -1.1271800851 -5.1696285200 -2.7951163715
H -0.2138688547 -3.6564615826 -1.0459838878
H -1.5540774117 -1.7885948247 -0.1827171364
H -0.3363306833 3.0650506895 -1.6180301365
H 2.1151090830 2.8131665108 -1.6038802845
H 1.8163296799 -0.0075633178 1.6188342702
H -0.6249351855 0.2430183291 1.6190137741
H 3.3807903295 2.3902276826 2.3272840012
H 4.8135782088 1.7330169707 4.2449630533
H 6.4416374972 -0.1273231809 4.0056464429
H 6.6362905525 -1.3235777262 1.8376168927
H 5.1850435422 -0.6676278480 -0.0793445480
