56
CONF240
C -1.0970980481 -3.5965347849 -1.8025336001
C -0.4804571880 -3.2947823652 -0.4360506313
C -0.2150871636 -4.5493687581 0.3953878332
N -1.2768549700 -2.3063642357 0.3130051164
C -2.6078316133 -2.4224347790 0.6622826530
C -3.4918226551 -3.5024097771 0.5699608937
C -4.7871878947 -3.3253197534 1.0397873706
C -5.2037760371 -2.1059951537 1.6023266869
C -4.3310944818 -1.0331258188 1.6961115248
C -3.0226735384 -1.1754136526 1.2110306682
C -1.8915605921 -0.2994430600 1.1809458496
C -0.8424482969 -1.0185447216 0.6191348454
C 0.5234451145 -0.5956047420 0.3570213424
C 0.8507772030 0.6305181951 -0.0675208450
C 2.2479549571 1.1170064415 -0.2727670890
C 2.4599654145 1.5423196870 -1.7356399644
C 3.8000241149 2.2341177935 -1.9709156447
C 3.9075047318 2.7677070510 -3.4033014963
C 5.2625057349 3.3644781158 -3.6747629578
O 6.0477076222 2.9693844836 -4.5108677617
O 5.5190690631 4.4130174836 -2.8637617853
O 4.9136546525 1.3595831156 -1.6817265705
O 3.1746577649 0.1114227161 0.1348822201
C -1.8550601329 1.0605531738 1.7309336675
C -2.8350918261 1.9976534241 1.3750613035
C -2.8291937329 3.2867141404 1.9019067973
C -1.8230394940 3.6268247741 2.7881874878
C -0.8356910739 2.7348133427 3.1746468234
C -0.8644039295 1.4500274251 2.6451286843
F -1.8033349417 4.8858895944 3.3045382136
H -2.0482061871 -4.1271385564 -1.7171814272
H -1.2635803934 -2.6705467897 -2.3607869040
H -0.4090005997 -4.2265298718 -2.3737366648
H 0.4806092431 -2.8083421617 -0.6197816959
H 0.4761451719 -5.2010978566 -0.1470520512
H -1.1302627088 -5.1148680034 0.5875769338
H 0.2384278343 -4.2851935313 1.3550912028
H -3.1950351559 -4.4583542330 0.1577158553
H -5.4881263204 -4.1517957687 0.9766774406
H -6.2206421132 -2.0081743660 1.9695934179
H -4.6530146200 -0.0951982919 2.1384977139
H 1.3218720942 -1.3082988086 0.5471887920
H 0.0735918420 1.3619407301 -0.2800731003
H 2.3789742230 2.0203211065 0.3547924421
H 2.3738780351 0.6606126002 -2.3851638251
H 1.6591558186 2.2378913407 -2.0141457079
H 3.9126721992 3.0632513031 -1.2637660313
H 3.7397878290 1.9609249662 -4.1223911094
H 3.1434124509 3.5386273360 -3.5547997385
H 6.4088102226 4.7461208733 -3.0705962182
H 4.9184609336 0.6562226703 -2.3479653961
H 4.0346512476 0.3733367258 -0.2336202290
H -3.6042162237 1.7202322527 0.6611856629
H -3.5828188362 4.0161406763 1.6251806109
H -0.0726888403 3.0396509568 3.8829095352
H -0.1064155286 0.7335750545 2.9438775575
