24
CONF1
C -1.7252260063 0.4876826190 -1.7758747349
N -1.7544259743 0.0658182474 -0.3828602985
C -0.6685862625 0.0375153963 0.4840288398
C -1.1320023027 -0.4509865907 1.6967448799
C -2.5108993339 -0.7261652007 1.5744018308
C -2.8595737249 -0.3881944217 0.2801974205
Cl -4.3937833048 -0.4794676586 -0.4777516597
Br -3.6615565518 -1.3938118279 2.8881717837
Br -0.0890090140 -0.6531743831 3.2424537101
C 0.6510674173 0.4878160433 0.1099751993
C 1.1012992402 1.7617291289 -0.2051300552
C 2.4865226530 1.6976074083 -0.4664088661
C 2.8528153897 0.3748298727 -0.2965749907
N 1.7509227312 -0.3584589330 0.0438213302
C 1.7301015267 -1.7957636887 0.2743581446
Br 4.5473128719 -0.3975706817 -0.4626855379
Br 3.6193680454 3.1107730403 -0.9310058555
Br 0.0341442878 3.3043734923 -0.2195481262
H -2.2896181717 1.4151309199 -1.9084609452
H -0.6854367572 0.6617253167 -2.0555252293
H -2.1521402099 -0.2921668173 -2.4120702916
H 2.1791497115 -2.3168225387 -0.5752829329
H 0.6906310964 -2.1057934433 0.3884456222
H 2.2789219429 -2.0466257000 1.1865810623
