70
CONF217
C -2.5423005370 -0.2264331493 -0.2635944311
C -3.9569880480 0.3921641773 -0.3586901088
C -4.9525432708 -0.6848127490 -0.6427570060
C -6.1819571452 -0.7289605990 -1.2540067338
N -6.6491444926 -2.0402385180 -1.2462488953
C -5.7200617815 -2.8564373339 -0.6419429281
C -5.6609838931 -4.2286550232 -0.3858330976
C -4.5107618156 -4.6956988214 0.2455887288
C -3.4426647716 -3.8488147645 0.6204205776
C -3.5047689310 -2.4813484301 0.3755586073
C -4.6552664514 -2.0165352975 -0.2582757020
C -2.4800133017 -1.4234874169 0.7329608143
C -1.0642963685 -1.9943044642 0.8100655629
C -0.0628085197 -0.9024749911 1.1609377365
C -0.1927253347 0.2389106108 0.1466910205
N -1.5544338715 0.7831266293 0.1677366681
C -1.5958651672 2.0598437838 -0.5766014721
C -1.3009044777 1.9611236709 -2.0490407490
C -0.2926944972 2.5930700920 -2.6469702394
C 1.3595359831 -1.4523644010 1.1857836261
O 1.6092552608 -2.6077170359 0.8428070532
N 2.3871965022 -0.5997658999 1.5346407962
C 3.7654228117 -1.1452210070 1.4789058762
C 4.3440537966 -1.3398008957 0.0719839569
C 5.0229340518 -0.1202924835 -0.5467262925
N 4.1349167603 1.0298007392 -0.7781935237
C 3.1105018412 0.7445377517 -1.7863447405
C 4.9205562158 2.2022501851 -1.1785686737
C 2.1621704281 0.6664612072 2.1992191704
O 1.3627743627 0.7752582151 3.1282269984
N 2.9363129829 1.6476030858 1.7166563926
C 2.8532155948 3.0048017677 2.2431690164
C 1.7167700796 3.8024353831 1.6065294746
H -2.2840468948 -0.6328869568 -1.2635314272
H -4.1779347015 0.8959048287 0.5939489801
H -3.9908967776 1.1542594024 -1.1423355752
H -6.7777721870 0.0548051151 -1.7013343665
H -7.5255261950 -2.3384817805 -1.6417482181
H -6.4624714253 -4.9050686898 -0.6651585675
H -4.4276458647 -5.7577247517 0.4570067293
H -2.5770908096 -4.2907104428 1.1031636930
H -2.7438082102 -1.0146784897 1.7222806186
H -1.0187268252 -2.7930037724 1.5560339626
H -0.8029592289 -2.4406372004 -0.1575195954
H -0.2948391182 -0.4984716647 2.1507893784
H 0.4982550655 1.0562320899 0.3825316227
H 0.0849591245 -0.1434558217 -0.8553390331
H -2.5787818403 2.5192528950 -0.4248557576
H -0.8631203921 2.7296120741 -0.1103385700
H -1.9623288555 1.3301084010 -2.6430642645
H 0.3842708236 3.2300621330 -2.0801336373
H -0.1132074559 2.5048483044 -3.7148235559
H 3.7411494464 -2.1144742179 1.9866407845
H 4.4038121702 -0.4768332147 2.0634905519
H 5.1158309095 -2.1151749427 0.1480980614
H 3.5753156727 -1.7507362676 -0.5881928715
H 5.5087544016 -0.4248336578 -1.4936354130
H 5.8203106462 0.2183009455 0.1279611973
H 2.4829617897 -0.0929297802 -1.4716205210
H 3.5549846181 0.4997586576 -2.7677980424
H 2.4660504244 1.6212710017 -1.9052225219
H 5.6473513405 2.4445849921 -0.3962150840
H 5.4677475339 2.0328727979 -2.1230465330
H 4.2545898392 3.0607768099 -1.3151485573
H 3.4021951071 1.4774393858 0.7959700389
H 2.7175058017 2.9493046741 3.3278235592
H 3.8145465663 3.4930962987 2.0500708917
H 1.6970626644 4.8217645617 2.0047474225
H 0.7524162749 3.3295182268 1.8159596324
H 1.8466510788 3.8583037150 0.5204582027
