24
CONF6
O 3.9060150150 -0.7179583577 0.6634118926
S 3.6924811429 0.6693323518 -0.1351748965
O 3.5209670886 1.6921906399 0.8835787971
O 4.6527073194 0.7958209256 -1.2258897864
C 2.0036490687 0.3269394672 -1.0059028235
F 1.9082619960 1.2061209186 -2.0150512281
F 2.0846744853 -0.9185410882 -1.4993172272
C 0.7798878019 0.4887299788 -0.0531431806
F 0.9615489595 -0.3330336577 1.0072701021
F 0.7529513717 1.7713182684 0.3651903418
C -0.6109205095 0.1658769068 -0.7108867972
F -0.5328299812 -0.9945672115 -1.3947477540
F -0.9064367474 1.1654507061 -1.5730678724
C -1.7695420692 0.0330959624 0.3456190653
F -1.6171047517 0.9745573738 1.3028146592
F -1.6835947691 -1.1892254352 0.9173504955
C -3.1951066377 0.1982238055 -0.2830158429
F -3.4182909578 1.5083465428 -0.5187590331
F -3.2525469920 -0.4801461051 -1.4521304608
C -4.3548840306 -0.3260375706 0.6280406608
F -5.5229256633 0.0825599512 0.1154696726
F -4.2309806014 0.1644474676 1.8691020410
F -4.3548594656 -1.6616988887 0.6811002995
H 4.3219635795 -1.3909655408 0.0882616875
