82
CONF36
C -4.8981382021 2.3210546527 -2.9745455020
C -4.2921186801 2.1129678448 -1.6141629554
C -3.9060286365 3.1471500393 -0.8609163965
C -4.2417302628 0.6625670708 -1.1870508940
C -5.6514173417 0.2076040367 -0.6473857271
C -5.3890648051 -0.3954299122 0.7488192802
C -3.9463956912 -0.9123807943 0.6610827451
C -3.2702601736 0.2808247181 -0.0554012240
C -1.8084365998 -0.0099913680 -0.3924350219
C -1.1231026979 1.0794657124 -1.2197516741
C 0.3343227724 0.7357536366 -1.5488117333
C 1.1535474320 0.3282361396 -0.3127481820
C 2.6915758490 0.1579166317 -0.5991912077
C 3.2247483963 1.5150486759 -1.1137122201
C 4.7481981235 1.6104822625 -1.1047314464
C 5.3150715187 1.3522345626 0.2772497747
C 4.9208964909 -0.0339888583 0.8453974587
C 3.3630334177 -0.1245019641 0.7807665822
C 2.7824591249 -1.3946962232 1.4059390130
C 1.2903894759 -1.2245449663 1.6947438737
C 0.4510584943 -0.8357697917 0.4599100078
C -0.9932548094 -0.3205789097 0.9065386156
C -1.7197454251 -1.3797373850 1.7836932188
C -3.2263126220 -1.1350311306 1.9913562050
C -0.9050972356 0.9510527696 1.7842093287
C 0.3303430170 -2.1017097466 -0.4178197261
C 5.6493985284 -1.1706065899 0.1148424460
C 5.3601635106 -0.0725241389 2.3222681211
O 6.7402148064 1.5366813618 0.1758549763
C 2.9854144614 -0.9070514269 -1.6777983386
C -3.9165266643 -2.1884102797 -0.1916547039
O -4.7062840421 -3.1974542912 0.4677515239
H -5.0155685983 3.3809058489 -3.2141240484
H -4.2688059356 1.8540199728 -3.7431158056
H -5.8796823831 1.8345884524 -3.0394164261
H -4.0251868587 4.1662286690 -1.2191119245
H -3.4560881315 3.0204798326 0.1183012805
H -4.0014921484 0.0722518861 -2.0825460447
H -6.3449564427 1.0521435495 -0.5985179110
H -6.0968348212 -0.5355406441 -1.3158871802
H -5.4312171744 0.3892756840 1.5143356883
H -6.1146597808 -1.1678409609 1.0182410513
H -3.3042424508 1.0975052270 0.6758770088
H -1.8058309798 -0.9140603053 -1.0137979702
H -1.6786892016 1.2240909223 -2.1546052832
H -1.1727244929 2.0407097013 -0.6963746719
H 0.7926854814 1.6049990052 -2.0307726992
H 0.3442612181 -0.0653533139 -2.2963266164
H 1.1310999075 1.1867788903 0.3704269726
H 2.8163127044 2.3191650614 -0.4843515600
H 2.8671424058 1.6961750293 -2.1328288090
H 5.1943955004 0.9062870705 -1.8169911700
H 5.0546379725 2.6125477839 -1.4273359672
H 4.9035270409 2.1106122694 0.9665178717
H 3.0230798142 0.7087297230 1.4216572351
H 3.2848262537 -1.6226090838 2.3506990544
H 2.9581494961 -2.2599211355 0.7575286637
H 1.1981796995 -0.4570607714 2.4704610560
H 0.8925936304 -2.1531624022 2.1225562865
H -1.5929500411 -2.3810909060 1.3646852467
H -1.2347856578 -1.4053608053 2.7667746874
H -3.6558031124 -1.9871006314 2.5309620215
H -3.3901160417 -0.2510079923 2.6202743525
H -0.5418772473 1.8328329935 1.2559090502
H -0.2548357553 0.7894025600 2.6469575407
H -1.8893477549 1.2048258609 2.1841233012
H 1.2983333679 -2.5936176652 -0.5157507130
H -0.0292124503 -1.8983417027 -1.4273872831
H -0.3458932115 -2.8328264978 0.0315529975
H 5.2693593573 -2.1416808599 0.4473456382
H 5.5420378694 -1.1207531379 -0.9695093296
H 6.7184949073 -1.1331746461 0.3449938488
H 4.8075471568 0.6619419088 2.9200197346
H 6.4309196903 0.1417749256 2.4178427558
H 5.2070212709 -1.0606051998 2.7641669940
H 7.1068858723 1.5571261825 1.0675701830
H 2.1696880103 -0.9529746230 -2.4033498143
H 3.8905426683 -0.6644601248 -2.2396383103
H 3.1224478906 -1.9101810162 -1.2714708449
H -4.3227987855 -1.9912458688 -1.1930251827
H -2.8904598206 -2.5527530767 -0.3164122571
H -4.6270338565 -4.0073078723 -0.0494387149
