49
CONF64
C -6.4173000682 2.2942135580 0.9978487882
C -5.7515184559 1.0679743015 0.4377274490
C -4.6157563186 1.1681853568 -0.2723014132
C -3.8524587594 0.0601841358 -0.8718275675
C -2.3308648129 0.1927967970 -0.9987672779
C -3.2277167788 0.1290397383 -2.2405867211
C -3.3156939683 1.4058808936 -3.0472081324
C -3.2447799567 -1.1208293569 -3.0902300420
C -1.4805098058 -0.9395558294 -0.6066028222
O -1.8158098710 -2.1050423128 -0.4957124788
O -0.2077642210 -0.5217355243 -0.3712400168
C 0.7214786125 -1.5763528854 0.0126676705
N 1.9944187444 -0.9735626107 0.2062822131
C 2.4348977751 -0.3934109131 1.4087093572
O 1.8194753923 -0.4076175803 2.4549840868
C 3.7620130442 0.2128745941 1.1162824917
C 4.0509656646 0.0165517335 -0.1815674911
C 2.9272101971 -0.7244597862 -0.8156701521
O 2.8002085597 -1.0692303437 -1.9727532403
C 5.2960607895 0.4629741020 -0.8555950632
C 6.3324657589 0.8772542680 0.2008858628
C 5.7003650712 1.7235893246 1.3136085238
C 4.6263006358 0.9374828644 2.0812487565
C -6.4638450356 -0.2176041031 0.7450834349
H -6.5020562180 2.2218871853 2.0898028873
H -5.8665837467 3.2057615806 0.7517175642
H -7.4404013441 2.3893025494 0.6121102340
H -4.2048097658 2.1650907248 -0.4222923247
H -4.1538449396 -0.9451264768 -0.5923971792
H -1.9074144155 1.1707225862 -0.7941030534
H -3.2227840900 2.3006646139 -2.4287636315
H -4.2769789346 1.4493273426 -3.5720775010
H -4.1588414642 -1.1325916281 -3.6943661511
H -2.3889006642 -1.1315113514 -3.7751422822
H -3.2177191346 -2.0289573721 -2.4862636851
H 0.3829779280 -2.0363210084 0.9443489081
H 0.7783320284 -2.3165728254 -0.7889825087
H 5.0601707670 1.3044176154 -1.5226553461
H 5.6802022367 -0.3353897063 -1.5013265138
H 6.7721948887 -0.0263521763 0.6420647559
H 7.1451811798 1.4304086533 -0.2791420106
H 5.2401084203 2.6156443959 0.8699247312
H 6.4708715026 2.0686873567 2.0093373783
H 5.0900833839 0.2124490089 2.7651895373
H 4.0168706696 1.5985236393 2.7085076265
H -7.4924567434 -0.1761524165 0.3654524497
H -6.5400351584 -0.3567185439 1.8309441911
H -2.5189504945 1.4266603870 -3.7984415044
H -5.9801035808 -1.0977254652 0.3199092736
