45
CONF100
C -6.7030157496 -1.3044166024 -0.5046349155
O -5.8581076844 -0.1836531795 -0.1717776915
N -4.5380197836 -0.5446993413 -0.3238266097
C -3.7121810925 0.4114578603 -0.0276523887
C -4.0376155292 1.7360185119 0.4297412180
C -5.1949949548 2.4752872048 0.5283612571
C -4.8386104662 3.7172941944 1.1159980985
C -3.4973056671 3.6623982027 1.3523038781
O -2.9899217611 2.4725608612 0.9438639109
C -2.2667078696 0.0515626488 -0.2687069610
O -1.4816737899 0.8354382637 -0.7979527357
N -1.9121897220 -1.1997270764 0.1121431835
C -0.6140386418 -1.7266836954 -0.1708877799
C 0.6484874676 -1.0969394935 0.4939253611
N 1.1778936366 -0.8541566603 -0.8465362865
C 0.0733616179 -1.3706818568 -1.5141977828
O -0.1748372763 -1.5376800135 -2.6831219669
C 2.5150516888 -0.6622500283 -1.1903369810
C 3.5015080721 -0.8333239140 -0.2802526239
C 3.2417833895 -1.2501730382 1.1429121604
S 1.7279436612 -2.2611047350 1.4041868396
C 4.9502169792 -0.5896379724 -0.5875883550
O 5.5330572762 0.2098936748 0.4733997794
C 6.4207877479 -0.4117008197 1.3084796023
O 6.7397903271 -1.5891725698 1.2207752026
N 6.8721377265 0.4538424565 2.2362110887
C 2.7711038868 -0.2083669787 -2.5863963475
O 3.7098639308 -0.5714426555 -3.2656435822
O 1.8481476638 0.6802738925 -2.9908196682
H -7.7225394886 -0.9445938719 -0.3593638523
H -6.5497718465 -1.5984133120 -1.5471602540
H -6.4990483543 -2.1461649418 0.1638200125
H -6.1761951274 2.1664722678 0.2099628493
H -5.4948729172 4.5456772489 1.3373593424
H -2.7887172268 4.3524196529 1.7846840166
H -2.6087269342 -1.8054434627 0.5208182571
H -0.6350117790 -2.8132681978 -0.0432039133
H 0.4800013417 -0.1789967318 1.0641906108
H 4.0742715845 -1.8693577587 1.4939680180
H 3.1986977168 -0.3682773615 1.7932206165
H 5.4860382419 -1.5431999398 -0.6495681052
H 5.0993870581 -0.0312425151 -1.5098655966
H 7.5732846627 0.1435566721 2.8871469692
H 6.6092346375 1.4251865049 2.2147286022
H 2.0420526324 0.9243970091 -3.9127066891
