39
CONF11
C -2.9167847119 2.0031172508 -1.1235438018
C -3.0481784259 0.5272097600 -0.7560801529
C -1.6936707416 -0.1765227587 -0.6288496932
N -0.8390204264 0.4148919323 0.4212136571
C -1.3757284050 0.3510497255 1.7889540888
C -0.3031953744 0.1187781994 2.8418950142
O 0.2182144489 -1.2341528305 2.8301184458
C 1.0116743756 -1.6194065268 1.8019217652
C 0.5902878590 -2.6666473302 0.9662805156
C 1.3770575429 -3.1643182744 -0.0639541764
C 2.6292666056 -2.5998407017 -0.2689466333
C 3.1123340102 -1.5898243592 0.5497001027
C 2.3093207850 -1.1266342614 1.5854187565
Cl 2.9803811553 0.0632466694 2.6676853857
Cl 3.6167117532 -3.1735623002 -1.5914960270
Cl -0.9735216352 -3.3912241832 1.2471193212
C -0.0065961145 1.4764360697 0.1726830717
O 0.1922274063 2.3973808173 0.9460701740
N 0.7028571864 1.4213529486 -1.0635900562
C 1.1894875917 0.3173221678 -1.7537405918
C 1.8857843119 0.8301750392 -2.8099083219
N 1.8441718127 2.2127912517 -2.8037937580
C 1.1479749740 2.5358465238 -1.7453120361
H -2.3329428034 2.1283283948 -2.0421539959
H -3.8992239302 2.4551183185 -1.2850354757
H -2.4198841207 2.5722126934 -0.3309835640
H -3.6149665898 -0.0058008052 -1.5294222882
H -3.6209696553 0.4172844356 0.1725850000
H -1.8293129191 -1.2378372080 -0.3954318396
H -1.1720832181 -0.1133123379 -1.5850444730
H -2.0910946507 -0.4755803801 1.8214082531
H -1.9023725758 1.2816679371 2.0468424933
H -0.7538318467 0.2150860582 3.8326926160
H 0.5002893870 0.8501332560 2.7508870448
H 1.0160461160 -3.9693387919 -0.6910279242
H 4.0990074528 -1.1718008093 0.3970898506
H 1.0323660649 -0.6900781332 -1.4032169400
H 2.4263059281 0.2840301264 -3.5698292797
H 0.9116113878 3.5324228080 -1.3992045010
