44
CONF26
C -0.9348521316 -2.2074014371 1.4744831432
C -0.9822465581 -0.7235298474 1.1211335463
C -1.9675950687 -0.5262280898 -0.0335443178
O -1.6680313043 -0.6055316905 -1.2077862035
O -3.2037420238 -0.3384115712 0.4378614393
C -4.2913696932 -0.1833762030 -0.5485434730
C -5.5575935557 -0.5935300314 0.1722513232
C -4.3093886946 1.2552873331 -1.0289281906
N 0.3309331484 -0.1617265398 0.7443678740
C 1.3928334540 -1.0123360133 0.3004378712
C 1.6482452482 -1.1548977304 -1.0626987913
C 2.6937574234 -1.9622609330 -1.4935947206
C 3.4592280302 -2.6331961944 -0.5560754479
C 3.2052762113 -2.5052929111 0.8066596299
C 2.1723187593 -1.6859746772 1.2394545406
Cl 4.1995955575 -3.3602913917 1.9571119290
F 4.4676226559 -3.4218758158 -0.9708866024
C 0.3259689559 1.1819978921 0.4632693462
O -0.7167651070 1.8398778439 0.5319478202
C 1.6168836542 1.8367954932 0.0977991963
C 2.7761819200 1.6696114766 0.8604600900
C 3.9341322119 2.3631922861 0.5237934461
C 3.9466977929 3.2095467454 -0.5834213064
C 2.7900677723 3.3804632686 -1.3423688307
C 1.6234746192 2.7082472671 -0.9946713591
H -1.9445220292 -2.5278876341 1.7435567131
H -0.5890022617 -2.8111767780 0.6314389805
H -0.2814386847 -2.3815763677 2.3318342111
H -1.3521151092 -0.1560053194 1.9796237139
H -4.0768175267 -0.8651909474 -1.3770615112
H -5.7445163481 0.0653032530 1.0259902593
H -5.4895271939 -1.6258618675 0.5259001718
H -6.4044008652 -0.5173799313 -0.5158067103
H -5.1170187669 1.3852954336 -1.7556317309
H -3.3648595832 1.5216311199 -1.5097095962
H -4.4867062195 1.9326754366 -0.1874992451
H 1.0279961723 -0.6315970762 -1.7808303145
H 2.9178761829 -2.0852093936 -2.5476306566
H 1.9907344443 -1.5563794259 2.3000911012
H 2.7688562951 1.0154741232 1.7256986838
H 4.8279691504 2.2422566126 1.1275144222
H 4.8550508622 3.7403820896 -0.8504690107
H 2.7960660188 4.0417245331 -2.2030613615
H 0.7147432906 2.8443643247 -1.5724600774
