47
CONF20
C -5.8751233316 -2.8713798473 0.0200665562
O -6.3475095865 -1.5089675006 0.2241086099
P -5.3599409402 -0.2749832439 -0.0086586857
S -4.2685190576 -0.2894928777 -1.6164597961
O -6.3443226394 0.9646987418 0.2051836373
C -7.1914467046 1.4229137287 -0.8881341059
O -4.5495409327 -0.2646516979 1.3964863161
C -3.3640256692 0.4596685503 1.5558057760
C -2.1843441889 -0.2544147680 1.7232894791
C -0.9990523125 0.4353354370 1.9423337691
C -0.9983404634 1.8331802318 1.9604027051
C -2.1927647660 2.5353353983 1.7840214988
C -3.3870547074 1.8466573511 1.5942582247
S 0.4840358978 2.7758207239 2.2976383679
C 1.7461615737 1.8617520681 1.4202903451
C 2.9680404937 1.6406460877 2.0584277234
C 3.9993399473 0.9942365959 1.3840566334
C 3.7878216648 0.5612915794 0.0838024957
C 2.5765361935 0.7723276299 -0.5669298764
C 1.5568746365 1.4360630848 0.1023613304
O 4.8493553605 -0.0547730379 -0.5800117673
P 4.8109960069 -1.6338312634 -0.9911150207
S 3.9237771268 -2.7995979603 0.2789384637
O 6.3597874159 -1.8678721624 -1.3014756600
C 7.3258502246 -1.8646284583 -0.2111993708
O 4.1619478216 -1.7120973003 -2.4440507125
C 4.6744414334 -0.8797662851 -3.5326287667
H -5.5594967675 -3.0052649209 -1.0174818002
H -6.7273354250 -3.5120281492 0.2439798263
H -5.0492497482 -3.0885558608 0.7029318996
H -7.8848380043 0.6311363401 -1.1832059619
H -7.7401822152 2.2766238604 -0.4921524701
H -6.5733830454 1.7276571098 -1.7361772001
H -2.2018791585 -1.3386767797 1.6938862186
H -0.0769704344 -0.1164805692 2.0907263708
H -2.1950123660 3.6204831616 1.7927069023
H -4.3203554364 2.3833911348 1.4634019131
H 3.1142366064 1.9628997925 3.0841194937
H 4.9529122216 0.8087645619 1.8666307855
H 2.4380544110 0.4373850607 -1.5897712799
H 0.6141362728 1.6189813580 -0.4024108953
H 8.2923290954 -2.0564639964 -0.6756052700
H 7.3292487419 -0.8895394325 0.2826878335
H 7.0830597709 -2.6563949544 0.5021700612
H 3.9816534730 -1.0280199426 -4.3599888973
H 4.6826641513 0.1705989669 -3.2306601187
H 5.6774262429 -1.2099673400 -3.8095495949
