39
CONF435
C 5.0648153300 3.1627236454 1.1070529151
C 6.1870297632 2.1684171694 1.4087076496
C 5.7101232006 0.7163016293 1.5159343026
C 5.1428289828 0.1582302707 0.2108347012
C 4.6538163327 -1.2945134084 0.3248052930
C 5.8173082926 -2.2939664968 0.2223930889
C 5.4757193114 -3.7178806738 0.6604811011
C 3.6023016218 -1.6006925882 -0.7359500114
O 2.4274601045 -0.7782457679 -0.4798335937
C 2.1469490921 0.2017415646 -1.3615206324
O 2.6848263928 0.3671005617 -2.4287368570
C 1.1189670863 1.1268670599 -0.7827974586
C 1.3206014820 1.5508845776 0.5272582710
C 0.5066978642 2.5176816710 1.0936044167
C -0.5541281110 3.0645679991 0.3660047320
C -0.7872531836 2.6146172735 -0.9465009142
C 0.0549276037 1.6528166294 -1.5220116739
Br -0.2830751898 0.9974167965 -3.2667013953
Br -2.2436176107 3.3124940778 -1.9323628284
Br -1.6560302322 4.3843158932 1.1481742863
Br 0.8970155945 3.0518952438 2.8737147655
H 4.2552543836 3.0720124562 1.8409671040
H 5.4316342176 4.1926924790 1.1438544298
H 4.6342618805 3.0073765541 0.1128706186
H 6.9621627578 2.2400031903 0.6344216987
H 6.6686894127 2.4489902063 2.3531093187
H 6.5431666804 0.0898704068 1.8592834348
H 4.9354635098 0.6527069110 2.2942125763
H 5.8971983227 0.2232387392 -0.5862559324
H 4.3139610277 0.7975443154 -0.1100875426
H 4.1721859760 -1.4229811704 1.3063085100
H 6.6416103833 -1.9208600913 0.8404491941
H 6.1917304318 -2.2967125661 -0.8106350627
H 5.0901809800 -3.7279716441 1.6854770740
H 4.7231584808 -4.1822008641 0.0162719699
H 6.3635374032 -4.3562482441 0.6317771519
H 3.2499691773 -2.6329852842 -0.6764080243
H 3.9729400022 -1.3954326985 -1.7449188835
H 2.1362593931 1.1299782335 1.1012711816
