49
CONF129
C 2.8799419749 -1.4923746899 -3.0629282054
C 1.7608890532 -1.1565532025 -2.0841659062
C 0.5682890422 -2.1162181320 -2.2626096890
C -0.5378202405 -1.8416110533 -1.2777006944
C -0.4163505974 -2.2392694386 0.0612939269
C -1.3836789909 -1.9207083489 1.0001539985
C -2.5113025411 -1.1824774272 0.6220518296
C -2.6641611986 -0.7879173929 -0.7076712350
C -1.6771115627 -1.1224532982 -1.6377847888
O -3.3974487767 -0.8975862984 1.6221354804
C -4.5761607132 -0.1673100859 1.2687396300
N 1.2770440350 0.2174430006 -2.2907847468
C 2.2120910512 1.2877296375 -1.9509264719
C 2.8426825565 1.2363864667 -0.5487606494
C 1.8569691754 1.0114817280 0.5732495627
C 0.6276715023 1.6634145644 0.6113483872
C -0.2761174592 1.4718015068 1.6595550750
C 0.0648873295 0.6128783914 2.7253466203
C 1.3106297486 -0.0190351590 2.6942729905
C 2.1828481621 0.1605067178 1.6324048808
O -0.7639056073 0.3112419673 3.7506916283
N -1.5402144490 2.1092286113 1.5264502281
C -2.3889405885 2.5586021370 2.4695534050
O -2.2518833221 2.4284871539 3.6938337241
O 3.5247339175 2.5037708511 -0.4100860802
H 3.1992704466 -2.5301432825 -2.9260097734
H 3.7545196266 -0.8520918788 -2.9119174377
H 2.5336870300 -1.3652741447 -4.0947134730
H 2.1385966078 -1.3042510256 -1.0545900022
H 0.1929319414 -2.0205070709 -3.2886303108
H 0.9387332762 -3.1399306317 -2.1353482393
H 0.4595264348 -2.8023440316 0.3741977715
H -1.2784459169 -2.2237439102 2.0369394099
H -3.5320433816 -0.2276692465 -1.0336858133
H -1.8035347992 -0.8072101969 -2.6705622138
H -4.3235312359 0.8132580384 0.8470536511
H -5.1323621681 -0.0329499280 2.1971421724
H -5.1863826975 -0.7277420426 0.5500139506
H 0.4427910311 0.3361381910 -1.7218854691
H 1.6790766615 2.2420303634 -2.0467757585
H 3.0305811809 1.3178266425 -2.6800610468
H 3.5843932471 0.4252112025 -0.5098084652
H 0.3445822567 2.3403288985 -0.1913379077
H 1.5594244126 -0.6834353074 3.5157305318
H 3.1332426714 -0.3668124982 1.6232346350
H -1.3984572743 1.0698670518 3.8747239079
H -1.7980693631 2.3446140297 0.5763392945
H -3.2592273234 3.0771801085 2.0398017876
H 3.9971156172 2.4881917746 0.4321467146
