51
CONF18
C 0.6809790300 -2.4891356439 -1.2733185496
C 1.2205423122 -1.1896958510 -1.8114632909
C 0.4136561014 -0.3591980738 -2.6124429128
C 0.9229766380 0.8213336626 -3.1499523986
C 2.2412283868 1.1905462436 -2.9210709838
C 3.0427323077 0.3879297593 -2.1234549692
C 2.5465733332 -0.7900740836 -1.5526018694
C 3.4552780179 -1.5763096245 -0.6824207126
C 4.7029879139 -1.9934194193 -1.1583321977
C 5.5777385196 -2.6991353335 -0.3388166978
C 5.2225650849 -2.9943458932 0.9737755812
C 3.9867259379 -2.5780987642 1.4616077175
C 3.1115666725 -1.8769970262 0.6403351958
C -1.0222022125 -0.7127946849 -2.8843683596
O -1.7814296722 -0.8000678695 -1.6418068061
C -2.0395950765 0.3920574683 -1.0479106610
O -1.8376476302 1.4668724644 -1.5669360484
C -2.5419522918 0.1712225257 0.3278260424
C -3.0432150946 1.3668543604 1.1188357308
C -1.7298810604 0.7033176377 1.5027146365
C -0.4625073371 1.4859935122 1.2470612360
C -1.6669009972 -0.1732693105 2.7329847400
C -4.2465282219 1.2122504183 1.9416564490
C -5.0250220651 2.2024856474 2.3877054354
C -4.7536711583 3.6652424955 2.1056307722
F -4.9814681168 3.9644194839 0.8025759359
F -3.4556124894 3.9698051308 2.3563860342
F -5.5070769706 4.4913472817 2.8456596151
Cl -6.4648440159 1.8666060105 3.3145852754
H 0.0891611476 -2.3355911896 -0.3643846605
H 1.4891996371 -3.1821399498 -1.0353339905
H 0.0167556655 -2.9702992412 -1.9961672157
H 0.2686397916 1.4603207808 -3.7342475069
H 2.6337758575 2.1106528051 -3.3411197814
H 4.0656400497 0.6811689552 -1.9072816652
H 4.9775524115 -1.7724404380 -2.1855565572
H 6.5381237949 -3.0220261852 -0.7281999167
H 5.9051343866 -3.5436191368 1.6140055091
H 3.7062413387 -2.7948045448 2.4875985938
H 2.1544621438 -1.5422260013 1.0287683143
H -1.1321861655 -1.7050594738 -3.3287294226
H -1.4859785728 0.0296846124 -3.5382708993
H -3.0227721246 -0.7878745367 0.4936069057
H -2.9182683689 2.3087624024 0.5951744915
H -0.5517022833 2.1445406452 0.3820177655
H -0.2261810324 2.0952762963 2.1256159448
H 0.3786581378 0.8043531066 1.0704673102
H -0.8033615750 -0.8440953664 2.6674268277
H -2.5595975754 -0.7890000087 2.8610165442
H -1.5466490401 0.4434013535 3.6303796487
H -4.5426428824 0.2018186770 2.2087701329
