21
CONF19
C -1.6734625542 -0.2539354919 0.2489105935
C -2.6487724965 0.9272298940 0.3228039568
O -3.9478752724 0.4859233303 0.7053935245
C -0.3070605571 0.1701824533 -0.2378423015
C 0.7218129365 -0.9924646511 -0.2687837387
C 2.1071252341 -0.7584979404 -0.9642483164
C 2.9600662201 0.4655880504 -0.5115249888
F 2.4217837833 1.6102264894 -0.9460493471
F 3.0691474105 0.5031697204 0.8232429495
F 4.1877844616 0.3490668118 -1.0391774328
F 2.8446533594 -1.8698209743 -0.7167415670
F 1.9180894435 -0.6541722566 -2.2977107943
F 0.9526362458 -1.3785433827 1.0118099734
F 0.1555359968 -2.0378134903 -0.9305533772
F 0.2069570669 1.1433321438 0.5816232788
F -0.3870317143 0.6986606166 -1.4979298137
H -2.0709325303 -1.0110984272 -0.4319646133
H -1.5533469361 -0.7133210741 1.2365581009
H -2.2688830217 1.6994874986 1.0044676346
H -2.7640549478 1.3776692645 -0.6664700967
H -3.9241719112 0.2391316164 1.6363761762
