24
CONF3
C -1.0219121430 -1.9758695243 1.4777088446
N -1.4493781823 -0.7625623972 0.7957268363
C -0.6134667178 0.2540139177 0.3513576098
C -1.4254246462 1.2305697119 -0.2071315173
C -2.7691939586 0.8119914441 -0.1032930879
C -2.7439117823 -0.4246775245 0.5152221965
Br -4.1772544514 -1.5489077579 0.9367662967
Br -4.2888863287 1.7223806411 -0.7003591655
Br -0.8079410170 2.8087769187 -1.0111496646
C 0.8246929541 0.1958804120 0.4585832108
C 1.7305044597 -0.6471925940 -0.1687760632
C 3.0343497608 -0.2853325967 0.2321846077
C 2.8916771668 0.7839840265 1.0974839162
N 1.5635544683 1.0740334311 1.2412939485
C 1.0142727212 2.1128978308 2.1010152227
Br 4.2219144453 1.7603241898 1.9767693496
Br 4.6436162489 -1.0704656301 -0.3049791310
Br 1.2728355350 -1.9993957387 -1.3856463711
H 0.0494195480 -1.8989564370 1.6671098826
H -1.5576376398 -2.0811007761 2.4248504455
H -1.2109797168 -2.8536701751 0.8533111615
H 1.2831917103 3.1040277953 1.7248813564
H 1.3944040540 1.9953201713 3.1193227262
H -0.0719629820 2.0151492407 2.1000347521
