41
CONF130
C -3.6284777526 -1.2277835587 3.1408726443
C -3.8518605603 0.1575864042 2.5319710221
N -3.5728882140 0.2317288236 1.0974758917
C -4.6964188266 0.1049166916 0.1802972991
C -4.9081488241 -1.3237564044 -0.3215602986
O -5.8903210526 -1.2398075758 -1.3524682734
C -2.2854491989 0.2932654946 0.6256824521
C -2.0035883329 0.2839830331 -0.7628890594
C -0.7072499014 0.3891564336 -1.2193891956
C 0.3755914866 0.4960860106 -0.3345516490
C 0.1092064725 0.4918072282 1.0476611187
C -1.1796812666 0.3891747454 1.5149044983
N 1.6340595550 0.5958627075 -0.9145360979
N 2.6046986001 0.6746993858 -0.1040939705
C 3.8623477024 0.7928133780 -0.7229977686
C 4.9601893756 0.8286016904 0.1488312600
C 6.2483762856 0.9477838154 -0.3431686887
C 6.4294639649 1.0353669892 -1.7195907902
C 5.3547854573 1.0050720946 -2.6086942276
C 4.0720676028 0.8832643555 -2.1109523243
N 7.7928850037 1.1658180916 -2.2527260686
O 8.7201827883 1.1838038271 -1.4485003814
O 7.9235196389 1.2489566467 -3.4702073084
H -3.7984923184 -1.1944147809 4.2216479594
H -2.6082305221 -1.5787793444 2.9644680146
H -4.3172027099 -1.9607789424 2.7119923785
H -3.2458368110 0.9063477054 3.0551164710
H -4.8937993871 0.4595070184 2.6749762077
H -4.5591462566 0.7646649581 -0.6836991660
H -5.6032702223 0.4464216848 0.6880698509
H -3.9568712202 -1.7293366357 -0.6976003691
H -5.2499264521 -1.9642882000 0.5054653042
H -6.0739122966 -2.1275957141 -1.6756181671
H -2.8008181954 0.1928255786 -1.4887441291
H -0.4999208459 0.3866857072 -2.2847106228
H 0.9371006451 0.5698258265 1.7426220264
H -1.3379432101 0.3846397126 2.5854464508
H 4.7735010624 0.7601195313 1.2150165238
H 7.1087231367 0.9757898900 0.3132187689
H 5.5443747330 1.0786319042 -3.6723370348
H 3.2183818829 0.8584922963 -2.7767010486
