55
CONF142
C 5.7148902001 -3.5819541544 -1.7051717026
O 4.3428214757 -3.6459672571 -1.2897606157
C 3.7514623819 -2.4867509784 -0.8910055438
C 4.3888008278 -1.2443049275 -0.8538351908
C 3.6767981648 -0.1271613397 -0.4220495501
C 2.3410863410 -0.2141652147 -0.0315331365
C 1.7213372774 -1.4706373366 -0.0663594039
C 2.4129600775 -2.5924641611 -0.4905435031
C 1.6239574118 1.0407919556 0.3904242846
S 0.7900398723 0.7246518360 2.0269511235
C -0.4372587432 2.0166522996 2.0908140467
C -0.3508543546 2.9878437226 3.0922378905
C -1.3425258642 3.9517896467 3.2302192302
C -2.4173025204 3.9706397502 2.3443290991
C -2.5046494966 3.0223730069 1.3327089280
C -1.5291366718 2.0314613065 1.2030155473
N -1.6754463747 1.0496620364 0.1828616641
C -2.8988468434 0.2300122023 0.1765188135
C -2.7389410928 -0.9583450400 1.1273205953
N -3.9306942186 -1.8075132930 1.1431171316
C -3.9043758583 -2.6844131903 2.3177388006
C -4.0118637721 -2.6236200514 -0.0730809454
C -0.6833639905 0.7312558117 -0.6989867474
O -0.7948292000 -0.1607796512 -1.5364862858
C 0.5871183225 1.5828515894 -0.6110773880
O 1.2475524557 1.6063217033 -1.8870266547
C 0.5787098967 2.2517116813 -2.8771406283
C 1.3162748791 2.1583780739 -4.1744279988
O -0.4865340255 2.8043653653 -2.6986501904
H 5.8315723613 -2.9199247853 -2.5709006217
H 5.9866921795 -4.6006699022 -1.9821536802
H 6.3569285771 -3.2381417154 -0.8860784206
H 5.4246360461 -1.1312558731 -1.1488094978
H 4.1789362587 0.8360487456 -0.3954915215
H 0.6877456339 -1.5760548785 0.2454845442
H 1.9317197893 -3.5650301607 -0.5152758510
H 2.3643273460 1.8334766796 0.5366033835
H 0.4985776469 2.9744596904 3.7669901733
H -1.2680505301 4.6935616099 4.0184699318
H -3.1845858945 4.7329647366 2.4301085277
H -3.3309295019 3.0502747184 0.6299361682
H -3.0758305680 -0.0924311217 -0.8505326043
H -3.7389457723 0.8502816155 0.4969017316
H -1.8299636416 -1.5288058355 0.8503394721
H -2.5787379817 -0.5653318647 2.1391069013
H -3.0247713249 -3.3562541950 2.3231972075
H -4.8060531555 -3.3053140635 2.3321599404
H -3.8837076121 -2.0825312698 3.2319127210
H -4.9085777644 -3.2498750569 -0.0320583857
H -4.0850400575 -1.9912645065 -0.9620179457
H -3.1312309851 -3.2842946298 -0.1885184048
H 0.3257989062 2.6080341704 -0.3330491917
H 1.1388590188 1.1639439999 -4.5991144327
H 0.9416876540 2.9123193127 -4.8659354521
H 2.3917549936 2.2691304997 -4.0223967543
