43
CONF30
C -2.7829577797 -1.9695475753 1.4473558136
Si -1.7288144103 -0.5596566228 2.0579967281
C -2.2915841418 0.0788849997 3.7165060635
O -0.1769240116 -1.1379546646 2.1421660494
O -1.7812333623 0.7289016178 1.0206486152
Si -1.7689910928 0.9602546230 -0.6145082068
C -0.9756365487 2.6131848073 -0.9420518275
C -3.5134256348 0.8629460195 -1.2573836737
O -0.9199625608 -0.2594892220 -1.3308543207
Si 0.6120523796 -0.6701987614 -1.7801408741
C 0.8808377131 -2.4515354177 -1.3115929659
C 0.7943949660 -0.3751289589 -3.6083774226
O 1.6927213235 0.3192725486 -1.0198545062
Si 2.6772611820 0.5088568541 0.2838769176
C 3.5647518506 -1.0667077276 0.7097976573
C 3.7995035178 1.9438636173 -0.0871872794
O 1.7562996739 0.8471351446 1.6445762494
H -3.8359729285 -1.6743499087 1.3863694853
H -2.7106429769 -2.8270854366 2.1256669137
H -2.4593398712 -2.2954161371 0.4524710792
H -3.3218502202 0.4483113728 3.6667317310
H -2.2497864715 -0.7117068896 4.4734923422
H -1.6507579721 0.9029079859 4.0504389545
H 0.5199446411 -0.4593084998 2.0461265778
H 0.0250321684 2.6615324675 -0.4996616070
H -0.8821710847 2.7939973893 -2.0185689469
H -1.5789576008 3.4206797331 -0.5128205709
H -3.5426427283 1.0340510084 -2.3390430043
H -4.1493481793 1.6135981861 -0.7759603303
H -3.9415904119 -0.1255599451 -1.0570547144
H 1.8934116156 -2.7812640010 -1.5672594376
H 0.7298629487 -2.5971856270 -0.2367547399
H 0.1689884695 -3.0912838271 -1.8452179331
H 1.7965082622 -0.6527096568 -3.9529333900
H 0.0641241854 -0.9649118740 -4.1727770717
H 0.6337104341 0.6828807896 -3.8445605418
H 2.8586695960 -1.8419442732 1.0255896724
H 4.1215162921 -1.4445828790 -0.1539810385
H 4.2740037751 -0.8964538771 1.5268482680
H 3.2144474936 2.8496049471 -0.2834528189
H 4.4720509509 2.1451835249 0.7529801421
H 4.4093495196 1.7379997472 -0.9734910587
H 1.3031469074 1.6999345731 1.6558485388
