65
CONF6
C 8.5683242392 -2.6820820183 -4.9632747457
O 8.2425689232 -3.2121428700 -3.6737129364
C 6.9718991272 -3.0084102538 -3.2134491469
C 6.6892632087 -3.5420169594 -1.9508913928
C 5.4255355695 -3.3894747743 -1.4005099462
C 4.4076481296 -2.7107679823 -2.0840587786
C 4.7107313424 -2.1838633535 -3.3395183175
C 5.9754578229 -2.3245752778 -3.9130074026
C 3.0640665655 -2.4905885112 -1.4480976990
C 3.0801499456 -1.1985403569 -0.5938941399
N 1.8467732447 -0.8487482061 0.1078672796
C 0.7274012539 -0.5540511485 -0.7898771943
C -0.4324966928 0.0450296908 0.0010945911
C -0.8718132038 -0.9156896237 1.1097165970
C 0.3221509423 -1.2839411754 1.9845516768
C 1.4579248008 -1.8307802443 1.1224834824
N -1.9320482549 -0.3383973796 1.9493830595
C -3.1869165967 -0.1864864866 1.4339933787
N -3.7109371705 -0.9020064734 0.4506366858
C -5.0061898844 -0.4235706767 0.3208110162
C -6.0138359200 -0.8043378814 -0.5635451922
C -7.2382133985 -0.1391722405 -0.4924665673
C -7.4602659630 0.8844535373 0.4377127313
C -6.4642208905 1.2774696795 1.3355122305
C -5.2518858018 0.6075919924 1.2590678041
N -4.0699514851 0.7319206753 1.9775628089
C -3.7286791966 1.7669480487 2.9433523858
C -2.6969767968 2.7346695253 2.4005056505
C -2.7935928823 3.2091595113 1.0897398183
C -1.8456508545 4.0887420533 0.5798824066
C -0.8039673900 4.4808930757 1.4058478350
C -0.6720096501 4.0338717124 2.7083708956
C -1.6316255427 3.1510253439 3.1993653096
F 0.1277723977 5.3359191711 0.9129930262
H 9.6116480001 -2.9468631522 -5.1379469359
H 8.4581058323 -1.5910965465 -4.9811801946
H 7.9402710067 -3.1281546360 -5.7438964441
H 7.4705065813 -4.0757880686 -1.4185795736
H 5.2203060485 -3.8109845434 -0.4193724865
H 3.9417032013 -1.6509450092 -3.8936002594
H 6.1637300318 -1.9052069261 -4.8939064215
H 2.2942827052 -2.4086537064 -2.2228055431
H 2.8095275765 -3.3464207796 -0.8134598968
H 3.3472748797 -0.3581627375 -1.2492074156
H 3.8801317997 -1.2908677924 0.1535902918
H 0.3666142427 -1.4603660443 -1.3153519725
H 1.0685007411 0.1535387391 -1.5550083904
H -0.1169865513 0.9932192756 0.4579116382
H -1.2741872522 0.2540555332 -0.6686137096
H -1.2765820447 -1.8278455867 0.6552831515
H 0.6704285068 -0.3898688707 2.5198600892
H 0.0271810167 -2.0319513013 2.7286959483
H 2.3308752009 -2.0506923445 1.7484333001
H 1.1290552978 -2.7865764919 0.6689445543
H -1.6081515495 0.4453995297 2.5033284214
H -5.8433326296 -1.5950059531 -1.2878152499
H -8.0360019082 -0.4189579573 -1.1735080557
H -6.6418233571 2.0718840062 2.0533664186
H -4.6543023931 2.2935444444 3.1961949951
H -3.3645490695 1.3054150833 3.8689353433
H -3.6121228048 2.8834366729 0.4541184464
H -1.9061089478 4.4635325726 -0.4360054476
H 0.1642456498 4.3607387219 3.3164669507
H -1.5410560271 2.7781197818 4.2158841195
H -8.4231748026 1.3843344281 0.4641865831
