59
CONF301
C 7.2173938436 -0.8966020660 -0.5793305310
C 7.9400014865 -1.6357732064 0.5836021881
C 6.8687791313 -2.5363042400 1.2284481351
C 5.5326039135 -1.8473577541 0.9136397246
C 5.7568156554 -1.3894130128 -0.5418078902
C 5.2953214508 -0.6506588919 1.8380250319
C 3.9767007338 0.0384733539 1.6026855785
O 3.8208935188 1.2335573820 1.8101508458
N 2.9085845852 -0.7445121617 1.1527256971
C 3.0123096965 -2.1013886633 0.8270476213
O 2.0488256334 -2.7035404631 0.3750242547
C 4.3357965865 -2.7747954784 1.0774654777
C 1.6211590677 -0.0728560562 0.8944033523
C 1.5629907720 0.4831942604 -0.5278725030
C 0.2568096327 1.2268624181 -0.8170376711
C -0.9637599144 0.3063893412 -0.7781827730
N -2.1534561266 0.8961579216 -1.4068082908
C -2.6596628789 2.0396613083 -0.6360906256
C -3.8929362276 2.6367186216 -1.3081303941
N -4.9301161622 1.6175321638 -1.4624625068
C -4.4404621111 0.4618526148 -2.2141940856
C -3.2074422733 -0.1191396959 -1.5295352491
C -5.9781829058 1.5184221288 -0.5912164862
N -6.1924654542 2.5581995103 0.2524920465
C -7.2531683126 2.4635869800 1.0514500078
C -8.1126648543 1.3710017556 1.0522753126
C -7.7972821854 0.3565584641 0.1555003377
N -6.7485920702 0.4048249575 -0.6629984546
H 7.6788339597 -1.1034966974 -1.5485443747
H 7.2627294747 0.1866643571 -0.4312260036
H 8.7939030490 -2.2212704422 0.2324975560
H 8.3257085730 -0.9160836391 1.3122241333
H 7.0179424518 -2.6876988242 2.3027090504
H 6.8654973354 -3.5230178556 0.7487946082
H 5.0414152143 -0.6261890503 -0.8685781013
H 5.6316125862 -2.2592421081 -1.1979000475
H 5.2966936491 -0.9890707725 2.8844736167
H 6.0717396742 0.1127181259 1.7450246764
H 4.3932445441 -3.6346871021 0.4043806958
H 4.3063086402 -3.1635237741 2.1062615469
H 1.5166967686 0.7334678657 1.6237017994
H 0.8365922207 -0.8109471573 1.0647325244
H 2.4088766609 1.1653788588 -0.6694241177
H 1.6863358010 -0.3421875545 -1.2402722117
H 0.3184762655 1.6773375183 -1.8149428045
H 0.1486984630 2.0488663005 -0.0990387459
H -1.1851425207 0.0036776899 0.2643753485
H -0.7249242184 -0.6118828291 -1.3318032649
H -2.9201111854 1.7412598583 0.4004931592
H -1.8858104075 2.8116328493 -0.5792828450
H -3.6238015912 2.9995434513 -2.3085920090
H -4.2781971323 3.4704963102 -0.7232567295
H -5.2244554820 -0.2899869930 -2.2907446008
H -4.1734570448 0.8025552559 -3.2228914003
H -3.5034685022 -0.5192381854 -0.5380447705
H -2.8233239011 -0.9546877349 -2.1265233134
H -7.4203866605 3.3027104806 1.7264137680
H -8.9685455999 1.3111484560 1.7125607385
H -8.4130639056 -0.5403703078 0.0920870260
