37
CONF81
C -0.5483685579 -0.6105165863 -2.8253221804
C -1.8807773919 -0.0581823329 -2.3635138460
O -2.1837838432 -0.4557303895 -0.9934184616
P -1.4412464398 0.2847735894 0.2027185978
O -0.9687575990 1.6657400008 -0.0456597111
O -2.4956910882 0.0235185056 1.3559246557
C -2.1740311506 0.4586223526 2.7229924937
C -2.5800323824 1.8995075113 2.9349982981
O -0.2146155313 -0.7396086018 0.5563719277
P 1.2733802564 -0.3084391017 1.0896748503
O 1.2789998388 0.3748818086 2.3948436388
O 1.9983479305 -1.7194672550 1.0829535911
C 2.0354762394 -2.5563352532 -0.1126307788
C 1.0903038002 -3.7259771423 0.0455247548
O 1.9164172210 0.4704198073 -0.1469357027
C 2.1628787321 1.9148148867 -0.0707805151
C 1.9819731229 2.4851373574 -1.4556451142
H -0.4078459027 -0.3791507096 -3.8862766322
H -0.5174625101 -1.6970724621 -2.7003509991
H 0.2799814636 -0.1628896607 -2.2676726106
H -1.9060287447 1.0348221524 -2.4263727499
H -2.7082241358 -0.4688046543 -2.9468804629
H -1.1054308277 0.3074535744 2.9127996776
H -2.7457057241 -0.2231918696 3.3569798074
H -2.0039718827 2.5626431100 2.2853550791
H -3.6452883391 2.0372006990 2.7303065221
H -2.3857082303 2.1766096959 3.9762027647
H 3.0747549458 -2.8859728976 -0.1993020747
H 1.7927505206 -1.9551310228 -0.9954298277
H 1.3395859353 -4.3028814345 0.9399088174
H 0.0563355343 -3.3819736270 0.1250118683
H 1.1744974353 -4.3839447598 -0.8257698765
H 1.4624338781 2.3598988601 0.6388065661
H 3.1855051576 2.0441990432 0.2985390755
H 0.9428809991 2.3695375630 -1.7729338759
H 2.2226658414 3.5528396834 -1.4408894227
H 2.6438022387 1.9926492632 -2.1741277362
