20
CONF7
C 0.6093094471 0.5174979978 1.0809615858
N 1.3890434711 -0.4774766757 0.3523086789
C 0.6428651268 -1.6448772154 -0.0923456120
N -0.6986425624 -1.2052340268 -0.5252492060
C -0.7727605890 0.1747822431 -0.9660308914
N -0.4245318598 1.0535038506 0.1766122030
N -0.3345254817 2.4218202291 -0.1483798028
O -0.8345058871 2.7435908766 -1.2167254658
O 0.1702737652 3.1556163915 0.6815234846
N -1.7955576465 -1.6376733550 0.2972462892
O -1.6227472982 -2.6632491972 0.9313629891
O -2.8146795318 -0.9799906207 0.2293571031
N 2.4093541104 -0.0923206958 -0.4900444420
O 2.8046104461 1.0356743942 -0.3294600823
H 0.1421402509 0.0331460780 1.9447940372
H 1.2523463642 1.3342116770 1.4150310989
H 1.1881100475 -2.0915565730 -0.9304005415
H 0.5207012179 -2.3803864399 0.7060067783
H -1.7728410894 0.4092974619 -1.3235596351
H -0.0579619994 0.2936232978 -1.7930085642
