38
CONF81
C 4.3018430336 -0.3319559378 -0.4096187319
C 3.5871550247 0.0279709059 0.8886542553
C 4.3382719302 -0.5387356350 2.0913111543
N 2.2150165355 -0.5194222795 0.8406154893
C 1.2736994083 0.1170470456 1.7735719322
C 0.1650526565 -0.8715623007 2.1373018757
O 0.7359874136 -2.0788812776 2.6412585703
C -0.7314855674 -1.2302371229 0.9552234576
O -1.3304680507 -0.0201040595 0.4777617618
C -2.1822455413 -0.1073038262 -0.5838052703
C -2.5347486407 -1.2829438459 -1.2362716741
C -3.4286430153 -1.2526102322 -2.3260865351
C -3.9869828413 -0.0744352326 -2.7914063587
C -3.6213648863 1.0990150115 -2.1245323048
N -3.9989110214 2.4034976237 -2.3444911692
C -3.3764098203 3.2263865606 -1.4288004538
C -2.5856728284 2.4702774183 -0.6019122534
C -2.7264655592 1.1125355770 -1.0267143624
H 5.3303599055 0.0395484718 -0.3961277570
H 4.3303011987 -1.4200575325 -0.5363918559
H 3.7950805409 0.1047779332 -1.2773629540
H 3.5602077490 1.1301143469 0.9766689480
H 4.4381962289 -1.6251002817 1.9904498543
H 3.8233961367 -0.3308861774 3.0336932711
H 5.3396134253 -0.1009902420 2.1541481777
H 1.8613675147 -0.4023550100 -0.1035513167
H 1.8058743753 0.3671165915 2.6972137783
H 0.8357716160 1.0473698507 1.3809757884
H -0.4524155665 -0.4422136140 2.9354814913
H 1.5158788301 -2.2256053709 2.0776171736
H -0.1380312814 -1.7035109538 0.1590462683
H -1.5034271261 -1.9376977407 1.2845314415
H -2.1331321079 -2.2364833988 -0.9167913792
H -3.6826346867 -2.1901273703 -2.8105344272
H -4.6744322157 -0.0639093959 -3.6303007165
H -4.6346417212 2.7103004956 -3.0609978016
H -3.5507844359 4.2926430279 -1.4419606903
H -1.9801767052 2.8385284909 0.2118022157
