38
CONF12
C 2.6244515781 -1.7119045428 -1.3113794746
C 2.5468459753 -0.8489072754 -0.0991774785
N 1.3680862032 -0.7967113920 0.5355937766
C 1.3337836924 -0.0020049620 1.6125983715
N 2.3589032032 0.7054067948 2.0944407933
C 3.4830373595 0.5600915125 1.3887535326
N 3.6424503598 -0.1881872807 0.2885104283
O 4.5119778196 1.2508703500 1.8676865507
C 5.7787773214 1.1517318878 1.1681939145
N 0.1519156115 0.1329853468 2.3117644279
C -1.1191567425 -0.4002590304 2.0833707190
O -2.0627468787 -0.0491045786 2.7729126813
N -1.1971669745 -1.3300819206 1.0670664003
S -2.6952508548 -1.8677285679 0.4759945762
O -3.4329133914 -2.5033210811 1.5695265243
O -2.3614091531 -2.6466377598 -0.7184371255
C -3.5998216071 -0.3858263063 0.0389894624
C -3.2207452694 0.5725547738 -0.8872533637
S -4.4532180206 1.7907344996 -1.0063522828
C -5.4357293659 1.0026354937 0.1637782306
C -4.8565017958 -0.1436650003 0.6387288767
C -1.9902554788 0.6730895845 -1.6807125294
O -1.0582904342 -0.1037106159 -1.6086958308
O -2.0233074176 1.7428414406 -2.4946593153
C -0.8408083830 1.9388416549 -3.3110800675
H 2.4772335711 -2.7578438748 -1.0207627580
H 1.8148801750 -1.4538527731 -2.0005865674
H 3.5896049248 -1.6037877208 -1.8049647901
H 6.4571287124 1.7862246943 1.7368479238
H 5.6759664881 1.5168713492 0.1442424157
H 6.1293297692 0.1176492196 1.1643977704
H 0.1832722458 0.7737698394 3.0950589263
H -0.3896877471 -1.3873012176 0.4244314274
H -6.3900217720 1.4281643400 0.4460839929
H -5.3004346496 -0.7874361298 1.3855203622
H -0.6945717795 1.0782093080 -3.9675654453
H 0.0348175518 2.0746817754 -2.6720838623
H -1.0404261483 2.8384535587 -3.8907812047
