21
CONF31
F -0.1285729950 -1.7320693759 0.9587037321
C -0.0503411748 -0.3832853385 0.8188408225
F -0.6518000355 0.1958472745 1.8857301411
C 1.4607073902 0.0121682579 0.8267191063
F 1.9544627230 -0.5065775313 1.9981380543
F 1.5350693419 1.3722024385 0.9382091752
C 2.2774650896 -0.4755444628 -0.3456601051
C 3.7679828955 -0.1511704946 -0.1822939982
O 4.4983417182 -0.5343368344 -1.3433882471
C -0.8399691975 0.0082987067 -0.4680552620
F -0.4911595318 -0.8456091146 -1.4636998940
F -0.5121748590 1.2664957415 -0.8451607754
C -2.3945228354 -0.0466751390 -0.3259490983
F -2.7791476730 -1.2237108633 0.1858702381
F -2.9424337318 0.0949970324 -1.5421749377
F -2.8389083758 0.9403697373 0.4576593311
H 2.1276238596 -1.5567998452 -0.4414952041
H 1.9082715174 -0.0007134505 -1.2591253733
H 4.1687537324 -0.6275213726 0.7216529390
H 3.9041465158 0.9289829175 -0.0834036211
H 4.5530795480 -1.4958975074 -1.3656995941
