44
CONF69
C 3.9445107674 -1.6461600434 -2.1855103927
C 3.2459766794 -0.6527090630 -1.2618440477
C 4.0930672767 -0.2562946412 0.0051204195
N 3.1449903174 0.0520327223 1.0550324965
C 1.9313082468 -0.7783643410 1.1286785676
S 1.7042421823 -1.4745658222 -0.5578351438
C 1.1361579525 0.5053847781 1.5586221250
C 2.4616083059 1.2491744308 1.2402093604
O 2.8102802872 2.4012303665 1.1398529056
N 0.0000606080 0.8926905253 0.7944594910
C -1.2173258160 1.1380655140 1.3366874922
O -1.4521441132 1.1055965827 2.5440503246
C -2.3122293742 1.5054244229 0.3199382376
C -3.5929115702 0.7602944648 0.6363257559
C -4.8024888343 1.4357003246 0.7888362953
C -5.9905928634 0.7438333115 1.0142213547
C -5.9725726249 -0.6486526193 1.0896841332
C -4.7682774453 -1.3422402874 0.9423836996
C -3.5947553540 -0.6367111202 0.7183763070
O -7.1001479155 -1.3891541787 1.3088261642
N -1.8489131086 1.3373094744 -1.0699205802
C 5.0189517095 -1.3740777208 0.4581729869
O 6.2304161268 -1.2592859793 -0.1074854614
O 4.6997678291 -2.2619697441 1.2173179097
C 2.8599061518 0.6086402341 -2.0346808208
H 3.2874833790 -1.8955265503 -3.0232642745
H 4.2097904456 -2.5728561761 -1.6698155961
H 4.8528751686 -1.1914440380 -2.5936235069
H 4.6855358438 0.6343127290 -0.2258045800
H 1.9641334975 -1.5852973885 1.8622858843
H 0.0609102153 0.9564903916 -0.2165883311
H -2.4873646913 2.5770725910 0.4827251367
H -4.8236006422 2.5207595162 0.7311048583
H -6.9272720553 1.2822910596 1.1327987397
H -4.7658006661 -2.4255716949 1.0093176004
H -2.6617659063 -1.1858704718 0.6098409647
H -7.8613364260 -0.7988088365 1.3924688668
H -1.9961950541 0.3731731338 -1.3573884015
H -2.4329397633 1.8991680598 -1.6802615018
H 2.1781395987 0.3509290126 -2.8493435688
H 2.3654486757 1.3481581732 -1.3998022072
H 3.7599098510 1.0646649571 -2.4627719645
H 0.8773243190 0.5093047164 2.6216169516
H 6.7767379952 -2.0169274988 0.1684184053
