47
CONF73
C -6.8050708492 1.0835855620 -1.1216359778
O -6.4517240416 1.3286387386 0.2581851628
P -4.9123468157 1.2632640339 0.7055567985
S -3.6106570655 2.1121131229 -0.4410889523
O -5.0123097706 1.7701696518 2.2243224366
C -4.9859666835 3.1885714055 2.5050119402
O -4.7523207582 -0.3352725475 0.9406198527
C -3.4993569086 -0.8898943129 1.2122550460
C -2.7730466370 -1.4496371912 0.1686213060
C -1.5545929680 -2.0545912535 0.4391526705
C -1.0540535162 -2.0684603705 1.7442756112
C -1.7943587148 -1.4955140568 2.7793592567
C -3.0302451165 -0.9132064535 2.5168365344
S 0.4856975024 -2.8787245605 2.1490697786
C 1.5762096736 -2.3062856428 0.8546951163
C 1.5576704124 -0.9872779736 0.3950450864
C 2.4555455729 -0.5677340238 -0.5773867867
C 3.3996717032 -1.4675626312 -1.0628542313
C 3.4384991463 -2.7792375725 -0.6074188256
C 2.5155172426 -3.2025388567 0.3411731689
O 4.3192084159 -1.1373077411 -2.0566291400
P 5.1778191678 0.2359970205 -2.1123286240
S 6.7994518620 0.0533042759 -3.1321358652
O 5.3155042882 0.7133688494 -0.5769773197
C 6.2921808237 0.0714101499 0.2741536902
O 4.0674057172 1.2745136991 -2.6290127386
C 4.4738730100 2.6076981857 -3.0174076933
H -6.6039362133 0.0399572287 -1.3835773707
H -6.2443700342 1.7518700659 -1.7817554117
H -7.8742703775 1.2847379061 -1.1947913413
H -4.9618996312 3.2751622966 3.5917074522
H -4.0946248295 3.6452347437 2.0654180883
H -5.8876067630 3.6682827540 2.1119774559
H -3.1689153585 -1.4105639631 -0.8396807529
H -0.9835110118 -2.5063410785 -0.3647179362
H -1.4005660379 -1.4985524076 3.7901805549
H -3.6195943637 -0.4633485319 3.3075754719
H 0.8300280033 -0.2854812156 0.7882663139
H 2.4306689619 0.4505771377 -0.9453025469
H 4.1748094187 -3.4613732592 -1.0179347447
H 2.5229187152 -4.2332138752 0.6800479742
H 6.2696189406 0.6168222486 1.2181241136
H 6.0170092816 -0.9749909746 0.4446023475
H 7.2862402520 0.1298091964 -0.1789168814
H 3.5789149697 3.0858052526 -3.4164798533
H 4.8390073167 3.1614319969 -2.1469090151
H 5.2518729567 2.5547851832 -3.7842452127
