31
CONF26
F 0.6568408891 -1.5901674004 2.3847144946
C 1.2777997052 -1.1792004516 1.2623447729
F 2.1039824455 -0.1546965448 1.5671843711
C 0.2138721316 -0.7119945296 0.2221521507
F 0.7869999127 -0.6690522031 -1.0026665280
F -0.7951195614 -1.6122203249 0.2085775299
C -0.3812475975 0.7072314196 0.5369977042
F 0.5207556089 1.6437644177 0.1651145983
F -0.5946195610 0.8036324089 1.8687118834
C -1.7349914750 0.9875612256 -0.2057966497
F -1.6474590759 0.5167459210 -1.4708887763
F -2.7260199674 0.3327074581 0.4401059298
C -2.0997070004 2.5100396324 -0.2732073419
F -1.8328149544 3.0907861699 0.9194113811
F -1.3503157419 3.0975457336 -1.2298860657
C -3.6030526371 2.7867217177 -0.6087996095
F -3.9804221113 2.0727925932 -1.6787451687
F -3.7510997330 4.0895196751 -0.8822064220
F -4.3892302076 2.4758563194 0.4268458364
S 2.3635460512 -2.6408874620 0.6582033681
O 1.4631275631 -3.5140761747 -0.1015621430
O 3.0228456964 -3.0713872408 1.8955963164
N 3.4394095939 -1.9304159752 -0.3441020548
C 4.8313176201 -1.6425618376 0.0640248452
C 5.7709698193 -2.8147280623 -0.1724189623
H 3.2659889157 -2.1308999767 -1.3245685420
H 5.1402730124 -0.7662573982 -0.5145947938
H 4.8180852195 -1.3493823802 1.1166675411
H 5.4750757822 -3.6789904820 0.4288431791
H 6.7903195942 -2.5296382132 0.1054476815
H 5.7711419424 -3.1040482230 -1.2277196304
