65
CONF503
C -0.8415225423 2.7967497115 -0.2849641418
C -0.3999866406 3.3421253645 1.0694131721
C -0.6628482053 2.3643768480 2.2238840551
C -0.3971496282 3.0183002572 3.5859434642
C 0.2248112879 1.1409509596 2.0994527816
O 1.4394251848 1.1692000922 2.1823880342
O -0.4969564898 0.0214140959 1.9167011845
C 0.1709726123 -1.2821307784 2.0145283049
C -0.1962855203 -1.8980362632 3.3559498195
C -1.7105073051 -2.1221011517 3.5360540240
C -2.3927764991 -2.4159702308 2.2348949008
C -1.8046403501 -2.4231100749 1.0229455752
C -0.3206781811 -2.1455541422 0.8567793291
C 0.0202322381 -1.5826027422 -0.5399069318
C -0.5625376882 -2.4914421428 -1.6457636750
C -2.0198965019 -2.7554659247 -1.4001146790
C -2.5682324743 -2.7193612963 -0.1754011751
C 0.1763047271 -3.8327915322 -1.8166441433
C 1.5335559486 -1.3565606299 -0.6879260308
C 2.0066607039 -0.9048269034 -2.0735577619
C 1.5079848865 0.4632565624 -2.4994945319
C 1.8774043743 0.8188294649 -3.9229999891
C 1.5068364825 2.2661894070 -4.2205266400
C 2.2608000165 3.1735130336 -3.2667686011
C 2.3153913070 2.7113130158 -1.8305110335
O 2.6493760040 3.4562224904 -0.9271852190
O 2.0762391291 1.4234275776 -1.5326062753
O 0.1065443845 2.5103002032 -4.0059577098
C -2.4089093869 -0.9572302931 4.2620412602
H -0.3219203248 1.8629909561 -0.5242139156
H -1.9179302999 2.5934539602 -0.2928063658
H -0.6232956680 3.5095711633 -1.0862172246
H 0.6685078370 3.5877343432 1.0512985889
H -0.9392955199 4.2708231941 1.2910009233
H -1.7057162988 2.0320293928 2.1775284977
H -0.5615248547 2.3126502484 4.4066171017
H 0.6339885110 3.3799165508 3.6405415352
H -1.0721692785 3.8681550146 3.7221011996
H 1.2480300285 -1.1214336715 1.9592769394
H 0.3313054216 -2.8574300036 3.4104178767
H 0.1930809246 -1.2717822051 4.1667059112
H -1.8375350206 -3.0051110843 4.1803473076
H -3.4616638035 -2.6248897516 2.2922618758
H 0.2183456233 -3.0998949313 0.9604474361
H -0.4943994769 -0.6156604248 -0.6314151114
H -0.4812466190 -1.9508861795 -2.5986802354
H -2.6314649551 -3.0228338778 -2.2597050754
H -3.6277369220 -2.9336928648 -0.0445349869
H -0.3131229798 -4.4311717968 -2.5916608175
H 1.2204753398 -3.6915612569 -2.1108259472
H 0.1553885441 -4.4120287444 -0.8881107726
H 1.8587024319 -0.6074837001 0.0408357020
H 2.0590552832 -2.2847244026 -0.4281787537
H 3.1034220470 -0.8868530837 -2.0930650877
H 1.6953543791 -1.6165584637 -2.8458261069
H 0.4212687142 0.5379572198 -2.3762087075
H 2.9531432529 0.6757065798 -4.0864293927
H 1.3431933330 0.1397415794 -4.5970511158
H 1.7748046947 2.5219990335 -5.2546058312
H 3.3071866331 3.2446078732 -3.5900726309
H 1.8566959586 4.1892280519 -3.2787177596
H -0.3899688880 1.9239008750 -4.5918068561
H -3.4710475553 -1.1788635003 4.4103122011
H -2.3275553333 -0.0322206150 3.6850222757
H -1.9539663404 -0.7943697420 5.2447702251
