46
CONF14
C -0.7574237033 2.1445235018 0.6297318389
C -0.5748858471 1.6789945097 -0.8142006436
C -1.7943400912 1.9387975517 -1.7060673812
C -3.0686176673 1.2830984945 -1.2200430486
O -2.8378562126 -0.1631941405 -1.2009415933
C -3.6422523194 -0.8941065066 -0.4325962094
O -4.5796879627 -0.4675864381 0.2124690768
C -3.3037351612 -2.3842804419 -0.4701199056
C -4.2675593262 -3.0953856635 -1.4101519200
O -1.9851432098 -2.6562024078 -0.9505529918
C -0.9163103073 -2.2547080527 -0.1976105587
C -1.0099565532 -1.6316910396 1.0482673413
C 0.1543199163 -1.2532152764 1.7154152504
C 1.3859084715 -1.5102874074 1.1405952175
C 1.4935705541 -2.1419643776 -0.0930879946
C 0.3378171286 -2.5103330909 -0.7638140069
O 2.5451653072 -1.1835376135 1.8603476455
C 3.2328030267 -0.0732009041 1.4919338085
C 4.4045115460 0.1988307177 2.2129413738
C 5.1883771551 1.2967177375 1.9526942729
C 4.7948930689 2.1718537341 0.9260021015
C 3.6291331214 1.9194377967 0.1920155650
C 2.8566231838 0.8034192537 0.4742432825
C 5.5850010425 3.3144266754 0.6355475155
N 6.2278445767 4.2489727204 0.3950638620
F 4.7592934992 -0.6534657350 3.1953522681
H -1.5188807746 1.5542060168 1.1500527852
H 0.1748637027 2.0374199684 1.1936146543
H -1.0581341520 3.1977937068 0.6684344520
H 0.2859506223 2.1933049146 -1.2586527330
H -0.3395756339 0.6071350869 -0.8254293744
H -1.9942570768 3.0172053610 -1.7539021929
H -1.5857960419 1.6075995053 -2.7301458589
H -3.3434893585 1.6028734089 -0.2120501328
H -3.9102499545 1.4767602577 -1.8924199823
H -3.4256637925 -2.7680263365 0.5509419090
H -4.1563326551 -2.7135120878 -2.4288909076
H -4.0577219076 -4.1674445016 -1.4023151815
H -5.2945550000 -2.9327774808 -1.0760228396
H -1.9656620489 -1.4225691058 1.5138984417
H 0.0988678111 -0.7578066408 2.6789070618
H 2.4711280658 -2.3362446199 -0.5225534800
H 0.3905050709 -2.9993717349 -1.7307273299
H 6.0859599261 1.4707963228 2.5349168155
H 3.3288846710 2.5979063704 -0.5981983671
H 1.9566655755 0.6088379012 -0.0958692034
