39
CONF13
C -3.1400078626 0.6389660255 1.5073517668
C -2.7908916552 -0.7767523503 1.0460204648
C -3.4675469068 -1.0831307555 -0.2888934675
C -1.2417923022 -0.9903973375 0.9887406036
C -0.5793550883 -0.7451717809 2.3600009922
C -0.9783666303 -2.4027756270 0.6580596986
N -0.8059289207 -3.5418046702 0.5653277261
N -0.5914974807 -0.1015456389 0.0215309708
C -0.3507692625 -0.3638153000 -1.2813771856
O -0.7062280328 -1.3772595620 -1.8754365684
C 0.3858993540 0.7532840527 -2.0340192956
C -0.6156279931 1.7171540630 -2.6457801615
O 1.2299703489 1.5347594123 -1.1656937139
C 2.3262011066 0.9343593848 -0.6241457642
C 3.0855826022 1.6991069733 0.2745467952
C 4.2207339495 1.1881134283 0.8850259650
C 4.5984367985 -0.1181395558 0.5964662199
C 3.8669259687 -0.9049862566 -0.2797363987
C 2.7314591504 -0.3757185833 -0.8862792546
Cl 6.0328005693 -0.7770994322 1.3681648272
Cl 2.5882584528 3.3359925149 0.6397527244
H -4.2275779735 0.7548470265 1.5059187176
H -2.7256050914 1.3862805591 0.8215562695
H -2.7845074028 0.8534748932 2.5176579835
H -3.1511974097 -1.4927096789 1.7962845145
H -3.1616106360 -0.3637306470 -1.0553794535
H -4.5522836107 -1.0070280418 -0.1696216099
H -3.2310516003 -2.0882889468 -0.6481019347
H 0.4747481361 -1.0302248707 2.3235569663
H -1.0875000525 -1.3318633307 3.1280133424
H -0.6495139925 0.3139203023 2.6180447306
H -0.2336845417 0.7669727415 0.3958977989
H 0.9872856128 0.2775592358 -2.8169206052
H -0.0913850648 2.4722246175 -3.2363819208
H -1.2955051493 1.1654226044 -3.2996081176
H -1.1977941505 2.2105327748 -1.8620966028
H 4.7920408410 1.7988722570 1.5735182514
H 4.1677698188 -1.9239659091 -0.4926583187
H 2.1691158474 -1.0054346871 -1.5650454298
