49
CONF41
C -5.6245705792 -0.7782902937 -2.3216020590
C -4.2997216167 -1.3249336273 -1.7820984345
C -3.3680719130 -1.7004306397 -2.9384151269
C -3.6335723102 -0.2954780305 -0.8673797272
C -4.3703278796 0.0691973222 0.4529921466
C -4.2767833797 -1.2726245893 1.2431763994
C -2.8785000151 -1.8265075851 0.8418488304
C -2.3338064797 -0.7354996014 -0.1314449331
C -2.0915282426 0.4878905314 0.7216290970
C -3.3505010093 0.9846339052 1.0816488383
C -3.4810137890 2.0727665971 1.9308475143
C -2.3101858027 2.6708658524 2.4050254938
C -1.0484224806 2.1865557378 2.0672675944
C -0.9251738865 1.0664271425 1.2249971598
N 0.3022550098 0.4848542501 0.8614251311
C 1.5777447094 0.9021573040 1.1438618621
O 1.8496525024 1.9403914647 1.7441208354
C 2.6292452008 -0.0196278198 0.6665532673
C 2.5442569193 -1.3882289987 0.4401030409
N 3.7669062177 -1.8027330090 0.0485561458
N 4.6550047462 -0.7985084634 -0.0075676567
C 3.9815661817 0.2883344414 0.3759944430
C 4.7260107212 1.5759493639 0.3878894819
F 4.0315166724 2.5550022706 -0.2899237703
F 4.9057221640 2.0460910756 1.6739851858
C 4.1667210450 -3.1685034076 -0.2752153912
H -6.3297813944 -0.5548772273 -1.5151743079
H -6.0979786757 -1.5032999142 -2.9918449342
H -5.4542420535 0.1445856168 -2.8893527347
H -4.5159491457 -2.2363845099 -1.2114259912
H -3.0927885471 -0.8084969169 -3.5143607737
H -2.4470656121 -2.1711200676 -2.5808104332
H -3.8614306678 -2.4021997217 -3.6189057846
H -3.4396608885 0.6144191134 -1.4523664158
H -5.3783449001 0.4783788006 0.3710100494
H -5.0780838373 -1.9522636902 0.9379980172
H -4.3719942590 -1.1045740370 2.3189830449
H -2.9601868997 -2.7899629725 0.3295493785
H -4.4569791281 2.4554702283 2.2140290554
H -2.3738865263 3.5384806909 3.0550735668
H 1.7261458552 -2.0863249585 0.5544090169
H 5.7142359798 1.4723339061 -0.0719111274
H 5.2094178946 -3.1465196296 -0.5901122582
H 3.5437128586 -3.5542128078 -1.0857869030
H 4.0607966474 -3.8059816009 0.6062937512
H -2.2132935183 -1.9579738783 1.6993400320
H -1.5097562978 -1.0672558978 -0.7660198591
H 0.2233807270 -0.3283366271 0.2693429144
H -0.1618380580 2.6701924554 2.4496977954
