70
CONF73
C -2.8924392825 1.0094691655 -0.1289706387
C -4.2219108754 1.0766491603 0.6593038677
C -4.4942644018 -0.2544870731 1.2817508718
C -5.6259604461 -0.9354958266 1.6603559237
N -5.2624939684 -2.1758384019 2.1773437634
C -3.8941564350 -2.3127592883 2.1261657379
C -3.0094260776 -3.3330797942 2.4860931007
C -1.6560643391 -3.0956016625 2.2565844095
C -1.1722436688 -1.8935893494 1.6899521793
C -2.0514039365 -0.8747440119 1.3389632267
C -3.4044083948 -1.1145364223 1.5685495900
C -1.7219193695 0.4835365579 0.7547997970
C -0.4017975009 0.4782855486 -0.0113978994
C -0.1216479166 1.8651349909 -0.6017428813
C -1.3036336818 2.2776822527 -1.4698020895
N -2.5269056370 2.3384673450 -0.6554689477
C -3.6130508228 3.0060953124 -1.4043989179
C -4.1733361153 2.2335800118 -2.5698187891
C -5.4696562158 1.9861597054 -2.7487400653
C 1.1650136170 1.8651500556 -1.4122407128
O 1.1631618848 2.1001830251 -2.6204160258
N 2.3402541163 1.4910029719 -0.7860358931
C 3.5184343088 1.2370334772 -1.6481408537
C 3.3910891895 0.0076456013 -2.5530749766
C 2.9264251307 -1.2679739845 -1.8592490903
N 3.7252043922 -1.6467994634 -0.6825026824
C 3.0948829791 -2.7854668228 -0.0053931051
C 5.1128687032 -1.9649195035 -1.0315647684
C 2.4943359206 1.5080691523 0.6468225002
O 1.9728777056 2.3873112951 1.3366147059
N 3.2670680368 0.5222632153 1.1213629718
C 3.6124629053 0.4417695916 2.5365742238
C 4.8973008823 -0.3534970765 2.7221275899
H -3.0282113568 0.2824789172 -0.9572802435
H -4.1301015174 1.8628693704 1.4231070210
H -5.0428938998 1.3622293396 -0.0022650702
H -6.6694205117 -0.6557164514 1.6108264638
H -5.9111333844 -2.8658233793 2.5200540982
H -3.3500846407 -4.2680472599 2.9194853983
H -0.9395492799 -3.8677250659 2.5213375357
H -0.1023810063 -1.7868653242 1.5394948956
H -1.6215747243 1.1974307337 1.5891938723
H 0.4059684927 0.1687647122 0.6585066554
H -0.4508793178 -0.2602367537 -0.8241800471
H -0.0217802505 2.5793213549 0.2202001270
H -1.1251323040 3.2693403400 -1.8978680939
H -1.3961985833 1.5670046044 -2.3103646746
H -4.4233435347 3.2733248917 -0.7178588325
H -3.1941296139 3.9519980161 -1.7738428408
H -3.4565518437 1.8771496285 -3.3090163208
H -6.2131702259 2.3288605558 -2.0311394727
H -5.8325629144 1.4432416008 -3.6168549473
H 4.3822670980 1.1403516053 -0.9882210570
H 3.6795471623 2.1218090174 -2.2732396377
H 2.6781272744 0.2150821592 -3.3561853626
H 4.3645140949 -0.1403416396 -3.0345197110
H 2.9112896720 -2.0901550788 -2.5991367508
H 1.8931903884 -1.1308997920 -1.5146838208
H 3.6724287861 -3.0529879050 0.8851484148
H 3.0305934742 -3.6737960757 -0.6583374152
H 2.0806099405 -2.5110730502 0.3057421910
H 5.6153169419 -1.0868039336 -1.4463355820
H 5.6505049988 -2.2680058782 -0.1277590171
H 5.1759022720 -2.7860248462 -1.7679265357
H 3.5176151257 -0.2737293627 0.4932208879
H 3.7285882575 1.4594946009 2.9229229096
H 2.7917898198 -0.0248376707 3.1008575475
H 4.7878441847 -1.3752944338 2.3446735334
H 5.1490552937 -0.4111441845 3.7845574036
H 5.7292834848 0.1220565594 2.1932810916
