45
CONF6
C -1.4061906220 -1.5659847389 3.2217390584
C -1.3449501441 -1.8397957361 1.7283898378
C -2.6097189379 -1.4052626105 1.0059637399
C -2.7419547412 -1.8644984467 -0.4516435808
C -1.9283847877 -1.0646578884 -1.4633697143
C -2.4194461085 0.3471241551 -1.6888432039
O -3.4051084444 0.7974511564 -1.1309364138
C -1.6343400045 1.1764757207 -2.6882311482
C -1.5519333935 2.6594427079 -2.3203810436
C -0.9121799277 2.8998284853 -0.9400358303
C 0.3870993064 2.1786073133 -0.7817572908
C 0.6755922615 1.3484837724 0.2292072578
C 1.9640839558 0.6499529601 0.3678934425
C 2.1036696419 -0.6753300066 0.8839831333
C 3.4226109529 -1.2274758757 0.9684826386
C 4.5388624673 -0.5100948566 0.5476456149
C 4.3728949195 0.7727856989 0.0567761179
C 3.1037534349 1.3514808600 -0.0203811433
O 5.4913744185 1.4456679927 -0.3222117097
O 3.6561612588 -2.4570621054 1.4464343883
C 1.0067408775 -1.5388540537 1.3276459569
O 1.1913004729 -2.6588935767 1.8281898563
O -0.2315875514 -1.0575259731 1.1598584853
H -1.6219761158 -0.5083104611 3.4036694798
H -0.4643890601 -1.8290526515 3.7083343773
H -2.2034813177 -2.1646091031 3.6718801877
H -1.1351829701 -2.8972671674 1.5385452636
H -3.4420215463 -1.8325352831 1.5778609452
H -2.7133558756 -0.3169946093 1.0785375177
H -2.4587666059 -2.9221339860 -0.5208983677
H -3.7976146826 -1.8013552181 -0.7369356717
H -1.9375594804 -1.5567242057 -2.4479462049
H -0.8691510439 -1.0027059291 -1.1858148918
H -0.6354180021 0.7460891626 -2.8171946591
H -2.1504532458 1.0615400324 -3.6523916972
H -2.5534841223 3.0998932667 -2.3286957249
H -0.9644779365 3.1728839200 -3.0907735157
H -0.7508038543 3.9807982118 -0.8232103588
H -1.6038748589 2.5939663368 -0.1477128092
H 1.1136774797 2.3171359585 -1.5844722929
H -0.0790882120 1.1707853235 0.9864287060
H 5.5226944336 -0.9568656984 0.6262974014
H 3.0057479768 2.3803757545 -0.3513937130
H 5.2454078353 2.3233059271 -0.6412019743
H 2.7652223974 -2.8200845199 1.7135305589
