83
CONF5
C -3.3341175730 -1.0780351660 -1.8744360269
C -3.0739955126 -1.3775191912 -3.3462066035
C -4.4912657602 -1.6511908811 -3.8673090275
C -5.3504818304 -0.5985388507 -3.1584879047
N -4.6140159151 -0.3454755716 -1.9043465178
C -5.0408489250 0.5699312716 -1.0154367111
O -6.1133079369 1.1707805079 -1.1553841471
C -4.1560879709 0.8887109857 0.1952867743
C -3.8968191810 2.4114373566 0.3038888698
C -4.9840810970 3.2136099647 1.0322521317
C -5.0360985027 2.8743035526 2.5239244782
C -4.7189738424 4.7090307197 0.8403911204
N -2.9108136156 0.1319931271 0.1538648628
C -2.0932265119 -0.0866562928 1.1987696189
O -2.2668833215 0.2339604736 2.3678258154
C -0.8886089154 -0.8809956494 0.6548092050
N 0.3482701601 -0.1700177305 0.8628798305
C 0.5668261238 1.1257371491 0.5650746137
O -0.2722041895 1.8759163662 0.0437269764
C 1.9836343960 1.6166570156 0.8811782605
C 2.5541335859 1.0688728311 2.1937538323
N 2.8776910504 -0.3498647601 2.0255570390
C 3.0108516192 -1.0652060861 3.2936696381
C 3.9694577806 -0.5916849712 1.0800747910
C 5.4095655513 -0.4625505899 1.6742266854
C 6.3806819118 -0.7417679014 0.5757128382
C 7.6670794143 -1.2075528173 0.4965488315
Br 8.8240595224 -1.7205624293 1.8889480102
N 8.0939909180 -1.2747700113 -0.8211982576
C 7.0643300697 -0.8468454050 -1.6333834406
C 6.9311646241 -0.6859112131 -3.0130601069
C 5.7071901340 -0.1961287613 -3.4719073921
C 4.6392585549 0.1286440520 -2.6122512104
C 4.7723185678 -0.0307802802 -1.2338281470
C 5.9972424945 -0.5237344958 -0.7739038399
C 3.8004659602 0.2642422494 -0.1718782892
C 2.8876098264 1.2423725313 -0.2609941060
O -1.1857182744 -1.0342565848 -0.7519678929
C -2.3116850817 -0.2431638970 -1.1201911675
O -1.9510225470 0.8617890361 -1.8780907716
C -0.7864603208 -2.2634315831 1.3280574012
C 0.3476295218 -3.1024130156 0.7300529908
C -2.1073551342 -3.0275271854 1.2456531984
H -3.4560756808 -2.0141409067 -1.3139983126
H -2.6486648257 -0.4962228016 -3.8350677395
H -2.3949402771 -2.2226294113 -3.4764979703
H -4.5656298945 -1.5704521092 -4.9535011289
H -4.8102386236 -2.6567703873 -3.5739773984
H -5.4167713321 0.3338053095 -3.7324309446
H -6.3668726999 -0.9427733819 -2.9462685852
H -4.7040461473 0.5453683313 1.0818242807
H -3.7475054209 2.8119819096 -0.7051656839
H -2.9506142591 2.5418658406 0.8430534303
H -5.9520913245 2.9708867422 0.5797186175
H -4.0787545594 3.1141847959 3.0025746580
H -5.8186849275 3.4562018036 3.0218824888
H -5.2469137579 1.8156333417 2.7056458559
H -3.7403361209 4.9802967157 1.2554337328
H -4.7241397885 4.9806157582 -0.2205664248
H -5.4791158319 5.3090560818 1.3512968114
H 1.1658218702 -0.6492817931 1.2731782639
H 1.9090189974 2.7072407126 0.9406257413
H 1.8146014373 1.1592836886 2.9969290710
H 3.4312148898 1.6744440198 2.4779782485
H 3.2596817714 -2.1132056625 3.0960522056
H 3.7820881276 -0.6406658320 3.9564675050
H 2.0513427928 -1.0317485579 3.8206649273
H 3.8741319431 -1.6403865290 0.7535145266
H 5.5340657343 -1.1697511669 2.4994411682
H 5.5540178132 0.5487854949 2.0781284990
H 9.0063943597 -1.5827762973 -1.1182813790
H 7.7334168993 -0.9272222640 -3.7022011695
H 5.5689698602 -0.0679947314 -4.5411439675
H 3.7058448015 0.4866380846 -3.0360618606
H 2.8000509450 1.8221781003 -1.1765519965
H -1.3495838436 1.3874629088 -1.3023166100
H -0.5661812027 -2.0536492636 2.3835770308
H 0.3754985383 -4.0742217416 1.2314545958
H 1.3346473371 -2.6455328887 0.8501529654
H 0.1739714995 -3.2762264628 -0.3363616792
H -2.0253056295 -3.9557926683 1.8175991307
H -2.3352818595 -3.2909182582 0.2083751009
H -2.9464107032 -2.4549735733 1.6529582342
