31
CONF6
C -3.0393849432 -1.7931565405 0.4204719440
C -4.1566399761 -1.4542903141 -0.3329663184
C -4.1763225717 -0.2308037777 -0.9904159922
C -3.1094467544 0.6579804640 -0.9130474992
C -1.9933450857 0.3034428416 -0.1686964703
C -1.9435914639 -0.9253202113 0.5037309523
C -0.7628019666 -1.2703178503 1.3173652329
N 0.4800562725 -1.1620031739 1.0089181206
O 0.6888141491 -0.7275227536 -0.2786263753
C 2.1008384339 -0.5294520586 -0.4992966879
C 2.5681873219 0.7638439016 0.1562291245
O 3.9800540602 0.8526069520 -0.0376465863
C 4.2467145580 2.1116947477 -0.6919374050
C 2.9343765339 2.4002502388 -1.3941826566
O 1.9765284721 1.9117585238 -0.4329246110
C -0.9861245197 -1.8373406026 2.7060312057
F -1.3470522829 -3.1493116798 2.6534138010
F -1.9920311622 -1.1836380127 3.3337541009
F 0.0995740274 -1.7621353701 3.4928767320
Cl -5.5865812586 0.2078639138 -1.9401842546
H -3.0269430732 -2.7502147462 0.9293891913
H -4.9975003788 -2.1344365741 -0.4040539960
H -3.1484071216 1.6135886465 -1.4231704629
H -1.1631902052 0.9960211297 -0.0984538018
H 2.2113703691 -0.4673869026 -1.5849155581
H 2.6667600809 -1.3819780252 -0.1096045140
H 2.3123575926 0.7745362022 1.2258648133
H 4.4827631830 2.8815459890 0.0540277585
H 5.0893304397 1.9724972988 -1.3727343600
H 2.8527720216 1.8502355407 -2.3412540687
H 2.7388661687 3.4614423827 -1.5570084614
