21
CONF116
C 1.2112519727 -0.8481433206 -0.3422003393
C 0.0569200596 0.0674453683 0.1142961007
C 0.4561091138 1.5361942544 -0.0950667816
O 1.6755698397 1.8977524945 0.5713167815
C -1.2059550603 -0.2204656310 -0.7030467876
O -0.8452228793 -0.3504147520 -2.0897260466
C -0.2228261369 -0.2098514578 1.5983154516
O -1.3366332874 0.5282100416 2.1245344644
O 0.8241416427 -2.2161441191 -0.5108482319
H 1.9986400783 -0.8483443016 0.4195089691
H 1.6437934121 -0.4555832426 -1.2736350400
H 0.5296101803 1.7453411304 -1.1709434543
H -0.3226795342 2.1788231847 0.3281764621
H 2.4155328402 1.5760347427 0.0426381689
H -1.6717401627 -1.1508354091 -0.3440268616
H -1.9304237059 0.5956087961 -0.5726221574
H -1.6594630165 -0.4722501387 -2.5929972358
H -0.3724809319 -1.2884251078 1.7441194946
H 0.6497904336 0.0990432717 2.1826025179
H -2.1488570846 0.0789505683 1.8621673649
H 0.2549225336 -2.2429460707 -1.2925628555
