47
CONF97
C -7.5754894991 -1.3962788438 1.6268353943
O -6.5765085688 -0.3917180195 1.3341012204
P -5.5992027386 -0.6087145896 0.0787480021
S -4.7321981079 -2.3221700706 -0.1066070286
O -6.5474198533 -0.1212957839 -1.1216491318
C -6.1012314235 -0.2761369196 -2.4877511265
O -4.6388664423 0.6920035562 0.2299220264
C -3.4519610775 0.6820159001 0.9558739167
C -2.3238648000 1.1943527189 0.3260223018
C -1.1262945758 1.2657046930 1.0212872250
C -1.0497480869 0.7901106969 2.3333144201
C -2.1887584275 0.2693293682 2.9482748797
C -3.4004590948 0.2289836221 2.2667006151
S 0.4540723702 0.9062290689 3.2906859595
C 1.6980551142 0.3674619869 2.1272392325
C 2.9356376266 1.0137408262 2.1456138468
C 3.9590380459 0.5894036143 1.3050039394
C 3.7238917807 -0.4665035598 0.4374375997
C 2.4972536149 -1.1178850028 0.4012854458
C 1.4867843351 -0.7076222059 1.2592869551
O 4.7589942380 -0.9209376793 -0.3852268283
P 4.9566356196 -0.3070235239 -1.8772986439
S 3.4672659999 -0.3155487807 -3.0901260519
O 6.1994231890 -1.1835398140 -2.3810456790
C 7.3853744851 -1.3091944964 -1.5583736433
O 5.5687725650 1.1368799645 -1.4752180503
C 5.6817004311 2.1643409415 -2.4849519237
H -8.3216185546 -1.4302296288 0.8271288789
H -8.0445814209 -1.0847503862 2.5605411917
H -7.1044469377 -2.3767736323 1.7445073153
H -6.9437299648 0.0238717681 -3.1115773412
H -5.2435426526 0.3760647629 -2.6807320791
H -5.8317164985 -1.3180654574 -2.6836736587
H -2.3979047343 1.5435121548 -0.6977718856
H -0.2455262048 1.6770763655 0.5402390478
H -2.1286751420 -0.1112214085 3.9623566897
H -4.2902083428 -0.1671619502 2.7425661379
H 3.0958937642 1.8552479912 2.8114866014
H 4.9242659343 1.0822425953 1.3019825011
H 2.3477850164 -1.9387570237 -0.2905161477
H 0.5293425766 -1.2170130482 1.2483808785
H 7.1732783774 -1.9338227766 -0.6867744356
H 8.1344721494 -1.7876579681 -2.1901765130
H 7.7396158263 -0.3250112573 -1.2368562490
H 6.0459473825 3.0524223657 -1.9666229804
H 6.3951661928 1.8649192551 -3.2597399736
H 4.7052854345 2.3591198067 -2.9370868446
