28
CONF9
O -3.1951186552 2.2098783816 0.6616479627
C -2.6106017370 0.9738994484 1.0798948723
C -2.1259980198 0.1365939137 -0.0797428621
O -1.0319328746 0.8212964536 -0.7460285296
C -0.0828566236 -0.1166494426 -1.2195002343
C -0.6167861322 -1.5063506853 -0.8774689425
C -1.5449900295 -1.2267058722 0.3083859530
O -2.5233996696 -2.2200572301 0.5630868217
N 1.2364381724 0.1573011304 -0.5622294748
C 1.3471005333 0.8577717595 0.6045311581
C 2.5349234991 1.0812725804 1.2153167049
C 3.7498248461 0.5761089957 0.6366519136
O 4.8874188963 0.7112169982 1.0883852111
N 3.5484490701 -0.1283286298 -0.5594069030
C 2.3510543321 -0.3856422628 -1.1925405699
O 2.2698695196 -1.0407375468 -2.2255508048
H -2.4925260612 2.7465858627 0.2731624007
H -1.7869113884 1.1451236826 1.7885720532
H -3.3967386060 0.4140096767 1.5979091068
H -2.9441477756 -0.0048374740 -0.8040047485
H 0.0846284835 0.0286814134 -2.2893407328
H 0.1771790431 -2.2218148084 -0.6590194572
H -1.2106419698 -1.8783149013 -1.7204697586
H -0.9676086465 -1.1306739902 1.2365667631
H -3.0269526302 -2.3649964913 -0.2501888129
H 0.4143902268 1.2376942660 1.0031063587
H 2.5863317717 1.6448199220 2.1367623952
H 4.3696030230 -0.5171445470 -1.0084878653
