65
CONF9
C 3.8856213145 0.6458735194 1.3360375235
C 2.4392937809 0.1461147810 1.2156967217
C 1.7779156275 0.0436859151 2.5967439688
C 2.3784737754 -1.1753131270 0.4772785118
C 3.0020905520 -2.3201163979 0.9897938798
C 2.9498870098 -3.5430815541 0.3296205184
C 2.2730155595 -3.6540058674 -0.8831883060
C 1.6482811585 -2.5363526036 -1.4242660974
C 1.7054299958 -1.3304648695 -0.7355831426
O 1.0794039406 -0.2063193902 -1.3077307125
P -0.5237555127 -0.0794855093 -1.2888640263
O -1.2830768599 -0.8423663322 -2.2987450752
O -0.9002292631 -0.3831176565 0.2448193997
C -1.7348638890 -1.4514728500 0.6305167358
C -1.1093825851 -2.6077122038 1.0802594182
C -1.8871512192 -3.6645425118 1.5380724837
C -3.2753468228 -3.5456011701 1.5401698968
C -3.8737229551 -2.3747419619 1.0888133063
C -3.1203648936 -1.2912943063 0.6189796820
C -3.7959368753 -0.0142768801 0.1652034993
C -4.8440642862 -0.2779597626 -0.9224805665
C -4.4154853743 0.7171000642 1.3654184830
O -0.7005324802 1.5023056015 -1.4624154590
C 0.0195996034 2.4062267878 -0.6469599528
C -0.4925447255 2.6908708197 0.6129379135
C 0.1882293034 3.5810618601 1.4348293648
C 1.3632830523 4.1749439010 0.9797798526
C 1.8404272090 3.8877736534 -0.2941871375
C 1.1822666677 2.9933705039 -1.1476091793
C 1.7127284622 2.7135853770 -2.5384066917
C 1.6025102360 3.9691541480 -3.4162307178
C 3.1556739026 2.1954085707 -2.4990581088
H 4.4899751392 -0.0363511329 1.9434483497
H 4.3548042958 0.7358727657 0.3514117753
H 3.8997974546 1.6303451647 1.8156316246
H 1.8828944821 0.8844345950 0.6321827643
H 1.7887164361 1.0227891963 3.0872139334
H 0.7383843520 -0.2876296142 2.5121906631
H 2.3139968729 -0.6629323845 3.2394199154
H 3.5359780254 -2.2481699380 1.9327587216
H 3.4409022425 -4.4097268591 0.7605131657
H 2.2310993105 -4.6026145767 -1.4081115826
H 1.1137439548 -2.5875805334 -2.3669532639
H -0.0257033551 -2.6661373237 1.0696206154
H -1.4088833108 -4.5723500980 1.8909860215
H -3.8924444324 -4.3643534883 1.8960977585
H -4.9563645602 -2.2923478115 1.1020775212
H -5.2528262689 0.6715040184 -1.2826543108
H -4.4043225195 -0.8096891552 -1.7715356452
H -5.6761185875 -0.8750717813 -0.5353289396
H -5.2027977270 0.1085813368 1.8232278864
H -3.6600171499 0.9299306986 2.1284486317
H -4.8596832965 1.6644479636 1.0427557403
H -1.4072364740 2.2083670239 0.9391060973
H -0.1987071926 3.8058795731 2.4232976581
H 1.9049329204 4.8685212050 1.6149956750
H 2.7512094261 4.3670701889 -0.6404632336
H 1.0892371025 1.9368738010 -2.9890655969
H 2.2248767770 4.7784757632 -3.0194380666
H 0.5688514616 4.3252978512 -3.4659997219
H 1.9416446329 3.7472817175 -4.4333703818
H 3.2336837199 1.3013767791 -1.8739497332
H 3.4881418439 1.9402293748 -3.5104670566
H 3.8386984951 2.9536771230 -2.1022002074
H -3.0346034744 0.6446922187 -0.2619692335
