53
CONF423
C -1.6734162412 4.2508845769 -1.5391810896
C -0.8969811527 4.2236043139 -0.2381783804
O -0.6928446713 2.8552643805 0.2061826962
C 0.3300871527 2.1704624539 -0.3563017756
O 1.1375729280 2.6877941981 -1.1201591722
C 0.3132133833 0.7692174912 0.0547208787
C 1.3669248346 -0.0365040599 -0.2446279787
N 1.3389953657 -1.3593371710 0.1077240579
C 0.3946063186 -1.9180643307 0.9346550392
C -0.6896980851 -1.1746150062 1.3027106748
C -0.9468384346 0.2074137766 0.7066364832
C -2.0758710593 0.1522609674 -0.3237430580
C -1.8982790950 -0.6593407786 -1.4513929001
C -2.8573634687 -0.7626756411 -2.4494397380
C -4.0427127523 -0.0394172788 -2.3410315903
C -4.2539616587 0.7754792329 -1.2357201845
C -3.2766947660 0.8621558392 -0.2459865429
Cl -3.6385800610 1.9243768007 1.1169831527
C -1.6595888597 -1.7220926661 2.2456808749
O -1.6171186340 -2.8127115569 2.8016164751
O -2.6748590982 -0.8463516091 2.4625632658
C -3.6930349731 -1.2857497426 3.3833697515
C 0.7049328115 -3.3220862676 1.3546644834
C 2.6402852756 0.3666287186 -0.9718640987
O 3.6694959580 -0.6007706172 -0.8004134288
C 4.3884329438 -0.4243655941 0.4370256344
C 5.3914313741 -1.5479404061 0.5556939985
N 6.4023648967 -1.4581106098 -0.5101344489
H -2.6298573168 3.7324083586 -1.4246999518
H -1.1058080495 3.7759291624 -2.3438002353
H -1.8726805638 5.2891240267 -1.8226973340
H -1.4643602260 4.6847049762 0.5734148174
H 0.0722915537 4.7205417810 -0.3311755588
H 2.1669775220 -1.8942482663 -0.1249554158
H -1.2577299453 0.8812218416 1.5059633507
H -0.9729065075 -1.2222774591 -1.5374062630
H -2.6812043178 -1.4025343892 -3.3079241072
H -4.8047602889 -0.1052030642 -3.1107508372
H -5.1715274401 1.3447213167 -1.1365559749
H -4.4115051757 -0.4674262474 3.4298996217
H -4.1738576056 -2.1962315509 3.0158096542
H -3.2625808656 -1.4741365379 4.3705580526
H -0.1473207224 -3.9796857703 1.1778512179
H 1.5732119142 -3.6988631324 0.8082158630
H 0.9173830342 -3.3639216663 2.4263884448
H 2.4329392290 0.4313627752 -2.0458868854
H 2.9681907281 1.3555181948 -0.6387159858
H 4.8937086205 0.5523150754 0.4208220070
H 3.6915638305 -0.4486973368 1.2887212489
H 5.8902619664 -1.4462602319 1.5267779021
H 4.8435168810 -2.5064050711 0.5685600281
H 7.0673713001 -2.2170253641 -0.4015167806
H 5.9481821233 -1.6203392315 -1.4037618477
