38
CONF5
C -6.4776880727 -2.6005070563 -0.1432651209
C -6.2190295475 -1.5084092549 -1.1608271123
O -5.6383719790 -0.3351290753 -0.5343762502
C -4.2935855990 -0.3989780344 -0.3211719309
O -3.5795753552 -1.3179853396 -0.6626775537
N -3.9058868085 0.7441535642 0.3308896094
C -2.6197353130 1.1091970596 0.7521227353
C -1.4860476704 0.3321630254 0.5018010615
C -0.2591014485 0.7812493036 0.9674446396
C -0.1088810585 1.9688691612 1.6702113990
C -1.2476928417 2.7329274118 1.8995602415
C -2.4925689008 2.3159778736 1.4518009834
O 0.8131606625 -0.0836631032 0.7575025730
C 1.9702576516 0.4234066553 0.1918690432
O 2.1164362838 1.5595532470 -0.1875606247
N 2.8774188196 -0.5978016192 0.1461636333
C 4.1882160735 -0.5702760531 -0.3583175711
C 4.9143461672 -1.7664572913 -0.3007098777
C 6.2169875534 -1.8192512500 -0.7747448356
C 6.8157063666 -0.6837889799 -1.3131450079
C 6.0900220561 0.5013341551 -1.3690034198
C 4.7829751410 0.5742952485 -0.8985399442
H -7.1210812357 -2.2350771556 0.6620788126
H -6.9787711164 -3.4435378548 -0.6295343526
H -5.5379255879 -2.9593283819 0.2830014969
H -5.5518970207 -1.8522583686 -1.9563465562
H -7.1491703669 -1.1396560967 -1.6001271365
H -4.6484509562 1.3932924159 0.5388883810
H -1.5544737318 -0.6006356569 -0.0382775130
H 0.8655770779 2.2896924044 2.0136441985
H -1.1629345091 3.6689963011 2.4413719964
H -3.3710687532 2.9246700438 1.6451872378
H 2.5511271578 -1.4806402775 0.5076892147
H 4.4540177952 -2.6575384666 0.1180448426
H 6.7646807446 -2.7546331049 -0.7220311652
H 7.8338616436 -0.7237541680 -1.6844791010
H 6.5436327577 1.3943270847 -1.7873094708
H 4.2273382107 1.4996852526 -0.9478875669
