63
CONF1
C 1.4109005043 -1.4845911274 1.1777927704
C 1.0233000143 -0.6434001578 -0.0477748939
C 0.5808903001 0.7570959258 0.3793016493
C -0.7434106376 0.6993377851 1.1551212018
C -1.8551395612 -0.0146613995 0.3705509292
C -1.4240605609 -1.4188641980 -0.1138304866
C -0.1130906838 -1.2761179106 -0.8795429702
C 0.5321484064 -2.5156550743 -1.5076681912
C 1.9989058088 -2.0777099945 -1.7755640892
C 2.1708422050 -0.6965614210 -1.0999135092
C 3.5548609759 -0.4829523252 -0.4950232020
O 4.2774031197 -1.4097092566 -0.1426228137
N 3.8883559349 0.8289161209 -0.3326244452
C 5.1076789038 1.3389181597 0.3296959594
C 5.1580698972 0.8549449413 1.7844413485
C 5.0092487929 2.8661691859 0.2949570643
C 6.3549233750 0.8794621018 -0.4354278321
C -2.5185650825 -2.0473779207 -0.9791130271
C -3.8532533696 -2.1041594361 -0.2389689009
C -4.2959611700 -0.7317043761 0.2641722898
C -3.2181973120 -0.0415962004 1.1360560349
C -3.6720069861 1.3786120303 1.3814464883
C -4.4505589571 2.0503088480 0.5283330384
C -4.8990814963 1.4579567610 -0.7507790633
O -5.4275207183 2.1189848488 -1.6386411701
N -4.6260788873 0.1206861858 -0.8803815776
C -3.1187774842 -0.7641726332 2.4882339900
H 2.1927374763 -0.9725889441 1.7488408892
H 0.5646531300 -1.6508447493 1.8479258187
H 1.8154388701 -2.4580981404 0.8922642510
H 0.4432717984 1.3783700773 -0.5183197861
H 1.3485506619 1.2392899090 0.9983695851
H -1.0626267123 1.7205108028 1.3924328055
H -0.5726619747 0.1957460410 2.1129910681
H -2.0377281789 0.5772004271 -0.5397074649
H -1.2563858657 -2.0727587273 0.7539429913
H -0.3100693906 -0.5645081781 -1.7005864067
H 0.0213750881 -2.8278280554 -2.4227268540
H 0.4923449055 -3.3625612592 -0.8126693956
H 2.2116075793 -2.0086695662 -2.8457651087
H 3.2243146795 1.5142808927 -0.6563947374
H 4.2726138301 1.1961265683 2.3312581235
H 6.0462041042 1.2602415136 2.2795581091
H 5.1997510386 -0.2353325203 1.8244770748
H 4.1208574284 3.2155706108 0.8337186219
H 5.8878808101 3.3059064022 0.7738732310
H 4.9662535057 3.2345569554 -0.7361249888
H 6.4250981437 -0.2097301404 -0.4333898764
H 6.3169282654 1.2288362457 -1.4720216809
H 7.2518240328 1.2932532554 0.0365065075
H -2.6236044299 -1.4578529040 -1.9003386745
H -2.2229494742 -3.0582586634 -1.2812262254
H -4.6388424953 -2.5225405940 -0.8819983903
H -3.7734679388 -2.7806943930 0.6196032146
H -5.1914606978 -0.8559874067 0.8982216658
H -3.3146564374 1.8665241180 2.2868519792
H -4.7483184515 3.0795574349 0.6952861283
H -2.4847115477 -0.2066792400 3.1824123230
H -2.7040706000 -1.7703868721 2.3928147351
H -4.1104394419 -0.8482587924 2.9451195552
H 2.7194973646 -2.7790774263 -1.3486610458
H 1.9747166953 0.0997689589 -1.8318127715
H -5.0365802691 -0.3159572317 -1.6939530119
