34
CONF1
C 4.9640267422 2.0488553380 -0.2293369724
C 3.7571261161 1.2064982814 0.0724319285
C 2.6713675198 1.7378240228 0.7739741483
C 1.5400804843 0.9782811012 1.0306040789
C 1.4638407060 -0.3455404123 0.5820792446
C 2.5499045819 -0.8887629654 -0.1107565615
C 3.6776340046 -0.1194896693 -0.3589844973
C 0.2986738039 -1.1771704969 0.8657375599
C 0.2065011053 -2.4247345319 1.4690820763
N -1.0661799003 -2.8440477755 1.6117060828
C -1.8067344501 -1.8742405486 1.0927706350
N -1.0235421646 -0.8309878323 0.6251082216
S -1.5469412095 0.6046313757 -0.3380406066
O -0.6049463860 0.6088016270 -1.4463338073
O -1.6711500010 1.6924475912 0.6204217387
N -3.0321287959 0.1434816379 -0.8281067892
C -3.1560649914 -0.7255782858 -2.0021646990
C -4.2391276943 0.8410170442 -0.3727300194
C -3.2148437457 -1.9239936977 1.0567738458
N -4.3697997285 -2.0307546383 1.0689524004
Cl 1.5291238611 -3.3662479594 2.0490053390
H 5.8469295657 1.4304501702 -0.4089724499
H 4.7954338461 2.6554253959 -1.1270170300
H 5.1840689383 2.7362225893 0.5922342924
H 2.7161149032 2.7621854292 1.1328676775
H 0.7172511805 1.4076252352 1.5916544345
H 2.5025275562 -1.9136372611 -0.4625800280
H 4.5105503941 -0.5556178566 -0.9029837068
H -3.3684399801 -0.1375508864 -2.9029005542
H -2.2332649572 -1.2866842867 -2.1599923341
H -3.9715716345 -1.4314803216 -1.8168214339
H -4.0317481640 1.3916960579 0.5441164945
H -4.5852338400 1.5394103610 -1.1441863315
H -5.0094380735 0.0916654743 -0.1676121554
