45
CONF7
C -4.0511189536 -1.3561195016 0.9907051642
C -3.1241581501 -0.1961293850 0.8023925051
N -3.3115054088 0.7443377529 -0.0571727900
O -4.4626840630 0.5310597755 -0.8167456661
C -4.6221310401 1.6214366409 -1.7390050149
C -1.9098206375 -0.0452497355 1.6297107905
C -0.7034595352 0.4198326016 1.0725559934
C 0.3735223128 0.6782601629 1.9277458973
C 0.2895764303 0.4501807232 3.2927322791
C -0.8966041014 -0.0395213961 3.8288393710
C -1.9873382362 -0.2857679041 3.0060298027
O 1.5551302647 1.2475204173 1.4659612571
C 2.3089322473 0.5899622572 0.5389104971
N 2.0222261800 -0.6766603794 0.2859443184
C 2.7894488613 -1.2538213208 -0.6501967399
C 3.8281200592 -0.5886111111 -1.2910498988
C 4.0283551896 0.7315295566 -0.8929630162
N 3.2691435412 1.3455759446 0.0226922559
O 5.0308796904 1.4028102890 -1.4738267206
C 5.2426795846 2.7767347371 -1.0710048295
O 2.5601888688 -2.5278204106 -0.9908578050
C 1.4829587071 -3.2201280784 -0.3131565211
C -0.5334237250 0.6096711550 -0.3989427174
O -0.1152374363 1.6285371384 -0.9137739942
O -0.8315228737 -0.5087908702 -1.0745614279
C -0.6815659077 -0.4254741812 -2.5129870643
H -5.0461868316 -1.0120984484 1.2927190425
H -3.6684062676 -2.0558159009 1.7332180659
H -4.1720439668 -1.8810335619 0.0370243281
H -3.7575479016 1.6899250987 -2.4080669358
H -5.5206571006 1.3861447189 -2.3123702590
H -4.7572224875 2.5663391496 -1.2022259717
H 1.1543832773 0.6507973118 3.9155010918
H -0.9706873706 -0.2194537462 4.8960628497
H -2.9199566938 -0.6348612470 3.4360362017
H 4.4428419452 -1.0639221430 -2.0434168780
H 4.3593417510 3.3809952695 -1.2910375716
H 6.0924739640 3.1132723359 -1.6639600515
H 5.4748538207 2.8320173317 -0.0047329965
H 0.5343138584 -2.7040662257 -0.4773062711
H 1.6893411684 -3.2900540856 0.7578581039
H 1.4641593941 -4.2125763220 -0.7622496235
H -0.9492475793 -1.4125556522 -2.8874675795
H 0.3533434300 -0.1825352835 -2.7680586647
H -1.3536892731 0.3369869135 -2.9155026956
