24
CONF1
O -2.0235976344 1.8276614325 -2.0726576972
C -2.1761276406 0.9181047273 -1.0769169170
C -1.1107659354 0.1164832949 -0.6460854652
O 0.0755241335 0.2858156202 -1.3489503581
C 1.2532605684 0.0453349033 -0.6715257034
C 2.0306200392 -1.0436182884 -1.0430313080
C 3.2508194975 -1.2842172285 -0.4224593833
C 3.6725701020 -0.4186329598 0.5791961434
Cl 5.2066892204 -0.7106735768 1.3788871569
C 2.9186222118 0.6827694464 0.9673424076
C 1.7063564564 0.9107542820 0.3277506269
Cl 0.7561882490 2.3074807009 0.7625206058
C -1.2748472969 -0.7938392741 0.3843096378
C -2.5158555539 -0.9259842285 1.0057408087
C -3.5657505091 -0.1338266740 0.5622630475
Cl -5.1419844252 -0.2911981957 1.3318675841
C -3.4201892504 0.7865840649 -0.4686407735
H -1.0955265110 1.8310430932 -2.3528045362
H 1.6659986718 -1.7031108141 -1.8232544493
H 3.8570796810 -2.1342430058 -0.7115465491
H 3.2670681366 1.3572305918 1.7399125417
H -0.4376548809 -1.4030224526 0.7089924041
H -2.6538298264 -1.6351120382 1.8126365284
H -4.2446669108 1.4082164786 -0.7978529445
