47
CONF38
C 3.3656047058 -3.3621112838 2.7714303799
C 4.2999584106 -2.6175890460 1.8085410240
C 5.3111885723 -3.5821198091 1.1743244795
C 3.5199253033 -1.8632702405 0.7514338568
C 3.6232371136 -0.4744289420 0.6435347948
C 2.9146650627 0.2334919764 -0.3252627388
C 2.0930153901 -0.4700748387 -1.1899942300
C 1.9667644083 -1.8499115291 -1.1201356469
C 2.6836254023 -2.5372186540 -0.1466746452
O 1.4147193659 0.2276386524 -2.2133835324
P -0.0394904315 0.8503519333 -1.9846913136
O -0.4999035889 1.6135016226 -3.1617486902
O 0.0084786780 1.6630258382 -0.5961965599
C -0.0408836163 3.0641426796 -0.5423281887
C -1.1228445872 3.6362358200 0.1106713054
C -1.1720176585 5.0228581360 0.2310891937
C -0.1538571573 5.8120202291 -0.3006317927
C 0.9214963879 5.2129602156 -0.9534674745
C 0.9882169122 3.8269349525 -1.0766202365
O -0.8766386227 -0.4504529500 -1.5532567343
C -2.1542513790 -0.2963889640 -0.9801425280
C -2.2863733784 -0.5404151265 0.3790165333
C -3.5501232452 -0.4347223295 0.9538742953
C -4.6510055235 -0.0862233437 0.1731705212
C -4.4911015604 0.1523731692 -1.1900001342
C -3.2338259941 0.0457662428 -1.7818140142
H 2.8026516444 -4.1406252907 2.2450815571
H 2.6491417474 -2.6764138391 3.2346202262
H 3.9457893933 -3.8443588667 3.5649771918
H 4.8602917200 -1.8728983198 2.3872738891
H 5.9931973790 -3.0517181936 0.5023181184
H 5.9046228182 -4.0744532051 1.9517970765
H 4.7990726877 -4.3598636095 0.5972597453
H 4.2704303410 0.0683254275 1.3269329905
H 2.9995524837 1.3116312673 -0.4099162442
H 1.3206146114 -2.3715184545 -1.8178899354
H 2.5856815232 -3.6172263209 -0.0915045811
H -1.9057442645 3.0015650112 0.5131120077
H -2.0119314617 5.4846707424 0.7400548499
H -0.1981167707 6.8919613452 -0.2059169340
H 1.7175545845 5.8230179037 -1.3680466124
H 1.8225564642 3.3460451148 -1.5771814558
H -1.4132959192 -0.8040562447 0.9664428497
H -3.6712814695 -0.6229472177 2.0158074612
H -5.6331999710 -0.0031705335 0.6266588258
H -5.3467117373 0.4193127965 -1.8018636937
H -3.0911749037 0.2199643625 -2.8427545137
