56
CONF8
C 1.9862088098 -0.5864470244 1.9797637676
C 2.6441243878 -1.7134662116 1.1954012606
N 1.8862907173 -2.9576003425 1.3503322943
C 0.5043143713 -2.7488442535 0.9059009518
C -0.1439698276 -1.6243043740 1.6969554749
N 0.6178407696 -0.3927866161 1.5148108217
C -0.0371532914 0.7728810857 2.0987430732
C 0.4810037357 2.0857516993 1.4989364288
C 0.6204464977 1.9898128898 -0.0246414658
N -0.5989475175 1.4752583847 -0.6506499740
C -0.5311864650 0.3596301643 -1.5033975612
C 0.6146413361 0.0765341613 -2.2562277765
C 0.6840741986 -1.0642787044 -3.0481146086
C -0.4051142491 -1.9218818249 -3.1496026345
C -1.5741266439 -1.6200338317 -2.4585549264
C -1.6303703154 -0.5022130291 -1.6324846159
S -3.0913400466 -0.2088275248 -0.6608979844
C -3.0342390967 1.5620091314 -0.5960049663
C -1.7841594511 2.2090309723 -0.5418204076
C -1.7715165473 3.5934329091 -0.3581817237
C -2.9635894637 4.3019594402 -0.2169365079
C -4.1923520394 3.6602591287 -0.2928494733
C -4.2171972306 2.2846483483 -0.5022587431
C -2.8697801816 5.7812916781 0.0083591338
F -4.0791021811 6.3639346899 0.1468499854
F -2.2374935876 6.4081389349 -1.0180382132
F -2.1539227884 6.0721050803 1.1275043298
C 2.5170999726 -4.0770687204 0.6441332323
C 3.7285113977 -4.5861505097 1.4185846427
O 3.3776657204 -4.8886214084 2.7622566716
H 2.0219337448 -0.8225223545 3.0634302924
H 2.5620570271 0.3338507417 1.8240188622
H 3.6647085564 -1.8593041664 1.5656578698
H 2.7056232556 -1.4198108782 0.1273683202
H -0.0573394214 -3.6770295101 1.0631678995
H 0.4593827989 -2.4960424520 -0.1722664224
H -1.1627566790 -1.4650982473 1.3245408220
H -0.2083047520 -1.9171727644 2.7648640947
H 0.0592767870 0.8069617885 3.2018002207
H -1.1074190210 0.6882479562 1.8760340473
H -0.1996349505 2.8927677042 1.7910506808
H 1.4643161384 2.3519898391 1.9045256125
H 0.9313005200 2.9531218757 -0.4540137718
H 1.4076712549 1.2683955437 -0.2395170532
H 1.4608800609 0.7527472369 -2.2262163472
H 1.5933370811 -1.2681012117 -3.6038971213
H -0.3567003820 -2.8076432367 -3.7730572167
H -2.4453130961 -2.2622291772 -2.5413294546
H -0.8315030207 4.1301022150 -0.3183168521
H -5.1152708813 4.2167633523 -0.1907774061
H -5.1651314127 1.7603143410 -0.5640568230
H 2.8070135407 -3.8088495754 -0.3911397814
H 1.7820379185 -4.8887235794 0.5845137452
H 4.0956709099 -5.5078840582 0.9535726433
H 4.5522652758 -3.8539298081 1.3839927814
H 2.7352374762 -4.2050758186 3.0100797150
