40
CONF146
C 0.5799205867 3.2046292152 -1.8613825052
C 0.9298407367 2.4339925457 -0.6128813908
O 1.5219769640 1.1630531193 -1.0461940868
P 1.8158862869 -0.0440457767 -0.0441757124
S 1.7347681323 0.3318459713 1.8581549957
O 3.1724100627 -0.6620032840 -0.6195102286
C 4.4296769891 0.0559284505 -0.3829142234
C 5.5159662433 -0.6969863846 -1.1102262525
O 0.9013040686 -1.2975507964 -0.5895999518
C -0.4571092970 -1.3582392154 -0.4509759787
N -1.1240112994 -0.2628784077 -0.1386198976
C -2.4595783680 -0.3984630297 -0.0181060394
N -3.1387368647 -1.5301348500 -0.2069460015
C -2.4345175633 -2.6337979490 -0.5391031959
C -3.2124983299 -3.8930672243 -0.7475813028
C -1.0540125737 -2.5950241040 -0.6699359138
C -3.2395756089 0.8389559158 0.3524574188
C -3.1677841172 1.8754298163 -0.7767499786
C -2.7418812266 1.4255650105 1.6784378180
H -0.1460007909 2.6547539916 -2.4672120520
H 1.4711641262 3.4002339013 -2.4638669755
H 0.1367865568 4.1631496923 -1.5744138258
H 1.6699179801 2.9575674065 -0.0007742298
H 0.0475936242 2.2146139072 -0.0067565450
H 4.6074942627 0.0869515739 0.6968311534
H 4.3245139543 1.0789079402 -0.7614088286
H 5.3192354336 -0.7244771845 -2.1852528333
H 5.5951963070 -1.7207169857 -0.7346851811
H 6.4716796283 -0.1911570796 -0.9442670660
H -3.7673628482 -4.1406209394 0.1631639837
H -2.5606689026 -4.7282249221 -1.0089711241
H -3.9489525782 -3.7468758519 -1.5443463110
H -0.4666459083 -3.4685393230 -0.9240048978
H -3.7831432858 2.7444729525 -0.5241528270
H -2.1376567890 2.2143360492 -0.9209927796
H -3.5295659452 1.4585480733 -1.7219551075
H -3.3559720710 2.2876160011 1.9567993171
H -2.7980329462 0.6870040219 2.4843433423
H -4.2802758299 0.5213987600 0.4718110757
H -1.7027458672 1.7567025905 1.5895847268
