47
CONF146
C -0.0588087707 0.8878645678 2.6941871293
C -1.3179985494 0.5046552500 1.9198304794
C -2.4977963364 1.4166838604 2.2554479294
C -3.7684466637 1.1106116595 1.4871971940
O -3.6127871773 1.4847311208 0.0763451365
C -3.3671408885 0.5194865477 -0.8155772161
O -3.2334983936 -0.6599251036 -0.5689075913
C -3.3377438398 1.0998641226 -2.2329764428
C -4.7065198066 0.9375554147 -2.8741582063
O -2.4098930338 0.3647035615 -3.0356895181
C -1.0904040785 0.3885269291 -2.6618431972
C -0.2731527099 -0.5691045565 -3.2689768056
C 1.0760333689 -0.6342551773 -2.9503558313
C 1.5978627370 0.2590577512 -2.0243474617
C 0.8058417678 1.2255494537 -1.4302279446
C -0.5491729824 1.2954467589 -1.7473488191
O 2.9716891950 0.2196060525 -1.7436156850
C 3.3783075817 -0.4283072656 -0.6194088447
C 4.7548125507 -0.3939076468 -0.3526689566
C 5.2009216120 -1.0430314202 0.7765816484
C 4.2707490713 -1.6967386301 1.5964360129
C 2.9319748782 -1.6728010793 1.2375642687
N 2.4860046916 -1.0451106160 0.1405031515
C 4.7408756193 -2.4182622358 2.8146380647
F 5.5289102384 -1.6330751598 3.5969910096
F 5.4933535942 -3.5101229655 2.5011468260
F 3.7226101331 -2.8544274145 3.5889367235
H -0.2274841504 0.8276932981 3.7751457518
H 0.7760107041 0.2254612985 2.4445643932
H 0.2455928264 1.9140486170 2.4592723016
H -1.1083716154 0.5512255082 0.8450365492
H -1.5930619594 -0.5347876219 2.1387099754
H -2.7408107577 1.3244919138 3.3225912941
H -2.2234538179 2.4661511835 2.0861749813
H -4.6006675344 1.7252976285 1.8367940727
H -4.0390219308 0.0532003758 1.5443217528
H -3.0637248893 2.1601836948 -2.1955460266
H -4.6826050477 1.3398158626 -3.8898489339
H -5.4539723194 1.4866189992 -2.2958529897
H -4.9849486587 -0.1191906936 -2.9092474099
H -0.7093993442 -1.2620308773 -3.9807272765
H 1.7190445990 -1.3803657429 -3.4053256696
H 1.2377325902 1.9170202416 -0.7140940282
H -1.1553495121 2.0587197965 -1.2743305233
H 5.4290660524 0.1295922087 -1.0198343622
H 6.2570762324 -1.0443598387 1.0268891383
H 2.1817637505 -2.1712597318 1.8456032468
