28
CONF19
C -2.8473572363 0.1531356828 -1.2016572610
N -1.8185953863 0.6616255708 -0.3060507880
C -1.8992417311 2.1079538087 -0.0386343273
O -0.8652705113 2.5560291082 0.7997169459
C 0.3406973725 1.8701208833 0.4887855063
N 0.1669226213 0.4778989326 0.8370240428
C -0.9238605944 -0.1473453421 0.3147863249
N -0.9186911536 -1.4766198072 0.3288439988
N -2.1466800168 -2.1113429128 0.4682209068
O -3.0649725005 -1.5407599913 1.0709642689
O -2.2059350579 -3.2524444514 0.0334633487
C 1.1805392688 -0.2549687764 1.5936025041
C 2.3225891282 -0.7184907435 0.7471980222
C 3.6175030248 -0.2840116115 0.7833313669
N 4.4906318054 -0.8540819667 -0.1094348270
C 3.8625754960 -1.7234700835 -0.8299235638
S 2.1566404540 -1.9372834545 -0.4954826106
Cl 4.6120507856 -2.6518072691 -2.0774318615
H -2.5116054857 -0.7797929124 -1.6595478659
H -3.7916443671 -0.0282664239 -0.6769098163
H -3.0026301405 0.8906715248 -1.9971088731
H -1.8771389415 2.6237996376 -1.0156129551
H -2.8412095164 2.3428379494 0.4742564201
H 1.1356320873 2.3034713451 1.0987694699
H 0.5800123521 1.9906878177 -0.5814885800
H 1.5770634284 0.4113427151 2.3692188668
H 0.6849156078 -1.0961933576 2.0849623925
H 3.9870598157 0.4673041331 1.4737247564
