53
CONF96
C -0.6585859109 -3.8724138142 0.1343594986
O -1.1474069204 -2.5040476087 0.2250115464
C -1.9617278713 -2.1185340644 -0.7588991362
O -2.2886346892 -2.7960167677 -1.7056792552
C -2.4954940946 -0.6967198527 -0.4992931329
C -3.5865319729 -0.7711567770 0.5988960263
C -2.8608840204 -0.3094031954 1.8392715199
C -1.6498711380 0.3219386081 1.5160596704
C -1.4698541506 0.2480612586 0.0822953475
N -0.6949327831 0.9844903338 -0.6313283836
N -0.7867511883 0.7896869430 -1.9824484755
C -1.9402575005 0.0929012501 -2.6317569607
O -2.9827654596 -0.1189007756 -1.7052799391
C 0.2331123270 1.1671631417 -2.8142654280
O 0.1151191624 1.1058307840 -4.0289802823
N 1.4427676340 1.5612270864 -2.1618469939
C 1.9759239751 0.7534947479 -1.1103774742
C 1.9039766850 -0.6341255231 -1.2116057988
C 2.3028396297 -1.4269716489 -0.1410660946
C 2.7967974644 -0.8101873833 0.9955808769
C 2.9365760255 0.5673335597 1.0889018389
C 2.5088100338 1.3543265790 0.0296786187
O 3.2247907182 -1.6268758968 2.0689811577
C 2.3393366428 -1.7822672951 3.0781365774
F 2.8592264019 -2.6534357044 3.9498482749
F 1.1432967031 -2.2594020130 2.6596395177
F 2.0810343497 -0.6293261517 3.7396129440
C 2.2163147260 2.6100301193 -2.6728079712
O 3.3998781469 2.7463420335 -2.4405351826
O 1.4679277365 3.4505605190 -3.3958486868
C 2.1988847129 4.5345450756 -4.0226772797
C -0.8333834385 0.8705978048 2.5022125580
C -1.2330610504 0.7708177935 3.8287431376
C -2.4378714721 0.1339876655 4.1322084447
C -3.2718696638 -0.4121295909 3.1582706416
Cl -2.9210342946 0.0120435592 5.8161579796
H -0.0236890388 -4.0074041733 1.0076329016
H -1.5011041828 -4.5668081725 0.1529924039
H -0.0865353694 -3.9984326710 -0.7871761630
H -4.3831832536 -0.0669586797 0.3314611620
H -4.0308943206 -1.7646169246 0.6990366123
H -2.3403747721 0.7392017276 -3.4147213191
H -1.5799093928 -0.8494639957 -3.0661050885
H 1.5122346571 -1.0985657794 -2.1115857015
H 2.2357267785 -2.5079307207 -0.1893061301
H 3.3481518733 1.0173394230 1.9850343449
H 2.5634312739 2.4342364713 0.1005840381
H 2.9683133219 4.1341673217 -4.6863912379
H 2.6538188270 5.1700022816 -3.2598240873
H 1.4513099472 5.0873569442 -4.5894740959
H 0.1062898189 1.3485574258 2.2449826002
H -0.6154995182 1.1713483818 4.6241749084
H -4.2037835181 -0.8954934537 3.4295148543
