26
CONF61
C -2.5046211569 -0.8105727804 -0.3146304719
C -1.5724725155 -1.4793266139 0.6948792964
C -0.3290781574 -0.6524142491 1.0487574737
C 0.5975119976 -0.3938771969 -0.1543495053
C 1.9454243869 0.2173214019 0.2758023602
C 2.8767745071 0.5010086526 -0.8977068007
O 2.3910655118 1.6014653850 -1.6817700693
O 1.7449025346 1.4323533475 1.0243842893
O 0.8324873853 -1.5972512730 -0.8911019119
O -0.7807955359 0.5858224865 1.6214148505
O -2.2868509501 -1.8161852440 1.8894905238
O -3.1657763630 0.3392508724 0.2280675589
H -1.9473308618 -0.5567759322 -1.2285498866
H -3.2928436168 -1.5194029058 -0.5871798235
H -1.2318496711 -2.4260593221 0.2642996793
H 0.2371630063 -1.2254913924 1.8048162766
H 0.0920023156 0.2926038907 -0.8463983119
H 2.4410164031 -0.4887704108 0.9570915280
H 3.0112057331 -0.3997499660 -1.5059649432
H 3.8493910652 0.8132561511 -0.5048965498
H 1.6371817266 2.1350758617 0.3625364798
H 1.2675563278 -2.2314235864 -0.3036358300
H 0.0087503139 1.1537322620 1.6888812481
H -2.7514938458 -1.0138836141 2.1667633684
H 1.7156250594 1.2701510096 -2.2863574217
H -2.4671062573 0.8986101308 0.6049449198
