37
CONF422
C -3.6662079067 -0.0739607273 -2.3208534065
C -2.1838632767 -0.0212633871 -2.6113001329
O -1.4787748162 -1.0737150573 -1.8703942165
P -0.8850088432 -0.7279006697 -0.4386150882
O -1.7738742847 -0.0860242868 0.5586823091
O -0.2399940533 -2.1259697315 -0.0598260132
C -0.2549310844 -2.5869052281 1.3366598151
C -1.5085720029 -3.3828723279 1.6115877208
O 0.3758740734 0.2254438676 -0.8568737987
P 1.2985707391 1.0384291245 0.2239779734
O 1.5039761255 0.2771349939 1.4790381515
O 2.5751624636 1.3877230436 -0.6528024527
C 3.7061136257 0.4539868551 -0.6763916914
C 3.3937172034 -0.8062202165 -1.4528522042
O 0.6278491787 2.4720404201 0.3219812040
C -0.2451271808 2.7930025815 1.4630437498
C 0.5609048500 3.4266268495 2.5718098407
H -3.8614095712 0.1372564107 -1.2666395845
H -4.0715674203 -1.0586934261 -2.5688244658
H -4.1801785804 0.6766820703 -2.9300215817
H -1.9661471325 -0.2333562098 -3.6606492107
H -1.7530585654 0.9542240581 -2.3584104145
H -0.1572441619 -1.7222009965 1.9975729677
H 0.6459401533 -3.1984401029 1.4232343596
H -1.5928261830 -4.2277203840 0.9223187787
H -1.4706837513 -3.7714671081 2.6345572702
H -2.3963871170 -2.7518935223 1.5153748148
H 3.9902374312 0.2333583532 0.3574026784
H 4.5035307383 1.0293798068 -1.1509704101
H 2.6319642640 -1.4096783074 -0.9510173231
H 3.0458414876 -0.5663320420 -2.4613426162
H 4.3058719503 -1.4064029079 -1.5323636992
H -0.9831000875 3.4831134945 1.0478686828
H -0.7585014223 1.8844132714 1.7886478626
H 1.2940310717 2.7196140127 2.9691117116
H 1.0808861066 4.3194747038 2.2135131053
H -0.1130132060 3.7191124201 3.3837657164
