44
CONF42
C -3.4299924629 1.8388825264 3.7740659857
C -3.0753101924 0.6498370709 2.9177283307
C -4.0112881553 -0.5436088005 3.0221740897
O -3.9069777722 -1.1742867990 1.7291836916
C -3.3333307739 -0.2264206561 0.8210003369
O -3.2392901035 0.9969765777 1.5200385035
C -4.3232823171 -0.0126579725 -0.3396668675
N -3.7928818324 0.9025432467 -1.3338523608
C -3.7671387191 2.2509890608 -1.3092078693
N -3.1013687385 2.7167385370 -2.3589170627
C -2.7251639570 1.5763933130 -3.0040086970
N -3.1175379534 0.4511113343 -2.4209397593
C -1.9570118711 -0.6931797137 0.3450000369
C -1.6979330165 -1.9572123637 -0.1944596244
C -0.4386317369 -2.3263298079 -0.6464387037
C 0.5997123155 -1.4029062197 -0.5814642534
C 0.3824085658 -0.1257939911 -0.0739654173
C -0.8871917451 0.2051218872 0.3782995772
O 1.8036346180 -1.8116120958 -1.1089818541
C 2.9760074727 -1.2571464016 -0.6207351795
C 3.2417000993 -1.2079508878 0.7450698797
C 4.4636932656 -0.7130866115 1.1853024826
C 5.3992759345 -0.2871543769 0.2483326442
C 5.1436111635 -0.3449814677 -1.1160387112
C 3.9154253910 -0.8322521299 -1.5521672740
Cl 6.9472392343 0.3368693940 0.8069512274
Cl -2.9616567990 -3.1736770758 -0.3531215942
H -3.3539220921 1.5640488767 4.8302939053
H -2.7430966985 2.6680042279 3.5855477927
H -4.4533765782 2.1659456905 3.5676590083
H -2.0349014029 0.3342583353 3.0868763070
H -3.7108009284 -1.2646342067 3.7868468854
H -5.0458798434 -0.2176510174 3.1950312339
H -4.5388408169 -0.9626578122 -0.8293553909
H -5.2439806297 0.4035618830 0.0775689954
H -4.2426537691 2.8311943694 -0.5297354450
H -2.1568359441 1.5709413208 -3.9255749632
H -0.2577635665 -3.3140582322 -1.0535107251
H 1.1841496246 0.6026558428 -0.0384741886
H -1.0664891046 1.2015551418 0.7654038856
H 2.5039979985 -1.5548576907 1.4607824440
H 4.6861039654 -0.6704034329 2.2453608503
H 5.8854444121 -0.0101491251 -1.8318040680
H 3.6854712910 -0.8857207152 -2.6107130414
