45
CONF65
C 5.6995360214 2.8099048621 -0.3971361157
C 4.7097131420 1.6824412833 -0.1085274415
C 3.2537226429 2.1291521130 -0.2375999488
C 2.2537720933 1.0093186064 0.0500939692
C 0.8035916389 1.4687093356 -0.1026392410
C -0.2494866235 0.4272337028 0.3263079965
C -0.2064564170 -0.8427196345 -0.5399029390
C -1.2046286130 -1.9142005400 -0.1028514408
C -1.0938521288 -3.1911149065 -0.9370429241
C -2.1529370120 -4.2477087962 -0.6075312855
C -2.0527431843 -4.7960923803 0.8164097949
C -1.6278664064 1.0550601333 0.3297750693
C -2.2250513135 1.4877657354 -0.8606486418
C -3.4864870726 2.0761928172 -0.8561618017
C -4.1789000414 2.2453310193 0.3424926236
C -3.5963958724 1.8206190806 1.5336810832
C -2.3325226685 1.2318039860 1.5234450155
H 6.7354238993 2.4700354817 -0.2984670344
H 5.5517496417 3.6452274664 0.2965120502
H 5.5665425758 3.1943253625 -1.4145986135
H 4.8918758256 0.8456483289 -0.7958673042
H 4.8785260453 1.2936007270 0.9045535716
H 3.0701376715 2.9678229185 0.4489194787
H 3.0826962097 2.5166905069 -1.2521335436
H 2.4587343187 0.1698609660 -0.6256804644
H 2.4107368945 0.6350084167 1.0719466264
H 0.6182283767 1.7578835688 -1.1463940499
H 0.6545667391 2.3739510997 0.5015463376
H -0.0231403876 0.1334060460 1.3613113585
H -0.3875871973 -0.5723206623 -1.5896993202
H 0.8040147699 -1.2669163212 -0.4988342607
H -1.0379511865 -2.1400944941 0.9587759160
H -2.2279277601 -1.5216043429 -0.1790851589
H -0.0935748288 -3.6272892842 -0.8025275689
H -1.1754971249 -2.9239046338 -1.9994406067
H -2.0569728778 -5.0776364067 -1.3187730874
H -3.1508766413 -3.8171674937 -0.7663258554
H -1.0506558819 -5.1973482018 1.0076956499
H -2.7745440816 -5.6029324301 0.9792351107
H -2.2500569774 -4.0206029184 1.5630715221
H -1.7007120069 1.3609936564 -1.8037663891
H -3.9319674995 2.4035116072 -1.7911940437
H -5.1634022445 2.7029791153 0.3461732716
H -4.1261750082 1.9453541414 2.4735914374
H -1.8851984377 0.8998224683 2.4571660017
