33
CONF141
C 4.6225925938 0.9134524411 -1.0715449759
C 4.8503756397 1.0310326898 -2.5747681339
O 6.2685026859 1.1061908934 -2.7528569680
C 3.1553353224 0.8707070021 -0.7288170904
C 2.8860453897 0.6517914686 0.7872455482
C 1.4173727194 0.8188421281 1.3274379809
C 0.2982513973 -0.0367434653 0.6469917812
C -1.0136425743 -0.1348654987 1.5100136683
C -2.2683747586 -0.5621495563 0.6681220706
C -3.4452097915 -1.1026259243 1.5518672456
C -4.8288862499 -1.1209204165 0.8214345198
F -5.3064709285 0.1183169114 0.6680730891
F -4.7120324271 -1.7002179936 -0.3816910599
F -5.6963254392 -1.8253709165 1.5599414210
F -3.5734171086 -0.3301598558 2.6552029536
F -3.1624050218 -2.3681112080 1.9270152000
F -2.7055802397 0.5090924587 -0.0314813170
F -1.9081858904 -1.5367865657 -0.1977435094
F -1.2681885863 1.0668775048 2.0727141105
F -0.8194916654 -1.0489217342 2.4873689010
F -0.0106245690 0.5304067187 -0.5425570853
F 0.7581763990 -1.2899803057 0.4418559696
F 1.0788504210 2.1231399109 1.2385484911
F 1.4627660407 0.4731872519 2.6417726085
F 3.3245354675 -0.5847876205 1.1268726712
F 3.6184488396 1.5645480500 1.4817538543
F 2.5292168297 2.0346446072 -1.0979179446
F 2.5265816447 -0.1481760677 -1.4006011231
H 5.0956979542 0.0017928065 -0.6925041647
H 5.0706490957 1.7708378746 -0.5612027012
H 4.3587781552 1.9327714970 -2.9638682082
H 4.4375581937 0.1553718972 -3.0919925237
H 6.4406890011 1.1727920387 -3.6997198620
