49
CONF34
C -5.5907387673 0.3041173346 -2.1719703619
C -4.1762397409 -0.2743341037 -2.0721296843
C -3.2691081311 0.3465500246 -3.1386501530
C -3.5990327861 -0.0375084638 -0.6750584349
C -4.3180023959 -0.7293314485 0.5214206461
C -4.0338711917 -2.2320053664 0.2265922085
C -2.5978133798 -2.2105397605 -0.3698664489
C -2.2230173207 -0.6965029968 -0.3534819701
C -2.0913656270 -0.3108121496 1.0978058455
C -3.3894836234 -0.3322628442 1.6401052386
C -3.6311489322 -0.0047560903 2.9633044463
C -2.5457206200 0.3814742980 3.7584929859
C -1.2583385957 0.4145902640 3.2348544703
C -1.0173439140 0.0579687849 1.8979603828
N 0.3078536515 0.1817087303 1.4014758817
C 0.9930009231 -0.7858678073 0.7306640335
O 0.5016054904 -1.8713449667 0.4169321906
C 2.3920338458 -0.4612858355 0.3685237208
C 3.0545568128 -1.1053794547 -0.6659266682
N 4.3063865360 -0.6084418458 -0.7132986395
N 4.5283087471 0.3136107993 0.2354057285
C 3.3721209539 0.4193975095 0.8972040879
C 3.3475158297 1.3401455585 2.0601408080
F 2.4000453629 2.3448523713 1.8820265495
F 2.9580923964 0.6732245802 3.2043144170
C 5.3612987547 -0.9774036848 -1.6518270669
H -6.2740913440 -0.1733373265 -1.4629665806
H -5.9964301684 0.1617649928 -3.1790848584
H -5.5796749303 1.3804935714 -1.9611295516
H -4.2363059399 -1.3525146116 -2.2641756684
H -2.2693197833 -0.0981717206 -3.1279509907
H -3.6922108635 0.2018603303 -4.1382733742
H -3.1625895285 1.4251735909 -2.9698325830
H -3.5450328397 1.0470115797 -0.5037459991
H -5.3691722548 -0.4869846234 0.6856044925
H -4.7628117057 -2.6232681869 -0.4897427418
H -4.1049479363 -2.8338629566 1.1365826662
H -2.5848998219 -2.5897473061 -1.3962945535
H -4.6380959835 -0.0181168177 3.3701196308
H -2.7053231817 0.6660096872 4.7939913207
H 2.7072999946 -1.8619158513 -1.3543361310
H 4.3150755245 1.8164803703 2.2391698534
H 6.2506565049 -0.4000440603 -1.4018296410
H 5.0466390547 -0.7477172791 -2.6728852594
H 5.5767361562 -2.0451852520 -1.5649465299
H -1.8831367658 -2.7921912293 0.2126271324
H -1.3792955073 -0.4311236401 -0.9895785928
H 0.8063366400 1.0174554671 1.6730093959
H -0.4221473557 0.7218953824 3.8565848070
