39
CONF341
C 9.1917748384 1.9303368198 0.9803747020
C 8.1877576723 1.4205903535 -0.0509207931
C 6.9165159505 0.8643448402 0.5910026764
C 5.9183720927 0.3465770354 -0.4441310594
C 4.5404433690 -0.0414103669 0.1190830307
C 4.6462546410 -1.1336000717 1.1915213247
C 3.3173228388 -1.5801210267 1.7997683784
C 3.6547842546 -0.4542458182 -1.0581615981
O 2.2300753189 -0.3462613638 -0.7723769423
C 1.7194990121 0.8988176592 -0.8631577920
O 2.3488654784 1.8804002855 -1.1766587145
C 0.2738834648 0.8971804964 -0.4688195362
C -0.0932661279 0.0959681028 0.6086140916
C -1.3839568449 0.1204198081 1.1085914796
C -2.3534019229 0.9403662997 0.5243560464
C -2.0013821648 1.7296051193 -0.5855698600
C -0.6888332884 1.7100671395 -1.0803190496
Br -0.2413562819 2.7120567027 -2.6246028128
Br -3.3124786728 2.8153468954 -1.4129408873
Br -4.1087107137 0.9716822871 1.2208979152
Br -1.7627575089 -0.9978233973 2.5959751994
H 8.7567471323 2.7323484721 1.5862588618
H 9.4968326553 1.1283686237 1.6611953549
H 10.0933190224 2.3240214671 0.5017428307
H 7.9194054673 2.2325322339 -0.7390553306
H 8.6531143532 0.6384990154 -0.6653734648
H 7.1955425752 0.0653559482 1.2889210406
H 6.4387560726 1.6508842836 1.1924422042
H 6.3527838268 -0.5183042997 -0.9679966150
H 5.7683658351 1.1266387878 -1.2023980195
H 4.0976294186 0.8586621027 0.5682895669
H 5.2893558347 -0.7641082718 1.9973303881
H 5.1653360657 -2.0007654060 0.7580177081
H 3.4859931904 -2.2928085275 2.6125639566
H 2.7744315367 -0.7242519399 2.2171511223
H 2.6704511227 -2.0640745936 1.0624088933
H 3.7974513372 -1.5094167859 -1.3105088898
H 3.8676694514 0.1625210316 -1.9361577557
H 0.6480578449 -0.5446059165 1.0671613136
