52
CONF2
C 1.2762210213 0.6810173376 -1.6359315688
C 1.5514207174 0.2406301496 -0.1914654885
C 1.0389263107 1.2671531999 0.8384147249
C -0.3376892779 0.9267187875 1.3981076670
O -0.6639526325 1.2702660341 2.5206980250
C -1.2247134032 0.1642197539 0.4362730357
C -0.5915268845 -1.2274438955 0.1428559509
C 0.9489871415 -1.1399410678 0.1647658864
C 1.7652058817 -2.1385904747 -0.6562341480
C 3.1859549059 -1.5193656901 -0.6959316658
C 3.0835042516 -0.1206163352 -0.0427112812
C 3.9892132800 0.9189863694 -0.6906269756
O 4.3013878438 0.8866820094 -1.8708244291
C 4.4936872704 2.0525271053 0.1750610031
O 5.1906816210 3.0142893359 -0.5891563772
O 3.3684670113 -0.1701238968 1.3614322311
C -1.2550337792 -1.8191293133 -1.0983890503
C -2.7754300445 -1.9283742717 -0.8652429853
C -3.3613960843 -0.6088658719 -0.4599505341
C -4.3365414176 -0.0263142071 -1.1858781367
C -4.8747053648 1.2945323401 -0.8825973646
O -5.7853069665 1.7996818920 -1.5554445664
C -4.2712314165 2.0011842771 0.2483304452
C -3.3003145684 1.4423206552 0.9831268598
C -2.7533076001 0.0662183461 0.7515825547
C -3.0641386246 -0.7557580446 2.0305879286
H 1.7328585908 1.6556460119 -1.8321203735
H 0.2074646309 0.7828534574 -1.8266078219
H 1.6768303766 -0.0277175812 -2.3643050124
H 1.7120585299 1.3569875332 1.6933316696
H 0.9460614638 2.2651507492 0.3858897051
H -1.1604196107 0.7405314145 -0.4967915566
H -0.8584753187 -1.8840597858 0.9795624065
H 1.2332576497 -1.2844801262 1.2155257263
H 1.3657437432 -2.2320993141 -1.6700801312
H 1.7598914413 -3.1368953486 -0.2102991444
H 3.9170639575 -2.1183150099 -0.1442965613
H 3.5528052576 -1.4238470280 -1.7198279116
H 3.6373218613 2.5095789761 0.6939728908
H 5.1397507987 1.6285659399 0.9582844067
H 5.2281437834 2.6562086007 -1.4930900375
H 4.1870659202 -0.6687406004 1.4803921619
H -0.8567197053 -2.8182659429 -1.3021918092
H -1.0618426933 -1.1983328701 -1.9817236935
H -2.9493977917 -2.6691316653 -0.0730276091
H -3.2772496985 -2.2917704588 -1.7662265521
H -4.7500230295 -0.5290333798 -2.0572060352
H -4.6524190241 2.9939627795 0.4712092837
H -2.8823664121 1.9754065890 1.8322141599
H -2.6757887147 -1.7732444709 1.9640440549
H -4.1480036727 -0.8127028492 2.1656611008
H -2.6219815995 -0.2681604305 2.9008717402
