45
CONF143
C 7.7939149320 0.8067827770 0.0149078354
C 6.8559391520 1.7159716524 -0.7801096187
C 5.3943927245 1.6435522827 -0.3271334122
C 4.7439436834 0.2737742453 -0.5237391845
C 3.2586314265 0.2668938258 -0.1634319941
C 2.6092479351 -1.1050933666 -0.3499562987
C 1.1478762915 -1.1694172620 0.0993417542
C 0.2063373275 -0.3039317934 -0.7573183017
C -1.2272537665 -0.3874280529 -0.3046767144
C -2.0218998011 -1.4475283468 -0.7504226229
N -3.2995943307 -1.4796676290 -0.2728983067
C -3.7898239535 -0.5327693751 0.6140376511
N -5.0692420860 -0.8406390339 0.8902560284
C -5.2823525807 -1.9552475835 0.1564591004
N -4.2562793722 -2.4024762151 -0.5720622804
N -3.0466002973 0.4756974579 1.0635210577
C -1.7893810387 0.5387528840 0.6068079605
C -0.9454243987 1.6888172057 1.1064826831
C -1.5836850262 2.5341027571 2.2015126346
N -1.6427374841 -2.4511493667 -1.5653184151
H 7.5543807653 -0.2506488401 -0.1340073694
H 7.7218406279 1.0179175675 1.0881992862
H 8.8355299995 0.9549864561 -0.2874412534
H 6.9144529949 1.4609183793 -1.8469211198
H 7.2018110104 2.7533421795 -0.6910621483
H 4.8121660697 2.3924543848 -0.8810312638
H 5.3303147368 1.9246752893 0.7338635160
H 5.2610436796 -0.4790178620 0.0851253729
H 4.8655450686 -0.0375386230 -1.5715073385
H 2.7418839436 1.0167336431 -0.7765785350
H 3.1357365855 0.5832998450 0.8826072991
H 3.1837916891 -1.8474135062 0.2194413464
H 2.6794187866 -1.4021478508 -1.4061219873
H 0.8001780485 -2.2093005004 0.0671790271
H 1.0716210593 -0.8492476877 1.1469276248
H 0.5324419393 0.7374695097 -0.7325106628
H 0.2937373587 -0.6109279803 -1.8083914805
H -6.2317047438 -2.4777758366 0.1451888563
H -0.6967484983 2.3257249818 0.2461403852
H -2.5085983413 3.0026886540 1.8570627632
H -0.8894355719 3.3229622426 2.5050667236
H -0.7795010241 -2.3675223300 -2.0757680324
H -2.3575827273 -3.0458275007 -1.9566644345
H 0.0143910686 1.2897389268 1.4572892499
H -1.8230055651 1.9286400682 3.0800488000
