37
CONF13
C -2.0151956725 -0.3182651427 -1.1004130415
Si -0.3379415135 -0.2841741353 -0.2735254448
C -0.3654922844 -1.5841076089 1.1328889529
N -1.5906983374 -1.5080602533 1.9199399579
C -2.6374286903 -2.3534473104 1.9299442615
N -3.6046330381 -1.8836668203 2.7162083239
C -3.0782833269 -0.7134814662 3.1652011600
N -1.8607195167 -0.4379717668 2.7057104053
C 1.0218101251 -0.8211544610 -1.4555846028
C 0.9658804537 -2.0912381666 -2.0535027503
C 1.9425523076 -2.5199436810 -2.9472178497
C 2.9844894368 -1.6537375406 -3.2358421584
F 3.9447743161 -2.0631736983 -4.1045353209
C 3.0888936076 -0.3914834838 -2.6787000654
C 2.0976991819 0.0145411044 -1.7875787535
C 0.0524142174 1.4095286495 0.4279117611
C -0.7394577176 2.5255662554 0.1240952591
C -0.4552186402 3.7853696087 0.6474745886
C 0.6402184178 3.9092334461 1.4837769607
F 0.9263607597 5.1311244635 2.0029404308
C 1.4576949507 2.8414379296 1.8168586604
C 1.1514059528 1.5940560236 1.2818778834
H -2.0525236483 0.3673449586 -1.9531268000
H -2.8060998121 -0.0370200557 -0.3959199618
H -2.2295007206 -1.3279416729 -1.4681722443
H -0.3245158459 -2.5882725596 0.6977025512
H 0.4965454057 -1.4782687899 1.8011532945
H -2.6494175985 -3.2780755940 1.3674787551
H -3.5923375453 -0.0472615922 3.8469185965
H 0.1453797398 -2.7679958530 -1.8269505349
H 1.9030237263 -3.4998470808 -3.4109385805
H 3.9229068723 0.2523673518 -2.9370997652
H 2.1708512499 1.0046630207 -1.3466623307
H -1.6002329729 2.4221421860 -0.5301893403
H -1.0667101641 4.6511383849 0.4167100370
H 2.3051143608 2.9877512562 2.4781208757
H 1.7883931536 0.7523233054 1.5430466179
