52
CONF32
C -2.1454604730 4.2568713243 0.2335907160
C -1.3386363151 3.4880178482 1.2828014287
C -0.1257454868 4.3065017675 1.7272839581
C -0.8857537436 2.1287048250 0.7194626472
C -0.0121642262 1.3137280794 1.6616519973
C 1.2578663980 0.8955639876 1.2639125640
C 2.0540010528 0.1241540282 2.1046172820
C 1.5581766118 -0.2333585243 3.3512414071
C 0.2949831899 0.1621816090 3.7747104540
C -0.4851799524 0.9343609196 2.9206326566
Cl 2.5541159703 -1.2188983196 4.4174314423
C -2.0546484356 1.2239352031 0.3855236980
O -3.1576943030 1.2443416095 0.8790913024
O -1.6642041981 0.2788064890 -0.5159007585
C -2.6062418681 -0.7940914878 -0.7654932420
C -2.8555640411 -1.5320347929 0.4805872753
N -3.0329303661 -2.1539418289 1.4376578027
C -1.9882464826 -1.7025134100 -1.8015579207
C -0.7095426796 -2.2099254542 -1.5739898213
C -0.1394715381 -3.0445997658 -2.5279744657
C -0.8383310193 -3.3939554215 -3.6836735550
C -2.1164938351 -2.8896917324 -3.8858376233
C -2.6982617820 -2.0339146641 -2.9517576267
O 1.0981458777 -3.6232728544 -2.3518462244
C 2.0760045874 -2.9238352688 -1.6550635112
C 2.3852661285 -1.6039904827 -1.9754333983
C 3.4379153181 -0.9801320065 -1.3128117099
C 4.1738930347 -1.6670683644 -0.3481449112
C 3.8477364330 -2.9853917524 -0.0394523310
C 2.7931040455 -3.6214047176 -0.6902872361
H -1.5242645722 4.4642691885 -0.6458371814
H -2.4816456474 5.2150972798 0.6412611469
H -3.0287953176 3.7003687620 -0.0923082068
H -1.9787920876 3.2973914775 2.1530985842
H 0.5502899874 4.4805642965 0.8813515836
H 0.4396188661 3.8022032098 2.5163210456
H -0.4482218085 5.2806362748 2.1071391756
H -0.3183153523 2.2954831710 -0.2037364265
H 1.6356840268 1.1714191817 0.2836568502
H 3.0390507826 -0.1983185771 1.7881292768
H -0.0776128399 -0.1309492847 4.7496343518
H -1.4768560293 1.2356121849 3.2450579373
H -3.5586839834 -0.3834930878 -1.1175459422
H -0.1658233143 -1.9557897728 -0.6695577175
H -0.3715023046 -4.0539752989 -4.4070076932
H -2.6599832163 -3.1557174769 -4.7863701823
H -3.6914851176 -1.6295274161 -3.1168410497
H 1.8153874106 -1.0799908765 -2.7359888015
H 3.6890215672 0.0464975225 -1.5608497192
H 4.9973028677 -1.1760175703 0.1602363317
H 4.4131858952 -3.5253327806 0.7134900125
H 2.5258024811 -4.6483147432 -0.4643060744
