33
CONF3
C -4.2044570549 1.6734982614 1.0597535080
C -2.8439258177 0.9792684680 0.9932897528
C -2.9459530625 -0.4687124434 1.4710220851
C -2.2771401174 1.0613230656 -0.4397485594
C -0.8880547043 0.4973373018 -0.5654572490
C -0.6571543901 -0.7610103843 -1.1212409937
C 0.6275765371 -1.2915646641 -1.1883399767
C 1.7196009879 -0.5721920182 -0.7080101917
C 1.4964604627 0.6893608183 -0.1502847068
C 0.2122458699 1.2121588902 -0.0817078440
C 3.1282855478 -1.1362016302 -0.8079898878
C 4.0192852781 -0.3087644369 -1.7363615680
C 3.7157607860 -1.1953617643 0.5892025098
O 4.4220315410 -0.3549837229 1.0940277490
O 3.3204117634 -2.3163185645 1.2471099959
H -4.9254982882 1.1690171983 0.4055235845
H -4.1370114506 2.7192071264 0.7418747096
H -4.6075955970 1.6537433953 2.0772220429
H -2.1470532523 1.5125540579 1.6556918482
H -3.3449841659 -0.5162799423 2.4891218054
H -1.9707849912 -0.9642396254 1.4633723797
H -3.6192933978 -1.0398456628 0.8197781726
H -2.9571572628 0.5278977240 -1.1166517477
H -2.2741200074 2.1125477195 -0.7546666663
H -1.4959518410 -1.3371972297 -1.5027062188
H 0.7824554086 -2.2761155198 -1.6210090533
H 2.3346672827 1.2609573111 0.2382027161
H 0.0581366871 2.1959024428 0.3545397557
H 3.0516329860 -2.1646629370 -1.1758632816
H 3.5724566491 -0.2659855684 -2.7328611329
H 5.0176398982 -0.7492136433 -1.8121440172
H 4.1288429555 0.7091794199 -1.3566877242
H 3.6886441781 -2.2553034537 2.1427196067
