46
CONF78
C -3.5962719599 -2.5026016935 0.6528011931
C -3.2912807489 -1.8604485229 1.9869526798
C -1.8737509348 -1.6119208623 2.4235059290
C -2.8207954717 -0.4210768452 2.0819045260
C -2.4502531045 0.4154687145 0.9279695411
O -2.1158704739 0.0372990751 -0.1781021046
O -2.4670599334 1.7274567278 1.2849324583
C -1.8693005549 2.6349632788 0.3198347624
C -0.3834079403 2.4090893804 0.2141109338
C 0.2316174659 2.4019601847 -1.0369028679
C 1.5995643616 2.1769508508 -1.1265491770
C 2.3735482226 1.9539657424 0.0089113858
C 1.7508209777 1.9586117539 1.2527689045
C 0.3819493559 2.1892646502 1.3611367996
O 2.1751749369 2.2339841831 -2.3867300583
C 2.9910775313 1.1882028165 -2.7815236566
C 4.0185410536 1.4964236162 -3.6691451017
C 4.8312869957 0.4736129236 -4.1491956593
C 4.6263307841 -0.8436596399 -3.7422534242
C 3.5911456779 -1.1350096861 -2.8556854762
C 2.7640254753 -0.1248482058 -2.3727885252
C -0.7220767666 -1.9052271979 1.5636791176
C 0.5502683419 -1.7801392087 1.9423544061
Cl 1.8828782153 -2.1693039940 0.8859558311
Cl 1.0451833425 -1.2089854391 3.5117400726
C -4.2509991836 -2.2787313305 3.0829125362
H -3.5158430721 -3.5907590265 0.7498587665
H -4.6253011678 -2.2655232751 0.3627906369
H -2.9392625367 -2.1662870000 -0.1473323877
H -1.6826284927 -1.6842649160 3.4900591295
H -3.1559767539 0.1393335467 2.9480316727
H -2.0937980137 3.6266711949 0.7212945513
H -2.3546144687 2.5192122051 -0.6527162692
H -0.3461043114 2.5452789915 -1.9448436062
H 3.4394797027 1.7744290179 -0.0844069188
H 2.3424952208 1.7873494863 2.1464252744
H -0.0941873872 2.1835414959 2.3364806617
H 4.1689228437 2.5272137269 -3.9727971102
H 5.6336853942 0.7120941967 -4.8404381415
H 5.2660102422 -1.6366972311 -4.1149634609
H 3.4158241163 -2.1588250008 -2.5391940746
H 1.9531131002 -0.3525951163 -1.6895177216
H -0.8912319019 -2.2434673539 0.5476329955
H -5.2749225114 -1.9943811876 2.8180242857
H -3.9983288977 -1.8115709341 4.0390103550
H -4.2196754319 -3.3660541084 3.2110299008
