25
CONF1
C 3.6491859683 -0.4038698563 0.6654151512
C 2.5854815936 -0.6041743964 1.5416343470
C 1.3303604064 -0.0886539635 1.2433841515
C 1.1411496013 0.6154290945 0.0551940587
C 2.1994730648 0.8197308133 -0.8276132294
C 3.4536733628 0.3085174701 -0.5144476108
N -0.1532783196 1.1423334909 -0.2390526109
C -1.3000019521 0.3101658256 -0.2623036465
C -2.5464556746 0.8106700992 0.1246243157
C -3.6620084743 -0.0148091437 0.0633484656
C -3.5460651503 -1.3378283190 -0.3543091376
C -2.2983689155 -1.8340115997 -0.7209267979
C -1.1761601121 -1.0163516272 -0.6835270336
N -0.3740304751 2.4846977634 -0.4647239594
O 0.6024160581 3.1958356073 -0.3824233622
H 4.6299609275 -0.8027373515 0.9023320183
H 2.7340504001 -1.1571515029 2.4632484882
H 0.4926765153 -0.2326870511 1.9179451659
H 2.0375208765 1.3691877343 -1.7471757373
H 4.2809770805 0.4652182042 -1.1986510320
H -2.6311423997 1.8331521204 0.4703000258
H -4.6281787267 0.3776153153 0.3635863321
H -4.4202630821 -1.9791668629 -0.3867868540
H -2.1954638821 -2.8634651025 -1.0482434496
H -0.2055085908 -1.3976469617 -0.9808278591
