74
CONF18
C -0.3754220136 -1.0585888466 -0.2527222381
C 0.6350881586 -2.1486776090 -0.5781420471
O -0.0427882767 -3.3834188352 -0.1569191652
C -0.9987649966 -3.1069334253 0.7687351670
O -1.6287768372 -3.9874101970 1.3063851800
C -1.0374871826 -1.6156080766 0.9979262547
C -2.3649320349 -0.9146563485 1.2951702185
C -3.4806017331 -1.2828211082 0.3228279516
C -4.2744863470 -2.3985014901 0.5955439872
C -5.2740984040 -2.7684537583 -0.3009139585
O -6.1169414940 -3.8359686193 -0.1510574779
C -5.9180284424 -4.6774991914 0.9923980574
C -5.4993446401 -2.0321079898 -1.4700845445
O -6.4808633037 -2.3808677588 -2.3540011979
C -4.7119291260 -0.9060892981 -1.7316952968
O -5.0097449463 -0.2396183096 -2.8850755528
C -4.2258729690 0.9199447513 -3.1873908041
C -3.7086704135 -0.5347983667 -0.8341648504
C -2.0992778586 0.5851992506 1.3077390243
C -3.0589564893 1.3933255178 1.9529000960
C -2.8705582565 2.7519222100 1.9372545672
C -1.7813364768 3.3340961132 1.2943232226
O -1.8678655077 4.7013345201 1.3808048552
C -2.9163122428 4.9493323001 2.3403481502
O -3.6798528658 3.7291527977 2.4558353665
C -0.8401022117 2.5756816621 0.6482885006
C -1.0011235890 1.1713957259 0.6617907977
C 0.1002007798 0.3573499770 0.0059633204
O 1.2424915376 0.3334147137 0.9108705323
C 2.4062158791 0.8956032637 0.4056692758
O 2.9657191657 -0.0153907085 -0.5546915024
C 4.1733583975 0.5056348880 -1.1063013917
C 4.6892253611 -0.4213027133 -2.1940136858
O 5.9606366460 0.0762175420 -2.6358589937
C 6.9019583178 0.1492512036 -1.5713902114
C 8.2046169181 0.6604910696 -2.1244330204
O 6.4583332962 1.0543183894 -0.5583741652
C 5.2231996610 0.5960821428 -0.0020474588
C 4.7418859893 1.5620320572 1.0600893390
O 5.6015029242 1.6121083791 2.2006658583
C 3.3744607918 1.1065686638 1.5699373650
O 2.8013904920 2.0863230560 2.4293810581
H -1.1233087475 -1.0186946967 -1.0551319604
H 0.8672314349 -2.2543680056 -1.6384783808
H 1.5533023009 -2.0521566624 0.0055471748
H -0.3638624166 -1.4449845882 1.8541881212
H -2.6952720464 -1.2105205599 2.2975471580
H -4.0987172987 -2.9729065213 1.4955884919
H -4.9101907176 -5.1081148564 0.9870539279
H -6.0777594205 -4.1174957736 1.9208018231
H -6.6605483691 -5.4711913112 0.9084912607
H -6.9144390746 -3.1754749212 -2.0086435062
H -3.1658693194 0.6614355769 -3.2994662747
H -4.6128269859 1.2987416772 -4.1338793982
H -4.3379188259 1.6860683000 -2.4106657219
H -3.1149531672 0.3512361709 -1.0198605804
H -3.9215342586 0.9470280958 2.4373112016
H -2.4667753231 5.1863156659 3.3142206839
H -3.5633435044 5.7482363168 1.9737527697
H 0.0012317838 3.0354269800 0.1405211895
H 0.4082258942 0.8391526617 -0.9298403603
H 2.2061976095 1.8604450883 -0.0961966550
H 4.0034651267 1.5087457088 -1.5313768928
H 4.0291736761 -0.4332730323 -3.0648061372
H 4.7888081059 -1.4438312320 -1.7962975561
H 7.0005003813 -0.8541813386 -1.1183332201
H 8.0581813221 1.6525557671 -2.5604898174
H 8.5718696771 -0.0207092735 -2.8951050749
H 8.9454257055 0.7242379774 -1.3243791281
H 5.3633954406 -0.4048373086 0.4418750309
H 4.6403946359 2.5642565850 0.6133250981
H 6.4100496549 2.0729328601 1.9433643512
H 3.4926188882 0.1436580839 2.0932622397
H 3.4711014668 2.3042001271 3.0920023397
