119
CONF849
C -10.0144381516 -1.9671393774 1.4925352576
C -10.1732967075 -0.6342280278 2.2214552852
C -11.5404974920 -0.0112501510 1.9321758198
C -9.0543416169 0.3449070633 1.8137640177
C -9.2072073419 1.6672013569 2.5795529639
O -9.1481133754 1.6607910201 3.8155213733
N -9.3649356557 2.8122432267 1.8838171613
C -9.4646965063 4.1119762809 2.5850278011
C -9.3619159330 5.1021173277 1.4476571455
C -8.1114346837 5.9177745806 1.2598764095
C -9.4127035414 6.5774781504 1.6647824916
C -10.0030253416 4.4043308504 0.2699762856
C -9.4708398627 2.9619906406 0.4184983236
C -8.1420900210 2.7666766020 -0.2534760010
N -7.9672510512 2.6516639483 -1.5618960327
C -6.6151218356 2.4981212240 -1.7376168370
C -5.9551246731 2.5093382198 -0.5203271800
N -6.9612550893 2.6928946379 0.4099017438
C -4.5620553746 2.3041675347 -0.1765826036
C -3.6229339658 2.0711633115 -1.2056240992
C -2.3141108190 1.8322338818 -0.8631021193
C -1.8721016349 1.8111216912 0.4707013649
C -2.7865370890 2.0442565935 1.4896747688
C -4.1174011243 2.2883125791 1.1579315209
C -0.4339889764 1.5289269148 0.4911390406
C 0.0205220333 1.3782320140 -0.8285559939
C -1.1434995404 1.5487709469 -1.7721234722
F -1.3533745437 0.4207642189 -2.5489256956
F -0.9322253328 2.5679370565 -2.6846135003
C 1.3367559091 1.1063436158 -1.1299401620
C 2.2617200528 0.9765744823 -0.0751449716
C 1.8035985255 1.1283284099 1.2447283536
C 0.4693853327 1.4008939857 1.5399110152
C 3.6803420415 0.6820346983 -0.3565632746
C 4.4070153745 -0.1560983516 0.4984409280
C 5.7316274760 -0.4039523365 0.1703177566
C 6.3548757455 0.1465228264 -0.9737450806
C 5.6292580799 0.9897303260 -1.8154194329
C 4.3038696841 1.2438430277 -1.4962729066
N 7.6595163437 -0.3051695175 -1.0710086927
C 7.8215848708 -1.1016091444 -0.0322749931
N 6.7003536337 -1.1946729756 0.7497197482
C 9.0754604553 -1.8421923803 0.3251464542
C 10.0207057909 -1.0447775061 1.2659115891
C 11.1574645598 -1.9986999325 1.6980689485
C 12.0237911809 -2.1361001300 0.4056787131
C 11.2242491340 -1.2949803032 -0.6058089056
C 10.7347172345 -0.1291492235 0.2589175737
N 9.9548715882 -2.0244654819 -0.8446100023
C 9.7024548658 -2.7411315478 -1.9546048800
O 10.4790213683 -2.7767356600 -2.9195667542
C 8.4063032189 -3.5627613023 -2.0077506136
C 8.7518396910 -5.0609251211 -2.1507454724
C 9.6520532605 -5.5044410938 -0.9951791052
C 7.4780545732 -5.9030019476 -2.1985350422
N 7.6154580415 -3.0569615109 -3.1200788708
C 6.3092832058 -2.7259149207 -2.9862700239
O 5.6114254681 -2.9506086735 -2.0062618966
O 5.8545556296 -2.1154187698 -4.1140740132
C 4.4436998645 -1.8040425940 -4.1074552313
N -7.7215089464 -0.1513414953 2.1309525129
C -6.8431098933 -0.5607587169 1.1841765199
O -7.0793551184 -0.6708475928 -0.0112150176
O -5.6403251906 -0.8486101926 1.7500748534
C -4.6339611418 -1.3303368338 0.8328252903
H -10.1210962928 -1.8291393165 0.4102703180
H -9.0372321160 -2.4190725769 1.6863966440
H -10.7853222342 -2.6705014773 1.8225978271
H -10.0788573285 -0.8008975550 3.3025481759
H -11.6451932476 0.2044649963 0.8619083981
H -12.3403305646 -0.7016550635 2.2157805417
H -11.6906448169 0.9220628807 2.4853873067
H -9.0910673045 0.4862482732 0.7303372450
H -10.4326949102 4.1791908062 3.1007430991
H -8.6669588720 4.2119334118 3.3264303625
H -7.3336375746 5.8331270425 2.0128028996
H -7.7610571896 6.0717432736 0.2436426436
H -9.9312902242 7.1760738297 0.9222720781
H -9.4993084546 6.9326224948 2.6872655474
H -11.0944096370 4.3927471597 0.3737907119
H -9.7406113411 4.8378004000 -0.6966740494
H -10.1824096193 2.2456389647 -0.0038229047
H -6.1866692892 2.3668249410 -2.7215903087
H -6.8527536628 2.7707641168 1.4100750169
H -3.9298796053 2.0727485032 -2.2463096334
H -2.4806485854 2.0351413336 2.5309553826
H -4.8187432461 2.4587999896 1.9676547129
H 1.6520727587 0.9703948142 -2.1599005274
H 2.5161056092 1.0534546013 2.0601116037
H 0.1518226814 1.5210469133 2.5708823013
H 3.9415917489 -0.6220505140 1.3604340152
H 6.0891498017 1.4318283990 -2.6936907974
H 3.7299027725 1.9122226671 -2.1298283609
H 6.5976962581 -1.7658609541 1.5756738011
H 8.8085626316 -2.7989445167 0.7908905814
H 9.4838937575 -0.5656928332 2.0859380130
H 11.7305064032 -1.5494791395 2.5136270818
H 10.7688194530 -2.9593897815 2.0488262980
H 13.0225548908 -1.7104223351 0.5415468859
H 12.1325923809 -3.1707718144 0.0710787866
H 11.7248810159 -1.0630669889 -1.5442206294
H 11.5630087789 0.4230283714 0.7099054465
H 10.0666713265 0.5524721584 -0.2715986970
H 7.8024766321 -3.4382423861 -1.1059206719
H 9.2993636240 -5.1781522771 -3.0950139195
H 9.8632248778 -6.5754897090 -1.0684956320
H 10.6091932605 -4.9729862099 -0.9937411925
H 9.1587177722 -5.3230984590 -0.0322360032
H 6.9259407282 -5.8157117314 -1.2555930814
H 7.7299619104 -6.9575262930 -2.3489883322
H 6.8169479813 -5.5920498639 -3.0128371107
H 8.0988587611 -2.7977206004 -3.9681424398
H 3.8509904051 -2.7178950273 -4.0146935480
H 4.2054577531 -1.1211128591 -3.2875385115
H 4.2521106652 -1.3237643961 -5.0669387130
H -7.4132248536 -0.1006747234 3.0915749074
H -3.7447813539 -1.4908420098 1.4424190111
H -4.9537648909 -2.2683746399 0.3715859376
H -4.4315433941 -0.5850185982 0.0589297256
