44
CONF12
C 0.4722729133 3.8976328721 0.1580581843
C 0.4522653366 2.5465271854 -0.5514109226
C 0.4051492807 1.3864971561 0.4633703841
C 0.3903268321 0.0501580544 -0.2379924327
C -0.7528300939 -0.7614270047 -0.3921753945
C -0.7866731804 -1.7757902525 -1.3889594986
C 0.3661639668 -2.0948243007 -2.0922342913
C 1.5569463753 -1.4249210036 -1.8486149826
C 1.5291733411 -0.3532644574 -0.9380642696
O 2.6503227927 0.4020250847 -0.7116078297
C 3.7933002645 0.1050820213 -1.3634375510
C 3.9248828655 -0.9092042493 -2.2431691385
C 2.7979946895 -1.7674729494 -2.5603205391
O 2.8748552227 -2.7000439998 -3.3646065767
C 4.9309993062 1.0128483167 -1.0237993011
O 6.0336903314 0.8816665550 -1.5061030826
O 4.5814898158 1.9617552030 -0.1458394364
C -2.0507157083 -2.4590801420 -1.7225926530
O -2.1118158937 -3.3842718080 -2.5440744650
C -3.2110757089 -1.9322847966 -1.0497934500
C -3.0851850292 -1.0604929553 -0.0139788640
N -1.8782654908 -0.5515938102 0.4114810685
C -1.6640005622 -0.4117846688 1.8951224481
C -2.1389263371 -1.6455351278 2.6510376650
C -4.3549932149 -0.5907449713 0.6376339843
O -5.3666619991 -1.2549106639 0.6760652853
O -4.2566120362 0.6638809684 1.1064893423
H 0.4899779920 4.7185406823 -0.5650219422
H -0.4133047661 4.0229431111 0.7905789841
H 1.3580913955 3.9893736661 0.7960215088
H -0.4266572941 2.4747735653 -1.2033888861
H 1.3342864325 2.4505234156 -1.1921854442
H 1.2660024235 1.4547235917 1.1384370270
H -0.4906890863 1.5233688657 1.0665679201
H 0.3323232930 -2.8779791361 -2.8413029139
H 4.8819828110 -1.0755664986 -2.7214923648
H 5.3640129165 2.5128950134 0.0301007551
H -4.1970865937 -2.2608779460 -1.3541958134
H -0.5904805719 -0.3080354024 2.0417919403
H -2.1519372862 0.4950160788 2.2568265481
H -3.2247704940 -1.7712907975 2.6205677051
H -1.6706686521 -2.5497920389 2.2505545593
H -1.8481357189 -1.5397563238 3.7002465948
H -5.1150251764 0.9107128073 1.4938882452
