71
CONF276
C 6.7091114732 -0.7106068897 2.9392948544
C 6.9988166091 -1.5191599817 1.7062339013
C 5.9625705193 -2.1795712007 1.0252598508
C 6.2002227072 -2.9324966247 -0.1357145203
C 7.5185111975 -3.0366171005 -0.5893345030
C 8.5597211263 -2.3994172472 0.0761876523
C 8.2983934587 -1.6389963908 1.2120470351
C 5.0802870386 -3.5865081432 -0.8918370258
N 4.6400252893 -2.0418281235 1.5261556281
C 3.8902386844 -3.0496932547 2.0324113523
O 4.2462027643 -4.2281980708 2.0866048376
C 2.5454626916 -2.6113397744 2.6057426591
N 2.1224295436 -1.2849265484 2.1765375396
C 1.1746834313 -0.6749750954 3.1178303279
C 0.8060424780 0.7239433837 2.6508925207
N 0.2028886501 0.6865117042 1.3154683881
C 1.1476446184 0.0733641066 0.3777617693
C 1.5183873590 -1.3268135874 0.8375376560
C -0.1807602141 2.0406550852 0.8970525144
C -0.9672680264 2.0855285727 -0.4117887313
C -2.1946189505 1.1790836556 -0.4059113791
C -3.0254779071 1.3085662183 -1.6931580113
C -4.1218923758 0.2635098271 -1.8245060902
C -4.6147036956 -0.0377240676 -3.0997979718
C -5.6413363928 -0.9573030238 -3.2844574016
C -6.1722413066 -1.5739434497 -2.1632210935
C -5.7192492389 -1.3105630636 -0.8841743668
C -4.6879069793 -0.3847440393 -0.7245252092
F -7.1744970075 -2.4797731839 -2.3299790295
C -3.6100624324 2.7042970677 -1.8407189366
C -4.5980204058 3.1576066689 -0.9605473933
C -5.1287027163 4.4387910704 -1.0704265033
C -4.6550204094 5.2584438009 -2.0823291254
C -3.6824059400 4.8529392106 -2.9775432883
C -3.1642029879 3.5651261167 -2.8450431733
F -5.1720012092 6.5120312989 -2.2009167723
H 6.0862280664 0.1620959442 2.7089381765
H 6.1634037718 -1.3038330220 3.6811122546
H 7.6370763610 -0.3533184415 3.3905989422
H 7.7208932039 -3.6150270580 -1.4863739617
H 9.1099234921 -1.1371143609 1.7312999075
H 4.2276269511 -2.9074957943 -0.9965222670
H 4.7171366600 -4.4750449908 -0.3651989564
H 5.4156723210 -3.8854254321 -1.8874728992
H 1.8132118957 -3.4024114147 2.3666958858
H 2.6715076065 -2.6152615438 3.6967138010
H 0.2559655179 -1.2853235856 3.2099825924
H 1.6444938128 -0.6164370003 4.1060721859
H 1.7148268362 1.3599215172 2.6648927154
H 0.0846524001 1.1587935805 3.3527082703
H 0.6867171444 0.0026158762 -0.6128675467
H 2.0682792980 0.6846174150 0.2796268248
H 2.2371287944 -1.7616426566 0.1332807874
H 0.6145680765 -1.9660557189 0.8362884735
H 0.7106342892 2.6936950299 0.8070079130
H -0.8055147459 2.4605556800 1.6968098825
H -1.2756733602 3.1267976580 -0.5679745193
H -0.3237436478 1.8309610758 -1.2635344297
H -1.8809692630 0.1349052958 -0.2937864150
H -2.8134078595 1.4195221007 0.4685578316
H -2.3420952891 1.1589638777 -2.5392283289
H -4.1861954718 0.4584834205 -3.9667560763
H -6.0211528687 -1.1965919486 -4.2719993061
H -6.1598987557 -1.8188281424 -0.0331360928
H -4.3291338348 -0.1793626148 0.2781011283
H -4.9669313621 2.5006423520 -0.1777269124
H -5.8957546697 4.7971063837 -0.3922056136
H -3.3401643753 5.5262709350 -3.7560839120
H -2.3970832434 3.2292690329 -3.5371092921
H 9.5760932474 -2.4886336691 -0.2951856367
H 4.2470186154 -1.1142468031 1.6646267119
