55
CONF73
C 2.0614060351 0.5926695308 0.1915817943
C 3.5287744262 0.9875185271 0.1640469845
N 3.9457155666 1.5143379698 1.4670911717
C 3.7041599111 0.4947744357 2.4947312005
C 2.2354320264 0.1042634630 2.5201302055
N 1.8157725515 -0.4289715646 1.2178554448
C 0.4024398368 -0.8124611332 1.2648544644
C -0.0246473734 -1.6556124914 0.0521513767
C -1.4600757561 -2.0605409984 0.1374196659
C -2.4888060975 -1.6268132755 -0.6204543362
C -3.8363339989 -2.2096288112 -0.4561620130
C -4.3721951469 -2.4806032462 0.8095392800
C -5.6094453144 -3.0965916717 0.9493501435
C -6.3497707166 -3.4378807805 -0.1817466827
C -5.8580253903 -3.1448195175 -1.4481516026
C -4.6116076964 -2.5300887885 -1.5814855881
S -4.0076604822 -2.2226404231 -3.2278564273
C -2.9789504324 -0.8099209959 -2.9352588364
C -2.3528733843 -0.6191331283 -1.6908198571
C -1.6149491996 0.5530648414 -1.5038212545
C -1.4319289378 1.4566182427 -2.5442865710
C -1.9991417190 1.2194536349 -3.7966011697
C -2.7901837253 0.0962667282 -3.9822405359
C -0.5729810900 2.6626817294 -2.3254653738
F 0.7400367959 2.4083933895 -2.5998712736
F -0.6144757493 3.1013314967 -1.0440298572
F -0.9312026868 3.7033187937 -3.1146101670
C 5.3455969221 1.9557522810 1.4493669227
C 5.6105615541 2.9340843423 2.5860672089
O 4.6859645929 4.0266259122 2.5361439681
H 1.7908263002 0.2005209910 -0.7938437532
H 1.4428844476 1.4942906672 0.3771138572
H 4.1364303290 0.1078784624 -0.1262975393
H 3.6755841124 1.7635209577 -0.5959143037
H 4.3217421083 -0.4054885460 2.3071880256
H 3.9803764300 0.8911756271 3.4774693529
H 2.0817435902 -0.6667075807 3.2841322129
H 1.6310777814 0.9891036515 2.8049082494
H 0.2427682961 -1.4060702535 2.1736346761
H -0.2516553920 0.0787966414 1.3508647116
H 0.5961535205 -2.5606401651 0.0433380388
H 0.1649506334 -1.1181916213 -0.8801052717
H -1.6861831328 -2.8289527416 0.8755332644
H -3.8022248379 -2.1980402588 1.6892445538
H -6.0012144665 -3.3012926723 1.9403366916
H -7.3199192981 -3.9132914033 -0.0804216220
H -6.4400681426 -3.3866657422 -2.3320583061
H -1.1905598179 0.7599095867 -0.5286501346
H -1.8558249902 1.9202734168 -4.6113264752
H -3.2753891431 -0.0722482009 -4.9380770550
H 5.5228439556 2.4721444934 0.4982049632
H 6.0537280874 1.1077476841 1.5093474109
H 5.5538842735 2.4288706460 3.5621358716
H 6.6185251102 3.3493325477 2.4850553619
H 3.8389145481 3.6185753150 2.2920137315
