32
CONF20
C 4.1835865213 1.2929470522 -2.6990114522
C 3.0378114563 0.8683320426 -1.8234036227
C 3.0972113474 -0.3133943439 -1.0810487756
C 2.0268072707 -0.7222756484 -0.2959291059
C 0.8801972713 0.0634290893 -0.2340090616
C 0.8000399586 1.2442053238 -0.9653819320
C 1.8727546480 1.6377324219 -1.7527005234
N -0.2622384683 -0.3199735992 0.5622954776
S 0.0376287817 -0.7302816102 2.2080767296
C -0.5849052353 0.7800800174 3.0348618187
F -1.9222617999 0.9516033178 2.8760673703
Cl 0.2053404498 2.2890780372 2.4751561910
Cl -0.2486637238 0.4880788784 4.7781491514
S -1.3322900641 -1.4955206061 -0.2553812942
O -0.9209556863 -2.8446177159 0.1339834686
O -1.3090247612 -1.0463059055 -1.6432011601
N -2.8509494892 -1.2327587416 0.3524424320
C -3.4760937383 0.0574811970 0.0551614357
C -3.2813982931 -1.8992223755 1.5850979574
H 5.1120741431 0.7946134094 -2.4102306742
H 4.3424160939 2.3739566629 -2.6478155532
H 3.9827188742 1.0413616591 -3.7469187849
H 3.9921965651 -0.9272625605 -1.1233238843
H 2.0795122138 -1.6478466023 0.2689764218
H -0.1040896966 1.8402520155 -0.9100644252
H 1.8072050013 2.5615778070 -2.3206881239
H -4.5613943241 -0.0834140656 0.0845918001
H -3.1950119226 0.8299801704 0.7815224844
H -3.1977561556 0.3789715384 -0.9495877111
H -4.3390608521 -2.1625327087 1.4713101589
H -2.7072935938 -2.8146798674 1.7275329894
H -3.1641124904 -1.2535938768 2.4634699858
