43
CONF35
C -2.5057986420 -2.4765254521 1.7514655174
C -2.4525070975 -2.9176217409 0.2869525822
C -1.3455047090 -2.0384422420 -0.3020905422
N -1.3810914103 -0.8143082657 0.5407464444
C -2.3607517948 -0.9648583276 1.6294075933
C -1.0643668549 0.4260448870 0.0625551931
C -0.0245588203 0.6196145166 -0.8857936157
C 0.2325237810 1.8848904561 -1.4095485627
C -0.4480179208 3.0150738674 -0.9778086755
C -1.4029127788 2.8507627418 0.0273420015
C -1.7042088604 1.5888750452 0.5328040305
C -2.1473512405 4.0091210024 0.5826248719
O -2.9660159154 3.9333782180 1.4797518494
O -1.8204033048 5.1734233714 -0.0130348892
S 1.4794221925 2.0903333068 -2.7021635785
O 1.1443884504 1.1998732205 -3.8237011741
O 1.6038284067 3.5370383356 -2.9350132322
N 2.9687373162 1.5833284187 -2.1241395888
O 0.7478507806 -0.4359485543 -1.3182558475
C 1.6542409263 -0.9947436483 -0.4199541658
C 2.3151963398 -2.1326469952 -0.8764208549
C 3.2612400301 -2.7381551499 -0.0573013220
C 3.5416861020 -2.2151415008 1.2047806689
C 2.8722187801 -1.0750700794 1.6400690150
C 1.9236164941 -0.4506164694 0.8313153483
H -3.4323118769 -2.7601880608 2.2554956668
H -1.6599203036 -2.8941092228 2.3089998492
H -2.2352636734 -3.9808083055 0.1603616988
H -3.4087671792 -2.6984379335 -0.2005219278
H -0.3726537833 -2.5372294628 -0.2203417139
H -1.5194453531 -1.7891394984 -1.3534491277
H -3.3288983774 -0.5129484441 1.3588175169
H -1.9968665313 -0.4816959061 2.5429483969
H -0.2237764353 3.9848591012 -1.3985602207
H -2.4664931725 1.5171279979 1.2974809631
H -2.3418170469 5.8796675606 0.4041609224
H 3.2413521183 2.0942435669 -1.2857373229
H 2.9881485161 0.5792162924 -1.9575207669
H 2.0800041808 -2.5267966222 -1.8597460550
H 3.7793274262 -3.6245992578 -0.4092422085
H 4.2786595386 -2.6920035238 1.8422274390
H 3.0861540179 -0.6573626921 2.6188449406
H 1.4111068801 0.4425244486 1.1711926709
