35
CONF20
C -3.9211734508 -0.0524710624 -1.3023762090
C -3.0474913746 -0.8954332622 -2.2034800821
O -1.6749391007 -0.9477692366 -1.6943862484
C -1.4197677999 -1.8078199368 -0.7316691602
N -2.2874651593 -2.6566375006 -0.2462428364
C -1.8854011447 -3.4845744009 0.7265006881
C -0.6399412838 -3.5445525750 1.2902146618
C 0.2879466349 -2.6271421062 0.7726651563
N 1.5611517613 -2.3611912440 1.0482445100
C 1.8378785354 -1.3610195363 0.1806112021
N 0.8728718296 -0.9466005351 -0.6330645431
N -0.1392543188 -1.7706279495 -0.2491285501
S 3.4196482419 -0.4899007817 0.2051150638
O 3.5751536471 0.1687849348 -1.0827042315
O 4.4020570853 -1.3844629406 0.7986226788
N 3.1531029433 0.7426659440 1.3880057012
C 2.2982715427 1.8141539130 1.0490509660
C 2.7947695361 2.9182981208 0.3326415068
C 1.9671467204 3.9728329747 -0.0348883260
C 0.6320272472 3.9666940356 0.3438968390
C 0.1176016422 2.9221964625 1.1013015576
C 0.9488803398 1.8642288475 1.4368056836
Cl 0.2885071092 0.5704295027 2.4210081066
Cl 4.4848317871 3.0207046460 -0.0554622020
F -2.8366269416 -4.3171703173 1.1621206398
H -4.0379693253 -0.5172710952 -0.3208039644
H -4.9128323692 0.0440935898 -1.7548839072
H -3.4978447969 0.9481198634 -1.1815483994
H -3.4224412378 -1.9166283892 -2.3065776801
H -2.9250696134 -0.4449259481 -3.1898419432
H -0.3796970028 -4.2371516456 2.0774909330
H 2.9285945069 0.2960869430 2.2744525865
H 2.3831327824 4.8004143512 -0.5962924593
H -0.0103231863 4.7943383198 0.0636624886
H -0.9153356914 2.9193080144 1.4270342768
