44
CONF14
C -1.0175732624 -1.1012062157 -3.1362181818
C -1.0331632487 -1.1077022716 -1.6144876677
C -2.3508051830 -0.5772552266 -1.0394146754
O -3.3735566517 -0.4661382049 -1.6827738981
O -2.2366523083 -0.3510549428 0.2742496939
C -3.4176191876 0.1686812237 0.9848506918
C -4.2844482041 -0.9983265496 1.4161964681
C -2.8704914760 0.9757905452 2.1435119677
N 0.1212072345 -0.3986558504 -1.0273387205
C 0.9756681440 -1.1166748815 -0.1425632173
C 1.0952696704 -0.7294818792 1.1925968197
C 1.9303741511 -1.4360108267 2.0485248392
C 2.6139400037 -2.5399611050 1.5696933532
C 2.4792790032 -2.9496785889 0.2462715390
C 1.6641891111 -2.2328640404 -0.6183078022
Cl 3.3524153720 -4.3507054776 -0.3184078996
F 3.4118047755 -3.2350742732 2.4022026437
C 0.1233717830 0.9713733174 -1.1168806266
O -0.8520661500 1.5768484683 -1.5698672048
C 1.3542545670 1.7056843862 -0.7026317679
C 1.2030766033 2.9063616762 -0.0041417834
C 2.3225863187 3.6494670686 0.3528849640
C 3.5953275619 3.2130388733 -0.0120295059
C 3.7461283850 2.0301409325 -0.7340151034
C 2.6309145440 1.2710305212 -1.0713962822
H -1.1078903965 -0.0854663909 -3.5254906404
H -0.0829058564 -1.5426068786 -3.4907230164
H -1.8518649694 -1.6958393248 -3.5140669479
H -0.9647281708 -2.1429345347 -1.2589535992
H -3.9581230946 0.8126177307 0.2843335442
H -3.7267730603 -1.6556800483 2.0910033454
H -4.6243390711 -1.5760315305 0.5528789371
H -5.1632204652 -0.6213721954 1.9482196291
H -2.2264679110 1.7836340457 1.7843443595
H -2.2954525063 0.3356154823 2.8201614672
H -3.7008577203 1.4150264218 2.7038077184
H 0.5343227217 0.1218664621 1.5610936001
H 2.0425952982 -1.1525814261 3.0894003218
H 1.5784213092 -2.5341679088 -1.6564891399
H 0.2070616558 3.2430194599 0.2652326020
H 2.2028554735 4.5718020555 0.9123108328
H 4.4685503358 3.7973934051 0.2604418841
H 4.7346176573 1.6974756927 -1.0343436932
H 2.7507683146 0.3506035130 -1.6336698427
