47
CONF298
C -0.3205354526 0.1885304350 3.0328307815
C -0.6704115951 0.9292388910 1.7441074580
C -1.8000969254 1.9392473941 1.9492811968
C -2.1749271835 2.6876279970 0.6905539506
O -2.7085316667 1.7027647366 -0.2525995460
C -2.9482481951 2.1279895542 -1.4905238724
O -2.8140868972 3.2718362985 -1.8780422937
C -3.4787098359 1.0168780212 -2.3966067521
C -4.9992212295 1.0721959243 -2.4303277668
O -3.1222680480 -0.2914016159 -1.9412461709
C -1.7975015558 -0.6327777911 -1.9173571593
C -1.5119155240 -1.8771141630 -1.3461200435
C -0.2011251451 -2.3242294241 -1.2693601363
C 0.8186662545 -1.5209220144 -1.7646518509
C 0.5517296351 -0.2885499532 -2.3364970759
C -0.7641720855 0.1643415933 -2.4162846369
O 2.1357100677 -1.9993092002 -1.7405570769
C 2.9276934887 -1.6564617500 -0.6877725395
C 2.4770864855 -0.8708463549 0.3812088436
C 3.3754270016 -0.5912187024 1.3913595931
C 4.6749441363 -1.0972741492 1.3075208119
C 5.0181773721 -1.8681738730 0.2035610326
N 4.1597871467 -2.1453329941 -0.7818662405
C 5.6508622356 -0.8021018936 2.3966280565
F 5.2148165896 -1.2543522817 3.6044497159
F 5.8524100354 0.5355761176 2.5495048907
F 6.8617477282 -1.3609890733 2.1803532739
H 0.4829940300 -0.5367744890 2.8711056895
H 0.0069882103 0.8881543075 3.8096789145
H -1.1907917623 -0.3551912907 3.4165531963
H 0.2141401275 1.4574759714 1.3627209902
H -0.9633655414 0.2083328227 0.9703887438
H -2.6890770045 1.4356593041 2.3500657970
H -1.4972207846 2.6867568371 2.6936096683
H -1.3068539761 3.1680901616 0.2269578506
H -2.9481189754 3.4410322092 0.8694600157
H -3.0747525349 1.1971133246 -3.4007034349
H -5.4081894711 0.8947681256 -1.4318370078
H -5.3755877276 0.3087912320 -3.1152320934
H -5.3238155103 2.0540208139 -2.7823793280
H -2.3271951965 -2.4821810234 -0.9638081886
H 0.0330318766 -3.2864665790 -0.8258349527
H 1.3652398636 0.3199968539 -2.7180056211
H -0.9542247757 1.1294206505 -2.8706152373
H 1.4628251879 -0.4949048526 0.4153928094
H 3.0684047443 0.0145231064 2.2385983206
H 6.0182613509 -2.2809893193 0.1023366784
