45
CONF28
C -4.9020573625 3.4199810109 1.9001026844
C -4.7474068968 1.9462770568 1.7028818105
C -3.7263007022 1.3672372536 1.0612010710
C -3.6308017590 -0.0878504269 0.8648462917
C -2.3056351952 -0.8696295177 1.0441681931
C -2.9731789920 -0.7252155963 -0.3258727079
C -2.3393161358 0.1247138243 -1.4020742125
C -3.6020532916 -1.9964945448 -0.8557460312
C -1.0505337526 -0.1876172884 1.3779012162
O -0.7055514781 0.9402408218 1.0790894029
O -0.2537941138 -1.0226786689 2.1101745103
C 1.0488385328 -0.4941107771 2.4669836790
C 1.9572988748 -0.4386368386 1.2719577618
C 2.4829706352 0.7518152961 0.7827857600
C 3.2961654155 0.7762841206 -0.3421081624
C 3.6185409381 -0.3812206740 -1.0401554035
C 3.1062148611 -1.5732992908 -0.5389389978
C 2.2988350374 -1.6009947253 0.5865904565
F 1.8368178705 -2.7855943389 1.0249338639
F 3.3991125220 -2.7334414612 -1.1527996683
C 4.5206633406 -0.3605841864 -2.2373807149
O 5.8567951632 -0.5843707357 -1.7811210115
C 6.7735144239 -0.5949547191 -2.8783795274
F 3.7743708066 1.9620225025 -0.7604633402
F 2.2178954975 1.9130325772 1.4028777218
H -4.0673099547 3.9716256957 1.4580538304
H -4.9569128610 3.6694268152 2.9669367971
H -5.8343162095 3.7813631083 1.4488035857
H -5.5353604069 1.3147190228 2.1166632954
H -2.9347535126 1.9901890130 0.6542321626
H -4.4755686534 -0.6416821992 1.2699762804
H -2.4081427061 -1.8449988786 1.5071793186
H -1.8644502867 1.0237043887 -1.0117984363
H -3.1081193262 0.4203071094 -2.1245151706
H -1.5809881209 -0.4576956327 -1.9370716436
H -4.0560637021 -2.5844430846 -0.0531235390
H -2.8500367347 -2.6154412704 -1.3576567870
H -4.3812498682 -1.7489259958 -1.5854215833
H 0.9425219161 0.4940494470 2.9162252674
H 1.4315988253 -1.1994039967 3.2066231281
H 4.4474736106 0.6091971665 -2.7481661572
H 4.2218280992 -1.1473778085 -2.9442452819
H 7.7672856622 -0.7671464894 -2.4604624379
H 6.5295371759 -1.3993490997 -3.5867036334
H 6.7616236186 0.3669717027 -3.4103165147
