53
CONF154
C -3.7304228635 -3.2183352543 -1.7025200156
O -3.3264053358 -2.0214111599 -0.9790145022
C -3.4334849959 -0.8744451559 -1.6520032858
O -3.8041148769 -0.7630899661 -2.7972592803
C -3.0772399834 0.3207887879 -0.7464449965
C -4.2790496360 0.6006590788 0.1906102560
C -3.8533566132 -0.0249998429 1.4965054168
C -2.4794090044 -0.3107734178 1.5026534626
C -1.9382714617 0.0438253344 0.2072086868
N -0.7050523570 0.2881016826 -0.0602954403
N -0.4512406817 0.7711135349 -1.3120826574
C -1.5270921521 1.2318160156 -2.2369266542
O -2.7295149720 1.4544848640 -1.5321518672
C 0.8311572818 0.7952226275 -1.7909765374
O 1.1227800191 1.3641930901 -2.8327007111
N 1.8059287101 0.1479784263 -0.9758229985
C 3.0129600573 0.8553808605 -0.7054283303
C 4.2467652257 0.2209079035 -0.8442592154
C 5.4161664659 0.9227248050 -0.5809321779
C 5.3252320808 2.2531949176 -0.2008635047
C 4.1097138260 2.9074669800 -0.0796314697
C 2.9424779335 2.1944492564 -0.3234378844
O 6.5163117551 2.9902407126 -0.0043762295
C 7.0170067204 2.9840946061 1.2507826199
F 8.1214864827 3.7391657748 1.2544269802
F 7.3501802696 1.7443173173 1.6788231105
F 6.1548718145 3.4883833370 2.1635750042
C 1.6149586525 -1.1330805202 -0.4519482083
O 2.2184358947 -1.5766873495 0.5015759845
O 0.7198812001 -1.8114522991 -1.1884527651
C 0.2712577336 -3.0600246701 -0.6060850133
C -1.8547612216 -0.8338089989 2.6326704314
C -2.6238796681 -1.0884525989 3.7612212375
C -3.9913649601 -0.8086072003 3.7328406553
C -4.6307102959 -0.2739765138 2.6160595698
Cl -4.9469555593 -1.1471660807 5.1668811398
H -4.7839586486 -3.1437262600 -1.9798537899
H -3.1125983502 -3.3349408267 -2.5950605217
H -3.5682968849 -4.0393178453 -1.0064159710
H -4.3797520688 1.6872474108 0.2964794415
H -5.2241840990 0.2086004366 -0.1939096508
H -1.2261356905 2.1888388050 -2.6645112203
H -1.6544278239 0.4840545210 -3.0319889313
H 4.2947173334 -0.8145494978 -1.1614223731
H 6.3862972987 0.4507897505 -0.6871764417
H 4.0775264848 3.9513281874 0.2108157685
H 1.9781107345 2.6806259404 -0.2165694556
H -0.1841309312 -2.8713297061 0.3698060407
H 1.1095748454 -3.7522538078 -0.5048144355
H -0.4686080901 -3.4491315319 -1.3041910098
H -0.7917223258 -1.0516980701 2.6313239485
H -2.1742732911 -1.5076184188 4.6538229979
H -5.6933853956 -0.0591177545 2.6314444810
