64
CONF102
C -1.9493014263 0.8483663912 4.0733220899
C -3.3246996418 0.4098209165 3.6109331014
O -3.5433011451 0.5166749502 2.2112825177
C -2.5493133312 -0.1344471206 1.4297212787
C -3.0316673417 -0.0991791047 -0.0162123376
O -1.9313916826 -0.1201875486 -0.9281926833
C -1.2441294525 1.0445641734 -1.1130968081
C -1.5123435630 2.2530181122 -0.4790365794
C -0.7724256385 3.3932168451 -0.8050996648
C 0.2377852443 3.3255309623 -1.7488498203
C 0.5313577976 2.1112018024 -2.3727689790
C -0.1944472327 0.9711075097 -2.0565408142
O 0.0024092121 -0.2622965866 -2.6042807632
C 1.0440622308 -0.4127319744 -3.5650124527
C 1.0914588432 -1.8748840495 -3.9357029402
O 1.7022478500 -2.6026670839 -2.8762176373
C 1.3513247390 -3.9864540456 -2.8530982167
C 0.1073838210 -4.2642285792 -2.0210523050
O 0.3481197919 -4.0448136962 -0.6351262718
C -0.0168508853 -2.7392015263 -0.1813669505
C 0.7036470702 -2.5228078602 1.1444400523
O 0.6841189001 -1.1456362916 1.5307821773
C 1.5579619500 -0.3005198176 0.9048158681
C 2.4622809445 -0.6664487835 -0.0858659961
C 3.3199803912 0.2853604446 -0.6419121184
C 3.2650156673 1.6033100304 -0.2231889017
C 2.3584777456 1.9829936001 0.7678315651
C 1.5167553348 1.0414006346 1.3460339533
O 0.6363692796 1.2985036121 2.3582423803
C 0.4728595353 2.6560043669 2.7658864599
C -0.4390639257 2.6835546363 3.9747866601
O -1.7487871623 2.2081411586 3.6956905991
H -1.1639967275 0.2069840552 3.6502861760
H -1.9145709900 0.7451635082 5.1724926628
H -4.0924441484 1.0377463034 4.0740555612
H -3.4730650864 -0.6324284914 3.9466063749
H -2.4002819095 -1.1729992177 1.7706439317
H -1.5822355447 0.3794037306 1.5002874355
H -3.6572036395 0.7886033018 -0.1741096405
H -3.6245574142 -0.9823387986 -0.2670826759
H -2.2883629620 2.3210391531 0.2746271600
H -1.0037171159 4.3326426625 -0.3134906209
H 0.8144932949 4.2082422201 -2.0036541563
H 1.3366787800 2.0625706400 -3.0951567342
H 2.0083128308 -0.1014469140 -3.1398837968
H 0.8286767712 0.1926675910 -4.4587824639
H 0.0653067500 -2.2242655297 -4.1245163251
H 1.6750860718 -1.9994276698 -4.8631974553
H 1.2137642948 -4.3729047904 -3.8769598597
H 2.1995103381 -4.5127664128 -2.4012666847
H -0.1595686783 -5.3233673953 -2.1378062714
H -0.7435312461 -3.6598132303 -2.3711975418
H 0.2762669881 -1.9680410782 -0.8999329146
H -1.1077181451 -2.6732464538 -0.0457332367
H 0.2051513477 -3.0555853406 1.9588249437
H 1.7330857220 -2.8964231653 1.0733704217
H 2.4942900760 -1.6816484347 -0.4602841616
H 4.0252997652 -0.0226150646 -1.4070353909
H 3.9161634100 2.3510727492 -0.6633579168
H 2.3101549067 3.0200533660 1.0743463937
H 0.0451908118 3.2394085462 1.9385949479
H 1.4414729133 3.0952561363 3.0528778505
H -0.5310705558 3.7288325302 4.2983872882
H 0.0175242502 2.1133653995 4.7978720537
