46
CONF46
C -4.4480037166 -1.2564286993 1.9160539931
C -3.1979926516 -2.0104971817 1.5273082154
C -2.6227283345 -1.8649287743 0.1545657150
C -1.8648175628 -1.2814234486 1.3728539277
C -1.7193412624 0.1812092277 1.4560634369
O -2.5519933545 1.0131855721 1.1483833315
O -0.4754374837 0.5018651100 1.8987662770
C -0.1229424598 1.9207498633 1.8398781937
C 0.3148817218 2.2845102291 0.4484196598
C 1.5826141275 1.8918217838 0.0135942024
C 1.9828776539 2.1857511976 -1.2863211018
C 1.1428048329 2.8789212288 -2.1549893173
C -0.1121565290 3.2786894438 -1.7093311046
C -0.5328095361 2.9804434204 -0.4155715497
O 3.2488296304 1.8924319660 -1.7574159005
C 3.8985018966 0.7540847435 -1.3078389116
C 5.2553288285 0.8722909195 -1.0252350048
C 5.9721959904 -0.2610072515 -0.6497285409
C 5.3374830147 -1.4970518923 -0.5502664529
C 3.9771202111 -1.5980797184 -0.8385075122
C 3.2500436909 -0.4760236789 -1.2234773223
C -3.2193670281 -0.9696168424 -0.8549516642
C -2.5318482910 -0.4610336718 -1.8749697690
Cl -3.2441001015 0.5728409051 -3.0820945697
Cl -0.8270071052 -0.7393451826 -2.0929272622
C -3.0922665460 -3.3799177852 2.1653547136
H -4.4963728784 -0.2634372107 1.4711666666
H -5.3274657617 -1.8304044467 1.6035012548
H -4.4877407940 -1.1447965050 3.0046805594
H -2.1173860113 -2.7371168110 -0.2559585958
H -0.9820408258 -1.8356316278 1.6725187880
H 0.6976446401 2.0171178477 2.5531142662
H -0.9749004548 2.5217912477 2.1639923914
H 2.2512021848 1.3659391820 0.6879885515
H 1.4829091527 3.1004164949 -3.1611186913
H -0.7695836690 3.8200736158 -2.3822463183
H -1.5180363107 3.2791263586 -0.0749263711
H 5.7338563699 1.8428188269 -1.1045986934
H 7.0314008084 -0.1725069092 -0.4292078783
H 5.8986206025 -2.3768104185 -0.2531328178
H 3.4757668927 -2.5587262632 -0.7729468408
H 2.1933258701 -0.5510234654 -1.4556546499
H -4.2709411590 -0.7078764216 -0.7861701788
H -3.0805442237 -3.2907906119 3.2568077987
H -2.1836208687 -3.9003924047 1.8499730330
H -3.9559618825 -3.9912119667 1.8816256459
