111
CONF24
C 2.9120407085 -1.1830076186 1.4678820090
N 1.9626615401 -2.0760193746 2.1478366211
C 2.4053040039 -3.3274702167 2.7312461157
C 0.7386109747 -1.9709143422 1.5071691682
C -0.3530869063 -2.8331650325 1.5755258353
C -1.5167675896 -2.4659044604 0.8875554091
O -2.6363889742 -3.2500516591 0.8751811581
C -2.6139117217 -4.4868438579 1.5940077925
C -1.6066210615 -1.2718668811 0.1438641514
C -0.4711333330 -0.4530922785 0.0835432703
C 0.6864013012 -0.7976135755 0.7487407478
C 1.9772122056 -0.0429062576 0.9636378477
C 1.8002528577 1.0323605834 2.1010773976
C 2.1441722016 2.3615996543 1.4302795155
N 3.1117940311 1.9644670099 0.4096037206
C 3.4184906164 3.0124232931 -0.5515830149
C 4.1955111977 2.4522988513 -1.7031454494
C 4.2078740955 1.1527224350 -1.9891096312
C 3.3833183752 0.1162858289 -1.2610790034
C 2.5140674746 -0.6266921656 -2.3225861369
C 1.7771870614 0.2806995632 -3.3064811465
C 4.3682904133 -0.8835131286 -0.6090519225
O 5.3325207189 -0.1187073005 0.1551726590
C 6.6416147370 -0.4317333970 0.0349221600
C 7.4794149942 0.4917713371 0.8641674699
O 7.0630476099 -1.3307636056 -0.6649162392
C 3.7063981561 -1.9168455793 0.3512136418
O 2.8420718048 -2.7558718872 -0.3862635147
C 4.8273738879 -2.8179953900 0.9095397269
O 5.0725392892 -3.9023416600 0.4152044217
O 5.4952139304 -2.2887842466 1.9324272823
C 6.5970687342 -3.0882358191 2.4455476686
C 2.4771985668 0.8013483941 -0.2269670913
C -2.9417316911 -0.8768692624 -0.4918490483
C -4.0060912448 -0.5719986695 0.5902206960
C -3.6145483835 0.4153408788 1.7193958470
C -2.8527906373 1.6867618547 1.3193575054
N -3.6837650149 2.7068533220 0.6756025175
C -4.7032593698 3.1588639200 1.6310603701
C -5.3864648491 2.0487649454 2.4056790273
C -6.6518973968 2.4197195848 3.1297725679
C -6.4513107571 3.5205834052 4.1812593204
C -4.8708687079 0.8138287819 2.4485172346
C -4.3251245382 2.2235110858 -0.5722329076
C -3.3755825366 1.5461347807 -1.5117434192
C -2.8077702285 0.2787470310 -1.4709295007
N -2.0037666140 0.1170093373 -2.5876383068
C -2.0187338475 1.2535399275 -3.3523270965
C -1.3813283749 1.5423450962 -4.5590292860
C -1.5905127601 2.8019601775 -5.1042172049
C -2.4170965428 3.7457131898 -4.4650281876
C -3.0581969223 3.4479673291 -3.2711016239
C -2.8672899886 2.1822559151 -2.6958516465
C -3.5040816405 -2.0361822814 -1.3537258800
O -4.6790993021 -2.3110058674 -1.4611893216
O -2.5301950461 -2.6621092503 -2.0387072872
C -2.9718040284 -3.7211230980 -2.9239188866
H 3.6450878565 -0.7883729672 2.1749285512
H 2.5927684578 -4.1083077021 1.9770947176
H 1.6442511192 -3.6966168284 3.4257945101
H 3.3205584455 -3.1561676872 3.3047561566
H -0.3003166500 -3.7596406912 2.1315376043
H -1.8413484920 -5.1577364838 1.2003460034
H -2.4470731692 -4.3172179285 2.6641857705
H -3.5980082682 -4.9319806057 1.4429115830
H -0.5078088637 0.4649815705 -0.4947109348
H 2.4930095640 0.8291763969 2.9225067185
H 0.7838193422 1.0218635760 2.5008992400
H 2.5739372056 3.0969324682 2.1192671588
H 1.2396531623 2.8097466370 0.9699486931
H 3.9998894291 3.8000524243 -0.0541767257
H 2.4940778354 3.5011397255 -0.9325449309
H 4.7596750641 3.1541632305 -2.3125373066
H 4.7981646026 0.7807212418 -2.8264095277
H 1.7907165380 -1.2566636966 -1.8030675697
H 3.1714593906 -1.3032614146 -2.8825354516
H 1.0967409349 0.9740358088 -2.8016284258
H 2.4636478568 0.8721084846 -3.9186880825
H 1.1713680449 -0.3357279676 -3.9778876291
H 4.8931339373 -1.4377728380 -1.3946610369
H 7.4784254144 1.4826608014 0.3972208109
H 7.0522324290 0.5980881034 1.8641965717
H 8.5008891000 0.1171257239 0.9187108086
H 3.3772214578 -3.5136252305 -0.6768862516
H 7.3299927572 -3.2570522042 1.6536440961
H 6.2179885891 -4.0423174280 2.8182182240
H 7.0246036353 -2.4970706576 3.2536507503
H 1.5731990316 1.1473086725 -0.7672180506
H -4.9142112227 -0.2412754392 0.0865585127
H -4.2614908485 -1.5205637838 1.0680554444
H -2.9634850441 -0.1394433467 2.4112031817
H -2.0054984362 1.4551994855 0.6747285746
H -2.4432622447 2.1364117318 2.2338391299
H -4.2296949089 3.8538148213 2.3420581561
H -5.4598458032 3.7467622541 1.0919771308
H -7.3945141131 2.7651848406 2.3959455722
H -7.0665694314 1.5253698038 3.6089752978
H -6.1203844566 4.4580834080 3.7242635038
H -7.3875911709 3.7206985003 4.7110706077
H -5.6989853196 3.2183725632 4.9174463499
H -5.4007040320 0.0332973304 2.9962720082
H -4.7288538606 3.1055926489 -1.0836562765
H -5.1923810647 1.5811498893 -0.3568849460
H -1.4721861578 -0.7165780242 -2.7858157080
H -0.7475241175 0.8122615716 -5.0511674989
H -1.1091245264 3.0630624118 -6.0415240420
H -2.5557565864 4.7220324683 -4.9190674593
H -3.6961106066 4.1854375303 -2.7928398556
H -3.6522499465 -3.3222539401 -3.6801339738
H -2.0642991990 -4.1072889087 -3.3862914538
H -3.4736661288 -4.5021503829 -2.3476976154
