37
CONF9
C -4.2648004692 -0.6263735896 -0.3528160131
Si -2.4526046791 -0.6950830242 0.1066738495
C -2.2425074007 -0.8459045230 1.9629949360
C -1.6117667150 -2.1347644397 -0.7522551374
O -1.7744852584 0.7258358140 -0.4116461123
Si -0.2975432001 1.4379337942 -0.3448062632
C 0.2215375442 1.8752037620 -2.0838789719
C -0.3928359941 2.9401133212 0.7530948303
O 0.7550438559 0.3646421818 0.3256149471
Si 2.2726916774 -0.2772226895 0.2056030945
C 3.5360581989 1.0707756334 0.5257878425
C 2.3934681391 -1.6154984403 1.5075823869
C 2.5306442940 -1.0046226713 -1.5033469169
H -4.7872843738 -1.5362819779 -0.0380894910
H -4.7578139800 0.2269724112 0.1245835815
H -4.3908200161 -0.5232125559 -1.4357303925
H -2.6980189887 -1.7671041693 2.3429453960
H -1.1798256170 -0.8594955292 2.2293301569
H -2.7107513372 -0.0024333045 2.4821067277
H -2.0842938307 -3.0880995805 -0.4909207225
H -1.6575170388 -2.0252403528 -1.8413705837
H -0.5572459327 -2.1915706265 -0.4617617033
H 1.2111013170 2.3447133289 -2.1084560625
H 0.2521396243 0.9811913175 -2.7155979961
H -0.4918155626 2.5753426802 -2.5314442380
H -0.6767873553 2.6494453872 1.7701413279
H -1.1371390275 3.6540407624 0.3857254207
H 0.5732405074 3.4535636339 0.8075658382
H 3.4620529074 1.8690761432 -0.2212282617
H 3.3873357040 1.5205686815 1.5134200220
H 4.5573840401 0.6760994822 0.4872729240
H 1.6497316968 -2.4009887587 1.3341606127
H 2.2164175345 -1.2035245494 2.5068291889
H 3.3827876155 -2.0855381381 1.5077096531
H 2.5343547127 -0.2282250284 -2.2754403834
H 3.4894162494 -1.5325126390 -1.5589927281
H 1.7404505498 -1.7218214561 -1.7513606635
