51
CONF61
O 4.6722925144 0.5646361683 1.1376389491
C 3.9706367676 -0.1107169358 0.0874853470
C 2.5900620185 -0.4842952563 0.6346767989
C 1.7253079540 0.7156104610 1.0178030530
C 0.3602399711 0.2709715841 1.5153706500
C -0.6525143943 -0.2570016594 0.4388346003
N -1.5358334406 0.8682448862 0.8402319910
C -0.6609560844 1.3788434512 1.7718904558
O -0.7146903512 2.3653329979 2.4846355388
C -2.7932047243 1.2443768815 0.3673233923
C -3.5232028520 2.2563468722 1.0062673403
C -4.7743641372 2.6179111337 0.5217315812
C -5.2780339088 1.9573869125 -0.5866969051
F -6.5046176087 2.3111395983 -1.0559811785
C -4.5815866110 0.9520241540 -1.2340910578
C -3.3266282003 0.5956434808 -0.7527247775
C -1.2271965999 -1.6281213204 0.6270383238
C -0.9321542411 -2.6423571124 -0.2847176092
C -1.4150285030 -3.9346419025 -0.1036212098
C -2.2161414764 -4.2208472594 1.0025920828
O -2.7292730501 -5.4645246241 1.2369777220
C -2.5293110063 -3.2142311786 1.9194492637
C -2.0336300689 -1.9322965277 1.7284686529
C 3.8722828284 0.7211708738 -1.1778284223
C 3.5800091011 0.0866703430 -2.3887532266
C 3.4398216287 0.8140226287 -3.5664477086
C 3.6044764989 2.1881966320 -3.5071188910
F 3.4781608173 2.9091778015 -4.6545198418
C 3.8995988186 2.8554528947 -2.3321045115
C 4.0316963683 2.1071565290 -1.1634429089
H 5.5706476516 0.7395307271 0.8285164887
H 4.4930168798 -1.0470817714 -0.1627734694
H 2.0780190925 -1.0833162845 -0.1283182594
H 2.7333115581 -1.1318807953 1.5086356123
H 2.2172819007 1.3010548086 1.8022763006
H 1.5933858581 1.3783390336 0.1531411331
H 0.4445763173 -0.4130562014 2.3676341548
H -0.2720264318 -0.1300021889 -0.5822498477
H -3.1117419958 2.7551205037 1.8747554721
H -5.3538800572 3.3997081352 1.0006115798
H -5.0095817171 0.4585829458 -2.0997948004
H -2.7641817465 -0.1877918800 -1.2486103141
H -0.3159739028 -2.4219124147 -1.1526974842
H -1.1788356192 -4.7170621181 -0.8199566242
H -2.4361473614 -6.0704988458 0.5428884212
H -3.1592703384 -3.4476798174 2.7718407261
H -2.2853862731 -1.1554871762 2.4457503504
H 3.4616274728 -0.9935144478 -2.4158086309
H 3.2170474589 0.3302338645 -4.5113808064
H 4.0233595890 3.9331668557 -2.3325781511
H 4.2585334136 2.6122642529 -0.2305432459
