39
CONF43
C 3.7775650367 1.4041176581 -2.3337914215
C 2.4363518408 1.4540426477 -1.6062949983
C 2.4619609742 0.6697009778 -0.2947806707
C 1.1524024564 0.7228712473 0.4603049454
C 1.0867970012 -0.1051138547 1.7325384694
O -0.3124789853 -0.3818464485 1.8626797492
C -0.8761634246 -0.3910612583 0.5588941028
C -1.2191238856 -1.8222840915 0.0860224639
N -0.0586983118 -2.6842800835 0.1272403494
C 0.9494147610 -2.7864993590 -0.7710402273
N 1.8975405143 -3.5855563920 -0.3119424685
C 1.4086122753 -3.9479810157 0.9089458389
N 0.2297094258 -3.4276319223 1.2236302803
O 0.1139356047 0.1004464273 -0.3310875587
C -2.1228139593 0.4926858997 0.5378422229
C -3.1823660900 0.3666212087 1.4441575191
Cl -3.1774997217 -0.8375337307 2.7167526957
C -4.2990814583 1.1947892712 1.3839268748
C -4.3616524381 2.1642440873 0.3930154038
Cl -5.7640659163 3.2073841158 0.3151545172
C -3.3382744708 2.3165493066 -0.5317487091
C -2.2367477389 1.4757870355 -0.4469198161
H 4.5755559788 1.8340951536 -1.7190160951
H 4.0581619298 0.3714219879 -2.5663004533
H 3.7422745719 1.9615340034 -3.2741821751
H 1.6481767496 1.0467462767 -2.2499780789
H 2.1623945320 2.4970196877 -1.3993690694
H 3.2446250922 1.0729216372 0.3625904986
H 2.7160822512 -0.3809934388 -0.4863957021
H 0.8618622604 1.7659248114 0.6689411861
H 1.4053899913 0.4373818238 2.6261419337
H 1.6627046819 -1.0370550994 1.6336268396
H -1.9912614571 -2.2540675109 0.7236331188
H -1.5874456202 -1.7616119631 -0.9430478160
H 0.9387912700 -2.2704599211 -1.7211696455
H 1.9265016522 -4.6200308736 1.5804558274
H -5.1023830532 1.0813233049 2.1006545603
H -3.4009045589 3.0754893279 -1.3019848004
H -1.4258495182 1.5809098487 -1.1580998075
