19
CONF24
C -1.9408180546 0.8892107373 -1.1005099532
C -2.0130265755 0.0726113564 0.1555909114
C -3.1577039109 -0.2371990243 0.7732701757
C -0.7450034112 -0.4292877686 0.7621482566
O -0.6578300781 -1.0939649444 1.7785874706
O 0.3278739219 -0.0523889899 0.0369806295
C 1.6148202879 -0.4889446331 0.5346453504
C 2.6430781367 0.0549778062 -0.4353509985
O 3.9162856137 -0.3749815531 0.0553641740
H -1.3397084803 1.7912184640 -0.9474673660
H -1.4664035269 0.3239590972 -1.9091603212
H -2.9433770741 1.1833709625 -1.4176580768
H -3.1592794078 -0.8315570394 1.6807116976
H -4.1107988360 0.0999699692 0.3784926575
H 1.6425236384 -1.5829039235 0.5713203034
H 1.7724576279 -0.0932316722 1.5433277195
H 2.4488174335 -0.3399706391 -1.4424158936
H 2.5773217588 1.1515401648 -0.4693923777
H 4.5907718361 -0.0424286662 -0.5484844597
