20
CONF7
C -0.3149506297 1.3002296477 -0.0090137748
C -1.4594363786 1.5206223253 -0.9840698485
I -2.4430080494 3.4168788156 -0.5726780669
C 0.3932842631 -0.0068434739 -0.3130256818
C 1.5045575171 -0.4232618845 0.7025678532
C 2.6164529935 0.6410738734 0.9560871422
C 3.8959228282 0.0943572601 1.6663143091
F 4.6595441636 1.1328764367 2.0350032400
F 3.5627065403 -0.6069317375 2.7581976859
F 4.6047251537 -0.6836475155 0.8427700117
F 2.1001778324 1.6203878501 1.7404875568
F 3.0057464342 1.1899337890 -0.2186236640
F 0.9019910461 -0.6856403894 1.8899455553
F 2.0881157030 -1.5595637722 0.2525182805
F -0.5027690629 -1.0436740902 -0.3060453939
F 0.9509947841 0.0239663037 -1.5594812809
H -0.6789075425 1.2644841605 1.0218515204
H 0.4122095230 2.1132594968 -0.0815965224
H -1.1184227169 1.5887278242 -2.0157365255
H -2.2371403425 0.7651274216 -0.8926066243
