57
CONF81
C -5.7978405497 0.1151683964 0.4700175642
Si -3.9338519412 0.0796525383 0.3041528274
C -3.2877006551 -1.6501824904 0.6230635494
C -3.1509582710 1.3045966658 1.4847555101
O -3.5956036409 0.5258173186 -1.2598942562
Si -2.3659035020 0.5962612054 -2.3491918631
C -1.7006746077 -1.1133957525 -2.6961514415
C -3.0358300826 1.4148940997 -3.8800158066
O -1.1646692307 1.5654932396 -1.7556387272
Si 0.2612051286 1.3723588014 -0.9496817722
C 0.6518867522 2.9799396556 -0.0966645505
C 1.6006051438 0.8618452847 -2.1424136136
O 0.0189261553 0.1865475086 0.1743863740
Si 0.9500286426 -0.7737273456 1.1406977404
C 0.1363170621 -0.8515451354 2.8134880565
C 1.1048149082 -2.4535003748 0.3467959927
O 2.4165672456 -0.0455459848 1.2903059936
Si 4.0581224120 -0.2873384103 1.2942576558
C 4.8373243792 1.3852769625 0.9834857511
C 4.5504872636 -1.4937474795 -0.0522934614
C 4.5540526282 -0.9569431000 2.9715098448
H -6.1907316839 1.1149400196 0.2533901447
H -6.2669536013 -0.5927495421 -0.2224981385
H -6.1024410865 -0.1544477491 1.4875681693
H -2.1969852400 -1.6855360229 0.5322025799
H -3.5535677466 -1.9797018663 1.6341972781
H -3.7126722242 -2.3650619144 -0.0906478151
H -3.5036940529 2.3226628379 1.2841250861
H -2.0599678460 1.2913520726 1.3897678560
H -3.4054725644 1.0556880140 2.5217141741
H -2.5059987110 -1.7821526568 -3.0196365219
H -1.2330917667 -1.5469878959 -1.8058132098
H -0.9484732091 -1.0785558111 -3.4922733316
H -2.2583295318 1.5048374088 -4.6461856154
H -3.8641849417 0.8354561910 -4.3016189962
H -3.4060259551 2.4200047500 -3.6494233229
H 0.7656550197 3.7941699001 -0.8205523941
H 1.5855013062 2.8938735238 0.4703013278
H -0.1482729935 3.2505479899 0.6012778014
H 2.5680146701 0.8025721578 -1.6316532771
H 1.3850769515 -0.1203990735 -2.5772797862
H 1.6917131967 1.5859797940 -2.9595637688
H 0.7120316403 -1.4836400522 3.4986263866
H -0.8763555741 -1.2626312276 2.7392928360
H 0.0655193039 0.1508852979 3.2503207628
H 1.7260898844 -3.1245138507 0.9501567384
H 1.5539935904 -2.3734994974 -0.6492981507
H 0.1158281250 -2.9129814277 0.2376892615
H 4.5350488196 1.7788457583 0.0061812184
H 5.9307878072 1.3155482027 0.9971026132
H 4.5333392368 2.1070317554 1.7498390268
H 4.1545906290 -2.4959877448 0.1420663595
H 4.1876096912 -1.1667086211 -1.0330414109
H 5.6432566286 -1.5668881072 -0.1037232442
H 4.2596526780 -0.2678649745 3.7710490060
H 4.0734672263 -1.9237245767 3.1615177311
H 5.6387386022 -1.1022888716 3.0305368652
