38
CONF10
C -5.8628123512 1.3856438841 -1.3607924769
C -5.3462558946 0.6459857102 -0.1564095630
C -6.2028952210 0.3456109546 0.9073663077
C -5.7236580701 -0.3471110238 2.0145721461
C -4.3945581900 -0.7456580939 2.0800546822
C -3.5297222351 -0.4476037293 1.0205075374
C -4.0092040805 0.2473485541 -0.0960124181
N -2.1988891883 -0.8845985025 1.1531208592
C -1.1594448876 -0.6844775589 0.3021220918
O -1.1679587994 -0.1055129512 -0.7655220229
O -0.0297553373 -1.2529630967 0.8573133960
C 1.1300507862 -1.2224379868 0.0773747565
C 1.2666623694 -2.0889384811 -0.9984461485
C 2.4683479031 -2.0650201344 -1.6979389795
C 3.5084062083 -1.2114096206 -1.3390654155
C 3.3453832581 -0.3488446605 -0.2474182492
C 2.1366553027 -0.3575919367 0.4646849024
N 4.3271835538 0.5449372323 0.1990312541
C 5.5664023832 0.7747959062 -0.3345218717
O 6.0539750077 0.2282384850 -1.3086346854
O 6.1923133629 1.7264620767 0.4008013939
C 7.5223113233 2.0686021952 -0.0534980732
H -5.0588738978 1.6109132326 -2.0653388147
H -6.3386653705 2.3265753043 -1.0655170483
H -6.6205564077 0.7921303317 -1.8842021439
H -7.2434194094 0.6547808213 0.8656456729
H -6.3891137099 -0.5803944222 2.8401466977
H -4.0225054139 -1.2854852634 2.9460241544
H -3.3439726771 0.4773345339 -0.9165210693
H -1.9807238824 -1.3920734802 1.9996455747
H 0.4570905062 -2.7556282314 -1.2734685773
H 2.6061716754 -2.7305826368 -2.5441686056
H 4.4337473075 -1.2156155455 -1.8955628766
H 1.9815413595 0.3024927508 1.3124599847
H 4.0941640052 1.1006401016 1.0101990079
H 8.1758593538 1.1939724595 -0.0104472301
H 7.4874698627 2.4583071962 -1.0736586284
H 7.8692502941 2.8371754300 0.6360754682
