47
CONF141
C -4.4985612215 -3.1802180034 1.9386967438
O -3.6063376390 -3.2758355994 0.7849683229
P -4.0785985986 -2.7572952397 -0.6466503925
S -2.7185449546 -2.9814258678 -2.0062003996
O -5.4829179208 -3.4984912394 -0.8244736446
C -6.2579013911 -3.2997809043 -2.0400151421
O -4.6089126042 -1.2267804330 -0.4328625066
C -3.7396725764 -0.1366316667 -0.4934695654
C -3.9051282218 0.7700417697 -1.5296352907
C -3.0735048027 1.8835971311 -1.5948977416
C -2.0986985658 2.0870244431 -0.6163381466
C -1.9575610170 1.1726408360 0.4313986945
C -2.7725222298 0.0498523268 0.4887556240
S -1.1158032667 3.5790113525 -0.6975842474
C 0.5282139402 2.9896414138 -0.3125435853
C 1.0247632167 1.7950345566 -0.8410262168
C 2.3248462220 1.3963506586 -0.5582513537
C 3.1247161360 2.2102502974 0.2363496118
C 2.6539367694 3.4070415287 0.7547621088
C 1.3453913089 3.7939960706 0.4844698039
O 4.4542078627 1.8672414460 0.4972234437
P 4.8207007216 0.5718563182 1.4058163010
S 3.6935975729 0.2196832896 2.9405723612
O 6.3481549722 0.9898320579 1.6486871526
C 7.1838491204 0.1189897865 2.4627993160
O 4.8421370054 -0.6886009660 0.4129450896
C 5.6525571561 -0.6379965338 -0.8004235757
H -3.8839848857 -3.4326547940 2.8020087187
H -5.3180838448 -3.8934081121 1.8308876063
H -4.8846748493 -2.1620638095 2.0352848359
H -5.6787440278 -3.6257947233 -2.9079186447
H -7.1479181926 -3.9174121881 -1.9250098638
H -6.5376519946 -2.2475354686 -2.1385090929
H -4.6626165957 0.5930911521 -2.2855555831
H -3.1788021118 2.5869786080 -2.4143556371
H -1.2108050344 1.3327749227 1.2019424341
H -2.6668656065 -0.6654032317 1.2977118984
H 0.3990500743 1.1723698023 -1.4714721164
H 2.7153399462 0.4693201178 -0.9644289926
H 3.2993820437 4.0161103065 1.3780809809
H 0.9599037445 4.7172547057 0.9045607042
H 8.1768933764 0.5664875304 2.4434272597
H 6.8006917141 0.0866392859 3.4859248289
H 7.2166212666 -0.8879589640 2.0366738213
H 5.3310367159 0.1921106619 -1.4352626968
H 6.7095471721 -0.5327078482 -0.5438390433
H 5.4792729837 -1.5872265928 -1.3061781971
