18
CONF1
C -1.3128511241 0.7576897635 -0.1381827760
Cl -1.4509736700 1.3903643618 -1.8436581051
C -1.3108672195 -0.7752257064 -0.1607923792
Cl -1.7695133070 -1.3401095627 1.5280179009
C 0.0291505289 -1.4359747953 -0.5036517719
Cl 0.2719157606 -1.4200939132 -2.3118089990
C 1.1912876786 -0.7754209213 0.2374805954
Cl 2.7530033151 -1.5591055045 -0.2380958701
C 1.2300470884 0.7440018388 0.0489102230
Cl 2.6143478672 1.4314082731 1.0012137768
C -0.0861436775 1.3159807506 0.5835614016
Cl -0.1101279977 3.1259665927 0.5350302776
H -2.2153900125 1.1090269676 0.3643310224
H -2.0995641197 -1.1481160017 -0.8148088184
H -0.0130662681 -2.4930412860 -0.2366200651
H 1.0667224397 -1.0010168975 1.3020860340
H 1.3979327751 1.0196139466 -0.9954848206
H -0.1859101574 1.0540519939 1.6424726736
