47
CONF135
C -3.0374962964 4.8596970325 1.0325904034
C -2.6489229175 3.3993299767 1.0955677237
C -1.3399170197 2.9911351617 1.7206362216
C -1.4863913868 2.9873570806 0.1904517429
C -1.4602670714 1.6886222953 -0.4927943494
O -1.7035472707 0.5985828217 -0.0205841381
O -1.1191808351 1.8586206255 -1.8102223321
C -0.9597877654 0.6449450786 -2.5837544756
C -2.2259344966 -0.0892959688 -2.6590930383
N -3.2286714008 -0.6474083925 -2.7858293369
C 0.2161762121 -0.1930538380 -2.1158941593
C 1.4343902429 0.4563643821 -1.9075114737
C 2.5392141847 -0.2824352196 -1.4986443949
C 2.4510704612 -1.6583769248 -1.3071051336
C 1.2284514558 -2.2889203324 -1.5244872584
C 0.1076456448 -1.5650816887 -1.9257234120
O 1.0589495371 -3.6521380270 -1.4161009179
C 1.8587235180 -4.3604733375 -0.5271013854
C 1.9500726707 -3.9848074064 0.8106043512
C 2.7023837389 -4.7695849468 1.6792426767
C 3.3457449120 -5.9179379897 1.2183221436
C 3.2344568040 -6.2822757650 -0.1215005147
C 2.4913463220 -5.5016919571 -1.0046402396
C -0.4149411233 3.9498676163 2.3265303189
C 0.4083544603 3.6860084400 3.3418785495
Cl 1.4770232625 4.8931344165 4.0106596043
Cl 0.5305729911 2.1347469326 4.1265866316
C -3.8251646050 2.4692752190 1.2846146284
H -3.7978498335 5.0021615783 0.2580274979
H -2.1948937340 5.5140355760 0.8010544156
H -3.4667653254 5.1702800380 1.9915032004
H -1.3424708031 1.9942475291 2.1505808129
H -1.0120738396 3.7993339657 -0.3497648434
H -0.7569845877 1.0203672330 -3.5939051051
H 1.5164402620 1.5274390137 -2.0586157855
H 3.4895679645 0.2161969629 -1.3377413639
H 3.3186475752 -2.2307909936 -0.9985736191
H -0.8318011562 -2.0881839761 -2.0707660109
H 1.4387968461 -3.0942349846 1.1618672002
H 2.7774805470 -4.4849977511 2.7241128133
H 3.9281904122 -6.5266307865 1.9020772640
H 3.7311498810 -7.1755100642 -0.4871523339
H 2.3964334201 -5.7674707263 -2.0523188224
H -0.3791405139 4.9590498848 1.9279457462
H -4.5182714623 2.5599259240 0.4409633100
H -4.3620723786 2.7539887441 2.1956697041
H -3.5187369000 1.4265878708 1.3753832792
