44
CONF12
C 3.7833757780 -0.3043609491 0.7158048671
C 2.5961194953 -0.4842309690 1.6009526001
N 1.5108739933 0.2597782053 1.3568282113
C 0.4835114784 0.0573172217 2.2020181435
N 0.4702397258 -0.7934137682 3.2276199310
C 1.6084394541 -1.4775594429 3.3634202159
N 2.6985548599 -1.3722363819 2.5947402191
O 1.6073867226 -2.3360362145 4.3789802351
C 2.8013711274 -3.1222552687 4.5818018701
N -0.6808474519 0.7718235122 2.0208262121
C -1.0915576452 1.6613646363 1.0050739836
O -2.2269903908 2.0913414717 1.0048531747
N -0.1360140545 1.9466868963 0.0605041050
S -0.4673592591 2.8934699290 -1.3308454264
O -0.9150177723 4.2179561492 -0.9172915794
O 0.7518539641 2.7268653711 -2.1287392294
C -1.8569180972 2.0379929211 -2.1014904966
C -3.0483774965 2.7582423604 -2.1507707958
C -4.1614088943 2.2034413826 -2.7656148309
C -4.0751965152 0.9322016742 -3.3223882785
C -2.8831077559 0.2229865000 -3.2561279749
C -1.7413367971 0.7492699201 -2.6438876739
C -0.5085727859 -0.1201789673 -2.5763882944
C -0.6233228441 -1.1435389691 -1.4357488246
C 0.5487561471 -2.0899265031 -1.3964333941
F 0.5124066683 -2.8800684797 -0.2945587905
F 0.5742886835 -2.9091575588 -2.4760103787
F 1.7385010579 -1.4366161406 -1.3735460381
H 4.0703138511 -1.2693192300 0.2891796263
H 3.5735370708 0.4058812020 -0.0833887156
H 4.6298040066 0.0486562608 1.3133513048
H 3.6590640787 -2.4748664109 4.7787135899
H 2.5790144735 -3.7434737570 5.4488869540
H 3.0066132853 -3.7403978174 3.7046563929
H -1.4137283243 0.5703920758 2.6876351375
H 0.7841173379 1.4926359759 0.1388960762
H -3.0893980524 3.7410560717 -1.6979371738
H -5.0897733603 2.7624628858 -2.8051861888
H -4.9375590391 0.4902803297 -3.8107843805
H -2.8232104818 -0.7692980428 -3.6957858512
H 0.3942667463 0.4771408862 -2.4521292795
H -0.4133357337 -0.6571438435 -3.5262192817
H -0.6723328259 -0.6428407972 -0.4656762001
H -1.5270454024 -1.7523243219 -1.5388499867
