44
CONF3
C -4.3056711183 -0.1895499181 1.0987567783
N -3.1204821372 0.6459794707 0.9598518940
C -2.7926581310 1.1030720919 -0.4054274164
C -1.5072215095 1.9111995147 -0.1411943646
C -0.8638484779 1.2025575483 1.0844895931
C -1.8424203526 0.0566766933 1.4065051341
C -1.5112005310 -1.2419390349 0.6498287977
C -1.5179733818 -1.0718558218 -0.8731282573
C -2.5706942549 -0.0797373597 -1.3655166349
O -0.2109183487 -0.5501556216 -1.3173869445
C 0.7965568149 -1.4207878731 -1.4295230129
O 0.6980683531 -2.6239048116 -1.2643531450
C 2.0927789299 -0.6993794938 -1.7647971475
C 3.1904234962 -1.6986844942 -2.1470963262
O 2.8433000904 -2.4707552354 -3.2960899678
C 2.4971142831 0.1566400779 -0.5818997113
C 2.6606316637 1.5359651047 -0.7214441228
C 3.0146465053 2.3200709749 0.3738435766
C 3.2107813230 1.7322927752 1.6212864512
C 3.0518615743 0.3558111048 1.7679986050
C 2.6957618198 -0.4273098903 0.6739035147
H -4.4526061871 -0.4284053589 2.1583618336
H -5.1815915006 0.3726659074 0.7551444721
H -4.2830017258 -1.1421630759 0.5429849584
H -3.6057188912 1.7286489636 -0.7938098546
H -0.8476779866 1.9274512965 -1.0117931367
H -1.7666949675 2.9441991338 0.1056652253
H 0.1436005020 0.8349342947 0.8774665665
H -0.8052166036 1.8866097582 1.9355912814
H -1.8884857184 -0.1610883082 2.4807026329
H -2.2499593296 -2.0106218193 0.9054725621
H -0.5387427415 -1.6315288401 0.9704930236
H -1.6483906443 -2.0413702935 -1.3620141661
H -3.5132038164 -0.6262306740 -1.4846106570
H -2.2907921343 0.2788325889 -2.3619301830
H 1.8937728788 -0.0456283569 -2.6215222045
H 3.4192326462 -2.3477971265 -1.2912503409
H 4.0948100102 -1.1391152980 -2.4039347075
H 2.1384045616 -3.0732850978 -3.0221324775
H 2.5012863957 1.9980271737 -1.6916540913
H 3.1344872242 3.3922375369 0.2519746634
H 3.4837057426 2.3438716719 2.4755110777
H 3.1981355558 -0.1090136492 2.7381233850
H 2.5558113041 -1.4974358217 0.8020297179
