52
CONF4
C -0.2940819874 -2.5175037269 -2.8877032678
C 0.7260800933 -1.6924326393 -2.1587037790
C 0.7325671612 -1.4864456115 -0.8339929511
C -0.2828997351 -1.9952798987 0.1085855030
C -0.2931314688 -1.5779938693 1.5971710336
C 0.0295851376 -3.0067873321 1.1809352311
C 1.4326451078 -3.5521078676 1.3028673361
C -1.0484093401 -4.0194506893 1.5030468566
C 0.7125483305 -0.6310948009 2.1068963520
O 1.8981261212 -0.5995562499 1.8518020548
O 0.1004072788 0.2829143434 2.9206181813
C 0.9069768037 1.3985728904 3.3512555290
C 0.6747623260 2.5996681423 2.4709488910
C 0.4189890261 2.4402758107 1.1117155934
C 0.2011068913 3.5609660281 0.3174774424
C 0.2737904607 4.8446558501 0.8486689568
C 0.5559889399 4.9962973460 2.2011836101
C 0.7416482238 3.8833471849 3.0150674096
O -0.0262535786 3.4618779178 -1.0405465665
C -0.8025799537 2.4345442388 -1.5393277572
C -1.8849764266 1.8963213514 -0.8453895290
C -2.6563543622 0.9121587573 -1.4544284592
C -2.3673239272 0.4771270147 -2.7444300031
C -1.2920775954 1.0360991175 -3.4293568018
C -0.5015404294 2.0086647527 -2.8298812875
C 1.8076511556 -1.1223294840 -3.0300882632
H -0.6788015948 -1.9744142981 -3.7587748281
H 0.1709957641 -3.4357888408 -3.2700050735
H -1.1405681591 -2.8088066158 -2.2632421311
H 1.5544806729 -0.9159456803 -0.4108605566
H -1.2911800126 -2.0589045322 -0.2935528666
H -1.2800405498 -1.4188119856 2.0179220936
H 1.5436644423 -4.4063125603 0.6256067451
H 1.6169777410 -3.9027562127 2.3242928872
H 2.1908031715 -2.8112906278 1.0550653829
H -2.0501927520 -3.5947355957 1.3871816164
H -0.9653301431 -4.8831216379 0.8336677217
H -0.9469885259 -4.3792202225 2.5332199601
H 0.5983049497 1.6130789797 4.3777624295
H 1.9621750795 1.1039878151 3.3423461330
H 0.3717505388 1.4541416809 0.6642698500
H 0.1046741295 5.6978510081 0.2015708872
H 0.6081653617 5.9927707703 2.6277617931
H 0.9323191997 4.0119467854 4.0765066754
H -2.1202217659 2.2440415874 0.1539129829
H -3.5005891804 0.4938126511 -0.9151599060
H -2.9774266903 -0.2875057464 -3.2131814736
H -1.0617916862 0.7112158065 -4.4393499608
H 0.3432859140 2.4512938607 -3.3460407275
H 1.3790419132 -0.4557955084 -3.7895649201
H 2.3348829051 -1.9187879874 -3.5711992847
H 2.5383669184 -0.5544506814 -2.4492822346
