35
CONF368
C -1.0836225233 2.3905494306 1.1523179354
C 0.2668737465 2.1309665577 1.7791969003
O 0.6421537434 0.8057454889 1.4544742307
C 1.9201464066 0.4360158592 1.9466666719
C 2.2740051803 -0.9123309197 1.3667748802
O 1.4161187523 -1.8926767515 1.9480790726
C 1.2156560592 -3.0567836728 1.1565284843
C 0.1628770263 -2.8819891809 0.0755688308
O 0.7391639567 -2.2615059550 -1.0735754538
C -0.2328689543 -1.7023920666 -1.9573426281
C -0.5201291063 -0.2608927348 -1.5645841007
O -1.6271963761 0.1842082427 -2.3496544478
C -1.8194255957 1.5919120982 -2.3454187253
C -2.1437453592 2.1749153488 -0.9791397068
O -0.9301993985 2.3399573565 -0.2562313142
H -1.7916681540 1.6166330240 1.4908343635
H -1.4649587787 3.3735525535 1.4788057381
H 1.0060064484 2.8519120523 1.3901959291
H 0.1933476348 2.2685866544 2.8722937285
H 1.9149570890 0.3895712566 3.0488987339
H 2.6831433082 1.1703728114 1.6349677511
H 3.3274593430 -1.1442296841 1.6000538803
H 2.1510851903 -0.8792978707 0.2777283820
H 0.8699745180 -3.8293181114 1.8530369243
H 2.1583922592 -3.4029569651 0.7030418254
H -0.6581964119 -2.2751045336 0.4859265752
H -0.2424438594 -3.8700689153 -0.2061412637
H -1.1647162142 -2.2881512504 -1.9474272208
H 0.1837888766 -1.7497529088 -2.9689677492
H -0.7366068368 -0.1986612347 -0.4900727980
H 0.3656616262 0.3662897609 -1.7457448208
H -2.6612319138 1.7729461615 -3.0224918000
H -0.9306372612 2.1075066050 -2.7464858836
H -2.6583057650 3.1445726454 -1.0978629482
H -2.8248581647 1.4898982442 -0.4481554776
