49
CONF30
C -6.9752580825 -0.8351417863 -2.0647579330
C -5.8044879416 0.1061097071 -2.1253513622
C -4.7812131951 -0.0162828006 -1.2636700864
C -3.5747532317 0.8256904963 -1.2064248939
C -2.2332682173 0.1780409206 -0.8377942276
C -2.8940446280 1.2149021333 0.0785208128
C -3.4084915514 0.6838201809 1.3983346013
C -2.3132659033 2.6070672572 0.1781807988
C -1.0426795782 0.5074288316 -1.6318666228
O -0.8861048902 1.4821305824 -2.3397988588
O -0.0943891350 -0.4677445576 -1.4704919453
C 1.1879178835 -0.2702173029 -2.1169767917
N 2.2193260364 -0.2337413033 -1.1291813908
C 2.8615922431 -1.3667435816 -0.6006112724
O 2.6918442461 -2.5064216880 -0.9840102702
C 3.7592844021 -0.8727122133 0.4784491865
C 3.6074722611 0.4578639893 0.5909071232
C 2.6078551821 0.9118864668 -0.4143640967
O 2.1834169273 2.0327549006 -0.6102702524
C 4.3175742315 1.3170332389 1.5712008745
C 4.9767719110 0.4345588917 2.6428384393
C 5.6810422330 -0.7787084090 2.0217884610
C 4.6887592704 -1.6969233102 1.2911718233
C -5.9055121392 1.1474799108 -3.2026144674
H -6.8626394001 -1.5772219657 -1.2700164079
H -7.9078196637 -0.2816793617 -1.8957681723
H -7.0956566594 -1.3626494870 -3.0197408853
H -4.8372994264 -0.8213254440 -0.5330540114
H -3.4675221670 1.5715416759 -1.9883339572
H -2.2666394554 -0.8424283967 -0.4708896955
H -4.2541810138 1.2916271820 1.7400606420
H -2.6198959735 0.7452422619 2.1559770807
H -1.9937140221 2.9901098754 -0.7918822234
H -3.0723392049 3.2838506524 0.5859867380
H -1.4527524098 2.6177657895 0.8574285514
H 1.3522283230 -1.1291815119 -2.7701974473
H 1.1774610323 0.6658499247 -2.6777982339
H 3.6183831457 2.0341326430 2.0172012198
H 5.0715879241 1.9178848719 1.0428518621
H 5.6893715689 1.0297782676 3.2214989615
H 4.2047636133 0.0851853459 3.3402726602
H 6.2074434502 -1.3467518804 2.7945249367
H 6.4352972608 -0.4285879225 1.3056213870
H 5.2082166223 -2.4184795688 0.6497727509
H 4.1079674745 -2.2933920596 2.0092099994
H -6.8171768080 1.7422841661 -3.0649949738
H -5.9955004533 0.6656579070 -4.1843868654
H -3.7367047369 -0.3554512497 1.3355776333
H -5.0553128669 1.8298368311 -3.2335071051
