24
CONF132
C 2.1969797362 1.0619977238 -0.0275624973
C 1.5683549871 -0.2671027560 0.3572975210
C 0.2444041255 -0.5337677570 -0.3586733581
C -0.9257258308 0.2941850565 0.1939087652
C -2.1210901226 0.2700794992 -0.7706616951
C -2.6028682060 -1.1298802534 -1.0983202884
O -2.7557685773 -1.4757354931 -2.2508084425
O -1.7913563552 0.9691129447 -1.9454243295
O -1.3903511795 -0.2307213573 1.4348467667
O -0.0933976859 -1.9173281047 -0.3220894552
O 1.3403865275 -0.3105514554 1.7761759245
O 3.4002856693 1.1619912276 0.7461281118
H 2.4151240642 1.0680806950 -1.1056246531
H 1.5145873496 1.8923853980 0.2043099241
H 2.2644704398 -1.0723151111 0.0760293461
H 0.3736927412 -0.2789707680 -1.4176834260
H -0.6232544369 1.3475856116 0.2969435858
H -2.9588884216 0.7577046096 -0.2368166491
H -2.8732722443 -1.7767460638 -0.2444458158
H -2.0479012556 0.3782527110 -2.6760940713
H -0.6442194878 -0.1594546334 2.0497766701
H -0.3924923868 -2.0996099205 0.5807280134
H 2.1568907299 -0.0060585895 2.1941731708
H 3.7454100371 2.0568670032 0.6695802849
