57
CONF80
C -1.5121131242 -0.1938381323 -5.1291642558
C -1.8890607300 -0.2261244264 -3.6548716146
C -0.7332667144 0.2257290273 -2.7661885762
O 0.3480880769 0.5387896509 -3.2541359665
N -0.9793866401 0.2666738981 -1.4098187134
C -2.2785243167 -0.0897111703 -0.9177128076
C -2.5732611015 -1.4250928905 -0.6454353416
C -3.8337305402 -1.7796536762 -0.1763822481
C -4.8024603972 -0.8007860764 0.0266245285
C -4.5059223491 0.5332530637 -0.2397642282
C -3.2470224033 0.8913678541 -0.7108866496
C 0.0684265128 0.7728540278 -0.4536806007
C -0.4639948400 0.6839136637 0.9871424146
C 0.6199304106 0.9695884984 2.0199824875
N 1.7327054696 0.0321118694 1.8884283531
C 2.3386118326 0.1471858748 0.5650963469
C 1.3209654212 -0.1223019290 -0.5401153832
C 2.6987671603 0.2194110604 2.9621376676
C 3.7640798069 -0.8867512019 3.0228779547
C 3.1941729131 -2.2678795491 2.9967601204
C 3.3998642877 -3.2548705676 2.0713575090
C 2.6744019176 -4.4485035421 2.3363101859
C 1.9138889907 -4.3659272541 3.4669096674
S 2.0801424292 -2.8140404762 4.2218064430
C 0.4120884086 2.2228839141 -0.8132788749
O -0.7509845569 3.0316806261 -0.6634342733
C -0.5038516851 4.3739729692 -1.0446196050
H -1.2273978891 0.8146987159 -5.4376667957
H -2.3571621884 -0.5226071787 -5.7410042294
H -0.6589981400 -0.8461020450 -5.3289201182
H -2.7584626452 0.4125461471 -3.4569951750
H -2.2011788212 -1.2331990977 -3.3542382586
H -1.8062575290 -2.1774213307 -0.8036383362
H -4.0574350070 -2.8204769806 0.0346303414
H -5.7855923565 -1.0770217288 0.3937268615
H -5.2581342019 1.2993437838 -0.0798561762
H -2.9891611228 1.9253217073 -0.9146488844
H -0.8382308362 -0.3286939440 1.1675910449
H -1.2942443962 1.3799357992 1.1314257394
H 0.1835726202 0.8478858118 3.0188130167
H 0.9582507833 2.0248087045 1.9503978249
H 3.1333766289 -0.6004641446 0.4709425063
H 2.8186164958 1.1393352904 0.4254432239
H 1.7980871793 -0.0077562281 -1.5153738818
H 0.9848713449 -1.1623098719 -0.4513176343
H 3.2138912523 1.2010781672 2.8941212752
H 2.1430580265 0.2187341298 3.9091296299
H 4.4663870258 -0.7976547977 2.1873939506
H 4.3551431803 -0.7256466856 3.9333549984
H 4.0580954351 -3.1252921978 1.2194542157
H 2.7170481185 -5.3336247996 1.7132078606
H 1.2711600237 -5.1173350984 3.9034718770
H 1.2059398912 2.5899528542 -0.1446696101
H 0.7833968519 2.2672136583 -1.8442534936
H -1.4362520483 4.9278203894 -0.9092992722
H 0.2781339913 4.8324530554 -0.4185708267
H -0.1930767112 4.4414208227 -2.0985968438
