53
CONF216
C -5.4570015966 -1.5709403663 -2.1958461906
O -4.3067467271 -0.6970324866 -2.0203362171
C -3.6485136773 -0.8425244303 -0.8705851816
O -3.9430782019 -1.6174147002 0.0128249229
C -2.4887614731 0.1677633763 -0.7575197583
C -3.0106882145 1.3819707073 0.0520322610
C -2.6214637795 1.0297411397 1.4686743887
C -1.6457960137 0.0204397304 1.4928113352
C -1.3748976653 -0.3697925443 0.1222046781
N -0.2602376754 -0.8414940206 -0.3070146569
N -0.1241111478 -0.9341369110 -1.6639339660
C -1.2391442765 -0.5782949819 -2.5564112617
O -1.9489686688 0.5311989496 -2.0195920465
C 1.1081718268 -1.2243448216 -2.2062614728
O 1.2463996666 -1.4670839590 -3.3929104203
N 2.1928712392 -1.1803166842 -1.2802116306
C 2.3694708019 -0.0146211054 -0.4705907116
C 2.1628110903 1.2406502466 -1.0363518624
C 2.2665757667 2.3820667147 -0.2472292601
C 2.6059115518 2.2363202660 1.0869629145
C 2.8271011478 0.9937086651 1.6647721527
C 2.7008271093 -0.1414266045 0.8777375989
O 2.6554826354 3.3869390686 1.9083346497
C 3.8605911407 3.9897989863 2.0117642245
F 4.8159203405 3.1744119768 2.5149003854
F 3.7261517440 5.0359578381 2.8347360310
F 4.3260275876 4.4419172857 0.8241474239
C 3.2092155337 -2.1396748254 -1.3210182515
O 4.3136568553 -1.9697178210 -0.8472593774
O 2.7795279401 -3.2667519859 -1.9008370956
C 3.7862740568 -4.3001035911 -2.0465652942
C -1.0746235002 -0.4035836886 2.6892715980
C -1.5049861864 0.1774819339 3.8764617558
C -2.4873281863 1.1676228227 3.8345512096
C -3.0586949020 1.6159662753 2.6449637397
Cl -3.0266360021 1.8805118810 5.3467812514
H -5.8545758253 -1.3235146507 -3.1784701573
H -5.1384070431 -2.6145932902 -2.1554126567
H -6.1938224535 -1.3723333536 -1.4147531598
H -2.4675660786 2.2730184183 -0.2850553283
H -4.0808959897 1.5598636272 -0.0801027845
H -0.8302093777 -0.2804528335 -3.5211528178
H -1.9033838222 -1.4460416053 -2.6758668279
H 1.9128861967 1.3324468111 -2.0888019210
H 2.0963439717 3.3678811846 -0.6646860440
H 3.0713560333 0.9187476489 2.7184235307
H 2.8359677895 -1.1244070709 1.3134315440
H 4.1365450072 -4.6230757944 -1.0638587473
H 4.6237160907 -3.9268858283 -2.6400009655
H 3.2810784754 -5.1148833251 -2.5628778168
H -0.3183807121 -1.1813629049 2.7010448797
H -1.0926528588 -0.1380316184 4.8277921029
H -3.8093109245 2.3984124608 2.6468889966
