41
CONF84
C -4.1327305694 0.0397481783 3.2861445701
C -4.0692804428 -0.9717585544 2.1420906469
N -3.5694595163 -0.3927755917 0.8926202808
C -4.5745140922 0.1898433592 0.0050512285
C -4.9023214167 -0.7129731750 -1.1854659859
O -5.3956087116 -1.9823196473 -0.7655789416
C -2.2265312921 -0.2173098281 0.6726223157
C -1.2583899036 -0.6542462530 1.6095346419
C 0.0874976065 -0.4882615066 1.3619725926
C 0.5469121877 0.1210645045 0.1852997836
C -0.4057860405 0.5662705540 -0.7502199219
C -1.7505617609 0.4015278689 -0.5160651155
N 1.9253907031 0.2323821040 0.0500332850
N 2.3260107870 0.7928684552 -1.0130295471
C 3.7255119670 0.8796283886 -1.1257610395
C 4.6428425848 0.3322737536 -0.2107286479
C 5.9999070169 0.4727797103 -0.4265350624
C 6.4411853470 1.1611491309 -1.5569048141
C 5.5543897882 1.7098079113 -2.4773795123
C 4.1959439492 1.5626188949 -2.2565901181
N 7.8861455821 1.3088682394 -1.7832544315
O 8.6460000932 0.8118846118 -0.9573845510
O 8.2466609884 1.9200369704 -2.7846012403
H -3.1458293385 0.4584637308 3.5008795642
H -4.5115106602 -0.4386423771 4.1945321697
H -4.8031589499 0.8669218472 3.0333418148
H -5.0672213146 -1.3695698118 1.9346749099
H -3.4498482252 -1.8322587971 2.4169236979
H -4.2597408643 1.1814379307 -0.3447793869
H -5.4886679539 0.3356076756 0.5897259275
H -5.7000719813 -0.2484125291 -1.7752479645
H -4.0241275072 -0.8310778593 -1.8358742708
H -4.6462949230 -2.4881446179 -0.4308767344
H -1.5600574644 -1.1137883420 2.5411587049
H 0.8235598181 -0.8231776280 2.0858042257
H -0.0640374390 1.0392526397 -1.6634639454
H -2.4480666656 0.7471502389 -1.2677839772
H 4.2707268711 -0.1981700907 0.6569080429
H 6.7281839270 0.0601873122 0.2605340107
H 5.9374109200 2.2358532218 -3.3424612947
H 3.4695378960 1.9724178918 -2.9498664232
