46
CONF23
C -0.3754161662 3.5553516728 -1.1039422872
C 0.6223875519 3.1231744801 -0.0636926706
C 0.7605712202 1.7634199575 0.2344910119
C 1.6812895495 1.3404132078 1.1888933978
C 2.4884952550 2.2634343422 1.8777745117
C 2.3364033017 3.6084103481 1.5653620309
C 1.4182992750 4.0432718005 0.6100626179
C 3.4689114460 1.7830528198 2.9068788050
O 1.8841638590 0.0298760385 1.5370758333
C 1.1192844698 -0.9726814456 0.8636251167
C -0.3360656145 -0.9752818138 1.2714231644
C -0.6786438306 -0.6587168654 2.5848902570
C -2.0057552523 -0.6496046459 2.9941450636
C -3.0164417617 -0.9532845109 2.0866843018
C -2.6901173072 -1.2587770073 0.7732752695
C -1.3554826024 -1.2755024340 0.3582452035
C -1.0567124322 -1.6205672529 -1.0499398881
N -1.4396346969 -0.9565260674 -2.0830172282
O -2.1420277937 0.1947606307 -1.7753692447
C -2.4768337493 0.8773595589 -2.9920310356
C -0.2553853542 -2.8763051875 -1.3251522746
O 0.1759659018 -3.5410292673 -0.3894303895
N -0.0664681399 -3.1781165840 -2.6326869890
C 0.6806123907 -4.3436536689 -3.0658245971
H -1.3303949309 3.0388258987 -0.9640186598
H -0.0184585663 3.3168628894 -2.1132022222
H -0.5541063211 4.6326683944 -1.0592869895
H 0.1165387123 1.0545439832 -0.2729690181
H 2.9512676827 4.3365151725 2.0878831748
H 1.3209289551 5.1034077682 0.3961852577
H 2.9641299564 1.2394524397 3.7128769736
H 4.0116342565 2.6251026075 3.3427512230
H 4.1937493866 1.0881397981 2.4698748665
H 1.5842419690 -1.9205429614 1.1467511236
H 1.2287345432 -0.8598108432 -0.2231836631
H 0.1118417197 -0.4046152645 3.2834580278
H -2.2518387701 -0.4020108986 4.0217064466
H -4.0553782006 -0.9476596272 2.3992857408
H -3.4700375781 -1.4908356177 0.0556367997
H -3.0335320364 1.7626713345 -2.6798120779
H -3.1025827893 0.2450639726 -3.6305606710
H -1.5707463573 1.1752254143 -3.5302862785
H -0.4647110150 -2.5482724288 -3.3122445901
H 0.0528481524 -5.0138310475 -3.6642664714
H 1.0207955895 -4.8775680525 -2.1768339127
H 1.5536762227 -4.0528685426 -3.6614851768
