44
CONF31
C -4.1911138280 -1.7754664760 -2.0862839305
S -3.1358682335 -0.7202653483 -3.1034339236
O -3.8658138489 0.5170656556 -3.4280835321
O -2.5886608067 -1.5547906283 -4.1859593552
C -1.7090172952 -0.3030348857 -2.0138274682
C -1.7666962149 0.6573212886 -0.9858307803
C -0.5741632335 0.8916784778 -0.2833934878
C 0.6180825387 0.2208751089 -0.5899974470
C 0.6288924591 -0.6899085339 -1.6442936244
C -0.5347951188 -0.9645867146 -2.3459109286
C 1.8648922172 0.3530283207 0.2311727010
O 1.8418405862 0.2730709418 1.4418276479
C 3.1643669005 0.5216552482 -0.5614911309
C 4.0129389678 -0.7537444817 -0.3840169194
O 4.0692205742 -1.5663735086 -1.2790433792
C 4.7326955230 -0.8757555874 0.9305739466
C 5.5173188313 0.4052671039 1.2520923167
C 4.6096103694 1.6447940218 1.2588051531
C 3.8996998059 1.7842458857 -0.0598843948
O 3.9031720374 2.7796189978 -0.7437806835
Cl -0.5288801158 2.1195066703 0.9692884710
C -3.0546598190 1.3670959835 -0.6221829634
O -3.9273762788 0.5174947455 0.1402933508
C -3.4599609883 0.2382509213 1.4426458176
C -4.4370039727 -0.7316841826 2.0756594969
F -4.5156799422 -1.8879998991 1.3758939467
F -5.6809397487 -0.2249395577 2.1605985683
F -4.0257876264 -1.0368854470 3.3269306952
H -5.0085504720 -2.0821602075 -2.7448621148
H -3.6078546605 -2.6424287028 -1.7685287784
H -4.5547985075 -1.2008041594 -1.2340978115
H 1.5507956173 -1.2039521130 -1.9015707493
H -0.5347600100 -1.6727581687 -3.1658700883
H 2.9470883579 0.6569969070 -1.6211486198
H 3.9730781155 -1.0309550274 1.7092777564
H 5.3799830688 -1.7544373187 0.8888030072
H 6.3210231658 0.5396699325 0.5183714932
H 5.9912507176 0.2997726300 2.2317541621
H 5.1729266170 2.5617307866 1.4443927439
H 3.8480533112 1.5263884083 2.0406617711
H -2.8430857843 2.2850619298 -0.0665418592
H -3.6138371882 1.6137302108 -1.5230394845
H -2.4707951294 -0.2434582135 1.4446172083
H -3.4168298524 1.1420695042 2.0678905181
