50
CONF93
C 2.0701781567 0.2166391723 -0.7297221332
C 1.7384150539 -0.9128093432 -1.6748828599
C 0.7343914849 -1.8194745653 -1.3194622420
C 0.4677435279 -2.9338879414 -2.1370158673
C 1.2059715406 -3.1954354301 -3.2636578695
C 2.2338376540 -2.3135050364 -3.6558694570
C 2.4586320347 -1.1270158157 -2.8885891309
C 3.4270151148 -0.2273027970 -3.4861738475
N 4.1718019355 -0.5911241877 -4.5259959634
C 3.9396105271 -1.8042346295 -5.0800674476
N 2.9715925625 -2.6494258027 -4.7519883112
N 4.8076811237 -2.1749986837 -6.0716486276
N 3.6347786287 1.0363445469 -3.0428424017
C -0.0926269430 -1.6417963994 -0.0712130570
N -0.9859816961 -0.4877703338 -0.2022282810
C -1.5310866163 0.1230906109 0.9154919063
C -1.6301187952 -0.5633250706 2.1351230761
C -2.2317709996 0.0655754687 3.2295456514
C -2.7254692865 1.3717514168 3.1297834925
C -2.6240798696 2.0440643248 1.9007249435
C -2.0255989787 1.4346154662 0.8006218176
O -3.1355121908 3.3074537870 1.8898333380
C -3.0763419629 4.0332847274 0.6554992622
O -3.2797501681 1.9987170089 4.2274265575
C -4.7024346875 1.7902609070 4.3273095170
O -2.3798363811 -0.5198802407 4.4519155149
C -1.8917145190 -1.8581011815 4.6102998189
H 3.1477706340 0.3809926475 -0.6668202851
H 1.5926336645 1.1611545498 -1.0221783186
H 1.7129110163 -0.0042299017 0.2765817476
H -0.3260791888 -3.6161150562 -1.8451690577
H 1.0270584207 -4.0802470434 -3.8656504190
H 4.5098311568 -2.9273899308 -6.6730700355
H 5.3315946393 -1.4363867022 -6.5144913789
H 4.2038811622 1.6227727372 -3.6349191500
H -0.6815298666 -2.5522628401 0.0955892835
H 0.5582141062 -1.5271473608 0.8110155508
H -0.7360828388 0.1475349835 -0.9458894180
H -1.2644646850 -1.5767569849 2.2193143462
H -1.9357744856 1.9513182612 -0.1474505819
H -3.5442079765 4.9970555604 0.8587026638
H -3.6309161785 3.5130801479 -0.1342658853
H -2.0384022096 4.1874375473 0.3381718675
H -5.0363339234 2.3241804743 5.2198672816
H -5.2136061149 2.1920395390 3.4441859339
H -4.9286597735 0.7220926769 4.4299056226
H -2.4101240582 -2.5499951834 3.9363010261
H -0.8112497198 -1.9078445288 4.4318977650
H -2.1045355623 -2.1271314628 5.6454182536
H 2.9450363175 1.5045855055 -2.4833388721
