63
CONF14
C 4.2159651339 1.5216324391 -2.2377434443
O 4.9058426988 1.0999622225 -1.0455818165
C 4.1598966735 1.1467367028 0.0599681818
O 3.0306284454 1.5788128440 0.1387853931
O 4.8992343782 0.6625938107 1.0736824316
C 4.1657319028 0.4312563134 2.2876746466
O 3.3470381697 -0.7068132367 2.0902330959
C 2.0091399478 -0.5387957228 2.1897937718
C 1.1821406182 -0.8773433557 1.1477548824
C 1.6738880242 -1.3895526326 -0.1728991277
O 2.8589432608 -1.4281110962 -0.4686971525
N 0.6956363779 -1.8302609957 -1.0473210548
C 1.0582535612 -2.8357355605 -2.0482274606
C 0.7601082853 -4.2133095777 -1.4588212695
O -0.6057863773 -4.3120868089 -1.0422842104
C -0.9372830011 -3.3475839714 -0.0473830223
C -0.7035108202 -1.9479490078 -0.6215614560
N -1.0771611550 -0.8738306017 0.2749531703
N -0.1938443540 -0.8634134364 1.3746785441
C -0.7240010573 -0.5281104650 2.5829232379
C 0.0620845375 -0.1779052692 3.6327651253
C 1.4935639670 -0.0989227172 3.5025493663
O 2.2674385258 0.2661674275 4.3950927457
C -1.0573275814 0.4825404009 -0.4091213401
C -1.9680130837 0.5138622438 -1.6126219909
C -3.3368581159 0.2063001672 -1.5240913382
C -3.9616592600 -0.2393775960 -0.2431963858
S -4.1380379272 1.1206665672 0.9794337860
C -2.5452631429 1.8930284441 1.1949260440
C -2.6099022549 2.9414024848 2.1263949942
C -1.4852884399 3.6727859909 2.4685905574
C -0.2623973330 3.3842638012 1.8714045754
C -0.1930347961 2.3606786371 0.9411326436
C -1.3115599700 1.5915507469 0.5888727074
C -4.1111378980 0.3301163193 -2.6722513955
C -3.5599390616 0.7326590496 -3.8833232313
C -2.2139273831 1.0273959031 -3.9752075051
C -1.4266166599 0.9127790122 -2.8343911620
F -4.3541593116 0.8189499435 -4.9607345753
F -5.4247917054 0.0474131368 -2.6327876271
H 3.3550419961 0.8711488431 -2.4157260285
H 4.9451102237 1.4217139373 -3.0413098580
H 3.8838717339 2.5590373530 -2.1443242030
H 3.5792750895 1.3100071343 2.5577445728
H 4.9261555820 0.1956148392 3.0303143498
H 2.1178917102 -2.7276957309 -2.2901668260
H 0.4566146911 -2.6695562584 -2.9502957040
H 0.9068190619 -5.0002111529 -2.2038699560
H 1.4312442879 -4.3968445333 -0.6037704214
H -0.3305452623 -3.4951613801 0.8613283872
H -1.9940437440 -3.4951695581 0.1945077206
H -1.3281164307 -1.8470531552 -1.5187281886
H -1.8074549077 -0.5514705987 2.6207632620
H -0.3858027360 0.0582025032 4.5902238198
H -0.0412525860 0.6548750221 -0.7875372217
H -3.3985347001 -1.0562138613 0.2078577332
H -4.9923579929 -0.5624470091 -0.4047721663
H -3.5638102046 3.1760565411 2.5905428562
H -1.5692823676 4.4690101083 3.2009696420
H 0.6300678410 3.9434755975 2.1288368697
H 0.7646081198 2.1245508377 0.4874657085
H -1.8013059133 1.3384183520 -4.9280611193
H -0.3682300143 1.1452588868 -2.8935140378
