59
CONF258
C -0.1419956306 4.7188839200 -3.7814802344
C -0.8228075006 3.5876168202 -2.9590410050
C -0.0398169612 2.3027685494 -3.2923525766
C 1.3588466828 2.7925764681 -3.7212094331
C 1.0054723140 4.0361748052 -4.5515313615
C 2.1440205885 1.7520582122 -4.5089649423
C 2.5459209644 0.5455556013 -3.6919645851
O 2.6610738086 -0.5617594575 -4.1831434813
N 2.8008498457 0.7565902490 -2.3294852250
C 2.5958940483 1.9700316750 -1.6589980843
O 2.7455857007 2.0475120478 -0.4533186331
C 2.2062841927 3.1623228404 -2.5017596244
C 3.1538835312 -0.4169206859 -1.5106693691
C 1.9094519256 -1.0992268469 -0.9522031216
C 2.2744208585 -2.2628967822 -0.0346479878
C 1.0486706305 -2.9834282614 0.5272139966
N 0.0881737915 -2.0864796048 1.1730397456
C 0.6398558561 -1.4612945254 2.3779633967
C -0.3768538409 -0.5051477465 2.9965457489
N -1.6210174934 -1.2108023194 3.2888052115
C -2.1766158425 -1.8536356505 2.1016958500
C -1.1472458909 -2.8033894988 1.4961998183
C -1.9044686912 -1.6685681068 4.5470586977
N -2.9387336444 -2.5324546022 4.6755942999
C -3.2320014816 -2.9161186313 5.9130194779
C -2.5327840303 -2.4813505833 7.0335099969
C -1.4809748186 -1.6066910374 6.7834419633
N -1.1494512923 -1.1939521800 5.5653388541
H 0.2471975873 5.4965932966 -3.1173670466
H -0.8406929958 5.2118365249 -4.4623984028
H -0.7692490458 3.8044713721 -1.8879817006
H -1.8829834365 3.4813244124 -3.2026428147
H -0.5005003443 1.7859955492 -4.1431829152
H -0.0114434432 1.5920472480 -2.4589712188
H 0.6547590786 3.7060112107 -5.5374860564
H 1.8677902990 4.6918800185 -4.7134072791
H 1.5793891612 1.3763117058 -5.3666724370
H 3.1365976140 3.6465306594 -2.8323105571
H 1.7005320398 3.8632094494 -1.8336179825
H 3.7187056630 -1.0996574917 -2.1493515534
H 1.3136455652 -0.3678024070 -0.3970759341
H 1.2899791188 -1.4607628630 -1.7825120380
H 2.9184631875 -1.9052254124 0.7788387257
H 2.8693546547 -3.0022272062 -0.5862523112
H 1.3816217800 -3.7856732723 1.2178413470
H 0.5233665525 -3.4762003001 -0.3018726754
H 0.9302132964 -2.2197110515 3.1349164144
H 1.5360201740 -0.8895823858 2.1131581946
H -0.5983488118 0.2967600919 2.2799058308
H 0.0157696244 -0.0665167390 3.9132037761
H -3.0868240625 -2.3890217214 2.3700113370
H -2.4184642763 -1.0698264212 1.3717577998
H -0.9680008541 -3.6357719971 2.2087230876
H -1.5520133987 -3.2372662324 0.5734063739
H -4.0664968654 -3.6105896073 6.0116477341
H -0.8706350619 -1.2207678047 7.6001123070
H 3.7913263965 -0.0626712158 -0.6969442038
H 3.0687284827 2.1997275566 -4.9022994535
H -2.7854680469 -2.8086284842 8.0339913569
