42
CONF1
C 2.2413768298 -4.3676582826 -0.2638574962
C 0.8598879910 -3.8157244976 -0.6049875473
C 0.8363145279 -2.2929125034 -0.6718348403
C -0.5166650817 -1.7875236830 -1.1886310200
O -0.6998254499 -1.6284137752 -2.3966280040
N -1.4540672453 -1.5956357437 -0.2390584043
C -2.7149714888 -0.8990091012 -0.5052336513
C -2.5474100089 0.5928655208 -0.3282303135
C -2.4043167440 1.4327805292 -1.4340512136
C -2.1856753611 2.7976414992 -1.2590597675
C -2.1035988130 3.3337087878 0.0234074997
C -2.2451752120 2.5013026595 1.1324345749
C -2.4683205540 1.1390221005 0.9560831739
O 1.1142684235 -1.8064224246 0.6551787297
C 1.3325312014 -0.4650915668 0.8172752843
C 1.3800464390 0.4581300088 -0.2271394290
C 1.6228580187 1.8045057420 0.0546284306
C 1.8081315616 2.2005547677 1.3727230995
C 1.7462813359 1.2953917405 2.4182682517
C 1.5076511883 -0.0406075186 2.1379378605
F 2.0634068571 3.5000210913 1.6488150498
C 1.7374176585 2.8084945694 -1.0554985112
F 0.9669877086 3.9024174816 -0.8506118123
F 1.3779815566 2.2898962587 -2.2499557694
F 3.0153958648 3.2571049532 -1.1887243716
H 2.5733696345 -4.0232992340 0.7193058140
H 2.2216224291 -5.4610271628 -0.2514673475
H 2.9805923974 -4.0490859239 -1.0061857692
H 0.1157439000 -4.1442824153 0.1302494375
H 0.5337670156 -4.1851551128 -1.5836685852
H 1.6068474692 -1.9422394196 -1.3703651156
H -1.1622500367 -1.6758540724 0.7254131327
H -3.0244163341 -1.1351365469 -1.5257179746
H -3.4672816149 -1.2886954039 0.1872288545
H -2.4632878558 1.0144073156 -2.4348655948
H -2.0736476079 3.4420072014 -2.1257457620
H -1.9267827277 4.3959569369 0.1591500870
H -2.1849464916 2.9146828580 2.1347113983
H -2.5812426133 0.4913606918 1.8223555764
H 1.2350604928 0.1623182339 -1.2574479813
H 1.8885639445 1.6403609958 3.4363450548
H 1.4577765993 -0.7711581322 2.9381472425
