44
CONF1
C 0.9674531133 3.4270384312 1.4750982392
C 1.1206483579 1.9512263170 1.1168502281
C 0.2649723712 1.5914308139 -0.1113714369
C 0.3177107230 0.1506011606 -0.5659111156
C -0.7718735387 -0.7514948975 -0.5407298712
C -0.7067955162 -1.9745106959 -1.2696329814
C 0.4767928853 -2.3607654564 -1.8812042522
C 1.5979819536 -1.5465332016 -1.8431923170
C 1.4719249649 -0.2951595175 -1.2143137560
O 2.4985927313 0.6119180408 -1.2636765157
C 3.6558912800 0.2770576725 -1.8699466756
C 3.8881199324 -0.9135946552 -2.4599464985
C 2.8569025463 -1.9338561747 -2.4979215952
O 3.0207115566 -3.0294011776 -3.0417372646
C 4.6880069158 1.3576418856 -1.8329312417
O 5.7889896891 1.2215380490 -2.3178873714
O 4.2501873976 2.4612245686 -1.2136868660
C -1.9048480867 -2.8155281574 -1.4493274364
O -1.8656730926 -3.9225416717 -2.0049153129
C -3.1289586720 -2.2215539784 -0.9768273486
C -3.1047051930 -1.1090868795 -0.1943235689
N -1.9519813693 -0.4351822403 0.1356796387
C -1.8762100970 0.1731534202 1.5033699419
C -2.3371551798 -0.8000863170 2.5808547376
C -4.3967156483 -0.4834986077 0.2442277143
O -4.5539378700 0.7103442351 0.3820720685
O -5.3637913890 -1.3978401087 0.4105129354
H -0.0739912460 3.6648880325 1.7185401131
H 1.5856067317 3.6877442070 2.3391647181
H 1.2706521669 4.0640358120 0.6369371308
H 2.1697587442 1.7260207558 0.9049810995
H 0.8411994654 1.3313238471 1.9765695376
H -0.7731527585 1.8877527320 0.0563107943
H 0.6185836544 2.2032905034 -0.9505809712
H 0.5137373391 -3.3044681975 -2.4139427108
H 4.8500813166 -1.0990856994 -2.9210633533
H 4.9671793632 3.1193916596 -1.2282480837
H -4.0715497640 -2.6879259248 -1.2321269488
H -0.8301729383 0.4013374058 1.6781971739
H -2.4461128822 1.1036955055 1.5276196761
H -2.1470328089 -0.3472907483 3.5583169791
H -3.4058884801 -1.0242498098 2.5245944893
H -1.7790941665 -1.7393185326 2.5191304436
H -6.1920447938 -0.9296835277 0.6148959567
