39
CONF37
C -0.4195958752 -5.1020622382 2.8056184898
C -0.5776033320 -4.0821749878 1.7188249068
C -1.6643590652 -3.2015650883 1.6812843425
C -1.8160469752 -2.2304749280 0.6765518585
C -0.8662565516 -2.2179763010 -0.3567383367
C 0.2096546123 -3.0904683202 -0.3627551186
C 0.3526024080 -3.9934796797 0.6814658488
Cl -1.0523691384 -1.1038626515 -1.6971827968
N -2.9168652448 -1.3373411602 0.7046672902
S -2.7550032830 0.1040798976 1.6141332400
O -4.0491315617 0.7766830749 1.5093652892
O -2.1551503374 -0.2550965896 2.8974293966
C -1.5475401945 1.0932527428 0.7252118566
N -0.2539329306 0.8987393608 0.9657843125
N 0.2906575342 1.7197424059 0.0322504699
C 1.6240516102 1.9351149220 -0.2129360524
C 1.9214875678 2.8166300060 -1.2215329981
C 0.8514284071 3.4294879242 -1.9237150367
N -0.4347473064 3.2208706773 -1.6901917072
C -0.7041521492 2.3583016967 -0.7094738529
N -1.8958323336 1.9478120725 -0.2556567831
O 1.2264983464 4.2731460028 -2.8881804788
C 0.1800214730 4.9313422930 -3.6432183559
O 2.4390190701 1.2513730346 0.5653760935
C 3.8625577373 1.4321279396 0.3467557182
Cl -2.9076937193 -3.3630568434 2.8995022056
H 0.5048723726 -5.6641611469 2.6632642457
H -0.3950936875 -4.6262423205 3.7911550330
H -1.2593547528 -5.8048696315 2.8085441506
H 0.9302844024 -3.0592680414 -1.1713330790
H 1.2036719883 -4.6669131456 0.6837890609
H -3.2987964470 -1.1150741930 -0.2141039878
H 2.9417729090 3.0490239072 -1.4904735749
H -0.4347375733 4.1922310200 -4.1622375871
H 0.7071410573 5.5629330670 -4.3569588246
H -0.4434693742 5.5349898839 -2.9797609465
H 4.3427289989 0.7901445193 1.0822921412
H 4.1342334482 2.4777823612 0.5145410326
H 4.1250486887 1.1182791505 -0.6670964577
