41
CONF33
C 0.0915874926 -2.9214705247 -2.1596219368
C -0.3959373185 -1.7402512949 -1.4008709108
C -1.6035427776 -1.5525501882 -0.7866194800
C -1.5681797871 -0.2852420527 -0.1064656746
C -0.2905132909 0.2774397811 -0.3155663862
N 0.4375160164 -0.6376496563 -1.1088167040
C 1.7182773051 -0.4483379378 -1.6443363105
O 2.0216573916 -0.8880652254 -2.7448158317
C 2.7046629944 0.2554266229 -0.7882934215
C 3.6584283290 1.0754875385 -1.3973834068
C 4.6413861792 1.6944050359 -0.6379712577
C 4.6734102725 1.4555295406 0.7327799791
C 3.7519628401 0.6222267390 1.3593224540
C 2.7586663815 0.0305945361 0.5908572185
Cl 5.9198630015 2.2236086295 1.7000669225
C 0.0112792231 1.5527845483 0.1398082109
C -0.9556497371 2.2417970871 0.8727648215
C -2.2132376247 1.6678852759 1.1236314532
C -2.5321724376 0.4040088812 0.6253560460
O -3.2019948173 2.2869369567 1.8373344845
C -2.9339364792 3.5980005094 2.3492844693
C -2.7707291663 -2.4791056406 -0.7607240279
C -3.0194460604 -3.1646744686 0.5678823512
O -4.1144116375 -3.5068327160 0.9642885896
O -1.8836601445 -3.3952712337 1.2537568988
H 1.0779561254 -3.2376011482 -1.8067222704
H 0.1804114528 -2.7131605726 -3.2293738530
H -0.6023030759 -3.7525969620 -2.0216238646
H 3.6193042201 1.2380694249 -2.4692464849
H 5.3718692260 2.3474867236 -1.1011532404
H 3.8090278626 0.4396894058 2.4261217359
H 2.0319323878 -0.6197051301 1.0664476083
H 0.9655573400 2.0267268154 -0.0522320436
H -0.7154202025 3.2320351378 1.2378829394
H -3.5211345308 -0.0095907163 0.7979870499
H -2.7253370418 4.3044110084 1.5370857555
H -2.0921012507 3.5836622057 3.0517750599
H -3.8410748048 3.9011649524 2.8729838042
H -2.6529793229 -3.2834009334 -1.4966618846
H -3.6961401742 -1.9551084183 -1.0200341204
H -2.1148546770 -3.8687620123 2.0717557554
