22
CONF210
C 1.9836150540 -0.1095142248 1.1758590205
C 1.3544175779 0.5051384253 -0.0633695323
C 0.0699138886 -0.1966386792 -0.5016468816
C -1.0772306488 -0.0970021844 0.5132400970
C -2.2632266952 -0.9836399397 0.1368247957
O -2.8121042989 -0.6706735773 -1.1580546705
O -1.4870887301 1.2649183714 0.6862344677
O -0.3066565307 0.4442953404 -1.7347935899
O 2.3452010853 0.3886078212 -1.0978921089
O 3.2052816199 0.5507663273 1.5175417817
H 2.1540741039 -1.1839037284 1.0036827960
H 1.3214460292 0.0055348226 2.0375112176
H 1.1371035880 1.5679077632 0.1250960319
H 0.2941293876 -1.2608975858 -0.6778933389
H -0.7267982877 -0.4501447094 1.4912808040
H -1.9345728541 -2.0272694643 0.0895992169
H -3.0378674014 -0.8952056137 0.9088432641
H -3.3354588782 0.1366022353 -1.0669733380
H -1.4586559975 1.6751556523 -0.1913581807
H -1.1417365901 0.0303115735 -2.0131609188
H 1.9616967125 0.7614168503 -1.9026167130
H 3.7545186701 0.5442347200 0.7220457848
