60
CONF29
C -2.9849525078 -3.0554525181 1.2198545264
C -2.6075482784 -3.1979427282 -0.2160082819
C -1.5751688337 -2.5668425469 -0.9085663081
N -1.5900483807 -3.0705112209 -2.1823679231
N -2.5594734961 -3.9753209600 -2.3461047589
C -3.1737626752 -4.0762158360 -1.1602493679
C -4.2975691239 -5.0329550088 -0.9554255794
C -0.7950150062 -2.6569340728 -3.3266171492
C -0.6620770399 -1.5465028603 -0.4346542516
C 0.6949439298 -1.5764997299 -0.4899820635
C 1.3041728218 -2.7577370232 -0.9976827885
N 1.8448638408 -3.7002230162 -1.4019299285
C 1.6128066983 -0.4850591038 -0.0993672884
C 1.3784524252 0.3357770016 1.0109298254
C 2.2659534893 1.3491705647 1.3356664707
C 3.4223651952 1.5918921950 0.5825541244
C 3.6580439362 0.7529174519 -0.5089800247
C 2.7782457093 -0.2706337849 -0.8402602104
C 4.3662532501 2.7265769527 0.9812785714
C 5.5741583698 2.8353880879 0.0435551930
C 3.5989578457 4.0618933766 0.9379113731
C 4.8845471522 2.4786587225 2.4107942482
O -1.2822446666 -0.4578162070 0.1748485407
C -1.9490219424 0.3987675333 -0.6913408297
O -1.8523758270 0.2968540968 -1.8844153739
C -2.7826503095 1.4130291146 0.0735307396
C -3.9594505508 0.6534167611 0.7149692668
C -1.9367452665 2.0883250392 1.1643686805
C -3.3033322898 2.4548823426 -0.9190503109
H -2.9516683555 -4.0245982744 1.7301466509
H -2.3096920736 -2.3764853491 1.7456214747
H -4.0048693801 -2.6684958614 1.3300072086
H -4.0363375965 -5.7973076719 -0.2146796906
H -5.1950774190 -4.5203937297 -0.5923367063
H -4.5373963859 -5.5329179714 -1.8955799114
H 0.0429423439 -3.3434219089 -3.4820648177
H -1.4413719796 -2.6557824662 -4.2057353626
H -0.4207529065 -1.6469291050 -3.1504203127
H 0.5111081482 0.1644861129 1.6346670841
H 2.0520184990 1.9582231147 2.2083502093
H 4.5422176667 0.8850616250 -1.1203713595
H 2.9969324281 -0.9098300529 -1.6902610912
H 6.2121112385 3.6636823533 0.3669398368
H 5.2686733286 3.0356650752 -0.9885008823
H 6.1817769497 1.9247871407 0.0568480620
H 3.2175692959 4.2561672579 -0.0696367077
H 2.7498151899 4.0638997095 1.6272982976
H 4.2630240132 4.8861435171 1.2200227629
H 5.4207530511 1.5261776660 2.4681101128
H 4.0686231789 2.4511664622 3.1383216059
H 5.5710078916 3.2798728556 2.7052302974
H -4.6130251061 1.3684528038 1.2247892595
H -4.5490391646 0.1282257631 -0.0433466714
H -3.6056937916 -0.0765539906 1.4471752680
H -1.0436172966 2.5578821259 0.7399152789
H -2.5352944523 2.8653041622 1.6502520417
H -1.6222724000 1.3719013785 1.9266296900
H -2.4776388238 2.9896748099 -1.3962054928
H -3.9290777187 3.1796084166 -0.3896695758
H -3.8980758206 1.9854307093 -1.7058988791
