59
CONF158
C 3.7204436700 0.0306480316 4.1137137581
C 4.2391489587 1.3611586780 4.7313769079
C 4.8976782402 2.1269295648 3.5675739211
C 4.2000305867 1.6004877066 2.3043766226
C 4.0894833056 0.0945598678 2.6179607681
C 4.9795226177 1.8994732369 1.0311380010
C 4.2815323901 1.4471085871 -0.2238294184
O 4.8967914469 1.0980904367 -1.2222670371
N 2.8829420729 1.4557494533 -0.2251777966
C 2.1009781689 1.7774005129 0.8888687556
O 0.8806392070 1.7034684103 0.8302206475
C 2.8162832837 2.2311409192 2.1341910048
C 2.1920644208 0.9813931677 -1.4394053274
C 2.0043755661 -0.5333324581 -1.4102317200
C 1.3562888521 -1.0683326392 -2.6882935081
C -0.0007405721 -0.4401638442 -3.0181607643
N -0.9279345290 -0.4143314032 -1.8813803265
C -1.3266378719 -1.7660179679 -1.4738400611
C -2.2756117135 -1.7058894084 -0.2797219242
N -3.4497339679 -0.8964281000 -0.6074880380
C -3.0645328384 0.4535517756 -1.0218765620
C -2.1156286232 0.3797655978 -2.2142717430
C -4.6174079290 -1.4687130918 -1.0301336879
N -4.7678800069 -2.8021155622 -0.8353860676
C -5.9360096828 -3.3267164020 -1.2007131693
C -6.9658558982 -2.5791885990 -1.7603418062
C -6.7056509905 -1.2235254837 -1.9242409725
N -5.5540004585 -0.6533677974 -1.5747955650
H 2.6366754633 -0.0534315785 4.2398183463
H 4.1644345317 -0.8460865650 4.5927048614
H 3.4078409382 1.9386062149 5.1474328388
H 4.9471883898 1.1890201963 5.5464015080
H 5.9627892123 1.8724305715 3.5009969065
H 4.8196333127 3.2148875144 3.6645848179
H 5.0709926251 -0.3645588254 2.4488437850
H 3.3678135784 -0.4275382983 1.9792610872
H 5.1329446369 2.9849041284 0.9372036661
H 5.9666561808 1.4290115128 1.0389620902
H 2.1523709948 2.0183860175 2.9755680382
H 2.9169570376 3.3241803450 2.0661373897
H 2.7926363149 1.2819974607 -2.3007656056
H 1.2280100750 1.4901067596 -1.4788920342
H 2.9818739397 -1.0110036968 -1.2760304774
H 1.3907670645 -0.7931204908 -0.5402813939
H 1.2642513195 -2.1573813791 -2.6104183253
H 2.0185205475 -0.8801163689 -3.5429856806
H -0.4429174097 -0.9753574456 -3.8819241759
H 0.1468447659 0.5989975486 -3.3378132052
H -1.8212066055 -2.3087195865 -2.3057387988
H -0.4380918878 -2.3366494837 -1.1844433110
H -1.7649085366 -1.2300935862 0.5674891551
H -2.5843581058 -2.7081473102 0.0130441478
H -2.5540062228 0.9321213500 -0.1763046997
H -2.6605937363 -0.0477656878 -3.0809091271
H -1.7971790144 1.3934924253 -2.4855853350
H -6.0511028487 -4.3984683404 -1.0405417957
H -7.9074389664 -3.0251992235 -2.0547653603
H -7.4546625580 -0.5627465923 -2.3599950041
H -3.9510648857 1.0337549778 -1.2726506700
