47
CONF95
C 5.1238463472 -3.5963139634 1.6200176196
C 4.5338593567 -2.2249613676 1.9725121703
C 5.3959962266 -1.0924208072 1.3970209081
C 3.0974809272 -2.0925034012 1.5122138159
C 2.7569522153 -2.2288113977 0.1615699791
C 1.4449407088 -2.0697931437 -0.2729397901
C 0.4676499440 -1.7592386754 0.6628780240
C 0.7606409614 -1.6338893082 2.0109178066
C 2.0791250135 -1.8069832697 2.4255267883
O -0.8702263329 -1.5656096849 0.2563064790
P -1.1944133038 -0.2405786917 -0.5911139594
O -0.7261603098 -0.1932912234 -1.9933995879
O -0.6593889709 0.9686417787 0.3306791641
C 0.3596070392 1.8355840198 -0.1042357013
C 1.6552947586 1.6123025014 0.3392917294
C 2.6534774190 2.5044595576 -0.0462853675
C 2.3484532661 3.5939221001 -0.8597803371
C 1.0381159772 3.7970601423 -1.2892198167
C 0.0290763257 2.9142797171 -0.9113356646
O -2.7772819154 -0.2372150538 -0.3423385339
C -3.5445219055 0.7570992162 -0.9858501778
C -3.8395187378 1.9188452541 -0.2871637559
C -4.6346004918 2.8815259648 -0.9052227514
C -5.1167531599 2.6726082349 -2.1956169061
C -4.8070963791 1.4952323677 -2.8741313853
C -4.0133699920 0.5227695895 -2.2703371329
H 5.1779871679 -3.7333504382 0.5346290015
H 4.5165480352 -4.4057364440 2.0371537800
H 6.1391756286 -3.6847147716 2.0200868567
H 4.5323469727 -2.1274332726 3.0651390985
H 6.4180695180 -1.1568264383 1.7846074592
H 5.4427119039 -1.1578798945 0.3043898017
H 4.9855415684 -0.1127351817 1.6627110014
H 3.5243601877 -2.4583010372 -0.5715350579
H 1.1844178261 -2.1724869060 -1.3206841792
H -0.0267432175 -1.3899677030 2.7162318280
H 2.3201451752 -1.7023900587 3.4797236088
H 1.8733462764 0.7585998885 0.9729235673
H 3.6719390582 2.3427392521 0.2924268560
H 3.1302420533 4.2847638996 -1.1578649528
H 0.7956938864 4.6450996171 -1.9215283625
H -0.9979520789 3.0523336915 -1.2347065792
H -3.4546573738 2.0599649192 0.7169543070
H -4.8761738062 3.7957587223 -0.3728261628
H -5.7356722920 3.4259088527 -2.6718859048
H -5.1835395013 1.3283345513 -3.8782284066
H -3.7606921317 -0.4007834189 -2.7796804498
