60
CONF4
C 0.1717456884 -2.0474112567 1.6901394016
C -0.3473066319 -2.2668052662 0.3132558884
C -1.0661126085 -1.3820064022 -0.4945573013
N -1.3367020931 -2.0512464305 -1.6593563324
N -0.8321784824 -3.2899643749 -1.6549160291
C -0.2372159735 -3.4368778160 -0.4625610800
C 0.4294778096 -4.7181610609 -0.0945219692
C -2.0345389821 -1.5598930809 -2.8345397564
C -1.5329388837 -0.0460008303 -0.2154267191
C -0.8046227699 0.9360588561 0.3877881971
C -1.4898842040 2.0874039211 0.8582911891
N -2.0381986138 3.0265333023 1.2618334176
C 0.6577386687 0.9040531037 0.5790177440
C 1.2313631412 1.4304059241 1.7374710722
C 2.6076556377 1.3872863278 1.9349140306
C 3.4620843962 0.8283274771 0.9826851165
C 2.8758981161 0.3313995768 -0.1910584849
C 1.5080509850 0.3726037736 -0.3979947196
C 4.9779817006 0.7512683469 1.1647993711
C 5.6677491999 1.5349075471 0.0317593464
C 5.4348039166 1.3399682617 2.5044908065
C 5.4176179152 -0.7246461844 1.1097191502
O -2.8817333131 0.1558315392 -0.4706022895
C -3.2760616665 1.1930782217 -1.3217973587
O -2.4997176921 1.7749141034 -2.0262961015
C -4.7807356836 1.3915300549 -1.2500090833
C -5.1400545923 2.6269325976 -2.0786928131
C -5.4584886654 0.1398127139 -1.8406980331
C -5.2164114343 1.5840922775 0.2118637527
H 1.2029460205 -1.6716591302 1.6746197562
H -0.4295316719 -1.3096072835 2.2284786822
H 0.1623539367 -2.9822186572 2.2582059015
H 0.3654321576 -5.4224420725 -0.9259764663
H 1.4854572246 -4.5601620903 0.1493459437
H -0.0434637259 -5.1748857139 0.7819611976
H -1.7018756377 -2.1512170654 -3.6883301923
H -3.1187428501 -1.6685258989 -2.7208507561
H -1.7920883000 -0.5067000193 -2.9980381853
H 0.5934982755 1.8709370790 2.4982537739
H 3.0065904556 1.7996124871 2.8536727133
H 3.5018121594 -0.0866193833 -0.9728529388
H 1.0910910415 -0.0045118803 -1.3254214491
H 5.3578501199 2.5845403182 0.0435839817
H 5.4261239135 1.1226051750 -0.9518364099
H 6.7554467520 1.4942158492 0.1550655968
H 4.9957728114 0.8048255566 3.3527941333
H 6.5227381804 1.2550916731 2.5858034230
H 5.1775808361 2.4006405972 2.5898820337
H 5.1608428194 -1.1875823926 0.1528182886
H 4.9343674978 -1.3014479348 1.9049529676
H 6.5027074789 -0.8001398457 1.2396772377
H -4.6525876042 3.5192454945 -1.6773182999
H -4.8280662205 2.5110386665 -3.1195301999
H -6.2233344817 2.7779657366 -2.0511648446
H -5.2114506813 -0.7561076019 -1.2650529690
H -6.5440472572 0.2777090459 -1.8151134715
H -5.1620966060 -0.0132605424 -2.8836785165
H -6.2950035705 1.7693603597 0.2367740181
H -4.7064399573 2.4387628777 0.6646430348
H -5.0031470014 0.6971406738 0.8125083938
