44
CONF21
C -5.4473333913 -0.1937689267 1.3408729733
N -4.0002570432 -0.2762715718 1.1068935029
C -3.4239403329 1.0424850667 0.7562306276
C -3.8573283734 1.2972558962 -0.7145786693
C -4.0291658296 -0.1285506923 -1.3004766504
C -3.6818176363 -1.0623494224 -0.1069196824
C -2.1833941089 -1.3931775724 -0.0647572546
C -1.3709200980 -0.1033077941 -0.0921511487
C -1.8991868134 0.9304643368 0.8911736219
O 0.0203877975 -0.3742100062 0.2884876226
C 0.8577059965 -0.7919914477 -0.6672987655
O 0.5351499620 -0.9889614802 -1.8265330879
C 2.2631534412 -0.9754051270 -0.1231289484
C 3.1465789105 -1.7156668128 -1.1428091913
O 3.3687738125 -0.9794212426 -2.3426487879
C 2.8645408359 0.3444207276 0.3154832229
C 3.6997166833 0.3850335643 1.4346605631
C 4.3070050001 1.5764843804 1.8233957536
C 4.0831288283 2.7446458957 1.0977970959
C 3.2488805367 2.7130715373 -0.0177332576
C 2.6450400754 1.5203229101 -0.4072355294
H -6.0201152858 0.2220328526 0.4949174906
H -5.8350186157 -1.1957580126 1.5523331036
H -5.6334213155 0.4359400129 2.2171332955
H -3.7966110497 1.8090870055 1.4428439826
H -4.7996928453 1.8504443765 -0.7452835511
H -3.1141366436 1.8901772775 -1.2561855930
H -3.3760061135 -0.3139954568 -2.1585184882
H -5.0572289990 -0.2963927372 -1.6320923996
H -4.2619866174 -1.9905567091 -0.1159856453
H -1.9092352362 -2.0266697254 -0.9147297786
H -1.9646052788 -1.9390050616 0.8600788354
H -1.3529935919 0.3091698859 -1.1049847721
H -1.6557322819 0.6216555098 1.9138288780
H -1.4253578247 1.8999112640 0.7009781859
H 4.1282313834 -1.8855480758 -0.6907804691
H 2.6917722228 -2.6925773134 -1.3603971613
H 3.8734380385 -0.5233818974 2.0054898770
H 4.9511148277 1.5927088759 2.6973490912
H 4.5527128916 3.6749016942 1.4019691937
H 3.0668604408 3.6191687355 -0.5875379015
H 1.9964674353 1.5083652559 -1.2791570289
H 2.1787657266 -1.6227347533 0.7593045655
H 2.4983608291 -0.8677034714 -2.7519950414
