76
CONF11
C -0.5685850330 -2.0527017598 -0.9752032291
C -1.8237373236 -1.3071379535 -0.5479596120
C -3.0614916703 -1.9706118003 -1.0890640655
C -4.3125733652 -1.7939575892 -0.6397066091
C -5.4377160414 -2.5821529235 -1.2592379203
O -6.3538592985 -1.7428374658 -1.9912951348
C -4.7606206893 -0.8090543637 0.4151384537
C -3.8469441384 0.3923329539 0.6872610050
O -2.9223254580 0.1652621878 1.7702584839
C -4.6335025669 1.6577646951 1.1082640714
O -5.4934281156 1.6687235988 1.9798657012
C -4.1382256220 2.7981810560 0.3367047013
C -4.6204296616 4.1888311623 0.5635381280
C -3.2520413103 2.3470921525 -0.5738003355
C -3.0877869880 0.8565219005 -0.5665174064
C -1.7082657372 0.2227795256 -0.8506455270
O -1.5104858965 0.4796645156 -2.2445393437
C -0.5115314922 0.7620940086 -0.0175317194
C -0.3234204351 2.2791301413 -0.0611907944
C 0.8042951328 0.1133509192 -0.4932843299
O 1.7854917880 0.2925041684 0.5697585988
C 3.0079123889 0.7807629353 0.2407877870
O 3.2948778446 1.1127908411 -0.9075442826
C 3.9062304473 0.8618128773 1.3944325295
C 3.4701114705 0.4261941319 2.6589969207
C 4.2857514210 0.4804137796 3.7731652261
C 5.5838013922 0.9867320807 3.6333221819
C 6.0520652626 1.4251481718 2.4104103655
C 5.2370516921 1.3783009305 1.2517882030
N 5.7171852787 1.8104958869 0.0626148696
C 7.0506943144 2.3497347156 -0.1271072858
C 0.7578409049 -1.3417752139 -0.8839554821
O 1.7877989037 -1.6619491389 -1.8421427727
C 1.6353430825 -1.2724317020 -3.1199777762
C 2.7817020395 -1.7226062473 -3.9669432741
O 0.6701441749 -0.6490628753 -3.5303104763
C 0.4707930705 -2.4918347921 0.0464512877
C 0.2719156161 -2.2603053424 1.5282852732
C 1.1793810717 -3.8032135238 -0.2358123695
H -0.6752095326 -2.7131777784 -1.8328214918
H -1.8961819975 -1.3598137902 0.5414150535
H -2.9170352304 -2.6873680784 -1.8970950613
H -5.0341020647 -3.3714336468 -1.9071409976
H -6.0460907092 -3.0539798419 -0.4783169914
H -5.8420537625 -1.3068745897 -2.6853531918
H -5.7321457748 -0.4190422346 0.0830323036
H -4.9659211729 -1.3316890288 1.3604187829
H -3.4529062718 0.0006120610 2.5634276402
H -5.7078552126 4.2446522783 0.4422505661
H -4.3980207887 4.5102434916 1.5872192282
H -4.1522951193 4.8870851036 -0.1336200099
H -2.7674258577 2.9731313229 -1.3157923297
H -3.6747500915 0.4985944040 -1.4252789885
H -0.7186803669 0.0037749572 -2.5642367787
H -0.6886230058 0.4709593806 1.0197570744
H 0.6303300849 2.5496899868 0.4032874050
H -1.1112788804 2.7959392114 0.4910352657
H -0.3153328545 2.6434098770 -1.0933521862
H 1.1584613260 0.6721820438 -1.3644174241
H 2.4637380048 0.0358928278 2.7499362975
H 3.9252698421 0.1371643880 4.7363998830
H 6.2409300076 1.0383977378 4.4967557300
H 7.0617627101 1.8101007503 2.3349924742
H 5.0896325289 1.7511585111 -0.7262741200
H 7.8278521311 1.6167769442 0.1263456446
H 7.1622463650 2.6185721490 -1.1788016003
H 7.2174279268 3.2496541901 0.4793953166
H 3.7300318161 -1.5525560072 -3.4525541539
H 2.6848837782 -2.8004607700 -4.1383620861
H 2.7613842863 -1.2029529609 -4.9240457765
H 1.2363648001 -2.3374418628 2.0408528015
H -0.3908311795 -3.0331791519 1.9337820248
H -0.1521403052 -1.2876576506 1.7747867201
H 1.2295913191 -4.0279349409 -1.3025492957
H 2.1997644641 -3.7839516691 0.1624849279
H 0.6357928097 -4.6134638676 0.2616297209
