21
CONF3
C -2.3538958284 0.5755206018 -0.5364341333
C -0.9293796608 0.2253635442 -0.2298602087
C -0.5370108039 -1.0390151854 0.2418563594
C 0.7695669580 -1.3930465260 0.5354457007
C 1.7446930988 -0.4197944554 0.4149695066
C 1.4451337152 0.8594798131 -0.0174202248
C 0.1308700240 1.1347023116 -0.3585784865
N -0.1002778988 2.5017134407 -0.8896166471
O 0.3239987947 3.4251544883 -0.2140662626
O -0.6588852370 2.5940020494 -1.9721435262
N 3.1468448952 -0.7558036420 0.7564322603
O 3.9802250021 0.1251663260 0.6081965734
O 3.3633052016 -1.8871390245 1.1628866714
N -1.5466239245 -2.1050094583 0.4560184169
O -1.2190553894 -3.2396214680 0.1459352781
O -2.6149148500 -1.7747167970 0.9488594105
H -2.8425822480 -0.2314417919 -1.0871942178
H -2.9099683036 0.6981366100 0.3970812646
H -2.4245273960 1.4861365653 -1.1248608255
H 1.0164295305 -2.3953075809 0.8611135036
H 2.2160544206 1.6155200783 -0.0986207148
