66
CONF77
C -4.6785286095 4.5220845004 -2.1797516493
C -4.0621125645 4.2651530844 -0.8234606142
O -3.4359018499 2.9603785882 -0.8819562217
C -2.8142097862 2.5704897870 0.2659539453
O -2.7962594420 3.2748549965 1.2607015484
C -2.1931609747 1.2464018244 0.2097626969
C -2.3443520117 0.3562785127 -0.8101259707
N -1.8573388385 -0.9258942353 -0.6582400473
C -1.2708482779 -1.4159104365 0.4887337578
C -1.0950970603 -0.5867169627 1.5514842030
C -1.3866986215 0.9018953758 1.4573202151
C -0.0954136073 1.7257475220 1.5733873276
C -0.0153133562 2.7091413066 2.5588286805
C 1.1572453261 3.4178275455 2.7856788536
C 2.2939917551 3.1406531069 2.0296244406
C 2.2364022568 2.1681275470 1.0442634182
C 1.0513681024 1.4577251691 0.7938486650
C 1.0176374624 0.4701325425 -0.2786241907
C 2.0023874123 -0.3752504821 -0.6216167734
C 1.7818388255 -1.3437590018 -1.7077793086
O 0.7480903283 -1.4642275810 -2.3464623601
O 2.8854799759 -2.1063130508 -1.8743860024
C 2.9130566258 -3.2027493446 -2.8636347632
C 2.7382901937 -2.6444187939 -4.2723657385
C 4.3142203313 -3.7757280609 -2.6825729891
C 1.8576050525 -4.2483168325 -2.5147490366
C -0.5058740100 -1.1032424865 2.7881494516
O -0.0144702806 -2.2072005242 2.9561433965
O -0.5586210153 -0.1641040045 3.7733147606
C 0.1812338708 -0.4655990099 4.9792866895
C 1.6563357433 -0.1710932178 4.7818240632
C -0.8717888407 -2.8571633489 0.4103526930
C -3.0159561011 0.5831375192 -2.1344514037
H -5.1650970735 5.5018905623 -2.1836536766
H -5.4302652860 3.7641756247 -2.4179486683
H -3.9156152132 4.5141409089 -2.9633080579
H -4.8103977408 4.2643112246 -0.0237926753
H -3.3026054879 5.0113954632 -0.5673992566
H -1.7670716428 -1.4901348785 -1.4885606343
H -1.9910813545 1.1974226524 2.3200453423
H -0.8967543223 2.9106155292 3.1576901010
H 1.1860331091 4.1826977477 3.5554845750
H 3.2147829704 3.6896397411 2.1985364835
H 3.1042940039 1.9705042454 0.4226408606
H 0.1099216891 0.4143335397 -0.8689622920
H 2.9435608867 -0.4274122092 -0.0842013652
H 2.9189484385 -3.4441801156 -4.9976047737
H 1.7328392630 -2.2509983750 -4.4236474785
H 3.4656486223 -1.8476259005 -4.4549858983
H 5.0697643387 -3.0126497001 -2.8886757636
H 4.4639552829 -4.6111235682 -3.3721770168
H 4.4526566659 -4.1364503055 -1.6596472973
H 0.8493982411 -3.8650735926 -2.6744507600
H 2.0046396109 -5.1286650538 -3.1482901141
H 1.9628856835 -4.5582677032 -1.4704195935
H 0.0129152361 -1.5106139884 5.2560596673
H -0.2597886361 0.1885574072 5.7359711058
H 2.1929798282 -0.3096948108 5.7259839485
H 2.0852545277 -0.8477683734 4.0386192145
H 1.7978509158 0.8601594480 4.4445207094
H -1.3059985013 -3.4313230882 1.2307283327
H 0.2127840355 -2.9525570320 0.5098265436
H -1.1825968373 -3.2918292992 -0.5439179217
H -2.8973573855 -0.2931544205 -2.7773763285
H -4.0836232302 0.7751805927 -2.0034674421
H -2.5960999855 1.4521580784 -2.6421006011
