21
CONF12
C 2.5036287888 -0.4454387498 -0.1053729867
C 1.2523100997 -0.0978315397 0.7035823332
C 0.0046865534 -0.1066771369 -0.1513062666
C -1.2801247993 0.2561176745 0.6442965246
C -2.6319247487 0.2108683862 -0.1296705791
F -3.6137791623 0.6171207958 0.6928107464
F -2.9085778958 -1.0338118604 -0.5367037521
F -2.6056658710 1.0229721097 -1.1936448856
F -1.1345013951 1.5153214875 1.1336535794
F -1.3927686084 -0.6024931149 1.6923663772
F -0.1875984353 -1.3402236288 -0.7121054814
F 0.1217865258 0.7910804210 -1.1784646805
C 3.7475083427 -0.4017076101 0.7776907189
O 4.9273196360 -0.7804460519 0.0747013752
H 2.4106031559 -1.4456383251 -0.5398281484
H 2.6168393664 0.2647583465 -0.9334205166
H 1.3420140523 0.8978630934 1.1514867708
H 1.1067318480 -0.8156489375 1.5174632427
H 3.6508818906 -1.1212031167 1.5983613698
H 3.8577449717 0.5984939309 1.2282685731
H 5.0868196784 -0.1293690399 -0.6174179211
