22
CONF1
C 0.0278888086 0.7933320984 -1.0597081442
C 0.0320737782 -0.8063773362 -1.0829221873
C -1.1106990865 -1.1624587337 -0.0628537428
C -0.0307444601 -0.8370564954 1.0329960069
C 1.1138537176 -1.1575049906 0.0032039028
C 2.1237398984 -0.0171813365 0.0495760089
C 1.1078495412 1.1187503558 0.0360945312
C -0.0349232763 0.7626818411 1.0562102108
C -1.1167042059 1.1137950127 -0.0299808304
C -2.1265890376 -0.0265281391 -0.0762868889
Cl -3.0862246146 -0.0072347252 -1.5780997601
Cl -3.1716466143 -0.0501571132 1.3674255675
Cl -1.7669277426 2.7322909437 -0.0258783000
Cl -0.0834446073 1.5382486640 2.6141586293
Cl 1.7497183802 2.7400026430 0.0789459907
Cl 3.1688177758 0.0064660559 -1.3941155801
Cl 3.0833482104 -0.0364888185 1.5514153427
Cl 1.7640757144 -2.7760017060 -0.0008551538
Cl -0.0749874459 -1.6577899780 2.5677631822
Cl -1.7525702392 -2.7837101563 -0.1056177696
Cl 0.0806315911 -1.5819220782 -2.6408355255
Cl 0.0720998426 1.6140417125 -2.5944426542
