37
CONF349
C -2.4555910827 -0.1795993275 -2.8487730018
C -2.4757989511 -1.4841814254 -2.0832027161
O -1.1884690810 -1.7551364035 -1.4397605942
P -0.7771625621 -0.9457597877 -0.1267823214
O -1.9026495057 -0.5216698411 0.7353610909
O 0.3572045727 -1.8604775448 0.5110705635
C 0.0077844960 -2.7782323389 1.6026314473
C 0.2280420261 -2.1102788477 2.9390656376
O 0.1159084237 0.2529570989 -0.7585878687
P 1.0239215501 1.3431227729 0.0672978668
O 0.9608075819 1.1537514119 1.5330282593
O 2.4224091130 1.2326354814 -0.6762350610
C 3.1285910484 -0.0482742271 -0.7631579746
C 3.7588344085 -0.4401110362 0.5547371575
O 0.5487384335 2.7452272370 -0.5035389979
C -0.3898213275 3.5617087712 0.2755304782
C -1.8134458226 3.0896808297 0.0868641877
H -3.4007441631 -0.0668589188 -3.3895582091
H -1.6357403940 -0.1652844368 -3.5721729909
H -2.3464760376 0.6747137277 -2.1743294123
H -3.2554946529 -1.4908518040 -1.3152319191
H -2.6207707767 -2.3376145520 -2.7492264797
H 0.6683586775 -3.6365301492 1.4582675209
H -1.0293834606 -3.1083310732 1.4802463667
H 1.2634991172 -1.7733956149 3.0361784186
H -0.4327220281 -1.2478476516 3.0530252051
H 0.0159402743 -2.8274787441 3.7388706734
H 3.8835411011 0.1254826112 -1.5329290812
H 2.4293894096 -0.8104195277 -1.1232013202
H 2.9987551907 -0.6361806209 1.3148684033
H 4.3468157528 -1.3519031618 0.4068774224
H 4.4243834517 0.3489289305 0.9151953237
H -0.0869023725 3.5323555949 1.3263567454
H -0.2415188125 4.5712789615 -0.1136120890
H -2.4878669814 3.7705153707 0.6164552018
H -2.0839498660 3.0908960388 -0.9730860367
H -1.9584159621 2.0831619004 0.4914585217
