41
CONF3
C -2.7790174201 1.0417401009 -1.9855495316
C -2.8395580269 -0.2296940136 -1.2054609277
C -4.0344473904 -0.8028123386 -0.7868271871
C -3.9770501068 -1.9902483936 -0.0553022086
N -2.8028251618 -2.5667646373 0.2453069927
C -1.7093797917 -1.9408224765 -0.2009077643
N -1.6644635968 -0.8130669099 -0.9117032609
N -0.5101279946 -2.5640774437 0.1407377887
C 0.8077157381 -2.2067754371 -0.1059731458
O 1.7321543573 -2.8561251611 0.3650417287
N 0.9718987299 -1.1000943579 -0.9180823164
S 2.4753861559 -0.3464570615 -1.1143008123
O 2.1580971631 0.8881513406 -1.8465802738
O 3.4161788727 -1.3114472602 -1.6900056081
C 3.0621755480 0.0920115417 0.5282940551
C 4.0911188986 -0.6707669131 1.0680981325
C 4.6470730373 -0.2992455927 2.2885749673
C 4.1901767621 0.8393123147 2.9431822731
C 3.1715289753 1.6079430203 2.3873127424
C 2.5826261324 1.2365841797 1.1782411727
C 1.4095151467 2.0255458918 0.6891238955
O 0.3116465070 1.5480747036 0.4854396527
O 1.7115728591 3.3213067236 0.5745113272
C 0.6120540661 4.1853078588 0.1733738284
C -5.2102654672 -2.6839108785 0.4256473514
H -2.2302737334 1.7987871412 -1.4146565736
H -2.2301375842 0.8811511867 -2.9190283289
H -3.7776282848 1.4177816786 -2.2116061368
H -4.9850000941 -0.3396445599 -1.0228111079
H -0.6069950908 -3.3984844543 0.7047657048
H 0.1178807704 -0.5357639066 -1.0979753901
H 4.4572534190 -1.5375777292 0.5320647652
H 5.4451593946 -0.8959508159 2.7166794041
H 4.6298748289 1.1373833091 3.8890847768
H 2.8137588825 2.4953877125 2.8982541035
H 0.2386373077 3.8775188811 -0.8058414184
H 1.0376720255 5.1861777103 0.1293632045
H -0.1887217578 4.1341461836 0.9141000895
H -5.2921235919 -3.6653302587 -0.0540017361
H -6.1065109184 -2.1035288373 0.2020478511
H -5.1466294713 -2.8557225180 1.5045264138
