31
CONF8
C -2.4627783236 -0.2001737183 0.9173097878
C -3.6930472361 0.3235325379 0.5443863281
C -4.3070606106 -0.1563844300 -0.6070057741
C -3.7273115111 -1.1520209785 -1.3835965433
C -2.5023009059 -1.6780128257 -0.9936900926
C -1.8516635377 -1.2031952621 0.1526674722
C -0.5575546305 -1.7714160458 0.5711064690
N 0.4988922356 -1.1571840640 0.9693878888
O 0.3725257505 0.2111682252 0.9770953272
C 1.6450888191 0.8126044862 1.2994967394
C 2.5753771517 0.7775342396 0.0940254745
O 2.1028951596 1.5816287645 -0.9767433787
C 2.7968611692 2.8405073927 -0.8625791883
C 4.1617144256 2.3937382094 -0.3768666675
O 3.8331553438 1.3068910886 0.5145951684
C -0.3795750643 -3.2775515198 0.5153199118
F 0.6246968820 -3.7224880995 1.2885201320
F -0.1182312034 -3.6966734445 -0.7539130652
F -1.5086936445 -3.9116255302 0.9084144470
Cl -5.8584520179 0.5094515615 -1.0895661239
H -1.9866809047 0.1622671746 1.8199976339
H -4.1670444168 1.0920209760 1.1440669074
H -4.2213532051 -1.5145381175 -2.2775566912
H -2.0515270283 -2.4530845125 -1.6030880977
H 2.1003594265 0.2947042160 2.1495730028
H 1.4102914207 1.8457370615 1.5683480832
H 2.6824405271 -0.2480683481 -0.2884241118
H 2.8055587485 3.3121991007 -1.8466956024
H 2.3017973139 3.4955094441 -0.1331115327
H 4.6980518759 3.1551678944 0.1935071694
H 4.7835688908 2.0277547238 -1.2040281732
