65
CONF62
C 4.4591076457 0.8598949101 3.0242387760
O 4.0965306897 -0.3710155195 3.6395306529
C 3.6876697774 -1.3830305364 2.8181566032
C 3.6192834680 -1.2960684652 1.4267411039
C 3.1945574693 -2.4032768098 0.6931763304
C 2.8264197795 -3.5964799550 1.3104622094
C 2.9056868778 -3.6596816500 2.7065747097
C 3.3298732222 -2.5748202691 3.4563059371
C 2.2790783051 -4.7468285462 0.5117497077
C 0.7437251994 -4.7166569114 0.3843979119
N 0.2737668753 -3.4784966483 -0.2452416161
C -0.7151647378 -3.6970288472 -1.2982964172
C -0.9807212299 -2.3964906674 -2.0524745669
C -1.4568105834 -1.3071619501 -1.0968926034
C -0.4764070517 -1.1620294310 0.0693323704
C -0.2271141468 -2.5092497353 0.7340957461
N -1.6196210371 -0.0483952021 -1.8384357785
C -2.3515605440 0.9571422769 -1.2617563399
N -3.2622994696 0.8111773202 -0.3244548818
C -3.7503039692 2.0901041355 -0.1065669740
C -4.7220815139 2.5329409630 0.7865162450
C -5.0095919811 3.8954609929 0.8244468388
C -4.3483998330 4.8060441753 -0.0072395833
C -3.3751353645 4.3826437999 -0.9138739808
C -3.0991470421 3.0245759942 -0.9464224170
N -2.2141401029 2.2668711243 -1.7068202404
C -1.1503349133 2.7558664377 -2.5604710132
C 0.2196675016 2.5567327089 -1.9402816776
C 1.2976271328 2.1275027380 -2.7140077404
C 2.5529218721 1.9263758400 -2.1449091290
C 2.7005680540 2.1622669917 -0.7899646873
C 1.6521078252 2.5845800318 0.0116976825
C 0.4079463942 2.7784399370 -0.5740226925
F 3.9160740611 1.9691552861 -0.2242067423
H 4.7446619017 1.5285338869 3.8375783009
H 3.6157606222 1.2930722592 2.4712537419
H 5.3076927617 0.7330378692 2.3393414461
H 3.8946067441 -0.3874054968 0.9052840382
H 3.1303143013 -2.3270280441 -0.3881503384
H 2.6261173555 -4.5785579276 3.2161878457
H 3.3965780321 -2.6272725823 4.5377584542
H 2.7040532936 -4.7297208046 -0.4978604331
H 2.5690569084 -5.6985498547 0.9750529864
H 0.2877043536 -4.8567895718 1.3796710213
H 0.4327944774 -5.5759471460 -0.2232339742
H -1.6734469066 -4.0875975560 -0.8930149160
H -0.3286621236 -4.4490181506 -1.9959610013
H -0.0455767809 -2.0752123150 -2.5328320889
H -1.7269884921 -2.5579195989 -2.8382254632
H -2.4452057263 -1.5715349869 -0.7035895364
H 0.4797717717 -0.7701912401 -0.3067656646
H -0.8745328559 -0.4476081870 0.7981399511
H 0.5133290198 -2.3966669488 1.5317422134
H -1.1664803717 -2.8709518376 1.2040171382
H -0.7481003838 0.2682237478 -2.2465066295
H -5.7622404788 4.2613674242 1.5151968597
H -4.5953274598 5.8607990343 0.0498861316
H -2.8689019374 5.0952977451 -1.5577517277
H -1.1954767279 2.2598713928 -3.5392291102
H -1.3370091584 3.8200046861 -2.7415512328
H 3.3993164335 1.5884548757 -2.7317461969
H 1.8123824042 2.7526367981 1.0705129078
H -0.4308509232 3.0930520366 0.0401731275
H 1.1603885993 1.9418071255 -3.7762260726
H -5.2321341541 1.8272557712 1.4333270700
