20
CONF17
C -1.2487378382 0.4706759049 -0.4331647528
C -1.9002682405 -0.5807538998 0.4475476191
I -3.9482664551 -0.9374078684 -0.2327630164
C 0.0992444379 0.9653393844 0.0716003106
C 1.2882015677 -0.0172574302 -0.1034821577
C 2.6736263087 0.3610622146 0.5307770020
C 3.3006238436 1.7464496668 0.1826998444
F 3.2854345350 1.9600197880 -1.1392525807
F 2.6452344733 2.7355725154 0.8015035023
F 4.5741203345 1.7570135719 0.6043195217
F 3.5489916125 -0.5867463049 0.1091777333
F 2.5758304787 0.2860379040 1.8772560375
F 0.9551191089 -1.2084752538 0.4632099820
F 1.4757536133 -0.2176148347 -1.4308926419
F 0.4320296602 2.0964876358 -0.6304933949
F 0.0333583860 1.3122389110 1.3936677874
H -1.8702803999 1.3714443754 -0.4721068400
H -1.1187057851 0.1113911239 -1.4581406200
H -1.4301675700 -1.5581892911 0.3899366590
H -2.0059153350 -0.2597780211 1.4820294553
