40
CONF1
C -4.1139281411 -3.1346009233 -1.4636726288
C -3.3575076144 -1.9261064548 -0.9895103199
C -2.3604410133 -2.0472103814 -0.0154335913
C -1.6703688268 -0.9385266983 0.4489366193
C -1.9521547419 0.3364776775 -0.0590769715
C -2.9505418860 0.4651685475 -1.0291408085
C -3.6409441465 -0.6518071679 -1.4838523816
C -1.2618909369 1.5279968804 0.4327943942
C -1.7946211994 2.7422994139 0.8305449566
C -0.6994009835 3.4729038129 1.3170959087
N 0.4412016244 2.7974434768 1.2311031842
N 0.0904790214 1.6149498518 0.6851509142
C 1.1185361641 0.6871063048 0.3733041558
C 2.1520477038 0.4998517048 1.2900593214
C 3.1671286734 -0.3995911325 0.9985908551
C 3.1314830788 -1.0959428089 -0.2048049410
C 2.1062699236 -0.9100708897 -1.1247465077
C 1.0957407260 -0.0030983585 -0.8378405988
S 4.4326106341 -2.2787759063 -0.5720651948
O 4.9940642066 -2.7250622404 0.7080284536
O 3.9106830731 -3.2062099376 -1.5826804976
N 5.6153112480 -1.3157215684 -1.3347965806
C -0.6962559152 4.8585267989 1.8758896203
F -0.0021544752 5.7208338268 1.0987934898
F -1.9635924326 5.3269923639 1.9669611163
F -0.1512849275 4.9127070615 3.1102560740
H -4.8353006005 -3.4613478351 -0.7058116735
H -4.6674212423 -2.9242351538 -2.3817510226
H -3.4390029014 -3.9746996526 -1.6524955459
H -2.1276993763 -3.0275691590 0.3910037005
H -0.9126940714 -1.0580749416 1.2166482461
H -3.1715141130 1.4459931244 -1.4387549208
H -4.4086658038 -0.5314396877 -2.2427813865
H -2.8349357151 3.0245046577 0.8226894239
H 2.1485892072 1.0572860237 2.2189456805
H 3.9685499993 -0.5774243571 1.7065398577
H 2.0997318272 -1.4699135770 -2.0528242440
H 0.2942240607 0.1665272841 -1.5466185846
H 5.7730182340 -1.6598242872 -2.2773519993
H 6.4726518488 -1.3403161950 -0.7906203730
