38
CONF41
O -0.4252904472 -0.6858745562 3.1327264945
P -0.7533714641 -0.0894743079 1.8238315648
O -0.8639843805 -1.0940850662 0.5707486818
C 0.0622271790 -2.1168401914 0.2970564555
C 0.3365380452 -3.1042384608 1.2334041671
C 1.2403815756 -4.1083508799 0.8911641931
C 1.8396989941 -4.1249851850 -0.3658665590
C 1.5277580834 -3.1343237241 -1.2953951502
C 0.6327270413 -2.1204869360 -0.9682223811
O 0.2124494300 1.1019413987 1.3266970833
C 1.4282348490 0.8284666874 0.6783749465
C 2.4281839259 0.1111571336 1.3216572346
C 3.6154218277 -0.1334821113 0.6354769627
C 3.7938483907 0.3479734730 -0.6596528437
C 2.7820113520 1.0829997315 -1.2743855519
C 1.5852359324 1.3269048653 -0.6064028766
O -2.1794930392 0.6230272316 1.8197558470
C -2.6878342364 1.2904489632 0.6856292394
C -2.4480225994 2.6496729834 0.5483247861
C -3.0012367077 3.3144968287 -0.5432307781
C -3.7784744847 2.6219363559 -1.4694897463
C -4.0091820577 1.2579568593 -1.3038009824
C -3.4629101872 0.5783350609 -0.2175351309
H -0.1392011281 -3.0826691935 2.2063665448
H 1.4696993030 -4.8836411475 1.6152667107
H 2.5423032809 -4.9106072456 -0.6232833538
H 1.9848206733 -3.1440714977 -2.2797304575
H 0.3855047982 -1.3326544892 -1.6711402763
H 2.2752533425 -0.2547226078 2.3315417142
H 4.4030845587 -0.7005750208 1.1209865100
H 4.7214439611 0.1537365485 -1.1878347528
H 2.9179538913 1.4627093713 -2.2819482342
H 0.7759501694 1.8816524899 -1.0696007476
H -1.8426382899 3.1696990247 1.2823244649
H -2.8235910197 4.3780572074 -0.6655512421
H -4.2074459992 3.1457027971 -2.3173502751
H -4.6187997743 0.7160314591 -2.0196112254
H -3.6338673465 -0.4818713440 -0.0676842867
