45
CONF190
O -0.7977536323 -0.6392232368 -2.8590200419
C -1.9741293747 -1.4072390197 -2.6284935610
C -2.5597605452 -1.2053759263 -1.2464519283
O -1.6273537832 -1.7473643866 -0.2628110125
C -1.4931860072 -0.8827251090 0.8448915168
C -1.5115036195 -1.7571458405 2.0889783251
O -1.2649428607 -0.9246759326 3.2274956050
O -0.2852540758 -0.1080885807 0.7801084299
C 0.9205834502 -0.7814065024 0.4451673080
O 1.3495957279 -0.4129276815 -0.8567624211
C 1.6459271375 0.9971268659 -1.0205993795
C 2.0811244852 1.1710988306 -2.4661045504
O 3.2658495353 0.4372629655 -2.7797097697
C 2.7178621385 1.4283865595 -0.0205708439
O 2.8999274461 2.8357403810 -0.1892259591
C 2.2827147335 1.0869809918 1.3939056532
O 3.3546223811 1.4496961840 2.2685398841
C 1.9783641277 -0.4052108954 1.4843228556
O 1.5888226847 -0.7886133854 2.7962386596
C -2.6364470338 0.1463153716 0.7101225320
O -2.4275043326 1.3885082314 1.3482251780
C -2.7900816599 0.2337968249 -0.8126365685
O -4.0720721660 0.6625951382 -1.2490322541
H -0.1600784062 -0.8257732501 -2.1480012635
H -2.7167937604 -1.0901687598 -3.3688279150
H -1.7833850479 -2.4809103611 -2.7757917643
H -3.5054344750 -1.7621845881 -1.1741202500
H -0.7442883343 -2.5397327388 1.9951181207
H -2.4950059025 -2.2391710903 2.1525612957
H -1.3133623402 -1.4834403417 4.0139773239
H 0.7715916720 -1.8645570500 0.4084321951
H 0.7334169928 1.5890464987 -0.8534455294
H 2.3064429135 2.2266215192 -2.6378171397
H 1.2519571868 0.8817973282 -3.1255378240
H 3.0681471301 -0.4991102294 -2.6472643562
H 3.6526857301 0.8898800995 -0.2417059299
H 3.5133258874 3.1250655800 0.4993993760
H 1.3775699239 1.6634865653 1.6437408040
H 3.0787506864 1.2222441496 3.1667325214
H 2.8922431570 -0.9665158941 1.2533809936
H 0.6535512546 -0.5397096684 2.9321879295
H -3.5517724228 -0.2816886309 1.1353774860
H -1.5471776886 1.7000061384 1.0914563066
H -1.9980025344 0.8822548235 -1.2158146881
H -4.1297853841 1.6150481584 -1.1006151591
