52
CONF22
C -1.0880765275 4.0540554850 -3.0918665384
O -2.1061707882 3.2558479860 -2.4719924876
C -1.6964297835 2.2431422160 -1.6594132578
C -0.3599859835 1.9270523478 -1.4019790834
C -0.0478957923 0.8634791233 -0.5544234708
C -1.0649886403 0.1042418311 0.0254712127
C -2.4016536592 0.4203134228 -0.2283527590
C -2.7249379376 1.4966950544 -1.0658751991
O -4.0402167837 1.8299813836 -1.2888849007
C -4.6036529297 1.1539720105 -2.4331685735
O -3.4626732606 -0.2589642168 0.2887559815
C -3.1740609352 -1.3633889271 1.1576464325
C 1.4175097963 0.5570779223 -0.2654995588
C 1.9672687115 1.3021224662 0.9533233120
C 1.4013803006 0.7576743140 2.2528258699
C 1.7388225559 1.8749744534 3.2285447417
O 1.6363428956 3.0935320639 2.4133616968
C 1.7732268096 2.7929967815 1.0948636626
O 1.7778040544 3.6563605895 0.2487937126
C 1.9715039434 -0.6153299305 2.5114463844
C 1.8726211452 -1.4734245224 1.2467484555
C 2.0447163178 -2.8664650212 1.4026806434
C 1.9812259312 -3.6538537383 0.2812839958
C 1.7625036713 -3.1140792054 -0.9808656340
C 1.5984281637 -1.7647634393 -1.1647652171
C 1.6556001283 -0.9290760992 -0.0285421554
O 1.7519510416 -4.1075894029 -1.9230155059
C 1.9600876525 -5.3452133202 -1.2049110874
O 2.1206905926 -5.0143672951 0.1927779255
O 1.2539810892 -1.1859761396 3.6176158692
H -1.6199785763 4.8002912117 -3.6825917681
H -0.4672872537 4.5531365308 -2.3387664242
H -0.4560078274 3.4454642578 -3.7486960459
H 0.4424167534 2.4999193790 -1.8477228892
H -0.8087571613 -0.7425335665 0.6489272206
H -5.6374942956 1.4945070033 -2.5167992158
H -4.5818818064 0.0679342870 -2.2857719568
H -4.0521152745 1.4162904900 -3.3434106053
H -2.6087868863 -2.1416323290 0.6317201814
H -4.1437912628 -1.7572539780 1.4629499905
H -2.6147945274 -1.0326417355 2.0406288497
H 1.9939206437 0.8622358972 -1.1464275732
H 3.0625323695 1.1626193496 0.9622422542
H 0.3105855907 0.6762968762 2.1631761964
H 2.7675723654 1.8044269808 3.6003979450
H 1.0416362241 1.9865516082 4.0588845791
H 3.0347691681 -0.5159295460 2.7827642586
H 2.2159896678 -3.3073847175 2.3784171106
H 1.4205743798 -1.3440994693 -2.1493412183
H 1.0797424384 -5.9854671016 -1.3268100310
H 2.8735851713 -5.8257019022 -1.5701526032
H 1.8326487119 -1.8080585075 4.0737968809
