63
CONF37
C -11.4627811671 1.7243733252 -0.5583422285
C -9.9927987618 1.6138012451 -0.9571430100
C -9.1389744385 0.9365142292 0.1142687588
C -7.6659236224 0.8178721539 -0.2726713726
C -6.8138880298 0.1380782557 0.7980397819
C -5.3412823572 0.0171949260 0.4095457465
C -4.4893210417 -0.6649894907 1.4786339196
C -3.0184776556 -0.7942614500 1.0853249624
C -2.1694162205 -1.4607484509 2.1684923937
C -0.7227201442 -1.7389955007 1.7512020094
C 0.0896368614 -0.4864775552 1.4218176847
C 1.5582461925 -0.7917602990 1.1301338311
C 2.3754249101 0.4507707513 0.7818287881
C 3.8447548103 0.1445620720 0.4943501649
C 4.6518708567 1.3912693067 0.1321920008
C 6.1531675626 1.1428048889 -0.0385408625
C 6.5050241956 0.1873624694 -1.1794618495
C 8.0111878616 0.0668993499 -1.4085224385
C 8.3689006557 -0.9001015266 -2.5372623823
C 9.8726553968 -1.0109795972 -2.7519997243
O 10.2217298744 -1.8725098509 -3.8386628008
H -11.8947136637 0.7341922006 -0.3770198592
H -11.5760290637 2.3079130107 0.3617472471
H -12.0564522322 2.2107810059 -1.3383286023
H -9.5889062398 2.6141690462 -1.1613024988
H -9.9059174218 1.0512962435 -1.8960712370
H -9.5432804103 -0.0647075721 0.3199173902
H -9.2245491305 1.4988678408 1.0548147571
H -7.2617638453 1.8193041604 -0.4769205232
H -7.5814751742 0.2567117574 -1.2139151666
H -7.2188937597 -0.8628396954 1.0031093240
H -6.8966394361 0.6995440822 1.7392362602
H -5.2587900381 -0.5433787693 -0.5322694867
H -4.9357376046 1.0180796334 0.2054329240
H -4.5655976262 -0.1011697381 2.4191013781
H -4.8989603406 -1.6632805506 1.6874502863
H -2.6213296360 0.2036204402 0.8591270184
H -2.9396047416 -1.3749459405 0.1548047986
H -2.1738652199 -0.8318837011 3.0699710071
H -2.6443923603 -2.4087471299 2.4548048627
H -0.2179954551 -2.2845485243 2.5598453187
H -0.7199757026 -2.4103870345 0.8808413481
H -0.3461546398 0.0251272023 0.5541595002
H 0.0234672066 0.2205286454 2.2615083388
H 2.0065729102 -1.2892285524 2.0016846438
H 1.6209453169 -1.5121586378 0.3022597252
H 1.9305787734 0.9457654574 -0.0928610301
H 2.3089318602 1.1730114915 1.6076720721
H 4.2954780123 -0.3370306051 1.3742068973
H 3.9016836315 -0.5889115005 -0.3202858659
H 4.2492527454 1.8269911024 -0.7930801640
H 4.5045776358 2.1469071435 0.9153987681
H 6.5659040524 0.7508974008 0.9017441351
H 6.6542009175 2.1038030074 -0.2162296889
H 6.0223814049 0.5328425280 -2.1048027031
H 6.0960784499 -0.8098339706 -0.9728216885
H 8.4245101343 1.0595664090 -1.6351501667
H 7.9009974901 -0.5758755763 -3.4752556212
H 7.9609799754 -1.8955270662 -2.3071864898
H 10.3641357642 -1.3370689341 -1.8203233125
H 10.2877058470 -0.0311788163 -3.0130081299
H 9.8766159628 -2.7497206954 -3.6401453207
H 8.4936781102 -0.2606629581 -0.4768684597
