42
CONF1
C -2.8684127925 3.0138542550 3.1490024751
C -3.0777031030 3.1726421065 1.7819308358
C -2.8569045581 2.1083791666 0.9089449947
C -2.4229510686 0.8774946850 1.3986389211
C -2.2182379016 0.7209671657 2.7717348237
C -2.4384882988 1.7827330490 3.6427994135
C -2.1211947556 -0.2987392875 0.4875276503
C -0.6384529423 -0.4760791485 0.2059282905
C 0.2526388615 0.5960685293 0.2279089169
C 1.5954566837 0.4042814527 -0.0766840414
C 2.0861025025 -0.8657851236 -0.4067035565
C 1.1837795924 -1.9396728159 -0.4220868686
C -0.1571334422 -1.7459065579 -0.1207280782
C 3.5147856171 -1.0704027862 -0.7242170529
C 3.9062413218 -1.9822411493 -1.7151392435
C 5.2511506668 -2.1732398288 -2.0145953693
C 6.2319335338 -1.4587437716 -1.3293492657
C 5.8556495087 -0.5502286760 -0.3419641246
C 4.5110730682 -0.3570917662 -0.0423131624
N -2.8697927611 -0.2124079270 -0.7770305611
C -4.2227350129 -0.4408691083 -0.9043382731
C -4.5288350419 -0.1405715868 -2.2066632094
N -3.3991755255 0.2737338656 -2.8813961143
C -2.4232600312 0.2243830991 -1.9891063732
H -3.0438702936 3.8424458160 3.8279062913
H -3.4159095013 4.1268815664 1.3898913846
H -3.0245746792 2.2424789628 -0.1557146691
H -1.8833577066 -0.2387717114 3.1573014517
H -2.2795298408 1.6482221911 4.7082855534
H -2.4741657776 -1.2096996730 0.9856810029
H -0.1031800625 1.5910749765 0.4768665087
H 2.2663393492 1.2576345184 -0.0768107196
H 1.5405827401 -2.9401113953 -0.6459786517
H -0.8397734110 -2.5915958762 -0.1309456322
H 3.1507651422 -2.5287213791 -2.2715069862
H 5.5334025691 -2.8769716289 -2.7917231718
H 7.2812850562 -1.6088876423 -1.5628768376
H 6.6124850004 0.0049306678 0.2038059178
H 4.2316995766 0.3368444614 0.7445066485
H -4.8188276928 -0.7889188429 -0.0738429100
H -5.4921626025 -0.2078470594 -2.6937783672
H -1.3867419713 0.4784537999 -2.1651162278
