45
CONF38
C 3.7289345582 3.1071958535 -0.4219155523
C 3.6720020426 1.5941079468 -0.2781961766
C 2.5160647880 1.2081574621 0.6502575020
O 2.6582082193 1.2350408221 1.8695802950
N 1.3523872922 0.8949159417 0.0266848960
C 0.1761068829 0.5155200810 0.7401427804
C -1.1177495146 1.3931120145 0.6241314375
N -1.7951272992 0.2306205666 0.0329844112
C -0.6946910686 -0.6121516012 0.1411392722
O -0.5403104211 -1.7783617910 -0.1336678580
C -3.1667503044 -0.0247793688 0.4114101857
C -3.2826488368 0.3875095466 1.9271573556
S -2.0968619401 1.8335985612 2.1197304525
C -4.6806993308 0.8422673384 2.3323370793
C -2.8262613178 -0.7856702005 2.7949883830
C -4.1717385575 0.6928475706 -0.4763306570
O -5.2706284880 0.2493689269 -0.7248278662
O -3.7149878520 1.8727450266 -0.9255305044
O 3.5217999968 1.0569362551 -1.6000360983
C 3.7044523975 -0.2951327531 -1.7790494150
C 3.5882799955 -0.7398345209 -3.0989261802
C 3.7478559039 -2.0881216615 -3.3887076000
C 4.0215744978 -3.0039806590 -2.3718738733
C 4.1320294363 -2.5516621425 -1.0618604247
C 3.9744123733 -1.2001253736 -0.7512974440
H 3.8252407379 3.5649701667 0.5653762100
H 4.5929184456 3.3878844011 -1.0290169720
H 2.8175310936 3.4781214200 -0.8997493757
H 4.5956584746 1.2219128408 0.1810103942
H 0.4323040572 0.3033992918 1.7825242780
H -1.0283459855 2.2600478142 -0.0351284828
H -3.3760954701 -1.0949154651 0.3197271613
H -4.6891924756 1.1133811422 3.3916055868
H -5.3888766661 0.0200375812 2.1867660267
H -5.0164653577 1.7062099546 1.7530106063
H -1.8361890226 -1.1485634465 2.5045930013
H -2.7814251548 -0.4791090303 3.8430257262
H -3.5413915780 -1.6109056323 2.7007117281
H -4.4112203212 2.2864341233 -1.4655897883
H 3.3753343784 -0.0177231050 -3.8806175672
H 3.6575045960 -2.4253511226 -4.4167137455
H 4.1447467496 -4.0572359801 -2.6004296873
H 4.3400832290 -3.2522957899 -0.2590977529
H 4.0595207405 -0.8818276306 0.2810291055
H 1.3304974385 0.9175393242 -0.9842502190
