50
CONF71
C 2.3626404898 -0.0135366641 -0.5366146706
C 1.9007009674 -0.9992247999 -1.5836962107
C 0.6933352424 -1.6732766516 -1.3884696759
C 0.1727677625 -2.5031171723 -2.3992385155
C 0.8105714099 -2.6564570155 -3.6044552948
C 2.0407328914 -2.0072769163 -3.8399410064
C 2.6231060247 -1.2241123520 -2.7936431803
C 3.9595608020 -0.7526934514 -3.0986551465
N 4.4801964765 -0.8647137142 -4.3172191073
C 3.7592115187 -1.5200577425 -5.2571335526
N 2.6103209540 -2.1561935452 -5.0692995953
N 4.2866633174 -1.5078823394 -6.5199451454
N 4.7700198535 -0.1826761760 -2.1739610123
C -0.1180557157 -1.5041831368 -0.1293624465
N -1.0042338862 -0.3418292561 -0.2521055074
C -1.5949916877 0.2257368384 0.8660227062
C -1.7328170277 -0.5034682509 2.0564156394
C -2.3781111548 0.0831488339 3.1494162358
C -2.8759241983 1.3895640106 3.0777808195
C -2.7344608620 2.1055044222 1.8775824347
C -2.0938460348 1.5377463419 0.7790926102
O -3.2525225434 3.3662303695 1.8926896992
C -3.1447827513 4.1390351283 0.6906088653
O -3.4706831291 1.9753503246 4.1769345851
C -4.8960950269 1.7660990153 4.2164903922
O -2.5656656528 -0.5456314387 4.3446647535
C -2.0617512083 -1.8805849248 4.4786482047
H 3.0685486670 -0.4648487077 0.1731360254
H 2.8382964374 0.8577742998 -0.9901956135
H 1.5191963273 0.3511461424 0.0503027609
H -0.7699351856 -3.0133230974 -2.2189651779
H 0.3875992384 -3.2648174245 -4.3971684286
H 3.9242960300 -2.1904491003 -7.1672955861
H 5.2689606204 -1.2970122770 -6.6010301542
H 5.7308618163 -0.0488148719 -2.4518270553
H -0.7190036200 -2.4098428303 0.0252036957
H 0.5386048972 -1.4069866615 0.7482748545
H -0.7173096178 0.3214400823 -0.9577200379
H -1.3589133955 -1.5153706671 2.1200420212
H -1.9738209900 2.0875526225 -0.1466586753
H -3.6680957373 3.6509362075 -0.1399493357
H -2.0951245878 4.3033591297 0.4205343258
H -3.6200992090 5.0950313103 0.9124677397
H -5.3741694950 2.2010950819 3.3306161825
H -5.1266654647 0.6953274160 4.2713671987
H -5.2621833008 2.2676334931 5.1151956391
H -0.9753557183 -1.9082212943 4.3349779914
H -2.3043338406 -2.1844547284 5.4974580800
H -2.5465723978 -2.5592353091 3.7671993335
H 4.6056224971 -0.3189709393 -1.1926473281
