17
CONF2
C -1.8295611746 1.2081624365 0.3924100509
C -0.9852438902 -0.0700024608 0.2594674441
C -1.2024697999 -0.7588079465 -1.0921585673
C 0.4648804516 0.3093901667 0.3933578289
O 1.1514662967 0.9244245668 -0.3709576113
O 0.9421516422 -0.1776931224 1.6239134485
O 2.2693070728 0.2370350514 1.8688693471
N 3.2448191308 -0.7167011328 1.1449327214
O 2.7567908769 -1.5944447408 0.5147595847
O 4.3610596501 -0.3750135496 1.3697616404
H -1.5806620476 1.9119978130 -0.4070831931
H -2.8869179490 0.9431037312 0.3084719132
H -1.6690772689 1.6965476437 1.3576727043
H -1.2397490785 -0.7573659291 1.0723447507
H -0.9514435799 -0.0787255367 -1.9109447266
H -0.5906277490 -1.6607178116 -1.1825770039
H -2.2547230810 -1.0411892797 -1.1825663248
