36
CONF1
C 0.5637138588 -3.6824415226 -0.3129902540
C 1.8579161982 -3.2300315764 -0.3016991737
C 2.1513846414 -1.8450480319 -0.1938600525
C 1.0766022117 -0.9237825196 -0.0908984519
C -0.2654310240 -1.3918864587 -0.1148574957
C -0.5302808843 -2.7825833292 -0.2173973860
C -1.8796791015 -3.2238120229 -0.2260905992
C -2.9179514178 -2.3333288245 -0.1320061840
C -2.6814767409 -0.9376392991 -0.0225529406
C -1.3417186463 -0.4696623099 -0.0052035354
C -1.0766021975 0.9237825313 0.0908986229
C -2.1513846385 1.8450480122 0.1938604109
C -3.4816354590 1.3491362652 0.1800991843
C -3.7375298229 0.0061914228 0.0754918218
C -1.8579162415 3.2300315382 0.3016992722
C -0.5637139203 3.6824414633 0.3129906628
C 0.5302807806 2.7825833081 0.2173974123
C 0.2654308130 1.3918864996 0.1148572201
C 1.3417187017 0.4696620505 0.0052044146
C 2.6814767890 0.9376392454 0.0225528016
C 3.7375298591 -0.0061914656 -0.0754919546
C 3.4816354735 -1.3491363140 -0.1800988388
C 2.9179514278 2.3333288631 0.1320057401
C 1.8796790406 3.2238120408 0.2260901608
H 0.3561991004 -4.7456302491 -0.3951957629
H 2.6838785236 -3.9317203307 -0.3767402963
H -2.0773899219 -4.2888106809 -0.3086140025
H -3.9451307352 -2.6867957377 -0.1407864811
H -4.3011351796 2.0583030182 0.2552677822
H -4.7612983042 -0.3570614500 0.0654227785
H -2.6838785702 3.9317202782 0.3767403686
H -0.3561991798 4.7456301866 0.3951962287
H 4.7612983583 0.3570614048 -0.0654231843
H 4.3011351859 -2.0583031062 -0.2552674715
H 3.9451306967 2.6867958647 0.1407860340
H 2.0773898249 4.2888107359 0.3086130486
