59
CONF418
C -0.4086153277 4.3826541375 -4.4888830567
C 0.5514491812 5.0190427482 -5.5343565325
C 1.9685690165 4.8385335826 -4.9560132995
C 1.8667815152 3.6203291038 -4.0255286908
C 0.4972012943 3.8595438308 -3.3568732370
C 3.0150711758 3.5330127524 -3.0287768109
C 2.9578170655 2.3123655558 -2.1397196678
O 3.3883098230 2.3170235092 -1.0016682396
N 2.3981516146 1.1501454686 -2.6897022848
C 1.7861170858 1.0792667407 -3.9485161774
O 1.2381137176 0.0570516831 -4.3172414593
C 1.8643680489 2.3121000430 -4.8197904251
C 2.3225679920 -0.0412907581 -1.8264646370
C 1.0440182346 -0.0552019244 -0.9936327301
C 0.9975319534 -1.2671302012 -0.0652489939
C -0.2877510044 -1.2923623379 0.7573378164
N -0.4030058606 -2.4684359838 1.6239119797
C -1.7785279341 -2.6135727406 2.1106289496
C -1.9196570797 -3.8670432958 2.9690688072
N -0.9757813359 -3.8201948121 4.0790856008
C 0.4007353922 -3.6410933330 3.6348316417
C 0.5147382651 -2.3923572181 2.7652325274
C -1.3682826676 -3.5671288524 5.3625370041
N -2.6976713799 -3.5775211414 5.6199275958
C -3.0517240826 -3.3740702388 6.8836760982
C -2.1371135681 -3.1539564847 7.9078168350
C -0.7992654791 -3.1538852896 7.5284579925
N -0.3950379491 -3.3528438872 6.2792275836
H -0.9766975090 3.5623448383 -4.9377520053
H -1.1422109201 5.0998180266 -4.1120026617
H 0.4614614428 4.5096368519 -6.4985383040
H 0.3254572004 6.0729849486 -5.7153677475
H 2.2446910521 5.7124775028 -4.3525225559
H 2.7371498313 4.7173106199 -5.7270804137
H 0.6184999288 4.6257389775 -2.5813172439
H 0.0943383558 2.9653057082 -2.8684479476
H 3.9741206584 3.4959611049 -3.5664619047
H 1.0312880876 2.2476365789 -5.5234935540
H 2.7898651236 2.2350846775 -5.4087346094
H 2.3637137983 -0.9173436291 -2.4775678799
H 0.9962292014 0.8681311014 -0.4029646466
H 0.1800342312 -0.0642040410 -1.6698986216
H 1.8754131823 -1.2404724394 0.5913801754
H 1.0610701703 -2.1947667677 -0.6475156571
H -1.1393717854 -1.3088982815 0.0645962713
H -0.3736823514 -0.3522273659 1.3415758445
H -2.0991801938 -1.7337574384 2.7069350535
H -2.4492143181 -2.6938441640 1.2464626048
H -1.6913429025 -4.7506719800 2.3571703346
H -2.9330197232 -3.9545047521 3.3598316851
H 1.0527542352 -3.5625314833 4.5042370207
H 0.6923017825 -4.5203486401 3.0438777872
H 0.3092513033 -1.4974743385 3.3893824880
H 1.5440501567 -2.3152904295 2.4005659578
H -4.1228613816 -3.3844634953 7.0861685014
H -0.0118084997 -2.9825835430 8.2626503962
H 3.1996310490 -0.0240334294 -1.1755380446
H 3.0513625808 4.4027452547 -2.3669796279
H -2.4464242733 -2.9879694521 8.9318501862
