49
CONF17
C 0.9172441050 -3.0140165095 -3.7842503352
C -0.2074398052 -2.4787824659 -2.9285358671
O 0.3479415881 -1.4399343528 -2.0955242329
C -0.4818407730 -0.7952773581 -1.2233038808
C -1.8361264889 -1.0772176759 -1.0741947948
C -2.6198307384 -0.3767028465 -0.1420222793
C -2.0018656268 0.6055655862 0.6298289245
C -0.6411133000 0.8854677410 0.4743402197
C 0.1367515683 0.2026997521 -0.4474155308
C 1.6121537570 0.4529198298 -0.6476626902
C 2.5015143752 -0.7302454862 -0.1653016348
O 3.3730876121 -0.1234030578 0.8422469760
C 3.0238704251 1.1892215532 0.8849117426
N 2.0951990704 1.6136998150 0.1224365953
C 3.7875201201 2.0125696751 1.8354770575
C 4.3910820641 3.2153195799 1.4608789738
C 5.1092169915 4.0068865694 2.3389984923
C 5.2332741564 3.5879898740 3.6602037218
C 4.6514222533 2.3994155844 4.0914792017
C 3.9487054686 1.6422662952 3.1727714141
F 3.3598019452 0.5032770419 3.5929345006
F 4.2930898881 3.6113024858 0.1764598572
C -4.1063926587 -0.7223162561 -0.0164341306
C -4.2560761937 -2.2037220517 0.3800434557
C -4.8017225496 -0.4846194695 -1.3709084335
C -4.8137859914 0.1321607837 1.0422672999
H 1.3341817897 -2.2244511264 -4.4159448998
H 0.5352671424 -3.8094196256 -4.4304580557
H 1.7153725132 -3.4275392137 -3.1609353784
H -0.6316054458 -3.2659218365 -2.2913971423
H -1.0114417512 -2.0565243406 -3.5456019515
H -2.2941266126 -1.8469151512 -1.6823813041
H -2.5647803810 1.1697279767 1.3631665737
H -0.1774114069 1.6545304345 1.0834802694
H 1.7917002242 0.6436680763 -1.7134118791
H 3.1369648079 -1.1417634793 -0.9515840715
H 1.9314184298 -1.5257857514 0.3198331589
H 5.5625547648 4.9253995783 1.9848533389
H 5.7900858641 4.1967226701 4.3640586331
H 4.7295515541 2.0624907173 5.1185576877
H -3.8132892392 -2.8684217040 -0.3675034973
H -5.3176278571 -2.4586509956 0.4731939710
H -3.7690349948 -2.3966782890 1.3419856010
H -5.8688232696 -0.7183890922 -1.2870630073
H -4.3781624263 -1.1148494876 -2.1585056414
H -4.7003743132 0.5619734947 -1.6775018162
H -4.3800687763 -0.0158484422 2.0366899581
H -4.7673643680 1.1983695966 0.7972445231
H -5.8686674316 -0.1562475605 1.0891699017
