41
CONF7
C 0.3226200252 -2.0990546099 -2.6558956299
C -0.1198358074 -1.2927083857 -1.4896580022
C -1.2335900429 -1.4532432393 -0.7067779158
C -1.2278549292 -0.4281089928 0.2994874951
C -0.0500731013 0.3236054226 0.1280522441
N 0.6420824446 -0.2299353571 -0.9695145535
C 1.8261825308 0.2544722757 -1.5589034083
O 2.0111649072 0.1922981630 -2.7603740204
C 2.8667028432 0.7819587848 -0.6378892442
C 3.7243965360 1.7779607923 -1.1116598814
C 4.7626802076 2.2483515324 -0.3217536975
C 4.9540539428 1.6891902587 0.9387836892
C 4.1300185592 0.6765387913 1.4205916797
C 3.0803681546 0.2320227934 0.6291254236
Cl 6.2674062479 2.2673523115 1.9378241159
C 0.1998839718 1.4539994043 0.9025420452
C -0.7161030741 1.7832416253 1.8877345367
C -1.8787005760 1.0175460187 2.0906607592
C -2.1535399203 -0.0877836147 1.2929936878
O -2.6908340103 1.4646965859 3.0948780408
C -3.8908753554 0.7391382751 3.3325900391
C -2.2927141399 -2.5012777887 -0.8756036440
C -3.3318648220 -2.0271575175 -1.8683528837
O -3.3577727684 -2.3059274014 -3.0420181079
O -4.2350024749 -1.1967747959 -1.2819084700
H -0.2991776917 -2.9925487941 -2.7347726223
H 1.3712748316 -2.3987348553 -2.5685555548
H 0.2286850647 -1.5355517761 -3.5879023018
H 3.5662131033 2.1766316583 -2.1078397565
H 5.4222762298 3.0317821267 -0.6756113557
H 4.3096983974 0.2470753628 2.3989733722
H 2.4268237097 -0.5514711106 0.9972985868
H 1.0752926230 2.0730930602 0.7545030814
H -0.5588291618 2.6516605429 2.5171129952
H -3.0692743230 -0.6555966944 1.3947165101
H -4.5478841535 0.7529306507 2.4526024679
H -4.3867599090 1.2442014927 4.1626475414
H -3.6792419497 -0.3014851610 3.6132022771
H -2.7695100173 -2.7043048424 0.0881520907
H -1.8725618123 -3.4314504356 -1.2623452526
H -4.8258245705 -0.8866320648 -1.9864958792
