44
CONF32
C -3.5289871263 1.8752851989 1.3585304481
N -3.9669882238 0.7399157046 0.5569609545
C -3.7791456653 0.8467800010 -0.9010171369
C -4.3377764708 -0.5126697710 -1.3682145996
C -4.0442509648 -1.4678714559 -0.1745790001
C -3.3487291556 -0.5621650799 0.8622156944
C -1.8182672676 -0.5389851720 0.6567902590
C -1.4936329460 -0.1840560550 -0.7898892137
C -2.2928178457 1.0124746692 -1.2830462179
O -0.0747107576 0.1810222060 -0.9086329402
C 0.8188041842 -0.8112760532 -1.0030808534
O 0.5355339978 -1.9930410743 -1.0555868628
C 2.2481731182 -0.2893895575 -0.9988028327
C 2.4281151644 0.9403073636 -1.8988247712
O 1.9801238257 0.6930623080 -3.2333772883
C 2.6936952597 -0.0096425205 0.4255690170
C 2.0822050887 0.9854803376 1.1967938789
C 2.5169344874 1.2371821405 2.4951533226
C 3.5655143776 0.4994429645 3.0413275843
C 4.1787566115 -0.4924096416 2.2799813168
C 3.7445450130 -0.7447444795 0.9807904380
H -4.0860128053 2.7668517114 1.0492502252
H -3.7602526991 1.6792860798 2.4115960483
H -2.4544073877 2.1129444643 1.2913062201
H -4.3512057483 1.6952108831 -1.2933872819
H -5.4137387935 -0.4333498916 -1.5426852668
H -3.8712701818 -0.8443292999 -2.3003759543
H -3.4155687763 -2.3170898496 -0.4580271376
H -4.9745770925 -1.8645441461 0.2396459493
H -3.5720156048 -0.8534789631 1.8948703609
H -1.3914665732 -1.5147123675 0.9112740688
H -1.3639492504 0.2049676249 1.3218465506
H -1.6573808949 -1.0492733661 -1.4384220648
H -1.8937159129 1.9296966584 -0.8348051721
H -2.1933629941 1.1075211013 -2.3701219744
H 1.8338723560 1.7773556105 -1.5248212017
H 3.4872390412 1.2317578255 -1.8810683143
H 1.2591618410 1.5604577929 0.7854183899
H 2.0333690657 2.0120110318 3.0822661208
H 3.9020555820 0.6967117111 4.0543619290
H 4.9967253418 -1.0724218448 2.6963351960
H 4.2255189503 -1.5186654150 0.3893338724
H 2.8610333276 -1.1054429664 -1.3950900985
H 2.5751548752 0.0441753430 -3.6304589983
