51
CONF41
C 2.3730971128 1.6281015516 2.5913324603
C 2.9118529560 2.1423390775 1.2693785379
C 3.2929034949 3.6070780282 1.3115448576
O 1.8503853290 2.0513749063 0.2530557650
C 1.5681612402 0.8645950985 -0.2895303598
N 2.3427580537 -0.1894331162 -0.0433609481
C 1.9482352701 -1.3259818533 -0.6375950232
C 0.8306032646 -1.4505675452 -1.4235211144
C 0.0939719842 -0.2585610204 -1.5919262928
N 0.4728833153 0.8921624323 -1.0640971943
O -1.0310787104 -0.3586589328 -2.3044261188
C -1.9319910156 0.7945452611 -2.4177747591
C -3.2937685012 0.3942629765 -1.9290963814
C -4.3552629159 0.3226803888 -2.8325935828
C -5.6288776077 -0.0492049695 -2.4111755384
C -5.8464957051 -0.3663721780 -1.0736956040
C -4.7932333260 -0.3010968239 -0.1653302276
C -3.5153944056 0.0845324726 -0.5745274824
C -2.4105340403 0.1508695251 0.4158445164
C -1.8926194684 1.3292804457 0.8340798005
O -2.3716937436 2.4925425569 0.3902111922
C -1.6530816383 3.6676253803 0.8441149556
C -1.8521049047 -1.1103854086 0.9038332077
O -2.2805237022 -2.2149549679 0.6010685454
O -0.7760055377 -0.9434139514 1.7136316117
C -0.1812147363 -2.1584174877 2.2197949051
C 2.8581062486 -2.5065155440 -0.3686125795
F 4.0844061793 -2.3063934774 -0.9079086356
F 2.3716992388 -3.6523715989 -0.8856031900
F 3.0362614671 -2.7024313605 0.9575096948
H 1.5155048002 2.2310375715 2.9078805515
H 3.1526926350 1.7035439801 3.3553372316
H 2.0655723831 0.5818030487 2.5155739615
H 3.7546037490 1.5344849963 0.9281930260
H 2.4351453641 4.2182844187 1.6099413015
H 4.0920724566 3.7498877901 2.0441839979
H 3.6508159531 3.9459603560 0.3357093696
H 0.5125372500 -2.3807054398 -1.8733208695
H -1.5186644561 1.6292774221 -1.8517835272
H -1.9605773338 1.0515655047 -3.4790460080
H -6.4440999256 -0.0982105317 -3.1260401011
H -6.8344633882 -0.6626473324 -0.7352638289
H -1.0695137522 1.3763227233 1.5438154974
H -2.1872093084 4.5229431186 0.4323578179
H -1.6569888919 3.7093967164 1.9372217798
H -0.6273727646 3.6420299914 0.4651224789
H 0.1092907355 -2.8146630550 1.3953866772
H 0.6974793465 -1.8370252161 2.7786846692
H -0.8829331303 -2.6815376656 2.8750141739
H -4.9598623763 -0.5442878857 0.8798575862
H -4.1772551229 0.5590191705 -3.8779990689
