20
CONF5
C 1.0885484084 0.5711920794 -0.5418340068
N 1.3643874155 -0.4696994789 0.4428036978
C 0.5224124394 -1.6527457064 0.3468605371
N -0.8454903905 -1.2253935741 -0.0092926359
C -1.1825623562 0.1283366190 0.3884642206
N -0.2822721237 1.0670753673 -0.3238898175
N -0.4152484290 2.4127305398 0.0712401332
O 0.4465366324 3.1873819629 -0.3020252127
O -1.4267691005 2.6780086724 0.7049915414
N -1.2979195263 -1.6016593097 -1.3207457312
O -0.7826966736 -2.5932849892 -1.8054843988
O -2.1993597373 -0.9379040647 -1.7931371229
N 1.7521709966 -0.1424213489 1.7239801336
O 2.1483799445 0.9879769723 1.8638502361
H 1.7921739936 1.3980980807 -0.4271428289
H 1.1797196087 0.1390623711 -1.5438141933
H 0.8751368777 -2.3440866156 -0.4217746634
H 0.5274548494 -2.1474827923 1.3237469760
H -1.0454637882 0.1935109245 1.4773958653
H -2.2191387445 0.3513039887 0.1458072649
