42
CONF197
C 4.3339679614 0.3171891147 -1.1336242187
C 3.2763091235 1.3464808497 -0.7289589949
C 2.4428203041 1.8018438999 -1.9288413396
C 2.3975939711 0.8400521452 0.4009796968
O 1.6925849037 -0.3491044033 -0.0740104895
C 0.7930825720 -0.8782572731 0.7612294521
O 0.5085953044 -0.4141130317 1.8513814579
C 0.2025184164 -2.1355742096 0.2253756737
C 0.9936717606 -3.0373709303 -0.4884764308
C 0.4826855363 -4.2783019938 -0.8561553533
C -0.8193949967 -4.6274449699 -0.5092443718
C -1.6171031329 -3.7321420338 0.1982419867
C -1.1159976288 -2.4838783439 0.5587080734
C -2.0280437763 -1.5260573447 1.2509798750
O -2.6601626288 -1.7891150189 2.2555751870
O -2.1024044316 -0.3692166036 0.5821838860
C -2.8837911080 0.6938665701 1.2033240683
C -2.8030077113 1.9176733396 0.3083582716
C -1.3598457610 2.3926629575 0.1344291934
C -3.6796237043 3.0186878449 0.9103924725
H 5.0153478354 0.7422578315 -1.8768923967
H 3.8648971757 -0.5684722038 -1.5748529416
H 4.9259692886 -0.0035001643 -0.2698955550
H 3.7886572583 2.2239388576 -0.3100433568
H 1.9146469657 0.9545001620 -2.3784603435
H 1.6995068074 2.5497513884 -1.6325262210
H 3.0857755333 2.2436893128 -2.6962856968
H 1.6536048254 1.5867031229 0.6961332270
H 2.9883820132 0.5555344602 1.2784181305
H 2.0180003900 -2.7747439901 -0.7283827165
H 1.1065930309 -4.9764683974 -1.4043186517
H -1.2185529678 -5.5959231804 -0.7922576618
H -2.6396983981 -3.9895576399 0.4550086083
H -2.4581935578 0.8968683473 2.1939905481
H -3.9151509467 0.3460417416 1.3216894886
H -3.2097628401 1.6423033656 -0.6741187464
H -0.7342488000 1.6175545303 -0.3179087260
H -0.9262536366 2.6567630739 1.1066888839
H -1.3220489781 3.2786180946 -0.5072147158
H -3.6656973284 3.9066770708 0.2716999517
H -3.3074723782 3.3087957256 1.8998953415
H -4.7187558585 2.6907887356 1.0177853587
