46
CONF189
C -5.4351707591 3.6441366818 -2.4808321491
C -4.5735599611 3.2976022764 -1.2683888826
C -4.3075648706 1.7946952921 -1.1624524276
C -3.4544689485 1.4758624301 0.0497752365
O -3.2423334331 0.0327633393 0.1754741230
C -2.2616161724 -0.5002465047 -0.5622152375
O -1.4965111956 0.1177998516 -1.2703442369
C -2.2743356468 -2.0229285964 -0.4221335418
C -3.3112276994 -2.6086065239 -1.3705456189
O -1.0112078028 -2.5667355870 -0.8023148945
C 0.0726998370 -2.3168655411 -0.0055973629
C 0.0273903797 -1.6127456337 1.1996479554
C 1.2001821544 -1.4293322629 1.9317276896
C 2.3902586723 -1.9492400466 1.4557243429
C 2.4484389170 -2.6547444258 0.2594997612
C 1.2853659404 -2.8364176804 -0.4722357157
O 3.5496141222 -1.8130850251 2.2336092058
C 4.4335341815 -0.8426040816 1.8902408143
C 5.6358047385 -0.8183763836 2.6118156369
C 6.6138067977 0.1171448598 2.3781226701
C 6.3926946778 1.0796165576 1.3784524726
C 5.1989367942 1.0756353932 0.6459737785
C 4.2268855050 0.1200476109 0.9015558285
C 7.3857448910 2.0590575171 1.1161476355
N 8.1954687566 2.8606559356 0.9011966023
F 5.8233155882 -1.7525161741 3.5655493573
H -4.9456479076 3.3297704045 -3.4089728316
H -6.4059389568 3.1396712488 -2.4263959821
H -5.6170391720 4.7213529712 -2.5427940156
H -3.6162847122 3.8307740992 -1.3298138317
H -5.0671893976 3.6441380297 -0.3513261733
H -5.2581722403 1.2523735144 -1.0865923026
H -3.7995133923 1.4446935707 -2.0691507422
H -2.4798612769 1.9698442843 0.0016375329
H -3.9594483246 1.7522302577 0.9780253825
H -2.5156428019 -2.2943057076 0.6132726832
H -3.0770821690 -2.3347628577 -2.4030982664
H -3.3139600130 -3.6971827522 -1.2779057616
H -4.3031755498 -2.2292122667 -1.1150706823
H -0.8965354333 -1.2010333894 1.5877832134
H 1.1838084233 -0.8822847067 2.8685158049
H 3.3944631753 -3.0540722627 -0.0916764720
H 1.2993942740 -3.3838851276 -1.4087032545
H 7.5297719544 0.0996875272 2.9576159745
H 5.0334651427 1.8225341853 -0.1218332690
H 3.3024431994 0.1190956092 0.3360526743
