45
CONF626
O -0.8123399451 -0.2455752415 -2.9091541262
C -2.1018444365 -0.8418263765 -2.7681512201
C -2.5851012510 -0.8886888573 -1.3350876152
O -1.6392817926 -1.6790215685 -0.5562680507
C -1.4675946488 -1.1283258649 0.7364983350
C -1.4855014240 -2.2919835071 1.7252062878
O -1.1547056581 -1.8941354130 3.0450932052
O -0.2252037773 -0.4091492782 0.8636750998
C 0.9196784957 -0.9481366880 0.2394874699
O 1.2523960076 -0.1971373820 -0.9187996453
C 1.5280283195 1.2039201775 -0.6431211493
C 1.7036762018 1.9050325968 -1.9787032523
O 0.4697814405 2.2585697872 -2.5983086521
C 2.7627271600 1.2861782163 0.2629402735
O 3.0271424924 2.6365679890 0.6572577900
C 2.4895544913 0.5085655278 1.5459701787
O 3.6471269072 0.4302307286 2.3788729863
C 2.0900740438 -0.9198450468 1.2206892449
O 1.6981461242 -1.6481961321 2.3845731595
C -2.5565057890 -0.0423990608 0.8741741007
O -2.2846463164 0.9765485724 1.8100423849
C -2.6918291689 0.4316422310 -0.5757970047
O -3.9318417944 1.0948344455 -0.7686783857
H -0.2183171969 -0.6285861486 -2.2400802399
H -2.8050960313 -0.2455209032 -3.3597778026
H -2.0931792352 -1.8631081712 -3.1749616297
H -3.5665365565 -1.3857883916 -1.3151834024
H -0.7978804371 -3.0668137057 1.3503570218
H -2.4944568563 -2.7160477412 1.7437755413
H -0.2202268516 -1.6252847430 3.0187043025
H 0.7389413481 -1.9692819129 -0.1104237962
H 0.6706153893 1.6501499844 -0.1193403942
H 2.3226172802 1.2730116516 -2.6348637931
H 2.2366480890 2.8454193274 -1.8091909780
H -0.0424851384 1.4445867765 -2.7602386907
H 3.6322648003 0.8496274936 -0.2501525952
H 3.6686051844 3.0182305165 0.0470350414
H 1.6654905602 1.0049900221 2.0833620308
H 3.8770366068 1.3334119711 2.6340127215
H 2.9402917985 -1.4195056342 0.7318811795
H 2.4182481812 -1.5801839212 3.0265675878
H -3.4985107759 -0.5138968066 1.1797627128
H -1.3760080064 1.2720238246 1.6530411300
H -1.8447252443 1.0893459355 -0.8217088707
H -3.8652715950 1.6355507947 -1.5649883112
