82
CONF38
C -3.1236020629 2.5427873145 -1.4387850081
C -2.3291404873 2.2421937472 -0.1987553803
C -1.3555192230 3.0608561403 0.2139609828
C -2.7070476041 1.0259939200 0.6121153327
C -4.0193787993 1.2314697211 1.3942230588
C -4.2906972097 -0.1612674711 1.9527754489
C -3.9110010369 -1.1348176805 0.8084710081
C -2.9872378864 -0.3011886759 -0.1472085733
C -1.8254574442 -1.1289499753 -0.7479100012
C -1.0020168506 -0.3191210919 -1.7532721520
C 0.2667986768 -1.0675486899 -2.1322771178
C 1.2545064804 -1.1877180329 -0.9510404858
C 2.3565421142 -0.0286826683 -1.0295624445
C 1.8271846821 1.3522246622 -1.4913085489
C 2.9366881458 2.4071464692 -1.5707223098
C 3.6494595848 2.6340591713 -0.2377752943
C 4.1352354043 1.3132045839 0.4014316654
C 3.0304377418 0.1954291509 0.3536433726
C 1.9633994311 0.4526503692 1.4536960137
C 0.5527827076 -0.0756280933 1.1768944373
C 0.5347650952 -1.4111867209 0.4343713818
C -0.9381148083 -1.9805648716 0.2440518193
C -1.7015433876 -2.0981824916 1.5866151741
C -3.1883604169 -2.3727744280 1.3631428809
C -0.8364335836 -3.4277341671 -0.3149544581
C 1.3503031330 -2.4243386780 1.2656640616
C 5.4293595164 0.8924114928 -0.3285111808
C 4.5653677745 1.5656306299 1.8595508174
O 2.7802602626 3.3201572530 0.6847893245
C 3.3402671391 -0.5773496921 -2.0898770518
C -5.2051973395 -1.5442324119 0.0928517450
O -5.0073571022 -2.2174676300 -1.1525415207
H -2.8803510242 3.5348551710 -1.8261190496
H -4.2014616444 2.5038907212 -1.2452388502
H -2.9196977089 1.8099793921 -2.2269749886
H -0.7773517208 2.8514152420 1.1099992238
H -1.1098745755 3.9681982427 -0.3305976240
H -1.9243028506 0.8663291771 1.3606517919
H -3.9243643677 2.0042980929 2.1628389361
H -4.8226509230 1.5366091875 0.7120913043
H -3.6465395670 -0.3364231647 2.8228998234
H -5.3255962824 -0.3062308486 2.2860870084
H -3.6038982684 -0.0292648771 -1.0156861406
H -2.3558096034 -1.8773784015 -1.3497751008
H -1.6131046548 -0.1400340889 -2.6470584116
H -0.7485636464 0.6644282960 -1.3516440667
H 0.7539417626 -0.5810146021 -2.9818425654
H -0.0125951866 -2.0613844566 -2.4990733643
H 1.8384140100 -2.1014843097 -1.1193854672
H 1.0656718689 1.7224587639 -0.7981293918
H 1.3511650130 1.2830346233 -2.4745416900
H 3.6754423879 2.1438230772 -2.3347362126
H 2.5051796806 3.3618472817 -1.9033119051
H 4.5416383982 3.2628375775 -0.4062825128
H 3.5617871310 -0.7354095201 0.5977440547
H 2.3315449140 0.0221316183 2.3910771373
H 1.8733915134 1.5251701640 1.6271053263
H -0.0043501712 0.6609452511 0.5966095388
H 0.0436670821 -0.1566489781 2.1433559121
H -1.2641898542 -2.8960650286 2.1950867158
H -1.6099308648 -1.1774113018 2.1700314559
H -3.2993600394 -3.2306090981 0.6866208579
H -3.6704301462 -2.6689733081 2.3035558276
H -0.0980145725 -3.5224223917 -1.1135368630
H -1.7928281904 -3.7590499084 -0.7291388480
H -0.5599161663 -4.1373449159 0.4700346904
H 1.4472721353 -3.3855771022 0.7564263026
H 0.8894877673 -2.5982227114 2.2436960434
H 2.3615285271 -2.0610939405 1.4495182305
H 5.3607287492 0.9355153446 -1.4143272150
H 5.7103552525 -0.1286051451 -0.0514856654
H 6.2487983653 1.5544951140 -0.0297644116
H 5.3504598548 2.3289557120 1.8843335238
H 4.9781929391 0.6447147559 2.2883606471
H 3.7538700966 1.9135632246 2.4960419055
H 2.4511535154 4.1076446006 0.2378401700
H 3.9939964074 0.1747445443 -2.5267167486
H 2.7834941613 -1.0231247853 -2.9201491133
H 3.9714435417 -1.3615469166 -1.6587848717
H -5.8196865335 -2.1580439321 0.7731240314
H -5.7821106707 -0.6457455784 -0.1567423293
H -4.6209002774 -3.0802366908 -0.9678332560
