65
CONF1037
C -4.3697121446 3.4471740950 0.0144075736
C -4.2953708289 2.5259661810 -1.2017315505
C -2.8557252258 2.2348448325 -1.6905774961
C -2.1519669746 3.4690652886 -2.2465237507
C -2.0579840627 1.6128128259 -0.5638888970
O -1.1518537068 2.1574150395 0.0371941255
O -2.5061731445 0.3686953424 -0.2929233930
C -1.8826887788 -0.3714674582 0.8012670821
C -2.9034686463 -0.5504958951 1.9110036750
C -2.2686171784 -1.2810982880 3.1051872294
C -1.4446789945 -2.4471194744 2.6432876978
C -1.0575749107 -2.6557324150 1.3705220811
C -1.4271901659 -1.7110558059 0.2454959496
C -0.2719377272 -1.6027845710 -0.7728006723
C -0.0467127709 -3.0057130111 -1.3777336683
C 0.1504525562 -4.0154210281 -0.2774213520
C -0.2891758749 -3.8265345604 0.9784911378
C 1.0945862137 -3.0612177236 -2.3973566073
C 1.0131019539 -1.0104851522 -0.1521064411
C 1.6464937619 0.0697424262 -1.0310649253
C 2.8144550761 0.7671346125 -0.3559473290
C 3.9907897339 -0.1351912744 -0.0424933263
C 5.1636478373 0.7028499102 0.4366124572
C 5.5788761707 1.6409668279 -0.6803350270
C 4.4405989330 2.3499364871 -1.3734261767
O 4.6201473496 3.3260876229 -2.0752435340
O 3.1909082425 1.8631069664 -1.2703038869
O 6.3134233998 -0.0877943371 0.7574812713
C -1.4367157100 -0.3387098935 3.9937219397
H -3.8496071411 3.0131144230 0.8760667439
H -3.9236674658 4.4251563384 -0.1889300372
H -5.4119233989 3.6102067963 0.3044446158
H -4.7861714031 1.5744671494 -0.9714246607
H -4.8407737799 2.9716602553 -2.0418514572
H -2.9315666384 1.4751944343 -2.4786422079
H -2.7422834025 3.8899963748 -3.0658275718
H -2.0225910710 4.2378731856 -1.4811077631
H -1.1608327311 3.2125124107 -2.6312070487
H -1.0341825496 0.2148582411 1.1594279645
H -3.2867269059 0.4272099519 2.2242322894
H -3.7468887478 -1.1338451171 1.5216344178
H -3.0831522396 -1.6736626986 3.7303079475
H -1.1424215697 -3.1654916963 3.4054851643
H -2.2856038728 -2.1496371817 -0.2882047194
H -0.6105004969 -0.9389345723 -1.5792655771
H -0.9705578853 -3.2696250510 -1.9181943069
H 0.6917937485 -4.9269199461 -0.5255304727
H -0.0903093104 -4.5726662162 1.7456528469
H 1.1524005741 -4.0586147205 -2.8451921167
H 0.9339339789 -2.3349485341 -3.2006645814
H 2.0626339969 -2.8498881861 -1.9312926949
H 0.7946555285 -0.5742133322 0.8308849738
H 1.7301940466 -1.8157055727 0.0399440766
H 1.9905044951 -0.3569421681 -1.9810056556
H 0.8899743042 0.8275333777 -1.2671022586
H 2.4704393745 1.2610249327 0.5632076766
H 4.2804422575 -0.7114298272 -0.9315590278
H 3.6868416267 -0.8393261653 0.7391320506
H 4.8539450193 1.2877168807 1.3171600429
H 6.0821293174 1.0509579651 -1.4594843114
H 6.2894050477 2.3997492642 -0.3430384724
H 6.0917096176 -0.6320593416 1.5237530702
H -0.6230054507 0.1213954010 3.4233940606
H -0.9907840115 -0.8887273433 4.8284595186
H -2.0673881704 0.4570317232 4.4035431097
