55
CONF339
C -6.4084479293 -2.7157687384 1.6217265877
C -5.0137475846 -2.1496204209 1.7340305383
O -4.7402901622 -1.4410382664 0.4889841797
C -3.5180334395 -0.8693036212 0.4047344179
O -2.6689312735 -0.9190765738 1.2792486326
N -3.3985139452 -0.2365426384 -0.8044137206
C -2.2981919489 0.4787223708 -1.2901476166
C -1.0336692810 0.4451575708 -0.6949277850
C 0.0153372684 1.1446076703 -1.2842257142
C -0.1951496428 1.9584557339 -2.3982232826
C -1.4619898593 2.0026755711 -2.9796109395
C -2.4958236531 1.2512302260 -2.4457459375
S 1.1490693331 2.9449372619 -3.0200346773
C 1.9235307216 3.3215998204 -1.4578180496
C 2.5273236218 4.5603173772 -1.2420816230
C 3.1285812632 4.8237080594 -0.0154936557
C 3.0992964351 3.8717524474 1.0031127844
C 2.4851307056 2.6411913031 0.7935491492
C 1.9200371463 2.3569577363 -0.4457568030
N 1.3288925814 1.0844862417 -0.7270625315
C 2.1492086870 -0.0377651590 -0.7779269644
O 3.2977494111 0.0100913489 -0.3516887469
C 1.6114342338 -1.2847655980 -1.4519342512
C 2.0917140709 -2.5498340325 -0.7480269770
N 1.5117547808 -2.6838075019 0.5937225951
C 2.3038894137 -3.6140164889 1.4103432862
C 1.7013025929 -3.7288274799 2.8000173427
O 0.3465824216 -4.1910988940 2.7425317118
C -0.4362954682 -3.2959696896 1.9423589037
C 0.1288270502 -3.1796063881 0.5377188877
H -7.1450148779 -1.9186688679 1.4875227551
H -6.6487375636 -3.2566238866 2.5415130820
H -6.4813755807 -3.4127538118 0.7822554197
H -4.2622317102 -2.9354812703 1.8592293381
H -4.9247414400 -1.4419353494 2.5640515606
H 1.8586791670 -3.4267622119 -1.3793431355
H -1.6422213969 2.6302067728 -3.8462806806
H -3.4779096076 1.2841674522 -2.9077066661
H 2.5206405580 5.3101368735 -2.0266543572
H 3.6031161741 5.7853270122 0.1506108232
H 3.5529437975 4.0884044218 1.9645237035
H 2.4553280798 1.8904150821 1.5750280528
H 0.5276685051 -1.2705189423 -1.5603484048
H 2.0239472426 -1.2666243771 -2.4704026362
H 3.1801296812 -2.4996267428 -0.6448207396
H 2.3470851653 -4.6202520214 0.9482587805
H 3.3296510565 -3.2350752492 1.4939398215
H 2.2571096152 -4.4566800780 3.3981513689
H 1.7354758773 -2.7486327809 3.3033023546
H -1.4506418188 -3.7037247893 1.9138620285
H -0.4651141018 -2.3027152427 2.4168612130
H -0.4976569152 -2.4875053429 -0.0356793759
H 0.0842459626 -4.1686583554 0.0400539039
H -0.8506170685 -0.1349109517 0.1985641679
H -4.2257139491 -0.2364771600 -1.3848840937
