54
CONF11
C 2.8833096299 -0.4975893946 2.4859596382
C 1.4279770344 -0.8488440754 2.8259522575
C 0.6364485673 -1.1688213372 1.5835616032
O 0.2540195202 -2.2771134018 1.2664671098
O 0.4388169890 -0.0493567748 0.8571372837
C -0.2886679692 -0.0902273153 -0.4208399844
C -1.7616544817 -0.4905413380 -0.1308623237
C -2.4024447046 0.2663883649 1.0049781882
C -3.0485723197 1.4893267425 0.7909303736
C -3.6224853987 2.1917880096 1.8476402363
C -3.5668185250 1.6790783834 3.1415826054
C -2.9460755310 0.4524426810 3.3659669048
C -2.3736381260 -0.2466038741 2.3063599320
C 0.3974853147 -1.0468780507 -1.3864074805
C 1.7811924829 -1.2466560823 -1.3291698075
C 2.4228683823 -2.0751079741 -2.2434066002
C 1.6949436271 -2.7180203017 -3.2421036172
C 0.3195523071 -2.5229041221 -3.3124764047
C -0.3229057744 -1.6959107016 -2.3930214206
C -0.1907037627 1.3806472078 -0.9180334415
C -0.8992752376 1.6084912447 -2.2537924965
C 1.2588716211 1.8864622621 -1.0224764516
N 1.3198776590 3.3562104635 -1.0221925410
C 2.5981783138 3.8038419346 -1.5784844729
C 1.1749550504 3.8815235985 0.3378646072
H 3.3675666308 -1.3205972801 1.9514989720
H 3.4448120771 -0.3093953228 3.4047014085
H 0.9510248464 -0.0060161553 3.3378109803
H 1.3842091905 -1.7241812085 3.4777169134
H -2.3422692651 -0.3263036505 -1.0408607007
H -1.7824715438 -1.5613298031 0.0815979914
H -3.1134373983 1.8932983936 -0.2152618664
H -4.1195364075 3.1383106910 1.6576683807
H -4.0147731054 2.2248374001 3.9661686957
H -2.9120594811 0.0342395837 4.3675470641
H -1.9103986107 -1.2117913207 2.4903917943
H 2.3671078347 -0.7622027062 -0.5555052013
H 3.4965738981 -2.2198327471 -2.1717729005
H 2.1949632710 -3.3657238133 -3.9553115075
H -0.2632490207 -3.0172134067 -4.0837198333
H -1.3956933103 -1.5639599826 -2.4739024035
H -0.6986931915 1.9709353284 -0.1465635202
H -0.7696577623 2.6551337198 -2.5416545122
H 1.6853211623 1.5283325153 -1.9674104619
H 1.8821608354 1.4784335694 -0.2085221541
H 2.6387867551 4.8983062756 -1.5745684355
H 2.6974229240 3.4580846525 -2.6127065829
H 3.4663326461 3.4275201987 -1.0024254073
H 1.1872315061 4.9761375081 0.3129631530
H 0.2240202059 3.5655373645 0.7767516789
H 1.9906816307 3.5397904579 1.0053204406
H 2.9343524189 0.3989004972 1.8617506318
H -0.4606998079 0.9836630779 -3.0389471366
H -1.9715564128 1.4028522968 -2.2118041282
