54
CONF2
C -2.0407699344 3.5565951224 2.3882155928
C -2.9121465959 2.4224874065 1.8419436083
C -3.9569628154 2.0038464109 2.8775891254
C -2.0263182183 1.2399611542 1.4413416147
C -1.0349796375 1.6102395402 0.3178012347
O -1.2581429158 2.4899907785 -0.5067852660
N 0.0780530974 0.8269503796 0.3070906667
C 1.0025833794 0.8317940298 -0.8188807931
C 0.5365315032 -0.1187769192 -1.9568088289
C -0.8427731291 0.2526271735 -2.4361309588
O -1.8710132284 -0.2461049495 -2.0304559376
O -0.7869652267 1.2386706489 -3.3501689367
C -2.0659785577 1.8033535942 -3.7120659820
C 2.3931137570 0.4477441145 -0.3677139539
C 3.4818303767 1.2627485644 -0.6714725956
C 4.7725828364 0.9116153659 -0.2891455457
C 4.9662774253 -0.2724783566 0.4095382794
C 3.8994215722 -1.1054472954 0.7276769995
C 2.6186504552 -0.7403571183 0.3318195923
Cl 6.5867152165 -0.7266338793 0.9018584834
N -2.8200922406 0.1020496357 0.9800461148
C -2.3175642085 -1.1648668777 1.0359755933
O -1.2674886083 -1.4767928934 1.5878863128
O -3.1657163917 -2.0336309441 0.4480226617
C -2.7213913445 -3.4227805571 0.3638201384
C -3.9848263651 -4.2355243184 0.1602557548
C -1.7289249018 -3.5727181942 -0.7755898295
H -1.5015321326 3.2280700259 3.2849353896
H -1.3144745907 3.8987551251 1.6476209465
H -2.6636141268 4.4104910920 2.6703984724
H -3.4160722895 2.7827239833 0.9348155417
H -3.4700477502 1.6301043208 3.7861615216
H -4.6174305147 1.2168689633 2.5055841611
H -4.5734798096 2.8630328549 3.1590025143
H 0.0545441321 0.0111504495 0.9109515909
H 1.2574344548 -0.0496143241 -2.7763935160
H 0.5080123614 -1.1461936556 -1.5853544288
H -2.7202364273 1.0320910185 -4.1263263368
H -1.8456225274 2.5663022321 -4.4582139406
H 3.3230529390 2.1911040993 -1.2123035590
H 5.6156036458 1.5502624234 -0.5253960001
H 4.0701471733 -2.0245785272 1.2757196397
H -3.4910199585 0.2743322947 0.2442752300
H -2.2459645169 -3.6763231023 1.3172894480
H -4.4763915395 -3.9501897526 -0.7747398433
H -4.6848498744 -4.0806568744 0.9852454653
H -3.7349058392 -5.2991085535 0.1098803706
H -2.1779776974 -3.2380712442 -1.7151162738
H -1.4341323608 -4.6222594940 -0.8739989744
H -0.8333755483 -2.9778675945 -0.5844534480
H 1.7912414480 -1.4003122320 0.5817549056
H -1.4683958552 0.8944166720 2.3202073157
H -2.5255762069 2.2484847408 -2.8258691002
H 1.0113356453 1.8525052477 -1.2129342619
