44
CONF19
C 0.0393132979 -2.6707777023 0.0874781368
C -1.0386888491 -1.6753234863 -0.3693384431
C -2.4138834390 -2.3289928548 -0.2157468517
C -0.7850514465 -1.2780858232 -1.8411209758
C 0.2638253161 -0.1459847427 -1.8172892352
C 0.3528095711 0.3284856810 -0.3466542749
C 0.4835998093 1.8513500943 -0.1981482634
C 1.7801744071 2.3479283283 -0.7834382637
C 2.9891458255 2.1313193295 -0.1134205506
C 4.2016232834 2.5509595647 -0.6504751017
C 4.1967873282 3.1970817812 -1.8813321820
Cl 5.7278342120 3.7379668272 -2.5739747213
C 3.0182259837 3.4327228870 -2.5754789629
C 1.8162734808 3.0042157197 -2.0158333423
C -0.8882336530 -0.2856462892 0.3416156543
O -1.9997712528 0.5612574755 0.0145351044
C -0.6821191301 -0.3152963938 1.8632820668
N -1.7815755609 -0.9427166313 2.5913088831
C -1.7654198323 -2.0372150227 3.3736510453
N -2.9900159195 -2.3053522350 3.8189877280
C -3.7360852839 -1.3166322070 3.2588016663
N -3.0474260280 -0.4615312569 2.5099340949
H 1.0521432545 -2.2768150276 -0.0384057413
H -0.0880899663 -2.9629416935 1.1345343073
H -0.0391949320 -3.5807651087 -0.5165937457
H -2.4837643548 -3.1760582590 -0.9076145772
H -3.2210677448 -1.6333074311 -0.4619811208
H -2.5797487041 -2.7196849074 0.7933735217
H -1.7196765285 -0.9157565661 -2.2805126875
H -0.4624395725 -2.1457285024 -2.4254013105
H -0.0440575576 0.6813077326 -2.4647547437
H 1.2420237383 -0.4813703762 -2.1740554660
H 1.2340820106 -0.1224723250 0.1237803746
H 0.4416441105 2.1271438296 0.8624373863
H -0.3578964593 2.3378993775 -0.6984723637
H 2.9868761314 1.6281372986 0.8501071862
H 5.1318284136 2.3819372342 -0.1194876839
H 3.0327677895 3.9425324896 -3.5323854599
H 0.8902132691 3.1891600428 -2.5527313377
H -2.7413402629 0.3087584587 0.5880672992
H -0.5750584282 0.7109627699 2.2297340496
H 0.2234295100 -0.8695401678 2.1194954438
H -0.8600761012 -2.5898942069 3.5887273142
H -4.8039399470 -1.2132382077 3.4047962497
