28
CONF10
C 1.5255838038 1.0237583198 -0.3414865835
N 0.2016661148 1.3824516277 0.0987594281
C -0.9788459981 1.2430760883 -0.7495568271
N -1.9432607630 0.2772158427 -0.2421337149
C -1.5252901113 -1.0227875844 0.3408557566
N -0.2009346653 -1.3783507028 -0.1012863749
C 0.9783753167 -1.2423274488 0.7485408641
N 1.9436273089 -0.2756236749 0.2431541293
N 3.1691585375 -0.7334260109 -0.1966616622
O 3.5520582455 -1.8304495624 0.1871591830
O 3.8058040675 0.0419997439 -0.9075820376
N -0.0632637191 -2.0505602010 -1.3089466000
O 1.0658601652 -2.4292964638 -1.5903931244
O -1.0691508125 -2.1789388322 -1.9918311305
N -3.1686480397 0.7351254275 0.1984648643
O -3.8053353098 -0.0414065943 0.9080625035
O -3.5521423336 1.8316600967 -0.1855269189
N 0.0629559264 2.0488571404 1.3089612534
O -1.0666223606 2.4254524960 1.5918744839
O 1.0680961532 2.1728483070 1.9942596891
H 2.2441447301 1.7887661924 -0.0423970787
H 1.5092261441 0.9549110305 -1.4339564260
H -0.6125962127 0.9192714992 -1.7273228194
H -1.5002352413 2.1953226338 -0.8615961461
H -2.2433083772 -1.7879583311 0.0409524380
H -1.5085879535 -0.9550600998 1.4334023265
H 0.6123628074 -0.9195392216 1.7267737113
H 1.4993021584 -2.1949916015 0.8594567920
