46
CONF5
C -1.3029183848 3.5085584222 -2.6008138779
C -1.2543869751 2.4955999979 -1.4711821571
C -2.4928983717 1.5889978423 -1.4568079957
O -2.9142572965 0.9013605821 -2.3514058654
N -2.9837041784 1.7068563077 -0.1670618390
C -2.2891692246 2.6693342524 0.5894544219
O -2.5334034600 2.9960397580 1.7154839281
O -1.3316091628 3.2113325926 -0.1996379760
N -4.0069017326 0.9416419696 0.3521765473
C -3.6153828163 -0.2008957171 1.0970356445
C -4.5152258428 -0.7183011355 2.0312834373
C -4.1986472003 -1.8752782908 2.7292887605
C -2.9877332281 -2.5266101884 2.5076444068
C -2.0980022851 -2.0052746752 1.5751123210
C -2.4019230910 -0.8481551731 0.8652300913
C -0.0121571256 1.6202735972 -1.4827376367
C 0.2100051811 0.7582264573 -2.5608779432
C 1.3214747636 -0.0705793541 -2.5832907469
C 2.2260829860 -0.0395730308 -1.5246935663
C 2.0241192614 0.8200762688 -0.4483877875
C 0.9024572581 1.6412314454 -0.4298549689
O 3.3384057144 -0.8413245906 -1.6412544406
C 3.9109110893 -1.3781460677 -0.5006127728
C 5.2994026721 -1.3920500175 -0.4383883457
C 5.9244027614 -1.9928629423 0.6495646925
C 5.1694208487 -2.5666172876 1.6682886387
C 3.7789977357 -2.5461765324 1.5898235692
C 3.1401505965 -1.9574587355 0.5043075706
H -2.2075581932 4.1184314489 -2.5294415275
H -0.4219034642 4.1525441220 -2.5516591835
H -1.3082446769 2.9819724232 -3.5573406280
H -4.6671285192 1.5318176112 0.8452602981
H -5.4608103126 -0.2137069176 2.2092162188
H -4.9031532277 -2.2663466751 3.4561913603
H -2.7425011387 -3.4294141281 3.0558559006
H -1.1523388463 -2.5040104020 1.3883967565
H -1.6974500500 -0.4653357960 0.1344855976
H -0.5075373094 0.7081153911 -3.3727244993
H 1.4982773372 -0.7497707119 -3.4097608057
H 2.7362769915 0.8476381709 0.3687009610
H 0.7478823347 2.3085113320 0.4094651269
H 5.8687441033 -0.9380105881 -1.2419087759
H 7.0082880785 -2.0065068772 0.7012094593
H 5.6604028890 -3.0301962680 2.5169217424
H 3.1832642842 -3.0002787755 2.3751806911
H 2.0579770312 -1.9456788394 0.4318655009
