49
CONF64
C 0.0708241226 -1.3141520456 0.9708739494
C 0.9802111964 -1.9312235708 -0.0853130350
N 0.8372348804 -1.2427347570 -1.3715625282
C -0.5453574770 -1.3125172308 -1.8541866555
C -1.5047347750 -0.6732116620 -0.8569452546
C -1.4019710428 -1.3188853586 0.5309206339
C -2.2736589886 -0.5701807473 1.5344059326
C -3.3798671112 -1.1766385194 2.1307060783
C -4.1767889455 -0.4895827221 3.0461231290
C -3.8557163573 0.8225196073 3.3576537735
C -2.7669520721 1.4628399823 2.7790329007
C -1.9854615504 0.7576411917 1.8703546782
Br -4.9433298452 1.7819383925 4.6193485167
O -1.8584262931 -2.6705216422 0.3667389217
C 1.7883610137 -1.7407607735 -2.3676357177
C 2.0701877757 -0.6946665980 -3.4424276610
C 2.5481665285 0.6099203709 -2.7961590929
C 1.4415884043 1.3006566249 -2.0239820488
O 0.4144693214 1.6351866682 -2.6147185507
C 1.6555938503 1.7256013685 -0.6069356128
C 0.7935896996 2.6901332300 -0.0689099728
C 0.9192823495 3.1120372027 1.2478389841
C 1.9179156366 2.5418180010 2.0214117242
C 2.7945706642 1.5866259138 1.5324538237
C 2.6597877792 1.1882997771 0.2080901916
F 2.0431239359 2.9368273745 3.3116569953
H 0.3883135901 -0.2830772030 1.1561967819
H 0.1686974651 -1.8641260231 1.9156255149
H 2.0223589096 -1.8361814304 0.2420034105
H 0.7633709936 -3.0121731698 -0.1849123527
H -0.6138480608 -0.7698890966 -2.8022588037
H -0.8390877430 -2.3612328372 -2.0461222240
H -1.2714511098 0.3925858767 -0.7676813674
H -2.5354703057 -0.7629807366 -1.2182986161
H -3.6349434364 -2.1999293256 1.8806323440
H -5.0316321581 -0.9764434165 3.5017119699
H -2.5273887347 2.4906188902 3.0276075829
H -1.1383454608 1.2669422565 1.4218932374
H -1.6158842008 -3.1684079818 1.1593193881
H 1.4354835268 -2.6822971792 -2.8288962157
H 2.7293843886 -1.9670058827 -1.8503259296
H 1.1807321652 -0.4996917509 -4.0508928099
H 2.8422278466 -1.0774843875 -4.1184722768
H 3.4301128891 0.4185177200 -2.1812069394
H 2.8472522040 1.3203173489 -3.5777884148
H 0.0147284386 3.1068113552 -0.6981578974
H 0.2594390181 3.8603150376 1.6739325040
H 3.5568410164 1.1646239226 2.1782424765
H 3.3264659684 0.4232177655 -0.1713163736
