47
CONF43
C -2.6762861241 0.1861517152 -4.2120559746
C -2.8948380103 -0.1548306099 -2.7558848633
C -4.3448206145 -0.0603024562 -2.3264061854
C -2.0721916150 -1.2149861830 -2.0926447425
C -0.9860717055 -1.9266439301 -2.7928774794
C 0.0200484349 -2.5321866827 -2.1642584101
Br 1.3735814110 -3.4861861277 -3.0986217065
Br 0.2229288527 -2.4984772370 -0.2712610818
C -1.8969868924 0.2750221402 -1.6901610607
C -0.5954474119 0.8932804780 -1.9747914977
O 0.0165762248 0.9256607991 -3.0210080361
O -0.0788465369 1.4108150796 -0.8148775348
C 1.2626151070 1.9491182943 -0.8989389210
C 2.2045516271 0.9279638110 -1.3820494086
N 2.9961859916 0.1483042938 -1.6985811513
C 1.6446774053 2.3782475245 0.4981420504
C 1.9905487943 3.6965149131 0.7675245147
C 2.3244046923 4.0515041846 2.0760799017
C 2.3051497960 3.1101857022 3.0949580321
C 1.9516831165 1.7891629763 2.8043302249
O 1.9569001108 0.9085836610 3.8596582656
C 1.5398510458 -0.3986653959 3.6033409036
C 2.4976619855 -1.3712476855 3.3488383433
C 2.0818645795 -2.6827774011 3.1301318741
C 0.7263652273 -3.0050226078 3.1642175470
C -0.2196470191 -2.0133502238 3.4210543193
C 0.1839167111 -0.6991092352 3.6435841878
C 1.6277242520 1.4138840842 1.5065520741
H -3.0147163934 1.2093050459 -4.4050774096
H -3.2760821375 -0.4903537124 -4.8306587483
H -1.6333275283 0.1133020765 -4.5158801629
H -4.4699573000 -0.3201656143 -1.2715121572
H -4.9547726556 -0.7446694443 -2.9255414707
H -4.7191783312 0.9570629754 -2.4805053210
H -2.5549064796 -1.7897748196 -1.3046408110
H -1.0000642163 -1.9797572687 -3.8781178307
H -2.3006193725 0.5238928807 -0.7148038806
H 1.2859562284 2.7935746695 -1.5963836215
H 1.9987015891 4.4358802337 -0.0263133117
H 2.5969829461 5.0768883761 2.3034924413
H 2.5592636756 3.3791036219 4.1147893830
H 3.5472093150 -1.0972481160 3.3194342614
H 2.8201756427 -3.4527111956 2.9300600940
H 0.4071970106 -4.0279659611 2.9925770120
H -1.2758047096 -2.2620207042 3.4497705643
H -0.5362471286 0.0886534666 3.8402520605
H 1.3580900968 0.3891889213 1.2750638192
