97
CONF180
C -0.9440153413 -5.5093928235 -1.0831217106
C -1.2873098472 -5.1223938352 0.3678650471
C -0.1034089912 -5.4433302996 1.2420092153
C 0.8145306660 -4.5745872989 1.7035554226
C 1.9291875545 -4.9783452301 2.5318536261
C 2.8678898391 -4.1666877052 3.0635018430
C 2.8602007424 -2.7008931327 2.8008700533
O 2.7073933679 -1.8902628526 3.7420297491
N 3.0565083214 -2.3249096122 1.5167410309
C 2.9480118073 -1.0367543097 0.9316331954
C 2.5339591369 -0.9884096261 -0.4057566764
C 2.4431683407 0.2040152134 -1.1016794721
C 2.6946168057 1.4291249020 -0.4335985998
C 3.1092724493 1.3865610340 0.9344174352
C 3.2916457900 0.1403155354 1.5909160925
O 3.8439054402 0.1273071390 2.8407104940
C 3.3152213614 2.6306418877 1.6432173276
C 3.0984598373 3.8848127905 1.0708166107
C 2.6810856538 3.8783866402 -0.2516922729
C 2.5012140103 2.7199633252 -1.0254614152
C 2.0421156383 3.1521389775 -2.2966729276
O 1.7182786551 2.5246889324 -3.3198328081
C 2.0043798364 4.6954113052 -2.2670228824
O 2.3758401828 5.0317481583 -0.8944006404
O 0.7387730036 5.2190411854 -2.5817608442
C -0.3886576882 4.5389907681 -2.1424871014
C -0.5758853577 4.0185520532 -0.9324552456
C -1.7406092758 3.1119161635 -0.6590520320
C -1.2519941556 1.6610276464 -0.4597712370
C -2.4033313684 0.6524510272 -0.5760428342
C -1.9646722383 -0.8197486815 -0.5753544376
C -3.1867025983 -1.7319550173 -0.3383304509
C -2.8759707594 -3.2431712983 -0.4334797594
C -1.7250131513 -3.6573541327 0.4915481183
O -2.1469006278 -3.3751763719 1.8472648192
C -4.1458698146 -4.0714565811 -0.2201928530
O -3.8277993826 -1.3985816704 0.9035547234
C -1.2027098401 -1.1905513670 -1.8528788707
O -3.0916124528 0.8873457238 -1.8489276359
C -4.3802049167 1.2824895915 -1.8391673746
O -5.0376255980 1.4680376609 -0.8332072575
C -4.8889767002 1.4479375108 -3.2413713179
C -0.5318917314 1.4843679885 0.8830996955
O -2.4702998006 3.4948749172 0.5122656838
C -3.2165582200 4.6950303683 0.3189400501
C 3.0088672341 5.3215973196 -3.2034229331
C 3.2803434493 5.1400396532 1.8679064665
O 3.6910783062 2.6392102573 2.9244793661
O 2.0994209780 0.1186989437 -2.4071593348
C 3.9134993422 -4.6296671099 4.0335242440
H -1.8335711834 -5.5168662903 -1.7190206798
H -0.5000238045 -6.5088172466 -1.1130964981
H -0.2168874351 -4.8032171817 -1.4997898429
H -2.1200675906 -5.7548071518 0.7038160515
H 0.0256542412 -6.5001340822 1.4789330141
H 0.7204951482 -3.5138066249 1.4770048660
H 1.9745698472 -6.0349285430 2.7948442627
H 3.1632199194 -3.0865946045 0.8583861589
H 2.2869750947 -1.9103181118 -0.9241669326
H 3.3995173279 -0.6361353963 3.3638416970
H -1.1311464395 4.4661784139 -2.9342169311
H 0.1490718118 4.1548369126 -0.1373385991
H -2.4119343274 3.1453287841 -1.5319605922
H -0.5392116158 1.4795520394 -1.2739631519
H -3.1160016706 0.8242792351 0.2326990160
H -1.3013331155 -0.9400627291 0.2900265518
H -3.9299463840 -1.5125874595 -1.1191662425
H -2.5289601492 -3.4117484331 -1.4583848627
H -0.8581047841 -3.0265504263 0.2484320367
H -1.4069410527 -3.5614544842 2.4405226129
H -4.4817519301 -4.0277616638 0.8186405218
H -3.9854779221 -5.1208661886 -0.4840312290
H -4.9526433034 -3.6875218782 -0.8529374667
H -3.3123879060 -1.8507834832 1.5920366348
H -0.6700748749 -2.1381180720 -1.7387986491
H -1.8875091632 -1.2870773336 -2.7014475904
H -0.4557905655 -0.4340065288 -2.1049642964
H -4.9048500514 0.4708538265 -3.7348383392
H -5.8941644672 1.8671501151 -3.2249129957
H -4.2165863101 2.0935784264 -3.8127022882
H 0.0759959141 0.5760138524 0.8903758697
H 0.1408982042 2.3226137801 1.0832446005
H -1.2504880328 1.4263618283 1.7062463190
H -2.5594254361 5.5475324284 0.0987813818
H -3.7580416816 4.8872045302 1.2479222542
H -3.9369218726 4.5809667966 -0.5050884085
H 4.0157203459 4.9855811034 -2.9446138463
H 2.9539570420 6.4098077374 -3.1171635891
H 2.7786156904 5.0215070105 -4.2283181539
H 3.1296484820 6.0198539305 1.2421104595
H 2.5702586846 5.1790315574 2.7008448760
H 4.2856161621 5.1820950844 2.2980935848
H 3.8118831838 1.6953732973 3.2097853757
H 1.9445278261 1.0176551468 -2.8169788803
H 3.8406012220 -5.7079018397 4.1896193210
H 3.7920987810 -4.1241353526 4.9982279603
H 4.9200704120 -4.3902516807 3.6704784571
