52
CONF36
C -2.9205531333 3.8316996585 1.5830174226
C -1.6049359395 3.0876641346 1.8221052546
C -0.5743807847 4.0118018546 2.4708869177
C -1.0593714881 2.5344713718 0.4898083317
C 0.2741721304 1.8131866509 0.6084833540
C 0.4235443113 0.7223347131 1.4690178725
C 1.6421605822 0.0624547442 1.5798354196
C 2.7117803556 0.4947799900 0.8046864703
C 2.5901454284 1.5656906745 -0.0708960063
C 1.3645330358 2.2197197965 -0.1609128410
Cl 4.2592563692 -0.3307093195 0.9417745777
C -2.0110597189 1.5357342549 -0.1337387366
O -2.6920884845 0.7276602812 0.4510610814
O -1.9530186914 1.6094929707 -1.4962556474
C -2.6044966425 0.5352801019 -2.2175323824
C -4.0494595294 0.5463892683 -1.9743433979
N -5.1973571146 0.5785397145 -1.8555028244
C -1.9470243092 -0.8094163776 -1.9623753004
C -0.5562971888 -0.8418095396 -1.8812053608
C 0.0858291825 -2.0584376449 -1.6818902008
C -0.6376590449 -3.2468794536 -1.5900560888
C -2.0236683158 -3.1952824254 -1.6763638339
C -2.6872703785 -1.9834237652 -1.8550046493
O 1.4638375740 -2.0210494057 -1.6667957400
C 2.1690650661 -2.9004481094 -0.8599673871
C 3.3776435346 -3.3699172611 -1.3631169530
C 4.1771325639 -4.1808889005 -0.5630038704
C 3.7682640577 -4.5253179920 0.7236245513
C 2.5521176194 -4.0487772386 1.2100021967
C 1.7451180222 -3.2312342111 0.4245947323
H -2.7571231197 4.6877164316 0.9177287029
H -3.3203910100 4.2106657884 2.5283609129
H -3.6803575596 3.1860197069 1.1315196581
H -1.7946182385 2.2381792010 2.4898525480
H 0.3556087176 3.4844668066 2.7024281394
H -0.9733198155 4.4258479599 3.4018556314
H -0.3357942741 4.8484334420 1.8032635928
H -0.9326859746 3.3647684791 -0.2133417197
H -0.4164648178 0.3792499495 2.0648125862
H 1.7574922931 -0.7769153139 2.2555204391
H 3.4345090448 1.8884381917 -0.6693078598
H 1.2616831518 3.0607886229 -0.8402432428
H -2.4617574978 0.8192034524 -3.2672002772
H 0.0371903113 0.0626389261 -1.9626258227
H -0.1255592272 -4.1925883880 -1.4526401394
H -2.5960565228 -4.1141504038 -1.6018069524
H -3.7706121510 -1.9608460102 -1.9060783523
H 3.6822142115 -3.0894134766 -2.3659998691
H 5.1225703609 -4.5463772775 -0.9514515267
H 4.3931037723 -5.1590103002 1.3441371039
H 2.2291376008 -4.3047867822 2.2143414232
H 0.8052718712 -2.8483750355 0.8069376545
