44
CONF69
C -4.1865039931 -1.7467233653 1.0009786775
C -2.6771725911 -1.6741249236 0.8709686712
C -2.0983081027 -2.5453399329 -0.2468415258
O -2.0764658408 -1.6544660771 -1.3695355063
C -1.7444467679 -0.3818910033 -0.8368582273
O -2.2786426599 -0.3427601823 0.4732938509
C -2.4133056011 0.6751348940 -1.7334254837
N -3.8534691738 0.5427863093 -1.7649563707
C -4.6107716653 -0.3488564473 -2.4463482759
N -5.8909443482 -0.1794159460 -2.1604924203
C -5.8579431908 0.8539710886 -1.2713402857
N -4.6495256580 1.3253593480 -0.9964677147
C -0.2249614126 -0.1770817116 -0.8232925808
C 0.5866449434 -1.0409882249 -1.5646595303
C 1.9677386643 -0.9274439549 -1.5854074513
C 2.5719664256 0.0928416480 -0.8585622693
C 1.8011812875 0.9970389180 -0.1346763546
C 0.4181297132 0.8523630117 -0.1270508283
Cl -0.4792482684 2.0526514615 0.7848218611
O 3.9395240090 0.1960047306 -0.9557674710
C 4.6503488432 0.7892250098 0.0732317783
C 4.4842163438 0.3902846812 1.3967102956
C 5.2736731761 0.9604808007 2.3872168288
C 6.2248361072 1.9136705903 2.0374764949
C 6.4002243087 2.3055440964 0.7158934225
C 5.6019026474 1.7401529863 -0.2724281953
Cl 7.2217380893 2.6300429812 3.2879149458
H -4.6687927172 -1.6264470452 0.0262168699
H -4.5436288555 -0.9537497046 1.6625376345
H -4.4816181551 -2.7133809658 1.4235366862
H -2.1927789556 -1.8885537546 1.8313855346
H -1.0805903671 -2.8885079297 -0.0119830163
H -2.7304767987 -3.3970964431 -0.5076887735
H -2.1753743342 1.6723586822 -1.3614174319
H -2.0117093520 0.5616794283 -2.7455807939
H -4.1865636427 -1.0818404231 -3.1184073054
H -6.7452169411 1.2754954439 -0.8176844396
H 0.1063370679 -1.8328264237 -2.1281782976
H 2.5833445975 -1.6125708358 -2.1566558513
H 2.2637430573 1.8105848415 0.4104109622
H 3.7430202814 -0.3602614045 1.6491164506
H 5.1583553260 0.6608071027 3.4222018092
H 7.1474427359 3.0480789531 0.4619967491
H 5.7140907843 2.0277698988 -1.3117255295
