76
CONF1806
C 2.5397140429 -2.5416549914 -1.1764646101
C 2.8484820513 -1.2984278811 -0.3390399129
C 3.8771481078 -1.6352615228 0.7564772592
C 5.2726517405 -1.9877779325 0.2007450160
C 6.2467609403 -2.1628455086 1.3222598301
O 6.2373868113 -3.4215927997 1.8163507690
N 7.0052784242 -1.2860628178 1.8550012669
C 7.0173135218 0.0740407515 1.3468752922
C 7.9646124563 0.9228024320 2.1803249981
O 8.5846926480 0.2709677331 3.1706850246
O 8.1555634306 2.1037980492 1.9743950730
C 1.5969815920 -0.6813919100 0.3136541230
C 1.9281037840 0.6173688714 1.1142897100
C 0.6903244597 1.5428347486 1.0172184048
C -0.3792045971 0.6550953442 0.3829778485
C -1.5941392600 1.3326365162 -0.2397468053
C -2.3062877041 2.2588311571 0.7503476237
O -2.5473498975 1.5209809348 1.9685169472
C -3.5912002857 2.8374504245 0.1561382460
C -4.5294893114 1.8010890514 -0.4797541607
C -5.2692631055 0.9652978131 0.5811365438
C -6.2233610480 -0.0442400123 -0.0415472222
O -6.8553318251 -0.8640504414 0.9628373084
C -5.4711236145 -0.9633170819 -0.9861159572
C -4.7780823462 -0.1305463219 -2.0622377214
C -3.7834530692 0.9197289748 -1.5197451866
C -3.3672176284 1.7829225901 -2.7246129273
C -2.5504363677 0.2675893327 -0.8264045155
C -1.7986862480 -0.7182198187 -1.7346003607
C -0.5376133598 -1.3318400214 -1.1103384320
O -0.8795855082 -2.1948377346 -0.0058714429
C 0.4142406968 -0.2376125452 -0.6018460807
C 0.9601749917 0.5532712984 -1.8023101156
H 3.4561649457 -3.0169732958 -1.5385163059
H 1.9396673427 -2.3003994449 -2.0557476046
H 1.9896982156 -3.2789003263 -0.5797865861
H 3.3042159496 -0.5375813667 -0.9904026641
H 3.9859777523 -0.7811133192 1.4312417425
H 3.5046259230 -2.4735212786 1.3602954317
H 5.6142215477 -1.1873748595 -0.4626330880
H 5.2406521340 -2.9165498045 -0.3744049169
H 6.8462848613 -3.4594046744 2.5727933048
H 6.0346371306 0.5659594152 1.3851533535
H 7.3663474320 0.1410711672 0.3061485671
H 8.2524588669 -0.6597330575 3.1172175981
H 1.1945220811 -1.4253125113 1.0135420738
H 2.1634833860 0.3819251602 2.1561488938
H 2.8160911193 1.1043303639 0.6933690058
H 0.8953328137 2.4106738617 0.3785466026
H 0.3827418278 1.9281062037 1.9937510028
H -0.7482677940 -0.0223547386 1.1630751856
H -1.2432151709 1.9881357672 -1.0475251619
H -1.6280931936 3.0962598764 0.9824004418
H -3.1117345223 2.0685239819 2.5282265449
H -3.2938359411 3.5720508796 -0.6022358792
H -4.1272750061 3.4010764955 0.9326887508
H -5.2994639571 2.3580998540 -1.0365289931
H -4.5581998713 0.4219733340 1.2106632600
H -5.8262894212 1.6455437670 1.2407692692
H -7.0003839949 0.4902092602 -0.6150724979
H -7.3169919055 -0.2731629232 1.5713023431
H -4.7419166102 -1.5494970951 -0.4107840928
H -6.1669142142 -1.6733372212 -1.4489193266
H -5.5486219286 0.4123666305 -2.6286453168
H -4.2761314635 -0.7817374272 -2.7851281861
H -2.9701479733 1.1612823620 -3.5334358586
H -4.2433169642 2.3120080305 -3.1164379920
H -2.6111354844 2.5309862089 -2.4774622978
H -2.9212256003 -0.3121124936 0.0276953042
H -2.4599591029 -1.5477586476 -2.0140587126
H -1.5119752723 -0.2341599064 -2.6747310345
H -0.0412871821 -1.9313768700 -1.8859933664
H -1.5460679532 -2.8153986210 -0.3258261283
H 1.7097970641 1.2824721363 -1.4831923534
H 1.4396044892 -0.1196696043 -2.5208836531
H 0.1783193438 1.0973480176 -2.3366561561
