54
CONF14
C -6.1863732743 1.2827836327 -0.0849114589
C -4.6955474704 1.2774882948 0.2283990298
C -3.7785662037 1.3527549306 -1.0486790189
N -2.5375809215 0.7021776948 -0.6713435653
C -2.4922434669 -0.0614008942 0.5882578024
S -4.2437172810 -0.3603069644 1.0258616288
C -1.6736027311 -1.1594309855 -0.1618717152
C -1.7515007627 -0.2001251345 -1.3735828183
O -1.3468274244 -0.2067531370 -2.5127639620
N -0.3993887578 -1.5919729764 0.3236064705
C 0.6489136439 -0.7412479929 0.4113401414
O 0.5790905610 0.4399906410 0.0784956837
C 1.9333429978 -1.3402101535 1.0019949989
C 1.9679844141 -1.1140874391 2.4968097225
C 2.0379298589 -2.2110823044 3.3569478255
C 2.0497366947 -2.0239725072 4.7373726794
C 1.9885496855 -0.7380373698 5.2676136371
C 1.9150828913 0.3601402419 4.4118711070
C 1.9035434808 0.1750281289 3.0330723750
C 3.1091156907 -0.7207429062 0.2619442832
O 3.9569451102 -0.0001874033 0.7214750207
O 3.0628681189 -1.1181757245 -1.0387649120
C 4.0520236115 -0.6090915505 -1.9011143882
C 3.7671299443 0.5337440328 -2.6320487606
C 4.7216087875 1.0013028907 -3.5327563469
C 5.9320860153 0.3279666003 -3.6859855040
C 6.1930750323 -0.8186702615 -2.9378735751
C 5.2475254721 -1.2982026996 -2.0342935726
C -4.4239950229 0.6496050364 -2.2386187143
O -4.3893283193 -0.5427478946 -2.4425985274
O -5.0709271549 1.5319807318 -3.0169103235
C -4.3396620532 2.4378246583 1.1594622300
H -6.4498648273 2.2124668193 -0.5990983041
H -6.7549318221 1.2405224961 0.8479756024
H -6.4820209433 0.4353117971 -0.7096626434
H -3.6341709573 2.4095603829 -1.2977776368
H -1.9457931078 0.4412098233 1.3912681191
H -2.2990316752 -2.0326648189 -0.3670301764
H -0.2941098113 -2.5517025372 0.6186947831
H 1.9608940902 -2.4155405309 0.7955840988
H 2.0849081458 -3.2150671838 2.9448607602
H 2.1065384997 -2.8844733469 5.3966963109
H 1.9975008471 -0.5907557039 6.3430553725
H 1.8663732928 1.3651449303 4.8193985396
H 1.8439289661 1.0321525783 2.3707013058
H 2.8172293628 1.0404275847 -2.4965579968
H 4.5154334893 1.8932117789 -4.1155794613
H 6.6716284626 0.6956642334 -4.3897093275
H 7.1344193861 -1.3455069587 -3.0564790325
H 5.4284726444 -2.1894910810 -1.4426532669
H -5.5229790684 1.0441117255 -3.7278372662
H -4.6139271563 3.3833619828 0.6781774715
H -3.2709731933 2.4677909960 1.3887738192
H -4.8968164847 2.3479228056 2.0950759495
