22
CONF22
C 2.4956895531 -0.3216936019 0.4246280069
C 1.1472442342 0.3813748044 0.3858578781
C -0.0031893630 -0.5774341792 0.0759835981
C -1.3543314933 0.1574091992 0.0147360282
C -2.5273705406 -0.8049621856 0.0797294644
O -3.7801406144 -0.1136823674 0.0543865209
O -1.4903205747 0.8671878097 -1.2286457056
O 0.2206989352 -1.3200297871 -1.1240689860
O 1.1605116363 1.4176687020 -0.6103422985
O 3.5530839839 0.6252910784 0.6440881821
H 2.6997239949 -0.7863637993 -0.5435881641
H 2.4885107476 -1.0998031562 1.2004348242
H 0.9494004542 0.8242074479 1.3775357560
H -0.0404911087 -1.3066832967 0.8958688910
H -1.4178905625 0.8577050063 0.8617824361
H -2.4596526411 -1.5225115683 -0.7510872617
H -2.4911831239 -1.3579187637 1.0230778091
H -3.7812359075 0.4283245127 -0.7456949426
H -0.7873095431 1.5348177185 -1.2476961605
H -0.0451684749 -0.7394234860 -1.8531599857
H 1.9835361275 1.9119550822 -0.4870200070
H 3.4798850798 0.9445650155 1.5531941217
