44
CONF4
C -4.3823961903 1.5282607215 2.4856090730
N -3.2501553083 1.2360411232 1.5982306251
C -3.5374061027 1.6090198992 0.1944440806
C -4.4974386625 0.5055003931 -0.3318690036
C -4.1400547506 -0.7343561853 0.5283930624
C -3.0127939239 -0.2194544094 1.4677076164
C -1.6247316507 -0.4078562574 0.8415453918
C -1.5987323991 0.2161896553 -0.5501048243
C -2.2024004756 1.6130667924 -0.5634594668
O -0.2128239625 0.3494701669 -1.0123606522
C 0.3729225880 -0.7339193502 -1.5359753262
O -0.1831617239 -1.8045333600 -1.7058965653
C 1.8243009494 -0.4527772929 -1.8876529864
C 2.4427353231 -1.6465627359 -2.6288066450
O 1.7805556755 -1.9332713525 -3.8593498143
C 2.6220869009 -0.1269112450 -0.6427550474
C 2.5583039080 -0.9649815736 0.4751377779
C 3.3188357758 -0.6898286657 1.6078597624
C 4.1563253574 0.4239262934 1.6345412735
C 4.2272696454 1.2606679508 0.5231892873
C 3.4634921836 0.9865257587 -0.6090823533
H -5.3284045205 1.0440302427 2.1896916326
H -4.1374971694 1.1982444115 3.5005422978
H -4.5495743002 2.6101049387 2.5103199478
H -3.9834843676 2.6077691689 0.1556098059
H -5.5390686411 0.8012308162 -0.1816902186
H -4.3605217389 0.3305029049 -1.4032584986
H -3.8037727853 -1.5839607815 -0.0735115595
H -5.0016256080 -1.0705096281 1.1113127291
H -3.0375851321 -0.6938739397 2.4538467368
H -1.3749495781 -1.4721881675 0.7802951284
H -0.8775823839 0.0881190026 1.4720358466
H -2.1171270189 -0.4299818596 -1.2642047801
H -1.5178791331 2.3120074413 -0.0700659039
H -2.3493103052 1.9450151184 -1.5971257776
H 3.4788014512 -1.3984859353 -2.8776013931
H 2.4487615784 -2.5243393523 -1.9673620973
H 3.2563318477 -1.3453758623 2.4709978445
H 4.7488769419 0.6391428605 2.5181739277
H 4.8760920565 2.1310822747 0.5374442919
H 3.5176044428 1.6425904557 -1.4735109106
H 1.9053478705 -1.8344624289 0.4636077313
H 1.8334868177 0.4190403424 -2.5528279709
H 0.9033778539 -2.2677464231 -3.6262434967
