47
CONF54
C -0.2943031597 3.2532763172 -2.4831533923
O -1.1764873175 2.4698767059 -1.6529174100
C -0.9104793275 1.1629708591 -1.6266766497
C -1.5541754022 0.3178088159 -0.7908941342
C -2.5830371152 0.7679051362 0.1695419116
C -3.8068024588 1.3032465582 -0.2339703862
C -4.7591918787 1.6939737476 0.7016450942
C -4.5009875943 1.5548911732 2.0619413753
C -3.2801667432 1.0414818159 2.4898544230
C -2.3443318320 0.6699840268 1.5426405105
O -1.1339381473 0.1091033387 1.9673959176
C -0.0090455478 0.8327208823 1.7339692702
C 1.1717639236 0.1209454277 1.5452543249
C 2.2943488374 0.9042098922 1.3216063429
N 2.2866818201 2.2316306556 1.3434741604
C 1.0908976291 2.7835447063 1.5453313974
N -0.0750294806 2.1594888652 1.7250053561
O 3.5258866829 0.3510695550 1.0663782616
C 3.5342767253 -0.9315041013 0.5574260812
C 4.0216074115 -1.9725981057 1.3300927043
C 4.0489301629 -3.2594685905 0.8000130994
C 3.5813395457 -3.5042057804 -0.4893137528
C 3.1053149585 -2.4596506512 -1.2684368864
C 3.0923051578 -1.1573062428 -0.7562509967
C 2.6681044717 -0.0618745886 -1.5557729146
N 2.3710493848 0.8429335271 -2.2141239693
C -1.1241450247 -1.0879871098 -0.8410196857
O -0.1435572710 -1.5187251851 -1.4251336149
O -1.9666319213 -1.8865982440 -0.1398202692
C -1.5860467003 -3.2715614980 -0.0952726213
H -0.3433442766 2.9104933244 -3.5222640769
H 0.7341679953 3.1777619968 -2.1182034783
H -0.6515168339 4.2804596368 -2.4120409411
H -0.1355412087 0.7911707486 -2.2951977544
H -4.0094501941 1.3955390684 -1.2959456105
H -5.7075657478 2.1011601195 0.3672471170
H -5.2438609963 1.8549630017 2.7935072755
H -3.0401745560 0.9425049563 3.5424713752
H 1.1784832523 -0.9608144885 1.5247554765
H 1.0603955168 3.8724463256 1.5607107564
H 4.3641177134 -1.7624404106 2.3370930630
H 4.4284099311 -4.0770021254 1.4038849730
H 3.5916465501 -4.5114283825 -0.8903229129
H 2.7358268621 -2.6307903604 -2.2723625952
H -2.3366810729 -3.7595681332 0.5266169474
H -0.5903220948 -3.3823415317 0.3447949901
H -1.5787409255 -3.7016957498 -1.1007597496
