48
CONF15
Cl -4.0887976974 2.5671204662 -2.9929758007
C -3.7446936996 2.2931591766 -1.2795297274
C -4.3437591509 3.1146027010 -0.3384988102
C -4.0308408036 2.8754613921 1.0011102993
C -3.1656469941 1.8597250702 1.3749626263
C -2.5656354808 1.0294285976 0.4060751642
C -2.8661634314 1.2700646353 -0.9479565719
N -1.7244740440 -0.0200193851 0.7967543662
C -0.6763800449 0.3297789023 1.7739910857
C 0.0298822517 -0.9108337491 2.2914180686
N 0.6114181113 -1.6653206486 1.1832049891
C 1.4011224361 -2.8019354818 1.6726863840
C 2.3462910842 -3.3931940819 0.6271334146
C 3.5076011040 -2.4796895819 0.2276561575
N 3.0783572620 -1.2808650292 -0.4748903449
N 2.4880875113 -1.3910618597 -1.7152734232
C 1.9901475100 -0.1925755117 -1.9437973684
C 1.2670922729 0.3085950433 -3.0526951719
C 0.8165142422 1.5982244452 -3.0067966558
C 1.0719544349 2.4373220765 -1.8781191089
C 1.7847888220 1.9626622856 -0.8237214049
N 2.2397380760 0.6699369042 -0.8768054748
C 2.9284460045 -0.0544195702 0.1122359683
O 3.3043576017 0.3590549432 1.2074532610
C -0.4767821736 -2.0849989462 0.3019005479
C -1.2016479615 -0.8762989206 -0.2695867088
H -5.0258194925 3.9038745631 -0.6299473758
H -4.4876098540 3.4925131264 1.7687843100
H -2.9765992532 1.6914763532 2.4284756514
H -2.4142627468 0.6884735391 -1.7397149027
H 0.0656877855 0.9978161819 1.3014413357
H -1.1171987066 0.8590730545 2.6199367867
H 0.8301945783 -0.5922972244 2.9691636715
H -0.6845803384 -1.5273548160 2.8745902328
H 2.0016786169 -2.4457668852 2.5199141119
H 0.7433833178 -3.6042834391 2.0617848570
H 1.8017074667 -3.7064034335 -0.2700488903
H 2.7897843503 -4.3017750372 1.0509868478
H 4.2055441579 -3.0196800622 -0.4207988765
H 4.0535312954 -2.1393782035 1.1129764119
H 1.0754707616 -0.3454386593 -3.8953196637
H 0.2474540666 1.9977486515 -3.8392749120
H 0.7020283192 3.4546477132 -1.8556264102
H 2.0325778833 2.5219093124 0.0708367664
H -1.2001996379 -2.7302412117 0.8414380143
H -0.0762160616 -2.6611271265 -0.5380663451
H -2.0369345544 -1.2334988959 -0.8806931425
H -0.5105985731 -0.3197716943 -0.9267737316
