48
CONF37
C -5.8068217727 0.4846736061 0.0693053140
C -4.5022670476 0.8583968800 -0.6191598960
C -3.3122179399 0.5044984217 0.2642281258
N -2.0380383381 0.8345113155 -0.4126274411
C -1.9287495412 0.1561903493 -1.7089345534
C -3.1316016250 0.5138924878 -2.5699831940
N -4.3676868901 0.1233086949 -1.8851746402
C -0.8998374984 0.9082516853 0.3699840892
C -0.8375456902 1.7902211225 1.4833224831
C 0.2696883284 1.9277603347 2.2687985047
C 1.4331693184 1.1929239374 1.9821359543
C 1.4133658882 0.3326744217 0.8657358344
C 0.2670664882 0.1939551583 0.0810618571
N 2.5675869583 -0.3999468334 0.5657570835
C 3.6826190724 -0.2749409428 1.3131306049
C 3.7646802935 0.5613347528 2.3972334452
C 2.6222568475 1.3457460568 2.7957456875
O 2.6507386432 2.1172139244 3.7942042179
C 5.0471344833 0.6170872923 3.1417889630
O 6.0333735362 -0.0321418782 2.8315844407
O 5.0531502852 1.4400765902 4.1929278779
C 2.5868603271 -1.3012932449 -0.5492508412
C 1.9885078877 -2.5537179203 -0.4383847949
C 1.9875876271 -3.4601395726 -1.4826285614
C 2.6186620052 -3.0664768755 -2.6528783594
C 3.2316990544 -1.8335402329 -2.8115436172
C 3.2060472036 -0.9462189290 -1.7425323751
F 2.6319092505 -3.9328935926 -3.6856087400
F 1.3883805225 -2.8849074593 0.7176820268
F -1.9069987506 2.5787849320 1.7433861845
H -5.9266069076 1.0496513525 0.9986199309
H -6.6598441918 0.7106547690 -0.5784983150
H -5.8254763828 -0.5850302329 0.3029788032
H -4.4772417719 1.9526619291 -0.7880998645
H -3.3836289380 1.0442610924 1.2077633122
H -3.3348126084 -0.5779243263 0.4798271966
H -1.8747058770 -0.9391929791 -1.5808705813
H -1.0177322768 0.4951935337 -2.2116063922
H -3.0955498044 1.5969346988 -2.7893792660
H -3.0555240769 -0.0272885184 -3.5191383127
H -5.1601207355 0.3485201062 -2.4793886707
H 0.2675704964 2.6301847366 3.0945299828
H 0.2780155284 -0.4932201040 -0.7536061537
H 4.5287072470 -0.8838492800 1.0126686522
H 4.1270210752 1.8608651299 4.2441865931
H 1.5191226958 -4.4322599436 -1.3845484315
H 3.7112904894 -1.5778311381 -3.7487851966
H 3.6667957996 0.0323845016 -1.8259597769
