38
CONF25
C -5.0764223124 -0.8520437336 -0.2084505322
C -4.4440643186 -1.5212751569 -1.4109920271
O -3.0197828321 -1.2304270836 -1.4689226966
C -2.2311014754 -1.9915878953 -0.6735710714
O -2.6182913825 -2.9346562142 -0.0289846439
C -0.7799160306 -1.5666000830 -0.7660721375
C -0.5706475018 -0.0723112071 -0.9910217470
C -1.1274762448 0.7396976845 0.1762771380
O -1.9138347512 0.2728421545 0.9671804779
O -0.7239324161 2.0151649944 0.1572763203
C -1.1884827370 2.8250231666 1.2726923367
C -0.4636920213 4.1466667206 1.1889720604
S 1.1630815577 0.3492404370 -1.4888791883
P 2.2961382468 -0.2000473733 0.2006051042
S 1.4915986446 0.0155205383 1.9507567069
O 3.6550154527 0.6369096915 -0.0832200884
C 3.7090758064 2.0293761043 0.3008055907
O 2.7901954873 -1.6813674322 -0.1932170075
C 3.5583424769 -2.4462519240 0.7698344889
H -4.6566982623 -1.2495390460 0.7180214540
H -4.9066433644 0.2277434404 -0.2328251069
H -6.1554805413 -1.0368578543 -0.2125007439
H -4.8368368702 -1.1241956313 -2.3503964737
H -4.5798031588 -2.6061697831 -1.3858726190
H -0.2902246460 -1.8915415675 0.1545550020
H -0.3310827714 -2.1201055372 -1.5985903396
H -0.9643830180 2.2873600447 2.1991891703
H -2.2751452651 2.9373546420 1.1933379971
H -0.7866407385 4.7944544081 2.0091616246
H 0.6162398980 3.9963621303 1.2723958130
H -0.6756633562 4.6533858556 0.2435963721
H 4.7032583575 2.3767367474 0.0173298075
H 3.5617542177 2.1294506684 1.3801276065
H 2.9443410376 2.6016990279 -0.2353982186
H 3.7106391966 -3.4235268828 0.3112111443
H 4.5225213472 -1.9630731595 0.9545076116
H 3.0005851211 -2.5468028606 1.7051894044
H -1.1351585326 0.2478320628 -1.8764632366
