73
CONF1729
C -0.0754354400 1.1205722332 2.4864193248
C -1.5075555962 1.2532818685 2.0143045391
O -1.4604938881 1.3633438210 0.5739497052
C -2.7188749328 1.4512358074 -0.0556160381
O -3.5263971859 0.3075894643 0.1823523808
C -3.4668790998 -0.7673757546 -0.7582722074
C -4.7009755381 -1.6141307527 -0.4434423514
O -5.8997684842 -0.9227349342 -0.7891583003
C -4.7034090055 -2.9347608549 -1.1996807455
O -5.7689448523 -3.7718348738 -0.7557198009
C -3.3879803798 -3.6561769732 -0.9263668800
C -3.2449188214 -4.9548936485 -1.6952232717
O -2.0213713003 -5.6205135804 -1.3800825618
O -2.3160411210 -2.8064295548 -1.3707940470
C -2.2033928658 -1.6170886122 -0.6077693915
O -1.1235095487 -0.8967276750 -1.1579743903
C 0.1375331116 -1.1842195383 -0.7290948301
C 0.4507765855 -2.3280839223 0.0068074244
C 1.7681684283 -2.5105369398 0.4110806982
O 2.0829593853 -3.6219961386 1.0946972490
C 2.7786203689 -1.5643097147 0.0875437484
C 4.1594901374 -1.8170253868 0.3979986867
O 4.5365929510 -2.8335052425 1.0160345639
C 5.1480898502 -0.8014412885 -0.1090815171
C 4.5132901395 0.5812211006 -0.1762889502
O 3.3072504916 0.5297368237 -1.0052004203
C 2.4038164878 -0.4205413982 -0.6629086370
C 1.0994632182 -0.2321172827 -1.0795589126
C 5.4131559240 1.6308769962 -0.7549647458
C 5.8353339635 1.5578549886 -2.0866191792
C 6.6854988449 2.5164993348 -2.6175802723
C 7.1371027592 3.5638351850 -1.8092968006
O 7.9757931786 4.4765606211 -2.3792075366
C 6.7274934694 3.6491424378 -0.4781689711
C 5.8636894579 2.6870492304 0.0360742919
C -3.5200141617 2.6540145867 0.4497077269
O -2.8397109620 3.8241602035 -0.0017827916
C -3.6070881150 2.6140128011 1.9718838299
O -4.2567991292 3.8195655403 2.3875486442
C -2.2195272757 2.4824383646 2.5892063792
O -2.3134770351 2.4326433990 4.0180771355
H 0.5047380369 2.0022997768 2.1944839583
H -0.0464789931 1.0245311996 3.5743220664
H 0.3857624802 0.2322399774 2.0441221753
H -2.0799336300 0.3521783839 2.2881902521
H -2.5042183874 1.5625488952 -1.1253510784
H -3.5196878947 -0.3871441724 -1.7892106911
H -4.6887172504 -1.8411222121 0.6354056728
H -5.9771370882 -0.1580810831 -0.2031631482
H -4.7856526518 -2.7366692863 -2.2811688705
H -6.5832044519 -3.2546326838 -0.8227438989
H -3.2848321857 -3.8507257411 0.1540497610
H -3.3177308984 -4.7449939570 -2.7732321283
H -4.0568028630 -5.6300142057 -1.4147881324
H -1.3010175639 -5.0230060701 -1.6216281709
H -2.0238901684 -1.8428334084 0.4565834279
H -0.2818172785 -3.0898176698 0.2413952932
H 3.0701932542 -3.5845617142 1.2410134775
H 6.0257938089 -0.7831835245 0.5428346146
H 5.4781121472 -1.1156405240 -1.1093530644
H 4.1942756512 0.8814096986 0.8315014620
H 0.8123934075 0.6608698829 -1.6209113283
H 5.4890127709 0.7467341238 -2.7204140847
H 7.0086261373 2.4658290150 -3.6523548886
H 8.2191174598 5.1449745994 -1.7241846873
H 7.0767339638 4.4669080140 0.1464065499
H 5.5393798676 2.7616245649 1.0703336432
H -4.5318013218 2.6065167304 0.0200036676
H -3.2062426270 4.5664921543 0.4992763445
H -4.2075396919 1.7364773985 2.2642957773
H -4.1122065266 3.9048124709 3.3404734578
H -1.6298108083 3.3785076058 2.3629098723
H -2.8069696178 1.6344543100 4.2570710319
