82
CONF31
C -2.8345153131 3.1447700085 -0.5100438215
C -2.1035199762 2.3862570846 0.5630881500
C -1.0694870441 2.9348994280 1.2135515186
C -2.6143984164 1.0162271268 0.9420432635
C -3.9193565679 1.0903151720 1.7593919660
C -4.3442261881 -0.3723115259 1.8353384424
C -4.0303204008 -0.9615741314 0.4360099577
C -3.0061378331 0.0412862348 -0.2049758967
C -1.9099324270 -0.6581177611 -1.0479085141
C -0.9886572371 0.3474986038 -1.7422497692
C 0.2092161661 -0.3617273303 -2.3562265641
C 1.1517368946 -0.9550058677 -1.2851238126
C 2.3701911379 0.0463953298 -1.0038086557
C 1.9993800484 1.5503016925 -1.0142451836
C 3.2100857545 2.4567073824 -0.7656062447
C 3.9075574077 2.1838794485 0.5662615359
C 4.2316592800 0.6857814377 0.7661736517
C 3.0237770316 -0.2418156008 0.3771989777
C 1.9581513761 -0.2342087934 1.5093721458
C 0.5091187026 -0.5032385455 1.0914219620
C 0.3807803635 -1.5289262147 -0.0347519419
C -1.1325489613 -1.8641721933 -0.3862255304
C -1.9411529474 -2.3355879191 0.8479070147
C -3.4411404147 -2.3756224434 0.5501056199
C -1.1521106422 -3.0571603376 -1.3838618532
C 1.0748820489 -2.8274866972 0.4314617989
C 5.4966204735 0.3737016356 -0.0638851806
C 4.6443126054 0.4249571732 2.2275170733
O 3.0939503015 2.6630489712 1.6619603427
C 3.3222423003 -0.2494665554 -2.1868999298
C -5.3446298276 -0.9978186250 -0.3539438717
O -5.2053171715 -1.3899468322 -1.7278862053
H -2.4894343815 4.1805063274 -0.5589660446
H -3.9161206259 3.1459860667 -0.3329369651
H -2.6787693506 2.6859934678 -1.4926849629
H -0.5378599650 2.3915124611 1.9910423697
H -0.7265147673 3.9409156340 0.9855093022
H -1.8687377838 0.5417882786 1.5869884077
H -3.7637216782 1.5530405716 2.7391389915
H -4.6685243925 1.6830473578 1.2198292557
H -3.7449749369 -0.8863983762 2.5961209467
H -5.3981275050 -0.5067821370 2.1074969616
H -3.5630586072 0.6595559825 -0.9267162881
H -2.4819033016 -1.1270368878 -1.8589916220
H -1.5579815288 0.8734146192 -2.5195123833
H -0.6497660694 1.1121895389 -1.0400092629
H 0.7620511196 0.3220647627 -3.0060666099
H -0.1571826006 -1.1522845011 -3.0204051915
H 1.6393739058 -1.8255251126 -1.7412871889
H 1.2554656077 1.7644367422 -0.2398643938
H 1.5499296509 1.8356437119 -1.9703594716
H 3.9399564884 2.3691301604 -1.5772561120
H 2.8862948783 3.5061045200 -0.7765598123
H 4.8653897198 2.7308356318 0.5887706431
H 3.4524607087 -1.2515983402 0.3170886855
H 2.2590934375 -0.9713794711 2.2615107276
H 1.9724760363 0.7335226214 2.0120192982
H 0.0430135028 0.4315263828 0.7773829312
H -0.0328804986 -0.8330726958 1.9841361360
H -1.5997496365 -3.3289613248 1.1572383118
H -1.7832049447 -1.6732001683 1.7048276574
H -3.6258157178 -2.9327608734 -0.3746625438
H -3.9722832959 -2.9108426729 1.3479693987
H -0.9440311229 -4.0006558093 -0.8713299317
H -0.4157549444 -2.9483847548 -2.1827559259
H -2.1329426636 -3.1537723932 -1.8573704756
H 0.5707419407 -3.2525165312 1.3061173652
H 2.1115405392 -2.6414209179 0.7138628938
H 1.0908734502 -3.5836953291 -0.3565296733
H 6.3708000747 0.8206104736 0.4218200516
H 5.4609820116 0.7587214364 -1.0818018478
H 5.6569748207 -0.7079829363 -0.1171945419
H 3.8550810176 0.6430050176 2.9457450907
H 5.5085081527 1.0488100764 2.4825191182
H 4.9403100904 -0.6245531113 2.3451441722
H 2.9220183892 3.5979968169 1.4933504130
H 3.8590976293 -1.1893804165 -2.0185013467
H 4.0596269371 0.5288342837 -2.3756970895
H 2.7436169663 -0.3603861768 -3.1097793617
H -6.0131079284 -1.7415311471 0.0972384170
H -5.8375081091 -0.0148710955 -0.2902134404
H -4.7619330427 -0.6720388222 -2.1965747106
