52
CONF11
C -3.0264393607 3.2474776324 1.5742929536
C -1.5888591140 2.7591467206 1.7610535596
C -0.7729698397 3.7705933917 2.5655583768
C -0.9189676455 2.5228292479 0.3848044351
C 0.4987180703 1.9843185682 0.4654756098
C 1.5072470315 2.5956133324 -0.2815715733
C 2.8236930217 2.1470010265 -0.2209110915
C 3.1223412128 1.0700878905 0.6021804406
C 2.1400526909 0.4299205557 1.3489676398
C 0.8306204791 0.8910827364 1.2712800546
Cl 4.7887749282 0.5125185497 0.7139227840
C -1.7511632793 1.6182741781 -0.5014979444
O -2.1553150794 1.8881546337 -1.6083273413
O -1.9895632902 0.4222422949 0.1039015735
C -2.7061742545 -0.5396456118 -0.7113642527
C -3.1987663752 -1.5451677323 0.2308985781
N -3.5902271359 -2.3646327992 0.9439299872
C -1.8173219024 -1.1737106321 -1.7605456046
C -0.5577368020 -1.6400053871 -1.3876015371
C 0.2474365954 -2.2370892517 -2.3528628460
C -0.1906063110 -2.3625053614 -3.6715331173
C -1.4463786518 -1.8849434918 -4.0235899900
C -2.2705952143 -1.2901328232 -3.0711348400
O 1.5243073929 -2.6787271310 -2.0922008112
C 1.8637337860 -3.0879249051 -0.8093129315
C 3.0896340325 -2.6574647800 -0.3171807447
C 3.5146053327 -3.1073245336 0.9302634004
C 2.7160332990 -3.9687675523 1.6782853865
C 1.4896248425 -4.3923052213 1.1674510131
C 1.0572412397 -3.9612015859 -0.0830327802
H -3.4912385866 3.4368770161 2.5463946524
H -3.6451611554 2.5134358367 1.0464388075
H -3.0428469033 4.1825352801 1.0020843252
H -1.6103162923 1.8060696776 2.3025732690
H 0.2494311490 3.4214906714 2.7374844330
H -1.2424802924 3.9447470503 3.5384981915
H -0.7234963887 4.7291904966 2.0356481113
H -0.8893561184 3.4807669051 -0.1451772056
H 1.2675085930 3.4436612239 -0.9162701916
H 3.6012734068 2.6344271424 -0.7979580481
H 2.3907732360 -0.4143847227 1.9809615827
H 0.0678515892 0.3896555445 1.8572234813
H -3.5666756074 -0.0550112022 -1.1868321222
H -0.2112388285 -1.5323439735 -0.3652905075
H 0.4605623731 -2.8287611479 -4.4031828906
H -1.7852464093 -1.9774779132 -5.0501606507
H -3.2503268073 -0.9127291465 -3.3447986869
H 3.6945749910 -1.9786107894 -0.9087212254
H 4.4707151861 -2.7722967086 1.3195306931
H 3.0475518722 -4.3123486753 2.6525651367
H 0.8659545656 -5.0720622737 1.7395165549
H 0.1092069557 -4.2972797447 -0.4901264886
