19
CONF20
C -1.7771216963 1.4528769554 0.0683109627
C -1.8547524952 0.0525456921 0.5993939437
C -2.9358075144 -0.4637232579 1.1893664924
C -0.6573266355 -0.8325532430 0.4748128907
O -0.5728302382 -1.9724658171 0.8773069693
O 0.3516837342 -0.1935713703 -0.1662875540
C 1.5666852688 -0.9599441836 -0.3131469241
C 2.5660836875 -0.1033961893 -1.0434855313
O 2.9612804058 0.9616856600 -0.1807362817
H -1.5700894628 1.4535747545 -1.0064822059
H -2.7158762009 1.9822231248 0.2460193756
H -0.9611671500 2.0064655310 0.5430220206
H -2.9255281560 -1.4848847834 1.5542064346
H -3.8390967088 0.1239899252 1.3161707327
H 1.3546971801 -1.8753775169 -0.8768709342
H 1.9398981735 -1.2402251161 0.6775296434
H 3.4239771536 -0.7413188056 -1.3109079997
H 2.1136192336 0.2764044387 -1.9720776117
H 3.5316723101 1.5576938893 -0.6761445341
