51
CONF99
C 0.3224084517 -3.2588607429 0.4041244004
N -0.6061998556 -2.6745447477 1.3756366809
C -1.2183554687 -3.7720515944 2.1457463451
C -2.1789883569 -3.2604344260 3.2092013921
C -3.2760849493 -2.4240646241 2.5586918072
C -2.6385021611 -1.3099734905 1.7346615656
C -1.6426014764 -1.8604275953 0.7063114515
C -1.0337081987 -0.7243986691 -0.1338750074
C -0.0454109991 0.1481024145 0.6454425278
N 0.1883073644 1.4329567863 -0.0273836651
C 0.3474215838 2.5935502926 0.7566354262
C 0.7285950566 2.5431821146 2.1034479778
C 0.8230435531 3.7116270077 2.8557442210
C 0.5805715199 4.9521885654 2.2743355275
C 0.2459600997 5.0211467510 0.9237647813
C 0.1147730393 3.8538138713 0.1783485705
S -0.4311984911 3.9202590982 -1.5156903546
C 0.5523314652 2.5754801705 -2.1396578914
C 0.7368646630 1.4451528138 -1.3231992002
C 1.4747775266 0.3725017967 -1.8245341258
C 1.9713330623 0.3935386846 -3.1339867361
C 1.7730774388 1.5156380190 -3.9399274986
C 1.0844319121 2.6107532988 -3.4215204780
S 2.8459225824 -1.0649540386 -3.6556341719
C 3.4075612874 -0.6435170203 -5.3386259684
H -0.1965510708 -3.8633861167 -0.3646704425
H 1.0277980517 -3.9109487993 0.9291078315
H 0.9030367994 -2.4861535893 -0.1058751605
H -0.4085392148 -4.3480549653 2.6091778896
H -1.7627044642 -4.4628537233 1.4677863546
H -2.6017291970 -4.1139526008 3.7514899687
H -1.6262754347 -2.6494036088 3.9348571282
H -3.9506542938 -2.0047240454 3.3135443928
H -3.8801506344 -3.0656865973 1.9022249924
H -3.4034583565 -0.7366838376 1.1984139118
H -2.1254950369 -0.6157831763 2.4124684330
H -2.2173885932 -2.5028744841 0.0039808069
H -1.8608251798 -0.0883038346 -0.4707013010
H -0.5707368449 -1.1283837843 -1.0380317377
H -0.4847819895 0.3855130862 1.6146664539
H 0.8922357841 -0.3883239845 0.8502386728
H 0.9564403809 1.5914862848 2.5692006711
H 1.1052249879 3.6450792217 3.9016457117
H 0.6605251854 5.8623096500 2.8591176466
H 0.0648424848 5.9803281591 0.4484197931
H 1.6708642723 -0.4893229856 -1.1968604556
H 2.1473074588 1.5600438096 -4.9545159811
H 0.9390693024 3.4931914496 -4.0371535469
H 2.5597389422 -0.4747165014 -6.0068018116
H 4.0659234775 0.2286384550 -5.3251527731
H 3.9699512956 -1.5136982282 -5.6846346556
