54
CONF1
C -1.9384107839 1.5709039658 0.2506281462
C -1.6983255860 0.1047403751 -0.1386218174
C -1.0788663456 0.0183632590 -1.5272241186
C 0.3423974690 0.6098238912 -1.5622282387
C 1.2706533407 0.0060925211 -0.4842460777
C 0.6178819956 -0.0015330313 0.9257631488
C -0.7656986427 -0.6326555137 0.8430615456
C -1.5937865843 -0.7525638418 2.1270902572
C -3.0569305464 -0.8913516574 1.6257390275
C -3.0132125173 -0.7296899095 0.0867924257
C -4.2441117157 -0.0460801878 -0.4875938828
O -4.8641163876 0.8219614776 0.1083653531
C -4.6954809503 -0.4524639391 -1.8740335609
O -5.7391029401 0.3781343926 -2.3397880313
O -2.8275079279 -1.9878749549 -0.5760835950
C 1.4925113623 -0.7515255689 1.9293687874
C 2.9113036600 -0.1676043884 1.9858785100
C 3.4855658199 -0.1384596852 0.6069932414
C 4.5657868046 -0.8806616973 0.2890876789
C 5.1184836695 -0.9480248316 -1.0573398297
O 6.0989022172 -1.6603743364 -1.3285847977
C 4.4744193405 -0.1043565550 -2.0595753266
C 3.3904446297 0.6304231866 -1.7662277859
C 2.7221495002 0.6620273815 -0.4250621310
C 2.6577593300 2.1553765985 -0.0142772193
O 0.8578897956 0.4281506143 -2.8895484473
H -2.5595818005 2.0657404928 -0.5018384040
H -0.9968044039 2.1201299008 0.3083725201
H -2.4416313349 1.6683819646 1.2147373740
H -1.0132176433 -1.0316002601 -1.8359197114
H -1.6746063122 0.5542801044 -2.2756416652
H 0.2882802762 1.6960469680 -1.4349201012
H 1.4291634684 -1.0482117026 -0.7669908607
H 0.5094627397 1.0302116871 1.2831194809
H -0.6310963747 -1.6445847802 0.4360827776
H -1.2899516165 -1.6074159977 2.7360983534
H -1.4787045805 0.1451615637 2.7447973164
H -3.4926888664 -1.8636742953 1.8752542061
H -3.7058433104 -0.1264876170 2.0574967100
H -3.8323666742 -0.4184399568 -2.5548801856
H -5.0175705768 -1.5044156501 -1.8347592558
H -5.9633796656 0.9612453204 -1.5937511814
H -3.4734396026 -2.6106453767 -0.2180034812
H 1.5483760356 -1.8100601236 1.6397926942
H 1.0395423504 -0.7069942984 2.9253003928
H 2.8617256509 0.8475826613 2.3996583808
H 3.5487868816 -0.7633899305 2.6451428060
H 5.0679510600 -1.4734832471 1.0504054440
H 4.9280402844 -0.0728059863 -3.0465619128
H 2.9713362960 1.2878636056 -2.5181283734
H 2.1745305521 2.7418607083 -0.8000584034
H 3.6726930308 2.5411620543 0.1203920910
H 2.1086102401 2.3052750039 0.9157108131
H 0.9317855034 -0.5235104788 -3.0460906878
