45
CONF96
C 7.8669359729 1.0692607598 -1.0768453973
C 6.9587165069 1.1452871870 0.1512849552
C 5.4622042840 1.0981528161 -0.1772718605
C 4.9977654502 -0.2365539798 -0.7633206155
C 3.5115691021 -0.2728511643 -1.1333406192
C 2.5599571120 -0.1459515867 0.0569927263
C 1.0960964485 -0.3073109319 -0.3469938540
C 0.1372258135 -0.1559782669 0.8444012459
C -1.3085142632 -0.3360968633 0.4607038658
C -1.8364876483 -1.6322950472 0.3994723070
N -3.1455251436 -1.7282116109 0.0300327028
C -3.9187659726 -0.6195753312 -0.2863688414
N -5.1538708334 -1.0476463992 -0.6030850370
C -5.0602112004 -2.3881103323 -0.4616267700
N -3.8750801942 -2.8741478025 -0.0833427735
N -3.4320761853 0.6179813690 -0.2600847239
C -2.1459225126 0.7438609803 0.1058018348
C -1.6447705803 2.1628230398 0.1684666445
C -1.8816587292 2.7758525339 1.5571128638
N -1.1775855251 -2.7803923910 0.6350632826
H 7.6203100034 1.8643757540 -1.7899008204
H 7.7689878632 0.1118099618 -1.5975760917
H 8.9185486700 1.1847607250 -0.7955581256
H 7.1706303664 2.0753497440 0.6932741759
H 7.2011591697 0.3249450108 0.8404789618
H 5.2216421720 1.9052420414 -0.8848519669
H 4.8973852131 1.3105526031 0.7386711193
H 5.2131812082 -1.0402053911 -0.0441452715
H 5.5824301182 -0.4627727274 -1.6632259014
H 3.2984818660 -1.2174916653 -1.6517523781
H 3.2977889576 0.5291663017 -1.8539970473
H 2.6879762514 0.8293967742 0.5437647118
H 2.8162918180 -0.9058918571 0.8093127704
H 0.8364314517 0.4410182693 -1.1074416713
H 0.9478936056 -1.2893248657 -0.8156298390
H 0.4120460717 -0.8760497726 1.6264689589
H 0.2797281874 0.8274109351 1.3000239690
H -5.8932388204 -3.0575129056 -0.6418394775
H -2.1904941113 2.7422850226 -0.5814894653
H -1.3530428298 2.2141777352 2.3338445684
H -2.9486064643 2.7688144788 1.7991676420
H -1.7056498814 -3.6354225201 0.7195303563
H -0.2585508156 -2.7532222798 1.0428517864
H -0.5827914645 2.2127546904 -0.0864373928
H -1.5288222118 3.8109176257 1.5817986675
