48
CONF8
C -0.1543600908 -3.4072164774 3.9282361522
O -0.3743170260 -3.0269764841 2.5557086179
N -1.4397290454 -2.1601604735 2.4951589826
C -1.7546390358 -1.7787059832 1.3023534858
C -2.9663493232 -0.9425909783 1.1939663009
C -4.0567000534 -1.1585971475 2.0482545079
C -5.1978697384 -0.3714994283 1.9706663461
C -5.2821469778 0.6475381928 1.0247210012
C -4.2152448495 0.8806529080 0.1625636580
C -3.0803152226 0.0940078945 0.2600819996
O -2.0610562000 0.3331175087 -0.6737305286
C -0.9255461119 0.9308566221 -0.2509009994
C 0.0878409373 1.0884861193 -1.1880525112
C 1.2731155792 1.6590609842 -0.7477900355
N 1.4319675459 2.0596017422 0.5096148013
C 0.3891410442 1.8835126237 1.3209066645
N -0.7863479173 1.3377556190 1.0057531097
O 2.2756026517 1.7734916508 -1.6497241159
C 3.4400007184 2.4233579363 -1.2441714653
C 4.5555168309 1.6613175746 -0.9337144210
C 5.7507359930 2.2953340734 -0.6096317602
C 5.8210401183 3.6858585535 -0.5984886609
C 4.7018025718 4.4512325537 -0.9133551759
C 3.5102423742 3.8146377899 -1.2398204801
Cl 2.0937536357 4.7548093836 -1.6469760974
F -0.0625198781 0.6760993836 -2.4561292210
C -1.0427806479 -2.1624655158 0.0564492770
N 0.2240373560 -1.9497219444 -0.0210106189
O 0.8698221408 -2.2997896526 -1.2175408133
C 0.1333484508 -3.2266127169 -2.0393331752
C -1.2813893389 -2.7375138148 -2.2039250889
O -1.8835261424 -2.6440808769 -0.8876482148
H 0.6913507727 -4.0958382799 3.8982860298
H 0.0946552321 -2.5295301014 4.5322209321
H -1.0378307175 -3.9101956672 4.3336715873
H -3.9973300419 -1.9690233956 2.7660354248
H -6.0299996561 -0.5649740978 2.6392938312
H -6.1751526457 1.2592705691 0.9525740607
H -4.2472230660 1.6707599870 -0.5798401737
H 0.5101575602 2.2178818687 2.3493127901
H 4.4697785880 0.5799342043 -0.9484942105
H 6.6244318480 1.7009276339 -0.3657325817
H 6.7505133784 4.1851175054 -0.3466534034
H 4.7486849417 5.5343943742 -0.9105455713
H 0.1460466553 -4.2181475078 -1.5679110687
H 0.6609239769 -3.2587581584 -2.9951190732
H -1.3077133389 -1.7469822249 -2.6696852421
H -1.8944229205 -3.4396351661 -2.7711788690
