37
CONF91
C -3.5283398052 -2.8040085133 -0.3847845252
C -2.8488493893 -2.2296693155 0.8377236825
O -2.9751465743 -0.7654449803 0.8609469671
P -1.8845779750 0.1041821214 0.1085730250
O -1.6221321625 -0.1488819278 -1.3260824480
O -2.3912266419 1.5575819001 0.5090750446
C -2.0873024885 2.6761192282 -0.3769107858
C -0.6513719860 3.1324613910 -0.2259446748
O -0.5438628348 -0.0810149134 1.0308758629
P 0.8098554725 -0.8848120179 0.5880403193
O 0.6093019062 -2.3199848172 0.3201900494
O 1.4163648157 0.0029757268 -0.5951390656
C 1.4527584225 -0.5247841850 -1.9634575975
C 2.7500485492 -1.2623297661 -2.2007377354
O 1.7459060345 -0.5740777351 1.8308030120
C 2.1141148374 0.7929289421 2.1844746788
C 3.5465412662 1.0597094382 1.7805981327
H -4.5807501024 -2.5092480803 -0.4188180321
H -3.4725978377 -3.8967450208 -0.3454806965
H -3.0329842261 -2.4628439822 -1.2968741431
H -3.3337833961 -2.5509517774 1.7625752214
H -1.7893949272 -2.5072580336 0.8785451509
H -2.7898220375 3.4546603770 -0.0703966880
H -2.3071853993 2.3785225397 -1.4072557829
H -0.4884356360 4.0258715355 -0.8375786670
H -0.4342210108 3.3827633514 0.8165596869
H 0.0459610570 2.3581359201 -0.5606282522
H 1.3575980410 0.3603764137 -2.5973247151
H 0.5788730105 -1.1597608282 -2.1221429518
H 3.6110400043 -0.6136633654 -2.0148144483
H 2.8153039075 -2.1393194707 -1.5509789344
H 2.7911978327 -1.6012005313 -3.2411861605
H 1.4225605102 1.4990193264 1.7118325963
H 1.9802160070 0.8554878876 3.2681471012
H 4.2185990512 0.3356567375 2.2484633626
H 3.6572982771 0.9952120487 0.6954690897
H 3.8384462481 2.0643340852 2.1036437180
