54
CONF298
C -0.6858576437 -2.5337265361 1.2597792726
C -0.4883906723 -1.1107412968 1.7819029814
C -0.9163585104 -0.9926314630 3.2439827813
C -1.2417510014 -0.0620995294 0.9146325459
C -0.7414503705 -0.1135930469 -0.5330659153
O -1.3939825466 -0.6366709714 -1.4372410665
N 0.4835866920 0.4236463391 -0.7309843717
C 1.1701430944 0.3073320981 -2.0143654774
C 2.3009720006 1.3490386548 -2.0671348885
C 1.7849896699 2.7489660648 -1.8305655630
O 2.1018372651 3.4575963583 -0.8966854256
O 0.9106309159 3.1120056738 -2.7832203553
C 0.3223344401 4.4290906087 -2.6286080978
C 1.7164600666 -1.0861714076 -2.2604709949
C 1.6671487395 -1.6312858585 -3.5430571375
C 2.1943202318 -2.8919764475 -3.8061402367
C 2.7719450042 -3.6029311552 -2.7617449804
C 2.8345235022 -3.0867961360 -1.4729376355
C 2.3042588549 -1.8234764881 -1.2324089533
Cl 3.4362385456 -5.2035484934 -3.0771180872
N -2.6742821114 -0.2692599363 0.9125207825
C -3.5297080124 0.5527152774 1.5710721986
O -3.2016881935 1.4482074580 2.3386156794
O -4.8132512556 0.2320963851 1.2633771052
C -5.8615921320 0.9402915604 2.0029885333
C -7.1024120082 0.8504306983 1.1377897258
C -6.0370038488 0.2952161319 3.3659276711
H -1.7423403255 -2.8208371474 1.3053543308
H -0.3463491649 -2.6422771176 0.2244728619
H -0.1207235676 -3.2398574413 1.8759057287
H 0.5786300117 -0.8591028393 1.7143245645
H -1.9819900009 -1.2213087142 3.3544922140
H -0.3537829789 -1.7022929759 3.8587038103
H -1.0435918726 0.9318208851 1.3321983661
H 0.9861463176 0.8046143359 0.0584890626
H 0.4434956592 0.5354168045 -2.8003229446
H 3.0574146163 1.1287642801 -1.3089632458
H 2.7703296354 1.2961514048 -3.0542805358
H -0.2267451811 4.4848860200 -1.6858078546
H -0.3530010900 4.5439306803 -3.4751197636
H 1.1027830892 5.1929884651 -2.6502216363
H 1.2047376203 -1.0701576562 -4.3505476397
H 2.1479296517 -3.3152724918 -4.8030410290
H 3.2863342098 -3.6596061044 -0.6710260558
H 2.3438438885 -1.4188048161 -0.2252762628
H -5.5446412246 1.9821146225 2.1117603094
H -7.9262467550 1.3764765162 1.6284709075
H -7.3962073467 -0.1941864407 0.9935436769
H -6.9300694154 1.3086125885 0.1601358120
H -6.3327469664 -0.7530092248 3.2534378489
H -6.8205282543 0.8186472536 3.9225002383
H -5.1108650204 0.3461495570 3.9442010269
H -0.7410865284 0.0160024878 3.6306581799
H -3.0500256441 -0.8721624343 0.1938023507
