41
CONF3
C 2.9277714311 3.5508367128 0.7865490000
C 2.9025297885 2.0708090965 0.5600671785
C 2.8159513691 1.1565584768 1.6038268271
C 2.7617348340 -0.2131090442 1.3878005085
C 2.7894480596 -0.7505146821 0.1059159362
C 2.8878689852 0.1602870586 -0.9412298076
C 2.9342464931 1.5266670841 -0.7193930247
F 2.9994056292 2.3498549059 -1.7848287091
F 2.9216267536 -0.2900527038 -2.2095607089
C 2.6700857887 -2.2229036473 -0.1623363895
O 1.4863168344 -2.5057474598 -0.9590431534
C 0.2961762737 -2.3126409417 -0.3316672664
O 0.2099845648 -2.0327263431 0.8490248979
C -0.8081272978 -2.4398789314 -1.2951663579
C -1.9971683264 -1.4560733264 -1.1573784069
C -2.2098508063 -2.9163174428 -0.9206423378
C -2.9231250414 -3.6822485505 -2.0152148470
C -2.5004192355 -3.4323952115 0.4691278425
C -2.0100105257 -0.4668651357 -0.0686396908
C -1.4735703521 0.7488206436 -0.1661263788
C -1.5020559060 1.7726400082 0.9287494325
F -2.0556319695 2.9408076165 0.5200770853
F -0.2525525397 2.0728346879 1.3688507245
F -2.2080627634 1.3427116450 1.9925625901
Cl -0.5992377837 1.2804551290 -1.5820503303
F 2.6787176595 -1.0237076188 2.4574461025
F 2.7646123317 1.6037099002 2.8749580227
H 1.9225723562 3.9691631918 0.6619263200
H 3.2709649569 3.7821936525 1.7953620386
H 3.5852324972 4.0385102661 0.0640825297
H 2.6373857823 -2.7852687697 0.7715982479
H 3.4964414947 -2.5765362933 -0.7807445401
H -2.3054870887 -1.0603687837 -2.1231945722
H -2.6993335628 -3.2711714272 -3.0035918776
H -2.6224891236 -4.7349397348 -1.9995837986
H -4.0057459262 -3.6323549254 -1.8568805231
H -2.2189508365 -4.4884194514 0.5348078381
H -1.9624188870 -2.8897398676 1.2457187475
H -3.5757256180 -3.3560005840 0.6637510283
H -2.4964022635 -0.7184155398 0.8689022438
H -0.4931193942 -2.6360735509 -2.3140291274
