51
CONF5
C -0.9972442474 -1.3277889258 2.0482988627
C -0.9375546415 0.0382327285 1.4328250400
C -2.0521037734 0.6921467540 1.0819926530
C -2.0803106717 2.0417093752 0.4716957341
C -1.8452287884 2.2553016516 -1.0463857658
C -3.2032591924 2.5108289747 -0.3959889729
C -4.3712166929 1.5976391351 -0.6882143407
C -3.5895724006 3.9720577219 -0.2984630340
C -1.5601068723 1.0854468557 -1.8913620372
O -2.0533663357 -0.0204829508 -1.8068415213
O -0.6036157371 1.4057775394 -2.8109491890
C -0.1609442712 0.3101821501 -3.6636495962
C 0.8976524115 -0.5031049439 -3.0074449625
C 0.7417548386 -1.5193682853 -2.0063697402
C 1.9892299747 -1.9695607987 -1.7049101990
O 2.9193493959 -1.2971468999 -2.4629273267
C 2.2348461665 -0.4110967272 -3.2417528278
C 2.5205905550 -2.9566898077 -0.7271307925
C 2.9018474109 -2.3432718948 0.6093344360
C 2.3913566637 -2.8654021757 1.7970229157
C 2.7254142458 -2.3011481142 3.0255911593
C 3.5786150507 -1.2047003925 3.0797332483
C 4.0970707475 -0.6792973663 1.8984039957
C 3.7616109546 -1.2436272700 0.6731842444
C 0.4422216760 0.5700686160 1.1876080728
H -0.4818906174 -1.3451477599 3.0168891923
H -0.4737369075 -2.0527057290 1.4115152654
H -2.0267875353 -1.6661806708 2.1891919701
H -3.0116923564 0.2084930111 1.2507034551
H -1.5955803291 2.8224252660 1.0570320476
H -1.2733447931 3.1379210482 -1.3121416115
H -4.8633323313 1.9069066296 -1.6166645070
H -4.0680381081 0.5572194907 -0.7978526078
H -5.1058864367 1.6735975409 0.1218763931
H -4.0413614689 4.3171200678 -1.2350370981
H -4.3217553508 4.1156253518 0.5042448848
H -2.7232571875 4.6047955275 -0.0835054474
H 0.2301752254 0.8043334838 -4.5555577051
H -1.0262857349 -0.3034411918 -3.9286870855
H -0.1905055257 -1.8456305281 -1.5705813480
H 2.8289803875 0.1929744893 -3.9098252138
H 3.3937014651 -3.4551301216 -1.1670645793
H 1.7597461191 -3.7260636591 -0.5665943133
H 1.7203832113 -3.7195247996 1.7618946128
H 2.3148862479 -2.7187483461 3.9396761745
H 3.8388093805 -0.7612809253 4.0354455917
H 4.7641573916 0.1764428910 1.9315135751
H 4.1616249763 -0.8233030120 -0.2443298966
H 0.9426122807 -0.0339129954 0.4187023198
H 1.0613420360 0.4887079362 2.0891641903
H 0.4399995103 1.6078017645 0.8483968792
