57
CONF207
C -4.0360008146 -2.0894597997 2.9707743335
C -2.9611837770 -2.2608165459 1.9065929309
C -2.3862042444 -0.9280415132 1.4396607746
O -2.7258904063 0.1283161916 1.9812009811
N -1.4943157781 -0.9747179317 0.3994761699
C -1.1292022398 -2.2500473379 -0.1530767305
C -1.7825304419 -2.7374721193 -1.2838785011
C -1.4225538012 -3.9741992164 -1.8119856393
C -0.4117780849 -4.7244933154 -1.2137991949
C 0.2405668003 -4.2345339789 -0.0839449782
C -0.1156836156 -2.9975465124 0.4457419500
C -0.8968736469 0.2841952654 -0.1811417587
C -0.0778776237 1.0135129246 0.9019547712
C 0.7681045101 2.1610586364 0.3553301617
N 1.6645576606 1.7026174026 -0.7088826234
C 0.8798008255 1.1181761722 -1.8007667552
C 0.0709571011 -0.0819035131 -1.3210208415
C 2.4988206263 2.7893164769 -1.2247279658
C 3.4917060807 3.3482537212 -0.1950347962
C 4.3315754591 2.3009386469 0.4608183357
C 4.3737803051 1.9440040454 1.7825792306
C 5.2727077072 0.8749837804 2.0614794646
C 5.9158975234 0.4150759295 0.9473235665
S 5.4213987502 1.2958297094 -0.4662169967
C -2.0235689073 1.1808767434 -0.7089246797
O -2.7663181234 0.4747647087 -1.6999938929
C -3.8171466708 1.2778330716 -2.2284667461
H -4.8719945431 -1.4936266551 2.5943965456
H -3.6393278000 -1.5883474734 3.8573302354
H -4.4190832520 -3.0689531983 3.2709666643
H -2.1402141541 -2.8804676766 2.2865718501
H -3.3559374680 -2.8018382122 1.0390668867
H -2.5653090856 -2.1389265773 -1.7381350644
H -1.9336570876 -4.3525589797 -2.6918987326
H -0.1330332480 -5.6886775316 -1.6272671682
H 1.0299946619 -4.8140837394 0.3844075810
H 0.3859868329 -2.6042654766 1.3250072479
H 0.5882476386 0.2726615091 1.3617272237
H -0.7386755911 1.3956745684 1.6824622919
H 1.3667669679 2.5583437880 1.1813546582
H 0.1207445309 2.9891397973 0.0020373754
H 1.5724785642 0.7781379117 -2.5797171257
H 0.2197681077 1.8735170608 -2.2719456311
H -0.4767167265 -0.5060266874 -2.1666976747
H 0.7733709476 -0.8425460151 -0.9655023078
H 3.0640176590 2.3941931220 -2.0785276305
H 1.8834264419 3.6289367616 -1.6051277026
H 4.1220785643 4.0782481823 -0.7174892632
H 2.9687748699 3.9005452364 0.5921597579
H 3.7697107185 2.4392266151 2.5352969909
H 5.4356201651 0.4641617182 3.0513800859
H 6.6471957265 -0.3779530612 0.8652619554
H -2.6818565664 1.4837682326 0.1140239602
H -1.5883407235 2.0891502693 -1.1497474502
H -4.5201364812 1.5821532306 -1.4388253049
H -3.4202754145 2.1814989052 -2.7147818145
H -4.3463702442 0.6732707409 -2.9688596029
