119
CONF769
C -10.3629256208 -1.9172512323 -1.5931075915
C -10.7536730637 -0.6497573466 -0.8357275093
C -11.8576620654 0.1115745743 -1.5729001273
C -9.5377505816 0.2753156320 -0.6326969768
C -9.9409086837 1.4869810792 0.2216367448
O -10.3474340966 1.3064712395 1.3689420881
N -9.7894819665 2.7314645798 -0.2938716512
C -10.1163654741 3.9144449434 0.5279227361
C -9.6299666119 5.0582513521 -0.3348999662
C -8.4071355943 5.8410405625 0.0588596454
C -9.7741825734 6.4867861076 0.0734095247
C -9.7911501810 4.5707620258 -1.7581049602
C -9.3215905510 3.1095944302 -1.6406785084
C -7.8265375742 2.9980355628 -1.7671091278
N -7.1167403193 3.4574496734 -2.7812640347
C -5.8290482103 3.0569491105 -2.5354995503
C -5.7498483694 2.3471281557 -1.3514838740
N -7.0423983176 2.3488794186 -0.8650579756
C -4.6594471522 1.6810186285 -0.6698554693
C -3.5248218287 1.2673475398 -1.3978289828
C -2.5134327585 0.6169725631 -0.7324934969
C -2.5765197233 0.3319998368 0.6416134291
C -3.6926917623 0.7297599342 1.3658422709
C -4.7162757933 1.4049717993 0.7076258591
C -1.3625699666 -0.3884638577 1.0351197198
C -0.5453552643 -0.5543975087 -0.0927383166
C -1.2253407970 0.0594777739 -1.2937618872
F -1.4588412631 -0.8709198750 -2.2842706972
F -0.4525948696 1.0356768806 -1.8839344969
C 0.6679936027 -1.2013113582 -0.0321887537
C 1.1100150118 -1.7096502011 1.2036914882
C 0.2893574791 -1.5414430369 2.3305148594
C -0.9397767905 -0.8909318089 2.2597492103
C 2.4122446710 -2.3937323432 1.3118168797
C 3.5049089602 -1.9320575302 0.5707039483
C 4.7055755797 -2.6128278498 0.7108613884
C 4.8567388673 -3.7316828070 1.5653407926
C 3.7608791285 -4.1893098612 2.2967946512
C 2.5580086636 -3.5159246538 2.1604958565
N 6.1595777425 -4.1978086412 1.5214820480
C 6.7726273538 -3.3968435216 0.6782640084
N 5.9520101410 -2.4270988270 0.1550757782
C 8.2115332445 -3.4892368735 0.2667505050
C 9.0040877481 -4.5728857578 1.0147917481
C 10.3841138168 -4.7131677686 0.3335593172
C 11.1321492790 -3.4062680252 0.7484996586
C 10.0600927363 -2.6757522054 1.5790073951
C 9.3694476252 -3.8302511318 2.3124326734
N 8.9820142596 -2.2663489765 0.6456205685
C 8.9227447265 -1.1468619354 -0.1029136345
O 8.1096711741 -1.0140698347 -1.0294465973
C 9.8496424166 0.0031990058 0.2906191252
C 9.2895983081 0.7479781086 1.5362290980
C 10.2773636264 1.8245015734 1.9838563128
C 7.9031942316 1.3366560058 1.2792616315
N 9.9979555341 0.8779227159 -0.8549344876
C 11.2384292768 1.2151744052 -1.3102742621
O 12.2881335947 1.0212274945 -0.7255727327
O 11.1370232100 1.8349769560 -2.5185076079
C 12.3955256195 2.2707874686 -3.0632409113
N -8.4370486275 -0.3552960727 0.0897291799
C -7.3700932736 -0.9074798547 -0.5682259580
O -7.1436926241 -0.7960287885 -1.7563821809
O -6.5727474220 -1.5662363990 0.3135491935
C -5.3751118154 -2.1160287590 -0.2763751632
H -9.5977492473 -2.4899887800 -1.0617034588
H -11.2367693544 -2.5641277889 -1.7187539529
H -9.9693257968 -1.6746309217 -2.5859427783
H -11.1210804782 -0.9178673422 0.1637633036
H -12.7386500018 -0.5229720665 -1.7055827770
H -12.1717287114 1.0058241221 -1.0243775387
H -11.5179669815 0.4171615174 -2.5702034616
H -9.1364207691 0.5572369829 -1.6107585816
H -11.2012071514 3.9545110005 0.6995355026
H -9.6250690712 3.8555419262 1.5040226578
H -7.9462167633 5.6163675183 1.0154980942
H -7.7158025143 6.1251626246 -0.7278693925
H -10.0024308123 7.2137576448 -0.6995216235
H -10.2237490329 6.6956061184 1.0393100385
H -10.8460897264 4.5926634846 -2.0580206858
H -9.1957747544 5.1216681835 -2.4879532722
H -9.7965613762 2.4836830925 -2.4050887737
H -5.0195500328 3.3156454287 -3.2035154925
H -7.3710346624 1.8086543002 -0.0781573142
H -3.4702157740 1.4357284947 -2.4681862324
H -3.7735463217 0.5281747487 2.4292532608
H -5.5731343798 1.7377992852 1.2854041827
H 1.2635113792 -1.3437681847 -0.9282873300
H 0.6407393412 -1.9045885170 3.2908831943
H -1.5428966099 -0.7693839859 3.1540840137
H 3.4176559577 -1.0534861889 -0.0599003773
H 3.8531688629 -5.0554405089 2.9430247932
H 1.6859314643 -3.8776571211 2.6950352960
H 6.2771716214 -1.7193419965 -0.4938009678
H 8.2626744741 -3.6123356197 -0.8235378451
H 8.4398265185 -5.4971151398 1.1291497597
H 10.9009054357 -5.5993923401 0.7119581088
H 10.2978954830 -4.8207196095 -0.7515189586
H 12.0103548740 -3.6180717858 1.3663249810
H 11.4614393901 -2.8086569228 -0.1058716504
H 10.4126491891 -1.8458700112 2.1910998496
H 10.0661010606 -4.3917121266 2.9405424098
H 8.4986407547 -3.5231086734 2.8950199264
H 10.8476884830 -0.3750863530 0.5386277994
H 9.2007709911 0.0004230020 2.3364437460
H 9.9151981991 2.3165469753 2.8918262485
H 11.2674183142 1.4047040489 2.1859133742
H 10.3922931525 2.5883644189 1.2082515720
H 7.5436440273 1.8537741665 2.1738008073
H 7.1709299643 0.5663545379 1.0187647486
H 7.9384779117 2.0661925004 0.4634245506
H 9.2340729674 0.8761637143 -1.5176478433
H 12.8755707019 2.9907589798 -2.3949191489
H 13.0657237633 1.4202458854 -3.2139835078
H 12.1500953406 2.7384126656 -4.0169925854
H -8.5986112717 -0.6051305329 1.0549581824
H -4.7957677681 -1.3316054013 -0.7692458548
H -4.8134614944 -2.5404788768 0.5557569191
H -5.6312320874 -2.8899269853 -1.0046593701
