49
CONF4
C -4.4035265570 -0.3282046559 -0.1286080685
C -3.3089294075 -1.2720842464 0.3232136430
C -1.9332419391 -0.7176793124 0.7536427937
C -2.1174255190 -1.5304788263 -0.5487171175
C -1.4625277075 -2.8983560792 -0.5558260514
C -1.9771827797 -0.8393521512 -1.8881607325
C -1.6214604727 0.7094428929 0.7515502032
O -2.0220216435 1.5849043957 0.0124485883
O -0.7401775985 0.9856330283 1.7815700815
C -0.3333395973 2.3683936130 1.8578332725
C 0.2153647614 2.5370127302 3.2047656286
N 0.6672487428 2.7028950047 4.2544964831
C 0.7008216848 2.7323494277 0.8093767446
C 1.7609942345 1.8611346003 0.5680087311
C 2.7071505696 2.2070478189 -0.3923950813
C 2.6148795023 3.4119597901 -1.0885252478
C 1.5571823365 4.2725910332 -0.8235361844
C 0.5892285584 3.9363981450 0.1200774991
O 3.8112645048 1.4286626329 -0.6598225185
C 3.7332737537 0.0559216307 -0.4598457491
C 4.7409960110 -0.5397915813 0.2883848056
C 4.7451047778 -1.9251180673 0.4362864666
C 3.7496113089 -2.6989926842 -0.1548082569
C 2.7471775868 -2.0830730094 -0.9034076514
C 2.7315855488 -0.7008569202 -1.0625848515
C -3.8580008498 -2.3758663889 1.2074743887
H -4.9210707896 0.0850785946 0.7440124099
H -5.1375323727 -0.8923108074 -0.7155583859
H -4.0430341808 0.5032279323 -0.7299230316
H -1.4555348965 -1.2612755924 1.5619227997
H -1.9975771570 -3.5615945813 -1.2456485542
H -0.4300198495 -2.8104687518 -0.9089330496
H -1.4415424503 -3.3709350606 0.4266907654
H -2.4950160618 -1.4294086953 -2.6530219140
H -0.9184059563 -0.7868060719 -2.1662425171
H -2.3775577214 0.1720795640 -1.8985530512
H -1.2065914838 3.0240950318 1.7572919474
H 1.8450506436 0.9293418701 1.1171371515
H 3.3698693336 3.6567650208 -1.8279804765
H 1.4784541766 5.2069198890 -1.3697023726
H -0.2484657245 4.5987413831 0.3129148581
H 5.5075828751 0.0799412906 0.7415351827
H 5.5297379298 -2.3973003731 1.0189936117
H 3.7558472626 -3.7776288772 -0.0376631033
H 1.9778866299 -2.6826610818 -1.3792395953
H 1.9600534883 -0.2134005346 -1.6503042919
H -3.0785878935 -2.9978996605 1.6485900627
H -4.4409710448 -1.9375532791 2.0243796368
H -4.5266235514 -3.0214390351 0.6260795875
