44
CONF5
C -6.8359232991 -0.5076647553 0.2466671469
N -5.5809122186 0.2192270148 0.0567134711
C -4.9486923632 0.4962236379 1.3491972073
C -3.6661529789 1.2993243647 1.1655460108
N -2.7583695637 0.5396477930 0.3017957278
C -3.3681590987 0.2121610821 -0.9963209154
C -4.6611334683 -0.5564263039 -0.7801118839
C -1.3906752690 0.6801925326 0.3933757861
C -0.7257123467 1.8393470709 0.8538063650
C 0.6315788993 1.9170874824 0.9866767787
C 1.4386993084 0.8361795690 0.6124509063
C 0.8472826313 -0.3519273636 0.1107513548
C -0.5531435910 -0.3976358484 0.0626258379
F -1.1865131308 -1.5436219068 -0.2769861255
N 1.6777843983 -1.4169268942 -0.2625577503
C 3.0111706567 -1.2981734945 -0.1305979850
C 3.6473877692 -0.1863059431 0.3621860194
C 2.8808798660 0.9617150773 0.7493561601
O 3.4116651144 2.0172779891 1.1897945132
C 5.1265868898 -0.2118132373 0.4625177191
O 5.6798722758 0.9110189441 0.9297586386
O 5.8064514761 -1.1756863298 0.1480525479
C 1.1822477106 -2.6266273530 -0.9626042179
C 0.7713125912 -2.3279765340 -2.3863967465
F 1.9106527981 -1.9362561556 -3.1161459964
F -1.4657590282 2.9310647739 1.1447175170
H -7.3056684864 -0.6918746354 -0.7252177532
H -6.6878149304 -1.4818872633 0.7500096396
H -7.5208597184 0.0921935497 0.8549980936
H -5.6421632804 1.0811920439 1.9646373181
H -4.7174505136 -0.4414465258 1.8938113414
H -3.1967565687 1.4503524484 2.1404527074
H -3.9086622450 2.2812876207 0.7317004438
H -3.5812083458 1.1472662499 -1.5405273163
H -2.6779283711 -0.3797763353 -1.5988093572
H -5.1343808115 -0.7413704419 -1.7515284993
H -4.4275652461 -1.5382882868 -0.3208923984
H 1.0978289917 2.8293737076 1.3399999756
H 3.5994270806 -2.1525911289 -0.4454896385
H 2.0056441009 -3.3434059789 -0.9726443862
H 0.3573976190 -3.0781309834 -0.4139883972
H 0.0437201232 -1.5147263529 -2.4605521708
H 0.3666431841 -3.2346712667 -2.8473358741
H 4.9203217064 1.5577773387 1.1206147716
