119
CONF205
C 2.7242913600 -1.1417040532 1.8472644771
C 3.4211022300 -2.4071268758 1.3342382598
C 4.9120072197 -2.1779340111 1.0938739060
C 5.6091803887 -1.6461362402 2.3513584591
C 4.9154139542 -0.3749957359 2.8855659300
C 5.6631236258 0.1541895590 4.1136327926
C 7.1208699975 0.4338651129 3.7823700270
O 7.8254408491 0.9757027399 4.9153770733
C 7.8848794928 -0.8234067995 3.3208734527
C 8.0475077309 -1.8047373569 4.4829134576
C 9.2478922971 -0.3206919274 2.6713027791
C 9.0225428856 -0.3578282677 1.1359860882
C 7.5227069983 -0.5926616745 0.9274876342
C 7.1229522532 -1.4654081705 2.1161863745
O 7.7115807847 -2.7516940623 1.8176972729
C 10.4589626190 -1.0577334910 3.1208237898
C 11.0416707694 -2.1750339295 2.6535762733
C 12.2034634132 -2.4929935849 3.4763624803
O 12.9940563417 -3.4119995877 3.4069546296
O 12.3210974922 -1.5309858272 4.4561645999
C 11.2552419400 -0.5788319280 4.2937232387
C 3.3931929600 -0.6046643424 3.1424768061
C 3.1644511587 -1.5973215876 4.2954869519
C 2.6702840982 0.7020673034 3.5398355528
C 2.6117441135 1.7582492166 2.4375885459
C 1.9573758872 1.2080682017 1.1793985606
C 2.6428639731 -0.0799993116 0.7378958724
O 0.5581985614 0.9719796665 1.5062280982
C -0.2870585448 0.9056617846 0.4027457369
C -1.6191651252 0.3280217295 0.8386363997
C -2.6106826200 0.3326587493 -0.3189324794
O -2.1819155247 -0.6452225207 -1.2708467820
C -2.6754399533 1.7347870525 -0.9510267633
O -3.4065318525 1.7490865570 -2.1915860402
C -4.7488502200 1.3700119445 -2.1169748492
C -5.5099100794 2.0125148596 -3.2592343931
C -6.9486053966 1.5089300262 -3.3038265895
O -7.6394107481 2.0503519552 -2.1752695216
C -6.9741942047 -0.0303354767 -3.2836029030
O -8.2976710204 -0.5582132527 -3.0854966950
C -9.2355194243 -0.2494230600 -4.0747914937
C -10.2984607286 -1.3323586862 -4.0976005347
C -11.4347634036 -0.9543012974 -5.0367062870
O -10.9280494117 -1.0266726115 -6.3773968012
C -11.9471708081 0.4526542727 -4.7251562498
O -12.9006681481 0.7662087938 -5.7467185721
C -10.7922950474 1.4615240094 -4.6941219287
C -11.2197041081 2.8554904905 -4.2872875799
O -9.8389445767 1.0065878147 -3.7130287139
C -6.1286632394 -0.5878044933 -2.1363023857
C -6.0164221705 -2.0971323736 -2.1535657448
O -4.7970302002 -0.0610798347 -2.2705316744
C -1.2776090951 2.2661087352 -1.2829192233
C -1.2920561448 3.6935701408 -1.7890999934
O -0.4871543927 2.2455246908 -0.0846340575
H 1.6904167376 -1.4026781140 2.1146559627
H 3.2891004737 -3.2214464348 2.0574179030
H 2.9388427453 -2.7351293759 0.4045152428
H 5.3907392894 -3.1090909752 0.7746213758
H 5.0471192341 -1.4601626714 0.2757051264
H 5.5228281105 -2.4193583178 3.1309049652
H 4.9977436015 0.3912294482 2.1016527005
H 5.6080379579 -0.5610124804 4.9420260507
H 5.2130809207 1.0896749303 4.4648216658
H 7.1529000080 1.1712308904 2.9649256176
H 7.4538452382 1.8480029414 5.0949664951
H 8.7174958257 -2.6254768576 4.2170123211
H 8.4572515269 -1.3052697840 5.3629827417
H 7.0822063275 -2.2330342355 4.7694216911
H 9.3795747972 0.7146072415 3.0037600313
H 9.5842779241 -1.1844304401 0.6963094704
H 9.3734986166 0.5638119233 0.6638615229
H 7.3116491616 -1.0925821696 -0.0208597281
H 6.9628524502 0.3471257768 0.9401879819
H 7.4831746059 -3.3595289765 2.5330052309
H 10.7394535359 -2.7923287952 1.8199778407
H 11.6855777868 0.4144368549 4.1119690914
H 10.6660615853 -0.5389648935 5.2177046108
H 3.7242746320 -2.5283487735 4.1812542504
H 2.1005822314 -1.8531737367 4.3527354652
H 3.4479142665 -1.1515245421 5.2544087456
H 3.1228497904 1.1279422152 4.4419880762
H 1.6431982582 0.4320283250 3.8167651720
H 3.6191484651 2.1044018811 2.1754308130
H 2.0533784794 2.6357377133 2.7826001468
H 1.9991668574 1.9544819822 0.3756635739
H 2.1224986253 -0.5097242295 -0.1271874080
H 3.6418070697 0.1963887865 0.3805882528
H 0.1562295953 0.3096182190 -0.4134464294
H -1.4895901780 -0.6969909644 1.2006015341
H -2.0028467664 0.9420985472 1.6611758739
H -3.6076396374 0.0670141534 0.0623033750
H -2.9070178345 -0.7145694826 -1.9120329405
H -3.1566827551 2.4204560725 -0.2346276712
H -5.1809874901 1.6339798987 -1.1366291222
H -4.9962577225 1.7586239818 -4.1933233342
H -5.5100427386 3.1013694368 -3.1482361773
H -7.4205342692 1.8603852799 -4.2327992465
H -8.5736601692 1.8270981105 -2.3123950318
H -6.5681384656 -0.4017636056 -4.2385439976
H -8.7479240279 -0.1357520014 -5.0578627878
H -9.8579845069 -2.2824384235 -4.4162811880
H -10.6841547349 -1.4526378610 -3.0791922992
H -12.2689834200 -1.6619488202 -4.9167033554
H -11.6171158336 -0.6772894237 -6.9586793337
H -12.4252047004 0.4371776230 -3.7330247158
H -13.3878421059 1.5559849668 -5.4844179988
H -10.3116054474 1.4821451282 -5.6850812122
H -11.7152429569 2.8349751609 -3.3107314301
H -11.9067237746 3.2797570413 -5.0251145647
H -10.3469033271 3.5117649633 -4.2254690456
H -6.5593174563 -0.2444041839 -1.1821839030
H -5.5783602079 -2.4326698246 -3.0994281044
H -7.0030778487 -2.5515433996 -2.0422364310
H -5.3801383831 -2.4344069442 -1.3302953465
H -0.8220354092 1.5997098061 -2.0336971672
H -0.2705159520 4.0316479775 -1.9843554164
H -1.7460420459 4.3548637383 -1.0435648250
H -1.8663570264 3.7625257197 -2.7154574226
