47
CONF16
C 5.5339217631 0.1098204324 2.0416997222
C 4.8992617205 0.3321269583 0.7276588341
C 3.5978351970 0.4167043801 0.3036943021
C 3.6976868141 0.6301771467 -1.1089668639
N 4.9544700086 0.6755408574 -1.4964401732
O 5.7175407694 0.4692059256 -0.3307304923
C 2.6288019432 0.8384725313 -2.0973982602
C 1.5782020279 1.7221254244 -1.8211911244
C 0.5734248607 1.9234063983 -2.7605825036
C 0.6078955938 1.2464804326 -3.9786084566
C 1.6544866226 0.3703550748 -4.2585490501
C 2.6634447998 0.1646341694 -3.3232869017
C 2.4174823800 0.2592684712 1.1755857295
O 2.4185184939 0.6400584428 2.3476524511
N 1.3475223668 -0.3615602223 0.5985896229
C 0.0806206747 -0.4687467471 1.2448214256
C -1.1682862088 0.2215935031 0.5935324844
N -1.7795032067 -1.1083916406 0.4740162310
C -0.7214043928 -1.7800067560 1.0710522124
O -0.5532948990 -2.9465381766 1.3402071619
C -3.1958492108 -1.2262349106 0.7315999718
C -3.5034883499 -0.2258672551 1.9081977426
S -2.3370213666 1.2182860450 1.6076309337
C -4.9362961432 0.2962262259 1.9145822742
C -3.1743869424 -0.9040240216 3.2381516911
C -3.9836284098 -0.9086144519 -0.5302557338
O -3.6141881960 -0.1471191790 -1.3961956598
O -5.1493886975 -1.5729092980 -0.5514875246
H 6.4023686535 -0.5454234846 1.9371291611
H 4.8128499590 -0.3288564061 2.7314994255
H 5.8723479531 1.0640519103 2.4610624313
H 1.5559527482 2.2573047478 -0.8765137413
H -0.2364364409 2.6121811844 -2.5419432588
H -0.1806145854 1.4018919772 -4.7080818700
H 1.6824722109 -0.1597751045 -5.2051578288
H 3.4724010852 -0.5281377519 -3.5302793558
H 1.4191430626 -0.6667893368 -0.3622319456
H 0.1849210677 -0.2156444125 2.3037530069
H -0.9719301228 0.7257281692 -0.3559980704
H -3.4286235786 -2.2444713283 1.0583453762
H -5.6280640125 -0.5393131225 2.0612971404
H -5.1919372844 0.8111973557 0.9848711567
H -5.0707238728 0.9955240496 2.7443577028
H -3.8770695460 -1.7270213262 3.4117786712
H -2.1571459909 -1.3047738424 3.2552841384
H -3.2689472951 -0.1848363038 4.0557209791
H -5.6453447274 -1.3073065234 -1.3464479328
