61
CONF358
C -1.8547050438 3.8085409781 -0.0049524323
C -3.3288712249 3.4043434045 -0.0226377968
C -3.6117313967 2.0727379209 0.6827520996
C -2.8762045030 0.8781709213 0.0865150998
C -3.2472265273 -0.4640241794 0.7307366302
C -2.7803713829 -1.5101179548 -0.3123718535
N -2.6568778495 -0.7652865684 -1.5782055861
C -3.1921351875 0.5889818103 -1.3781413063
C -3.1875530516 -1.4620369092 -2.7429666506
C -1.4503882462 -2.1126662806 0.1371448345
O -1.4015687870 -2.9032212716 1.1013575862
N -0.3775072884 -1.6566459871 -0.5124612797
C 1.0045661465 -1.9732428904 -0.2052943553
C 1.6588124335 -0.8910347525 0.6783478694
C 1.4431553691 -1.0697786547 2.1815504170
C 2.0668094230 0.1108242787 2.9471331616
C 1.5664900288 1.4514447009 2.3724366317
C 1.7107665801 1.5106937436 0.8450341929
O 1.1598186419 0.3764773023 0.2133716957
S 3.4962058564 1.8291303901 0.3872342059
C 3.3218598614 1.7575655955 -1.4317463919
O 0.1956758905 1.6652880179 2.7175096581
O 3.4888344054 0.0220664864 2.9826403886
O 0.0675816683 -1.1036163359 2.5735629692
C 1.7770440351 -2.1737271728 -1.5299928178
C 1.1667617393 -3.2708733661 -2.3886208046
O 3.1566333552 -2.4435866754 -1.2553834412
H -1.2361694368 3.1070683642 -0.5748024376
H -1.7147903176 4.8023853096 -0.4419185705
H -1.4696918635 3.8330596960 1.0210821363
H -3.9236361440 4.1869371050 0.4640984499
H -3.6835091096 3.3511330331 -1.0601504953
H -4.6911796186 1.8701010265 0.6528608016
H -3.3363298164 2.1616864616 1.7428363038
H -1.7914496953 1.0246768523 0.1846282782
H -4.3356989379 -0.5254213356 0.8433540932
H -2.7220058618 1.2883796712 -2.0792158322
H -4.2882169305 0.6284138301 -1.5352446569
H -2.9930045425 -0.8708806540 -3.6440710808
H -4.2764691643 -1.6364360846 -2.6710819086
H -2.6893911771 -2.4307037976 -2.8595807850
H -2.7942920916 -0.6183713499 1.7139334203
H 1.0254423089 -2.9240172845 0.3447382643
H 2.7425846813 -0.9457651077 0.4995502797
H 1.9579850015 -1.9930788321 2.4879305603
H 1.7355333316 0.0509732627 3.9893259225
H 2.1401152632 2.2698139611 2.8221431809
H 1.1351629285 2.3583790414 0.4595327382
H 4.2863477241 2.0460880331 -1.8551319340
H 3.0697969881 0.7457898471 -1.7529173072
H 2.5521402308 2.4618186474 -1.7585740990
H -0.2637516980 0.8195171913 2.5683189735
H 3.8385797718 0.1755439444 2.0889576285
H -0.3776085492 -1.8718303688 2.1555066185
H 1.7748758687 -1.2234595303 -2.0795768488
H 1.7660988484 -3.4050439629 -3.2930282614
H 1.1455766528 -4.2176798279 -1.8353768121
H 0.1441245859 -3.0238500635 -2.6851719697
H -3.4984787525 -2.3400432327 -0.3801751883
H -0.5954804235 -0.9765784289 -1.2386900262
H 3.2123076828 -3.3323381421 -0.8767349341
