21
CONF20
F 0.8122840780 -1.7419582790 -0.5040805719
C 0.3222527538 -0.5429585672 -0.0961300814
F 0.5300730775 -0.4289923780 1.2423314269
C 1.1092995432 0.5905233892 -0.8249341648
F 0.8330891785 1.7610704326 -0.1756060296
F 0.5640940724 0.7043120299 -2.0857519796
C 2.5993777800 0.3623829472 -0.9618788533
C 3.3771416420 0.0631506718 0.3108258574
O 3.3080306335 1.1945701833 1.1839433799
C -1.2209715752 -0.5519788193 -0.3529175721
F -1.4611009964 -1.0836563091 -1.5728788945
F -1.7016404926 0.7133357259 -0.3218724127
C -2.0392961555 -1.3845955557 0.6882113827
F -2.0929610989 -0.7597789496 1.8698979607
F -1.4912989132 -2.5968844081 0.8572614950
F -3.2915828420 -1.5383106727 0.2328000973
H 2.7394132035 -0.4677676955 -1.6602838727
H 2.9914934603 1.2685629912 -1.4376802095
H 4.4154464370 -0.1379014002 0.0146027365
H 2.9919872737 -0.8384260328 0.8050068864
H 3.8350895893 0.9901310801 1.9661122194
