28
CONF52
O -1.7280343158 2.4580834675 -0.9068846435
C -2.4563298858 1.3585873080 -1.4262983338
C -2.1057193051 0.0381581098 -0.7685684316
O -0.7612591188 -0.3115702157 -1.1578897090
C -0.1456192383 -1.0798644091 -0.1415211767
C -1.0101534738 -0.9599399445 1.1276620074
C -2.1098446675 0.0494797681 0.7629427209
O -3.4118815867 -0.3392024840 1.2011462149
N 1.2556991117 -0.6462033698 -0.0045174586
C 2.2774058392 -1.4897600056 -0.3728055652
C 3.5815287956 -1.1547410235 -0.3036211268
C 3.9706318681 0.1584834894 0.1610413363
O 5.1035689524 0.5895015331 0.2734927234
N 2.8605316154 0.9682598844 0.4940276113
C 1.5203136024 0.6574726331 0.4250230891
O 0.6409538389 1.4515226482 0.7224349947
H -0.8178193966 2.1696368780 -0.7449245713
H -3.5190884806 1.5587746111 -1.2464839675
H -2.3085575719 1.2555660457 -2.5132473847
H -2.8071940713 -0.7395001104 -1.1138151096
H -0.0754791886 -2.1284593757 -0.4631788187
H -0.4219578685 -0.6567832853 1.9953440421
H -1.4804132430 -1.9243510498 1.3410851637
H -1.8554085087 1.0504762304 1.1226083788
H -3.5782118292 0.0694189168 2.0558432102
H 1.9572709674 -2.4646394268 -0.7260675067
H 4.3572653965 -1.8468395345 -0.5984413715
H 3.0678023607 1.9084333146 0.8056136824
