63
CONF15
C 3.2929091848 -0.2488633582 0.5015966321
C 3.0256045871 -1.2075936920 -0.6555768919
N 1.7406162333 -0.9022717635 -1.2931899875
C 1.7863977896 0.4482047533 -1.8662175312
C 1.9877428902 1.4935680312 -0.7748724937
C 3.2726881217 1.1949648838 -0.0022827125
N 3.5021647441 2.1567739100 1.0755709577
C 2.7019883299 2.4127365553 2.1868255299
C 1.4968282281 1.8768125710 2.6264427265
C 0.9570361287 2.3786308010 3.8145410433
C 1.5990797543 3.3819201455 4.5426530891
C 2.8113346481 3.9227151484 4.1069608071
C 3.3446362315 3.4253898902 2.9295998140
N 4.5044508863 3.7451344101 2.2482915643
C 4.6273588882 2.9787655645 1.1045222067
O 5.5402064864 3.0141423766 0.2810529977
C 1.3963703414 -1.9043746283 -2.3123513979
C -0.0954477036 -1.9020012565 -2.6439140621
C -0.9537722160 -2.3870376633 -1.4725897013
C -2.4263739073 -1.9598709286 -1.5815997944
C -3.2622732758 -2.6432249952 -0.5114089628
C -4.1815186767 -3.6360694414 -0.8563659466
C -4.9341091476 -4.2950704746 0.1150328661
C -4.7442684211 -3.9395308386 1.4377370688
C -3.8443418262 -2.9608630452 1.8271472323
C -3.1069553677 -2.3152757059 0.8395878824
F -5.4712273217 -4.5746857301 2.3977350959
C -2.6328597082 -0.4527144306 -1.5408833060
C -3.7368048937 0.0977938135 -2.2005925156
C -4.0026609983 1.4633117029 -2.1605028770
C -3.1375707677 2.2744289949 -1.4457334005
C -2.0309095258 1.7785325851 -0.7807614584
C -1.7865036227 0.4074907596 -0.8355137869
F -3.3826716676 3.6126888860 -1.4024159464
H 4.2678552254 -0.4696594747 0.9500858494
H 2.5274139929 -0.3955113244 1.2715646149
H 2.9954884503 -2.2359134535 -0.2787883634
H 3.8598480700 -1.1470820597 -1.3853862062
H 2.6037411032 0.5284055944 -2.6128969576
H 0.8475602143 0.6532684080 -2.3898035443
H 1.1243518392 1.4788571060 -0.1016050147
H 2.0473390140 2.4922322427 -1.2215999635
H 4.1207517504 1.3302505830 -0.6848137643
H 0.9805414366 1.0968643583 2.0808955937
H 0.0167189727 1.9735944199 4.1740217378
H 1.1527999228 3.7490745741 5.4609929512
H 3.3190578090 4.7020484533 4.6653002715
H 5.1894500661 4.4309566543 2.5241163152
H 1.6671467462 -2.8917980288 -1.9163075707
H 1.9911128274 -1.7545356668 -3.2340259154
H -0.4073196566 -0.8958871651 -2.9464697503
H -0.2641335593 -2.5466259057 -3.5151435690
H -0.9179520155 -3.4820641500 -1.4208725278
H -0.5331232536 -2.0222272258 -0.5286916546
H -2.8045418466 -2.3072878784 -2.5516348552
H -4.3151492761 -3.9032122190 -1.9008679993
H -5.6511551149 -5.0656547271 -0.1472802264
H -3.7294193277 -2.7119671133 2.8767481987
H -2.4032445068 -1.5409762121 1.1309277118
H -4.4046502241 -0.5547755187 -2.7568473447
H -4.8562301330 1.8925409487 -2.6742404808
H -1.3719533442 2.4486797598 -0.2382340977
H -0.9094462210 0.0188846889 -0.3276672851
