33
CONF9
C -5.3289556320 0.0669898889 -0.7733752853
C -3.9860935210 0.4046001533 -0.1386763859
C -3.8720969626 -0.3195361962 1.1993146514
O -4.3486084231 0.1208379938 2.2230085306
O -3.2540620149 -1.5063650077 1.1015942751
O -2.9775163359 0.0180038772 -1.0721439058
C -1.6814890313 0.3792595043 -0.8157117031
C -1.2677612189 1.1214001622 0.2918341420
C 0.0845908684 1.4297559761 0.4441314128
C 0.9968472436 1.0029830223 -0.5044198416
C 0.5932568259 0.2670019439 -1.6142379530
C -0.7475045224 -0.0471709173 -1.7666065906
O 2.3345461526 1.3844671720 -0.3733673022
C 3.2375823672 0.4355072410 0.0105603973
C 4.5957637552 0.7673650000 -0.0789348641
C 5.5834358680 -0.1256369486 0.3115034202
C 5.1991878693 -1.3705846157 0.7949274995
C 3.8620864996 -1.7280777519 0.8965509957
C 2.8851139693 -0.8199509440 0.5039640140
Cl 6.4432724561 -2.5106728734 1.2874033858
Cl 5.0585166760 2.3389311051 -0.6900922073
H -5.3916357449 -1.0040563950 -0.9836875308
H -5.4352714050 0.6246525126 -1.7065891073
H -6.1387989452 0.3494795051 -0.0969017159
H -3.9284134480 1.4803867484 0.0679898265
H -3.2522740851 -1.9212728412 1.9819853228
H -1.9666225055 1.4711572558 1.0423601158
H 0.4242504547 2.0033770762 1.2999825113
H 1.3260425756 -0.0545843957 -2.3472720070
H -1.0907318439 -0.6179221685 -2.6229045822
H 6.6284962254 0.1488535273 0.2343420253
H 3.5769536860 -2.7007980641 1.2796699634
H 1.8378921415 -1.0883803293 0.5845197847
