41
CONF16
C -5.2735563770 -0.6991123695 2.6353024367
C -4.1707538731 -0.4768545514 1.6513174800
C -4.0068356933 -1.2881899518 0.5272045905
C -2.9569397327 -1.0061912303 -0.3391674283
N -2.1287846679 0.0232732086 -0.0941441806
C -2.3582509252 0.7348141254 1.0103578200
N -3.3376499715 0.5448475186 1.9002950669
N -1.5064262856 1.7951959899 1.3119254943
C -0.3739698411 2.2737575895 0.6655199390
O 0.2945606831 3.1717962502 1.1582269494
N -0.0947016928 1.6742839560 -0.5476592217
S 1.3726534262 1.9282068740 -1.3554894048
O 1.5036825950 3.3544350884 -1.6605385878
O 1.3491456136 0.9433193114 -2.4459653351
C 2.6810749074 1.4803641624 -0.2051832017
C 3.4076749363 2.5125091192 0.3758485905
C 4.4975619056 2.2070235478 1.1854588192
C 4.8648877736 0.8810144939 1.3861427688
C 4.1419469303 -0.1463786557 0.7869782364
C 3.0299574774 0.1384946694 -0.0057577197
C 2.2151525410 -1.0045792368 -0.5231838619
O 1.0376959827 -1.1636496681 -0.2745411687
O 2.9668599241 -1.8537078938 -1.2302713151
C 2.2748909731 -3.0332052949 -1.7233919119
C -2.6827246441 -1.8054027714 -1.5702387377
H -5.9053269342 0.1934002219 2.6920841308
H -5.8886308793 -1.5568349085 2.3592364455
H -4.8542383706 -0.8611596884 3.6334682994
H -4.6798081820 -2.1150897679 0.3345512235
H -1.7114381256 2.2753469372 2.1783725655
H -0.6195399199 0.8053841255 -0.7623203063
H 3.1272683737 3.5412098719 0.1858492064
H 5.0627072030 3.0095658460 1.6467641406
H 5.7209888917 0.6407574659 2.0076121861
H 4.4274349840 -1.1810357193 0.9437474692
H 1.8852951149 -3.6139676070 -0.8844728062
H 3.0279153886 -3.5976780116 -2.2705839955
H 1.4576781331 -2.7330874760 -2.3831392201
H -3.3875261500 -2.6314279976 -1.6749243632
H -1.6619975545 -2.2003824514 -1.5347555195
H -2.7479338267 -1.1610656193 -2.4533770849
