53
CONF116
C -1.4754868151 4.2780053074 -1.4855958439
C -0.9491922517 4.2159957569 -0.0657257242
O -0.8137226306 2.8353020648 0.3619233223
C 0.3244942761 2.1885219341 0.0137412327
O 1.2677509330 2.7500430699 -0.5340766069
C 0.2576172158 0.7782692411 0.3733172749
C 1.3383571564 -0.0244921217 0.1628963394
N 1.2907221743 -1.3434692808 0.5233028478
C 0.2750104977 -1.9048707917 1.2609609131
C -0.8468508492 -1.1709858503 1.5164866543
C -1.0585324348 0.2023484499 0.8846067182
C -2.0691624319 0.1219640680 -0.2610499900
C -1.7587988143 -0.6916912466 -1.3579979998
C -2.6040196364 -0.8173478427 -2.4519730617
C -3.8065857565 -0.1152525589 -2.4753160332
C -4.1486316286 0.7005889594 -1.4039735985
C -3.2842214564 0.8098447039 -0.3163258842
Cl -3.8111483990 1.8698930966 0.9939264261
C -1.8969978741 -1.7216854671 2.3675805981
O -1.8928779873 -2.8043105979 2.9400017822
O -2.9400999049 -0.8587714606 2.4733858584
C -4.0345285508 -1.2988831122 3.3018499476
C 0.5569492871 -3.3028199524 1.7198166914
C 2.6533495096 0.4112798730 -0.4402240002
O 3.5379379400 -0.6998522627 -0.4710997920
C 4.8264708131 -0.3528389861 -0.9897687884
C 5.7148736919 -1.5823713302 -0.9058789503
N 5.9687748722 -2.0823343579 0.4525095694
H -2.4308407045 3.7500642042 -1.5626080137
H -0.7647284122 3.8290933141 -2.1848612456
H -1.6315731098 5.3224707283 -1.7731298136
H -1.6609388111 4.6476658235 0.6417617683
H 0.0148499416 4.7216979991 0.0334918852
H 2.1300398510 -1.8830336971 0.3589850710
H -1.4654583511 0.8754738977 1.6399235269
H -0.8198743642 -1.2381165835 -1.3416488570
H -2.3258611326 -1.4585110577 -3.2820290366
H -4.4809426744 -0.1987377198 -3.3213737919
H -5.0816832952 1.2531259866 -1.4069291972
H -4.7633189330 -0.4890085435 3.2699947467
H -4.4692151780 -2.2200252051 2.9044649872
H -3.6953659288 -1.4689225410 4.3272205265
H 0.6795825037 -3.3335686054 2.8059344704
H -0.2737686295 -3.9673204070 1.4787557775
H 1.4699585367 -3.6798883905 1.2520484331
H 2.4833341858 0.8032327950 -1.4530775135
H 3.0780135912 1.2320171133 0.1548693486
H 4.7293698775 -0.0158822392 -2.0342324669
H 5.2514278005 0.4727506688 -0.3962224045
H 5.2614415592 -2.3882889376 -1.4965698862
H 6.6723010717 -1.3375353530 -1.3815159453
H 5.0782406809 -2.2769639636 0.9005929163
H 6.3935588415 -1.3418670203 1.0040429115
