30
CONF87
O 6.0065469875 -0.9902042584 0.7282988181
S 5.0681243624 0.1121265385 0.0038751164
O 5.1634450408 1.3145216815 0.8165247912
O 5.2843821961 0.0995977877 -1.4372876263
C 3.3484689718 -0.6698917554 0.3516625443
F 3.1903921999 -1.6889846325 -0.5110879942
F 3.3528907840 -1.1346001577 1.6074475393
C 2.2071303117 0.3817983178 0.1692450622
F 2.1937641515 1.1850671199 1.2539219839
F 2.4829517450 1.1194923766 -0.9296236560
C 0.7910812259 -0.2748314483 -0.0016262288
F 0.6892126073 -1.3030147937 0.8707400540
F 0.6877328680 -0.7498585139 -1.2620222822
C -0.3872551291 0.7287037677 0.2653035398
F -0.5155032218 0.8935945104 1.5995355228
F -0.0825104334 1.9165197444 -0.3020492634
C -1.7567312305 0.2313877926 -0.3260263321
F -1.8720734249 -1.1000922273 -0.1054875565
F -1.7551706609 0.4642586771 -1.6560108713
C -2.9967701323 0.9366740967 0.3158306425
F -3.1877225763 0.4367111025 1.5547768602
F -2.7331290983 2.2625901296 0.4114043832
C -4.3578485103 0.8236420834 -0.4651469342
F -5.2880128297 1.3957336691 0.3359673397
F -4.2738814961 1.5355737030 -1.6082913317
C -4.8718497129 -0.6049081091 -0.8229654924
F -4.0988853756 -1.1625060831 -1.7638125026
F -4.8796335542 -1.3895067129 0.2619842684
F -6.1193374397 -0.5062940188 -1.2975016841
H 6.2255054053 -1.7107913211 0.1047909488
