39
CONF84
C 4.6177162010 1.8470128059 -0.2748436063
C 3.4820437590 0.9066915825 -0.6738601418
C 2.8879057937 1.2644398211 -2.0348374942
C 1.7477779226 0.3409133391 -2.4635456148
N 0.6006165504 0.4357837378 -1.5599123432
C 0.2984547568 -0.5055711850 -0.6578710354
O 0.8176486921 -1.6194838382 -0.5781272986
N -0.7395620447 -0.1342530023 0.2529321717
C -1.0753953813 1.1380332737 0.7395712446
C -0.4527651178 2.3774995187 0.6549285385
C -1.0700542359 3.4374246222 1.3195803994
C -2.2495174832 3.2568031468 2.0526913864
C -2.8475382356 2.0043990497 2.1605736156
C -2.2458424982 0.9360220913 1.5004158995
N -2.6126710007 -0.4047901249 1.5016285828
C -1.7103426762 -1.0044947049 0.7711507506
N -1.6232332201 -2.3425359184 0.4763612850
C -2.6250776609 -3.2794760555 0.6435431230
O -3.7535310954 -3.0712219148 1.0346346721
O -2.1355421767 -4.4857375621 0.2872467884
C -3.0810644864 -5.5785104946 0.3858028824
H 5.4305994976 1.8116581694 -1.0084525984
H 5.0322373885 1.5783705617 0.7016613926
H 4.2632857763 2.8821922346 -0.2177482987
H 2.6950561483 0.9428755503 0.0907852633
H 3.8455876179 -0.1288126856 -0.7009443214
H 2.5294733302 2.3026633692 -2.0239930350
H 3.6671767799 1.2077439582 -2.8056230345
H 2.0769297509 -0.7013640825 -2.4720463446
H 1.4043703670 0.5979129420 -3.4707977545
H 0.0338853205 1.2698940763 -1.6090893670
H 0.4762219610 2.5329090294 0.1180629069
H -0.6165863622 4.4218066127 1.2694236363
H -2.6977544792 4.1077699982 2.5553625778
H -3.7481912551 1.8535859654 2.7467299907
H -0.7384782409 -2.6463001025 0.0777195367
H -2.5299987727 -6.4598141741 0.0608692407
H -3.9368029490 -5.3974881803 -0.2687303120
H -3.4170364421 -5.6945529282 1.4187471019
