43
CONF113
C 3.2088636110 -3.0364534477 1.1136872789
C 2.3624281334 -3.2096251161 -0.1301388998
O 1.1147971587 -2.4780956046 -0.0433982133
N 1.3659155697 -1.1249621857 -0.2216475333
C 0.3322371619 -0.4116599452 0.0038658387
C -0.9811125616 -0.8333960959 0.5168461208
C -1.1087201468 -1.3890831610 1.8058315399
C -2.3688699239 -1.7723189648 2.2705436900
C -3.4913003112 -1.5833481759 1.4713407098
C -3.3707389166 -1.0172855018 0.2109813188
C -2.1172572693 -0.6360251825 -0.2748603510
O -1.9767112821 -0.0499795761 -1.5002916992
C -1.7814048236 -1.0032860986 -2.5744367934
Cl -4.7954031975 -0.7662404042 -0.7790511734
O 0.0307578420 -1.4812185976 2.5271016039
C -0.0486418628 -2.0595458100 3.8390370561
O 0.4658675904 0.9579762263 -0.1804782206
C 0.7368957055 1.4613920767 -1.4395713341
O 0.9275722576 0.7711469331 -2.4100724938
C 0.7507393513 2.9403043934 -1.4231665124
C 1.0293179713 3.5977101379 -2.6274995099
C 1.0540861084 4.9848627794 -2.6719921462
C 0.8015653621 5.7237186303 -1.5166323147
C 0.5235304892 5.0724126126 -0.3163524226
C 0.4969030118 3.6837120088 -0.2643060037
H 2.6605676961 -3.3629429690 2.0025909011
H 4.1184178735 -3.6392015676 1.0252403922
H 3.5006664494 -1.9901682349 1.2420660510
H 2.8951880251 -2.8918115586 -1.0337843747
H 2.0397504125 -4.2474120560 -0.2531713535
H -2.4950922323 -2.2029551455 3.2551493543
H -4.4688093303 -1.8746194830 1.8394343118
H -1.6850268672 -0.4144530894 -3.4867349646
H -2.6428972974 -1.6754547894 -2.6470443645
H -0.8646580126 -1.5784824149 -2.4048583244
H -0.6957089943 -1.4620207345 4.4907807419
H -0.4156166575 -3.0905807744 3.7883233032
H 0.9713958980 -2.0493201459 4.2225325881
H 1.2245490517 3.0105697903 -3.5179702361
H 1.2704348476 5.4920012616 -3.6065352181
H 0.8211670178 6.8084362554 -1.5522474527
H 0.3259962371 5.6482765940 0.5818382946
H 0.2783587372 3.1794277289 0.6690509100
