49
CONF16
C -1.7661520884 -1.2943732104 -3.3909625733
C -2.4370640989 -1.9658863787 -2.2109954340
C -2.3386254454 -1.3401017626 -0.8074071766
C -1.6135145050 -2.6548039137 -1.1609987907
C -2.1422887188 -3.8964297131 -0.4691211335
C -0.1032162013 -2.6778073214 -1.2669136394
C -1.6152377724 -0.0928279824 -0.5421162158
O -0.6178355396 0.3338249513 -1.0841268170
O -2.2496272496 0.5905368774 0.4729288002
C -1.5965420417 1.8245133365 0.8780381502
C -2.6644146217 2.7322638780 1.2887459516
N -3.4900546822 3.4669925501 1.6228727556
C -0.5985168771 1.5618374711 1.9845466184
C -1.0230850702 1.4036307651 3.3033994942
C -0.0921950246 1.0898329207 4.2870038937
C 1.2528382505 0.9451516486 3.9686560744
C 1.6644213068 1.1111088447 2.6489039478
C 0.7454556819 1.4150194879 1.6474140120
O 2.9972958649 0.8902051123 2.3866585653
C 3.6045735324 1.5753505539 1.3467943762
C 3.4577742081 2.9519351174 1.1975503390
C 4.1511273834 3.5973752511 0.1799613100
C 4.9880385656 2.8805030522 -0.6719461731
C 5.1306590355 1.5067316164 -0.5018419982
C 4.4363589437 0.8456546686 0.5063818947
C -3.8038662092 -2.5078190560 -2.5838992406
H -0.8171298813 -0.8248436900 -3.1429702663
H -2.4228941073 -0.5188698256 -3.7995699204
H -1.5970801603 -2.0368083148 -4.1794471835
H -3.2216449324 -1.4592888203 -0.1884976440
H -3.2157852527 -3.8610981899 -0.2804732257
H -1.9329763609 -4.7837136026 -1.0779800908
H -1.6395743889 -4.0268858096 0.4948333955
H 0.2016283396 -3.5156951557 -1.9044411807
H 0.3351378571 -2.8363008796 -0.2756825281
H 0.3183795452 -1.7598741541 -1.6704462647
H -1.0839894181 2.2511376025 0.0078714025
H -2.0704131345 1.5323830545 3.5562699034
H -0.4137693852 0.9681284564 5.3160458004
H 1.9927772343 0.7069743362 4.7246925376
H 1.0663501973 1.5139598959 0.6166041433
H 2.8115695771 3.5039023872 1.8717981602
H 4.0424688492 4.6704854542 0.0598475014
H 5.5273625875 3.3913879901 -1.4621277827
H 5.7815447360 0.9411391475 -1.1606861849
H 4.5302082036 -0.2244341339 0.6545037880
H -4.3588655692 -2.9025397611 -1.7320933544
H -3.7021334990 -3.3092553619 -3.3248504510
H -4.4074780662 -1.7123095811 -3.0330585811
