47
CONF42
C -3.3764786511 0.9572146332 0.5355883200
C -2.3805851009 0.4839545579 -0.5000907857
C -2.8469122920 -0.3566904644 -1.6629753738
C -2.0948771807 -1.0192450508 -0.5061585311
C -0.7375362403 -1.5236880388 -0.7640513046
O -0.0083132703 -1.2131900402 -1.6792776083
O -0.3774234906 -2.4019874232 0.2263812351
C 0.9582406903 -2.9557065167 0.1181379411
C 0.8371876404 -4.3983520782 0.3069388241
N 0.7602646891 -5.5418009104 0.4453790883
C 1.8959056401 -2.2926060386 1.1104544304
C 1.8975190942 -0.8984843283 1.1642912780
C 2.7815602206 -0.2531757226 2.0213452876
C 3.6572833344 -0.9830033827 2.8249590228
C 3.6374233440 -2.3677045075 2.7647942181
C 2.7619600380 -3.0330211807 1.9087604961
O 2.8123545254 1.1125009388 2.1845521581
C 2.3472309620 1.9515875961 1.1869704573
C 2.7016347406 1.7834355575 -0.1495184847
C 2.2636437006 2.7138540387 -1.0853620040
C 1.4957503572 3.8076283299 -0.6935830326
C 1.1625670565 3.9690455797 0.6478952003
C 1.5808327956 3.0385083514 1.5938344555
C -4.2551369600 -0.6965599724 -1.8777518619
C -4.8556638868 -0.7841854912 -3.0661011910
Cl -6.5412439287 -1.1898105262 -3.2204585715
Cl -4.0532630409 -0.5079330967 -4.5823221057
C -1.2598268341 1.4655326827 -0.7506201006
H -2.8529606498 1.2181716808 1.4609911506
H -4.1283967099 0.2038060141 0.7791083656
H -3.8943566783 1.8524258703 0.1745406399
H -2.2406340351 -0.2526749793 -2.5574533072
H -2.6731201211 -1.6062151324 0.1990980779
H 1.3160121093 -2.7680310065 -0.9040828632
H 1.2217770994 -0.3205421534 0.5454931072
H 4.3305130508 -0.4516966675 3.4882755257
H 4.3115989346 -2.9401761081 3.3929847272
H 2.7528950933 -4.1166601042 1.8700129588
H 3.3123428073 0.9388223856 -0.4490596328
H 2.5347811303 2.5846185025 -2.1281280692
H 1.1624470106 4.5306561249 -1.4300952404
H 0.5683441798 4.8205880410 0.9634771254
H 1.3330368754 3.1450142844 2.6443056425
H -4.8784681188 -0.8973889843 -1.0125310599
H -0.5719706823 1.1263061873 -1.5259450411
H -0.6855514477 1.6402810674 0.1665404771
H -1.6823862867 2.4265781741 -1.0624973468
