24
CONF96
C 1.7341643707 1.4772506238 0.0477870632
C 1.9224567527 -0.0299230936 -0.0489680522
C 0.7675733357 -0.8477235645 -0.6520215660
C -0.5993972505 -0.6926284215 0.0575503136
C -1.4301578912 0.4683789769 -0.5266003215
C -2.5536474854 0.8354171281 0.4126159212
O -3.7097536510 0.8201578618 0.0539819678
O -1.9471907686 0.0813173628 -1.7869928553
O -1.3595285299 -1.8969705567 -0.0769898657
O 1.2054905470 -2.2031756674 -0.5369559360
O 2.2040019742 -0.4751469422 1.2770262314
O 0.7839266973 1.8468473716 1.0475665564
H 2.7104580304 1.9340773254 0.2646756228
H 1.3820404456 1.8817802249 -0.9077233536
H 2.7924311826 -0.2145246474 -0.7027607963
H 0.6559031015 -0.5771048691 -1.7157611333
H -0.4349234295 -0.5465476012 1.1296014583
H -0.7926518353 1.3589574889 -0.6152929559
H -2.2550706291 1.1272543059 1.4392751371
H -2.9051169171 0.2522325894 -1.7380810493
H -1.8090923060 -1.8209593810 -0.9356965406
H 0.3960130625 -2.7330364215 -0.4538560198
H 2.1718361150 -1.4424363371 1.2396661963
H 1.0702352794 1.3965064393 1.8536473804
