31
CONF1
C -3.5045150225 2.1349916078 -0.3206602137
C -2.1849702345 1.9278056435 0.0345026728
C -1.5538655184 0.7100479485 -0.2532346880
C -2.3014067402 -0.2946743139 -0.9038268511
C -3.6314282403 -0.1001739480 -1.2381567676
C -4.2157275724 1.1202315480 -0.9533655819
N -5.6208140546 1.3432900122 -1.3295132335
O -6.1121299143 2.4285387494 -1.0430042999
O -6.2043716540 0.4315588187 -1.9013573910
N -1.7175174004 -1.5955164683 -1.2666664720
O -0.5343423013 -1.6207885301 -1.5873461979
O -2.4654170930 -2.5619195635 -1.2588324335
O -0.2733402744 0.4342177877 0.0868973939
N 0.2790573067 1.4158747196 0.9613238889
C 1.5147453315 1.1846030724 1.2271572288
C 2.4823188451 0.1734533329 0.8365209471
C 2.2678857195 -0.8375335293 -0.1152985111
C 3.2836322810 -1.7310807875 -0.3860683804
C 4.5357757290 -1.6832144575 0.2491072993
C 4.7322908896 -0.6628371973 1.1913947520
C 3.7330738946 0.2450135482 1.4765887169
Br 6.4058843702 -0.5427645905 2.0805557977
O 5.5266570724 -2.5466318112 -0.0016488453
Br 3.0053724206 -3.1131759149 -1.6767998305
H -3.9932748275 3.0782213703 -0.1109040783
H -1.6242394955 2.6991571191 0.5414071845
H -4.1931992734 -0.8902626989 -1.7192095186
H 1.8895960852 1.9406436575 1.9189521746
H 1.3289604202 -0.9256798031 -0.6391133096
H 3.9232960496 1.0196329392 2.2111138339
H 5.2220117939 -3.1810285627 -0.6730156061
