45
CONF461
O -0.7728352053 -0.3419941967 -2.9426348298
C -2.0520446192 -0.9536895124 -2.7837321798
C -2.5468009992 -0.9488472375 -1.3535547464
O -1.5977776962 -1.6916901070 -0.5331349284
C -1.4336125982 -1.0826494093 0.7354244573
C -1.4302501757 -2.2033805354 1.7721032874
O -1.1105286276 -1.7404700223 3.0739682173
O -0.2053698914 -0.3363412305 0.8316959174
C 0.9519355727 -0.8833873176 0.2386328393
O 1.2794892771 -0.1769242003 -0.9511563020
C 1.5225852664 1.2384255432 -0.7367501902
C 1.7131501534 1.8842868456 -2.0992504203
O 0.4841086930 2.1960128931 -2.7502043266
C 2.7373137667 1.3911075387 0.1769187299
O 2.9409225679 2.7850266469 0.4013958535
C 2.4777420618 0.6666556595 1.4915103599
O 3.6704540451 0.7768426683 2.2717106472
C 2.1185656627 -0.7868579617 1.2289863061
O 1.7845324795 -1.3943772315 2.4834136887
C -2.5436979492 -0.0154387994 0.8203843601
O -2.3026484127 1.0582703060 1.7043534648
C -2.6766005949 0.3933057047 -0.6539454336
O -3.9195758648 0.9885741101 -0.9892855102
H -0.1756419406 -0.6835716394 -2.2543484725
H -2.7617635595 -0.3957844611 -3.4032035305
H -2.0230472426 -1.9921173759 -3.1435736697
H -3.5207659978 -1.4604122261 -1.3233010131
H -0.7260643301 -2.9798747206 1.4321580582
H -2.4300132513 -2.6470787887 1.8086539738
H -0.1879674392 -1.4343612361 3.0324311989
H 0.7899979674 -1.9210675557 -0.0711078413
H 0.6471957863 1.6924565817 -0.2509754553
H 2.3466347113 1.2288856686 -2.7173413670
H 2.2376428767 2.8329172012 -1.9585533450
H -0.0167661925 1.3704239630 -2.8842343127
H 3.6196052343 0.9425949135 -0.3107120672
H 3.6173284655 2.8634329409 1.0877188255
H 1.6384341821 1.1611321695 2.0056211098
H 3.4837688509 0.4071848977 3.1444035072
H 2.9842315418 -1.2913379170 0.7802021459
H 2.0355252919 -2.3262892562 2.4501340060
H -3.4780417080 -0.4910356886 1.1412487399
H -1.4035209393 1.3734586445 1.5307486492
H -1.8345946449 1.0511149194 -0.9221477689
H -3.9312335900 1.8768688799 -0.6106704528
