34
CONF51
C 5.8582066576 1.3105347010 0.7906730833
N 5.3095589995 1.5936145664 -0.5497517619
S 4.1915999787 0.5884732442 -1.2222143631
O 4.6151766479 -0.7949402635 -1.0063601658
O 3.8479633450 1.1151079456 -2.5446723736
C 2.6049331602 0.8146367325 -0.1546822995
C 1.3200310845 0.2979384185 -0.8718569433
C 0.1168054779 0.0540779910 0.1065394335
C -1.2678302100 -0.0431549599 -0.6297736721
C -2.3782946753 -0.7266821533 0.2475501574
C -3.8310874086 -0.4292239264 -0.2512834423
C -4.9690504841 -1.3742739173 0.2847359643
C -5.1226329459 -1.5188724655 1.8300541137
F -6.2482278133 -2.1953931917 2.0887332245
F -4.0890298450 -2.1954011827 2.3471146919
F -5.1956801367 -0.3152820623 2.4119431464
F -6.1283853208 -0.8572374217 -0.1872155301
F -4.8025616650 -2.6081532888 -0.2359082708
F -4.1550864324 0.8384929738 0.0800142796
F -3.8547442638 -0.5509027309 -1.6008253467
F -2.1722193350 -2.0611085057 0.2322619506
F -2.2716632672 -0.2725625199 1.5193407323
F -1.1098151841 -0.7681697773 -1.7594578880
F -1.6700678447 1.2043349110 -0.9563209661
F 0.3362878376 -1.0976142564 0.7794857806
F 0.0655280286 1.0798055626 0.9868428384
F 0.9497332011 1.2102696287 -1.7976684750
F 1.6166879978 -0.8687902572 -1.4887341692
F 2.7922577118 0.1450901233 1.0024496437
F 2.4829338068 2.1301111226 0.1121685648
H 6.7959940230 1.8635037918 0.8777915473
H 6.0732248320 0.2440174401 0.8713412446
H 5.1798272165 1.6163657649 1.5937243017
H 5.1096285347 2.5713879726 -0.7463632417
