39
CONF335
C 2.3655891747 -0.6808355869 -0.2190032429
C 2.6163521675 -1.7605766599 -1.2626387139
O 1.4001116156 -2.4472652995 -1.5658956996
C 0.6124463141 -1.8624150207 -2.6099214444
C -0.8378702135 -1.8239374712 -2.1931331718
O -0.9672913137 -0.7749864705 -1.2230261898
C -2.1565953907 -0.6241124073 -0.5781965306
C -3.2914101331 -1.4004871505 -0.7844087235
C -4.4477351296 -1.1631461104 -0.0321805511
C -4.4681452826 -0.1544959365 0.9191081205
C -3.3355007291 0.6414324834 1.1249791961
C -2.1858206856 0.4217642305 0.3758519890
O -1.0382703024 1.1481280347 0.4635054788
C -0.8731230278 2.0421233834 1.5735538314
C 0.5230556544 2.6024664013 1.4702889501
O 1.4508379290 1.5333047316 1.6108111670
C 2.7942578876 1.9234690495 1.3270262703
C 3.6742535657 0.6900378612 1.2643444069
O 3.6124885250 -0.0262458101 0.0290165168
H 1.6104990796 0.0307938636 -0.5783176773
H 1.9826171092 -1.1437759313 0.7028461216
H 3.0638674257 -1.3268568636 -2.1682044750
H 3.3109029838 -2.5081449038 -0.8641398396
H 0.9548841525 -0.8456372516 -2.8411633470
H 0.7022648184 -2.4728932821 -3.5201172292
H -1.4768619536 -1.6149989367 -3.0623387264
H -1.1293915764 -2.7883119595 -1.7563767387
H -3.2848563244 -2.1943968957 -1.5219341742
H -5.3255100723 -1.7785258948 -0.2005722921
H -5.3606863005 0.0284172778 1.5084831033
H -3.3609602146 1.4335178575 1.8644222586
H -1.0108624612 1.4937193714 2.5151767109
H -1.5992096474 2.8646552871 1.5251891277
H 0.6524010178 3.0955282364 0.4939025196
H 0.6662718001 3.3584872311 2.2591229716
H 2.8429112732 2.4630404294 0.3675170320
H 3.1688199143 2.5954045088 2.1173231966
H 4.7180500547 1.0044430363 1.3649195440
H 3.4272179731 0.0213127634 2.1041804449
