58
CONF4
C -6.0067838794 -1.9457273093 1.4059049778
C -5.3979016287 -0.9998229190 2.2301952127
C -4.0186868563 -0.9847732305 2.3743852276
C -3.2118855980 -1.9164908678 1.7066322558
C -3.8337908338 -2.8644938267 0.8884170715
C -5.2219255949 -2.8755594013 0.7386442933
C -1.6998987785 -1.8384044843 1.9059238136
C -0.9277628039 -2.9252270964 1.1378805439
C 0.5914887082 -2.8871089163 1.3146888664
C 1.2910460782 -1.8137758667 0.5098888327
C 1.1417497007 -1.7564405262 -0.8787533193
C 1.7839011352 -0.7785200832 -1.6219115371
C 2.6101568853 0.1712954691 -1.0048670893
C 2.7728422904 0.0980961605 0.3830387367
C 2.1271327506 -0.8829421110 1.1264198872
C 3.2860965600 1.2148737246 -1.7980997723
C 3.7792251512 0.9435320730 -3.0806708277
C 4.4069030143 1.9258165754 -3.8368417340
C 4.5453468212 3.2002072476 -3.3022871485
C 4.0741692413 3.5038929725 -2.0313345947
C 3.4498850300 2.5091874029 -1.2900621225
Br 5.4029080715 4.5622526976 -4.3352944457
O 1.0384276972 -4.1909259394 0.8912210150
C -1.1897863234 -0.4399803938 1.6195590390
C -1.3971679770 0.1976663183 0.4269723072
C -0.7945820835 1.4732444490 0.1499074286
C -0.9086208248 2.1389856997 -1.0793239642
C -0.3069307672 3.3710615783 -1.2621175299
C 0.4036781198 3.9645351352 -0.2140763412
C 0.5324736074 3.3218919082 1.0074451432
C -0.0586767866 2.0729190910 1.1795571883
O 0.0986619026 1.4722524881 2.3881812083
C -0.3971795000 0.1910005283 2.6481245194
O -0.1207027212 -0.2859581400 3.7281192768
O -2.1430028093 -0.3153038542 -0.5694554425
H -7.0854095236 -1.9554853804 1.2891516493
H -6.0027965028 -0.2720850780 2.7616822850
H -3.5466190144 -0.2435107004 3.0132646763
H -3.2452960842 -3.6131945419 0.3693076409
H -5.6839951043 -3.6207175440 0.0989421246
H -1.5112209336 -2.0017951487 2.9737229854
H -1.2606813351 -3.9050549807 1.4984078176
H -1.1491521643 -2.8876137641 0.0645996571
H 0.8247609130 -2.7367566658 2.3807405457
H 0.5099489470 -2.4818651064 -1.3819552625
H 1.6194183314 -0.7278994210 -2.6937828925
H 3.4315992254 0.8002376585 0.8844787507
H 2.2618755913 -0.9169755039 2.2043138089
H 3.6976615534 -0.0595207319 -3.4869672841
H 4.7929625522 1.6999059416 -4.8237919011
H 4.1839616472 4.5047224858 -1.6303924657
H 3.0483308740 2.7531964329 -0.3126869340
H 1.9993794076 -4.1547936941 0.8165510575
H -1.4714480433 1.6691463169 -1.8770016660
H -0.3889762064 3.8789907365 -2.2164471198
H 0.8669259424 4.9354167618 -0.3577359941
H 1.0800574186 3.7619229487 1.8335289245
H -2.6720947918 -1.0575257753 -0.2278608902
