63
CONF37
C 2.4910532814 0.4951336682 -1.3432934558
C 1.2647738825 1.4032205083 -1.3454855607
N 0.8435698490 1.7217309843 0.0236391366
C 1.9211599257 2.4297699219 0.7253996804
C 3.1772458306 1.5702291613 0.8240201987
C 3.6309093459 1.1666624725 -0.5784978494
N 4.8460421332 0.3531912726 -0.5585971350
C 5.0366041319 -0.9040406282 0.0099544019
C 4.1908400888 -1.7652136875 0.6990737347
C 4.7209307966 -2.9804753618 1.1428106824
C 6.0525677560 -3.3263271790 0.9063376571
C 6.9070486036 -2.4649492857 0.2135786750
C 6.3808069613 -1.2616049293 -0.2254842997
N 6.9549580234 -0.2159613632 -0.9243009091
C 6.0336402673 0.7914930052 -1.1430944292
O 6.2215605579 1.8542237010 -1.7321661919
C -0.3728288304 2.5474242955 0.0350412791
C -1.6047428482 1.8622281967 -0.5529936979
C -1.9030375652 0.5070828333 0.0827348350
C -3.1824466095 -0.1352892618 -0.4766107478
C -3.3950649847 -1.5729924662 -0.0285271098
C -4.2454130532 -2.3920591570 -0.7809863813
C -4.5106246443 -3.7043684372 -0.4063241547
C -3.9085289390 -4.1875417019 0.7442231889
C -3.0608422412 -3.4188668981 1.5190675758
C -2.8092055729 -2.1052311212 1.1219835089
F -4.1591562406 -5.4709732421 1.1213632746
C -4.4104352667 0.7017559781 -0.1560785469
C -5.1023289084 1.3756670435 -1.1636360964
C -6.2181946976 2.1606358604 -0.8749949375
C -6.6234845800 2.2556634091 0.4435219642
C -5.9683050236 1.6043213433 1.4762437984
C -4.8597456272 0.8250478202 1.1626793067
F -7.7119013128 3.0165171522 0.7413813605
H 2.8025851234 0.2930993855 -2.3739963409
H 2.2281565355 -0.4611140444 -0.8781878689
H 0.4477738284 0.8925835587 -1.8641212505
H 1.4878012973 2.3295192231 -1.9156626277
H 2.1693598899 3.3816438932 0.2106857783
H 1.5714415817 2.6876956229 1.7315606966
H 2.9633383443 0.6822503905 1.4283944091
H 3.9724560537 2.1339623557 1.3242172633
H 3.9153305319 2.0770795511 -1.1203512112
H 3.1547066334 -1.5187741550 0.8930472634
H 4.0767633405 -3.6666478355 1.6828402273
H 6.4329605566 -4.2772364934 1.2645699437
H 7.9434797397 -2.7237454541 0.0245796985
H 7.9083104147 -0.1633042014 -1.2462355219
H -0.2039069288 3.5044998609 -0.4988525759
H -0.5809273880 2.7996609350 1.0833452881
H -2.4539460036 2.5389582371 -0.3961016112
H -1.5088876364 1.7482789388 -1.6402224347
H -1.0627993084 -0.1751973331 -0.0905493645
H -1.9888238545 0.6341664046 1.1699131966
H -3.0864325377 -0.1548849962 -1.5701138109
H -4.7116287030 -1.9937019204 -1.6784883909
H -5.1652710916 -4.3425543967 -0.9901341207
H -2.6060441180 -3.8371469367 2.4106632121
H -2.1417915691 -1.5021389640 1.7274791764
H -4.7660792297 1.2910353276 -2.1932366915
H -6.7606264969 2.6862680803 -1.6535451961
H -6.3238163056 1.7041370893 2.4962548555
H -4.3409037710 0.3005414631 1.9602661312
