47
CONF92
C 5.1380609351 -2.3833800146 -1.5161804693
C 3.9121483349 -1.6206000796 -1.1136274072
C 2.6171699347 -2.0662226620 -1.5146286792
C 2.4788062892 -3.3114722076 -2.3329695361
C 1.4813782711 -1.3612630226 -1.1458054742
C 1.5737513604 -0.1970873212 -0.3737750045
N 0.4764125369 0.5526987701 0.0077389977
C -0.8909919622 0.2051466973 -0.4151771659
C -1.6363117648 -0.5653643684 0.6862808652
O -1.1411444941 -1.8992364178 0.7984562051
C -3.1446426003 -0.5672781891 0.4474875729
O -3.3546212153 -1.2351900671 -0.8023069807
C -3.7779149884 0.8384091270 0.4416210262
O -3.3637662458 1.6067968372 1.5700293456
C -5.3013895908 0.7546807361 0.5451216484
O -5.8784980549 -0.0390778003 -0.5056254819
C 0.6228267308 1.6594000757 0.8060048067
N -0.4612256699 2.3185947648 1.1875149097
C -0.3218574737 3.4341364907 1.9648159760
O -1.2868446905 4.0877558223 2.3583876855
N 0.9699739918 3.8500519612 2.3289127197
C 2.1540150141 3.2396123219 1.9935844245
O 3.2422015884 3.6685108235 2.3534565145
C 1.9680388289 2.0248899075 1.1615824265
N 3.0307338297 1.3579055718 0.7957360323
C 2.8637069272 0.2483123911 0.0395699885
C 4.0063677514 -0.4823020655 -0.3477586952
H 5.1001090411 -3.4130976956 -1.1438952993
H 6.0373222177 -1.9054770120 -1.1233554139
H 5.2237772749 -2.4426273665 -2.6068920173
H 2.8994237317 -4.1723334422 -1.8004236930
H 3.0364306196 -3.2223795953 -3.2722022123
H 1.4330709972 -3.5197976664 -2.5642440323
H 0.5203002348 -1.7481665067 -1.4544429497
H -1.3937683407 1.1450261914 -0.6473119638
H -0.8453517217 -0.3786485710 -1.3320587454
H -1.4408464685 -0.0962327817 1.6539358204
H -1.4765897577 -2.3912803682 0.0347032985
H -3.5938579136 -1.1463568680 1.2721674880
H -4.3114245319 -1.1956925471 -0.9682264610
H -3.5160900289 1.3435545646 -0.5024407558
H -2.4482975231 1.9139763182 1.4202356206
H -5.7215510006 1.7675873445 0.5469927688
H -5.5676262326 0.2640109599 1.4877613356
H -5.9075729480 0.5042369765 -1.3042935298
H 1.0257962010 4.6852258108 2.9008408680
H 4.9703631736 -0.1099554255 -0.0152956519
