53
CONF2
C 1.5154266063 1.1199182703 0.8701673054
C 2.5109003776 0.2761205798 0.0901047141
N 2.9735842844 0.9931066092 -1.1024749078
C 1.8235073252 1.3490766097 -1.9376078119
C 0.8336335172 2.1949542986 -1.1484102771
N 0.3768902868 1.4520522271 0.0200798030
C -0.7065850796 2.1026804781 0.7477563656
C -2.0384072168 2.0245445309 -0.0097187116
C -2.2470231483 0.6407128957 -0.6326310790
N -2.0619148809 -0.4299042129 0.3476294669
C -2.9446094940 -0.5236629832 1.4371570917
C -4.2590522435 -0.0482878746 1.3577290281
C -5.1150270002 -0.1353758318 2.4509334266
C -4.6917499648 -0.7268937453 3.6349378390
C -3.3950460805 -1.2241027835 3.7227987459
C -2.5228975898 -1.0993909268 2.6468885420
S -0.8202724033 -1.5731803732 2.8352870014
C -0.4984239697 -2.1052132866 1.1721466048
C -1.1294797192 -1.4456666560 0.1039629481
C -0.7982074412 -1.8351014751 -1.2001539718
C 0.1862683944 -2.7911660538 -1.4070993635
C 0.8209914875 -3.4387269941 -0.3577940761
C 0.4417998680 -3.1020061834 0.9380638501
Cl 0.6294648487 -3.1915225395 -3.0590566681
C 3.9672471548 0.2110587274 -1.8466420770
C 4.7778523073 1.1142068676 -2.7701611407
O 5.3341107230 2.2056821963 -2.0480931632
H 2.0246043283 2.0284203263 1.2520794017
H 1.1535811551 0.5433787862 1.7296826262
H 2.0287702705 -0.6839002932 -0.1801214101
H 3.3779841024 0.0564981553 0.7239615199
H 1.3060861362 0.4383198511 -2.3033428565
H 2.1691206169 1.9159854605 -2.8086255811
H -0.0207084443 2.4313531837 -1.7944401114
H 1.3116767889 3.1552520708 -0.8643485318
H -0.4816225207 3.1596467292 0.9927052104
H -0.8193450084 1.5714668649 1.7004841963
H -2.0852253371 2.7627002766 -0.8194308908
H -2.8478286201 2.2750714407 0.6844556508
H -1.4805954706 0.5052727950 -1.3941595267
H -3.2220717052 0.5763998178 -1.1356376761
H -4.6182615883 0.3951871610 0.4369957571
H -6.1246111657 0.2525625856 2.3649348422
H -5.3611690278 -0.8058689935 4.4842593326
H -3.0436922138 -1.6906572160 4.6376731336
H -1.2967707269 -1.3973349678 -2.0545894625
H 1.5812889970 -4.1869637033 -0.5427654555
H 0.9092249935 -3.5991828386 1.7819664594
H 4.6517633921 -0.2371659418 -1.1162910213
H 3.5032728341 -0.6133780942 -2.4232496119
H 5.6065889260 0.5418195673 -3.2015774160
H 4.1602160601 1.4745861101 -3.6095379109
H 4.6547433951 2.4418059072 -1.3968804806
