40
CONF27
N -1.9523471169 4.2463322845 0.4186641197
C -1.9230349040 2.9582197017 0.0787660123
N -0.7894540406 2.4689660363 -0.4604893413
C -0.7067592455 1.1694857500 -0.8280090686
O 0.2885138863 0.6945280791 -1.4074703373
N -1.7750840854 0.3092640213 -0.5385303713
C -2.9234892627 0.8074696462 0.0085631388
C -3.0572326742 2.1240522315 0.2908878676
C -1.5720286453 -1.1408744603 -0.5845803178
O -0.6806224938 -1.4804152403 0.4809830894
C 0.1394592047 -2.5760826914 0.0499794577
C 1.3643878118 -2.6660510960 0.9239479315
O 2.1768620971 -1.4609380912 0.8437700481
P 2.2078632566 -0.3922369847 2.0304945833
O 3.7626510217 -0.1500249827 2.2734021029
O 1.4164555183 -0.7572954240 3.2255738110
O 1.6756750283 0.9865404061 1.3603056614
P 2.5405037147 2.0880268733 0.4926258253
O 1.5531820202 3.3050339989 0.4305243411
O 2.6875436967 1.4516772508 -0.9458419110
O 3.8531046709 2.3639690703 1.1404541779
C 0.3676062189 -2.3230707743 -1.4453961121
O 0.7584616747 -3.4799772893 -2.1574589451
C -0.9983098827 -1.7394564374 -1.8872735891
O -1.8905234188 -2.7921117617 -2.2688266421
H -1.1555942451 4.8424682729 0.2554183138
H -2.7753743678 4.6477606184 0.8375699121
H -3.7137652362 0.0890741603 0.1974913588
H -3.9753512907 2.5165956559 0.7073521372
H -2.5568713062 -1.5897903532 -0.4096371015
H -0.4035128461 -3.5309246925 0.1679714835
H 1.0817457220 -2.8483727713 1.9640333632
H 1.9938076187 -3.4871092595 0.5695107773
H 4.0681736450 0.7536359811 2.0096046540
H 0.6336191454 3.0685505857 0.0039957245
H 1.7677029540 1.1755283943 -1.2796137675
H 1.1525051158 -1.5792428964 -1.5864777255
H 0.0124159977 -4.0982736525 -2.1349156140
H -0.9060231516 -0.9999188822 -2.6843631535
H -1.7468616049 -2.9750105789 -3.2063006897
