34
CONF1
C -4.0833292993 -1.5978526575 0.7379366069
C -3.5340307248 -0.8483249612 -0.3179920397
C -2.2343754460 -0.3907760997 -0.2523814411
C -1.4112476466 -0.6582619384 0.8659520898
C -2.0113665596 -1.3302077641 1.9860787722
C -3.3353118787 -1.8150954560 1.8735444594
C -1.3155691305 -1.4403635278 3.2251176827
C -0.0856418816 -0.8656623833 3.4052437904
C 0.5153097509 -0.2424172896 2.2972971424
C -0.0554357827 -0.2120599869 1.0030161968
C 0.9279305545 0.4141976944 0.1447408630
C 1.1080482155 0.5835264518 -1.2677300306
C 0.3346674803 -0.0647834432 -2.2584453351
C 0.5631247939 0.1427407475 -3.6028346855
C 1.5846231851 1.0102705486 -4.0299061236
C 2.4052873159 1.6006006091 -3.0947825203
C 2.2189839596 1.3813972248 -1.7099383842
C 3.1712858832 1.8822963342 -0.7749935853
C 3.0908759270 1.5763957603 0.5575270217
C 1.9815081289 0.8300772850 0.9927637067
N 1.7229735370 0.4056447856 2.2704224076
H -5.1009894935 -1.9692337502 0.6714287226
H -4.1408988636 -0.6144194610 -1.1873896237
H -1.8546254668 0.2276835565 -1.0550170619
H -3.7640025147 -2.3433060601 2.7211652767
H -1.8060734791 -1.9515974469 4.0481528125
H 0.4218665972 -0.8909419024 4.3642956621
H -0.4224042718 -0.7777787398 -1.9592626713
H -0.0430588287 -0.3805138336 -4.3360834310
H 1.7465257271 1.1820515802 -5.0892914631
H 3.2351600208 2.2277357680 -3.4098412768
H 3.9990805356 2.4765134843 -1.1505598626
H 3.8470824956 1.9012138454 1.2649716685
H 2.3240276602 0.5512513260 3.0667946539
