46
CONF10
C 1.4926841982 1.6598355752 3.9916104223
C 1.4623668508 1.3463311485 2.5158174898
O 2.6236234862 0.5016837994 2.2400901001
C 2.7918508386 0.0473668596 0.9995042921
N 3.8733385283 -0.6960092195 0.8207812037
C 4.0279218107 -1.1530314734 -0.4455868048
N 3.1784698789 -0.9142392226 -1.4719405328
C 2.1390056313 -0.1539512125 -1.1421323873
N 1.8845875032 0.3692904303 0.0639465729
N 1.2490875555 0.0991779195 -2.1729486446
C 0.0379151463 0.7895181139 -2.1929874009
O -0.6447729656 0.8130984565 -3.2058427820
N -0.2945933416 1.4278872946 -1.0166370561
S -1.8374105156 2.0832760575 -0.7518689153
O -1.8325472692 2.4068439746 0.6820816963
O -2.0787167281 3.1338692523 -1.7423508383
C -3.0198704277 0.7595678909 -1.0362842352
C -3.7725669861 0.8045901854 -2.2035528027
C -4.7748939312 -0.1397845823 -2.4031934974
C -5.0306627407 -1.0995412724 -1.4299999667
C -4.2825465311 -1.1276406396 -0.2565822102
C -3.2565298894 -0.2059431326 -0.0501206972
C -2.3995466185 -0.3564093529 1.1667720390
O -1.2061916390 -0.5769827214 1.1247107979
O -3.1244230777 -0.2876341356 2.2859338357
C -2.3810183123 -0.4797528635 3.5210521784
N 5.1108158873 -1.9011327605 -0.6939430270
C 5.4143807584 -2.4832301780 -1.9929550676
H 2.4102208669 2.1887734485 4.2635898174
H 0.6394058779 2.2997525000 4.2345613306
H 1.4187825558 0.7451477320 4.5865761578
H 0.5563367591 0.8006591895 2.2357304250
H 1.5393973812 2.2517277542 1.9046240005
H 1.4805210628 -0.3351955554 -3.0572033748
H 0.2714568092 1.1880830380 -0.1842488517
H -3.5807862490 1.5764033487 -2.9387912173
H -5.3602837474 -0.1131537318 -3.3158096426
H -5.8193139299 -1.8294079652 -1.5790539493
H -4.4808604602 -1.8771285843 0.5022690951
H -1.9248356721 -1.4719906686 3.5302833637
H -3.1185863014 -0.3828178881 4.3157475777
H -1.6091678261 0.2882964389 3.6104587579
H 5.7217897107 -2.0850854766 0.0859658965
H 5.5054635657 -1.7078805491 -2.7599615022
H 6.3636806969 -3.0140994965 -1.9110175446
H 4.6370215092 -3.1891381275 -2.3041513947
