42
CONF6
C -1.7265661973 -1.6360190831 5.0843322080
C -1.6607970419 -0.3502957854 4.5623902706
C -1.2600493346 -0.1462824644 3.2434732668
C -0.9196793434 -1.2265120627 2.4318628891
C -0.9961008125 -2.5175469717 2.9633023895
C -1.3945521869 -2.7217846025 4.2770748358
C -0.4966592983 -1.0623523793 0.9859898334
C -0.5374845317 0.3497247295 0.4452474564
C -1.5181870547 0.7427767542 -0.4662384283
C -1.5129742781 2.0280412337 -0.9985341397
C -0.5242315938 2.9337364230 -0.6255908350
C 0.4504857982 2.5551955164 0.2940133533
C 0.4437609971 1.2713617275 0.8264641138
C 0.9120644431 -1.6231534165 0.7165658139
O 1.6448491671 -2.0518790399 1.5703686812
C 1.3960576166 -1.5721065405 -0.7450988834
C 2.3172999408 -0.3567082045 -1.0162722208
O 3.2879173494 -0.0364858537 -0.3737707469
C 1.8051555713 0.3124835650 -2.2381139163
C 2.3156644804 1.4347637785 -2.8792264306
C 1.6717218709 1.8697179532 -4.0325435984
C 0.5455373933 1.1980954270 -4.5290426745
C 0.0352605505 0.0785905170 -3.8813260579
C 0.6816316732 -0.3523968114 -2.7287813079
C 0.3396602212 -1.4950651859 -1.8500421772
O -0.6001435943 -2.2512341689 -1.9890174173
H -2.0374500166 -1.7944821132 6.1119301976
H -1.9238817834 0.5026734313 5.1799981418
H -1.2210729596 0.8619185182 2.8458006804
H -0.7337973052 -3.3685944726 2.3418512189
H -1.4440854288 -3.7308496596 4.6736949503
H -1.1652797252 -1.6737708067 0.3636771294
H -2.2771316723 0.0284868571 -0.7725474808
H -2.2769261513 2.3190577013 -1.7124708246
H -0.5136630435 3.9327087671 -1.0495439510
H 1.2242573739 3.2562912715 0.5896157984
H 1.2111338428 0.9724787462 1.5357375975
H 1.9974204456 -2.4794730326 -0.8809261210
H 3.1880188782 1.9433586674 -2.4826804183
H 2.0437884478 2.7417529586 -4.5608484756
H 0.0675333628 1.5623696760 -5.4328598672
H -0.8385047635 -0.4485918451 -4.2498628273
