44
CONF60
C 4.7975543221 2.1872176213 -1.0611111456
C 3.6968241282 1.1336200204 -0.9920288007
C 2.6717401440 1.2042558418 -2.1846405144
N 1.4347745950 0.6617940410 -1.6786264979
C 1.0836848979 0.9292010441 -0.2806305839
S 2.6508330521 1.4526584972 0.5354971105
C 0.5849645536 -0.5552963494 -0.1729285883
C 0.9947570669 -0.6553241144 -1.6638669389
O 1.0163729999 -1.5232218760 -2.5041681223
N -0.7555257047 -0.8559130979 0.2184724178
C -1.8234627937 -0.4770846450 -0.5265351953
O -1.6997038509 0.1568539188 -1.5730092163
C -3.1979175161 -0.9582516952 -0.0312800754
C -3.2692922159 -1.1607041001 1.4647576033
C -3.2388303102 -0.0655870470 2.3341709849
C -3.2787778834 -0.2433692387 3.7105363242
C -3.3517650393 -1.5356491587 4.2402095001
C -3.3844950457 -2.6389116396 3.3885536692
C -3.3444214015 -2.4431317829 2.0120697638
O -3.3947700491 -1.7756022218 5.5838210722
N -4.2031989721 0.0080973272 -0.4862266920
C 2.4550331740 2.6247462452 -2.6845084681
O 3.3015997191 2.9207565782 -3.6857322876
O 1.6387659955 3.3952291330 -2.2326755065
C 4.3011234523 -0.2698169023 -0.9393797687
H 4.3944026188 3.2032503565 -1.0700631294
H 5.3944964405 2.0321431257 -1.9654677726
H 5.4607166120 2.0880865000 -0.1972577710
H 3.0378774014 0.5828911053 -3.0080509745
H 0.3122417735 1.6885192762 -0.1339993950
H -0.9153339702 -1.3324420594 1.0943003773
H -3.1822879742 0.9386324048 1.9251631817
H -3.2523438640 0.6144599913 4.3776491845
H -3.4469662730 -3.6369308672 3.8099911931
H -3.3726676247 -3.3061156535 1.3518338749
H -3.3649675091 -0.9367983686 6.0629759260
H -4.0514598133 0.1882685606 -1.4745616769
H -5.1206926758 -0.4173533868 -0.4020738220
H 3.5320794404 -1.0467157898 -0.9189761922
H 4.9322611696 -0.4299029584 -1.8212802729
H 4.9180357073 -0.3777073115 -0.0436649120
H 3.1599044765 3.8485906182 -3.9438920412
H -3.3082770899 -1.9525333563 -0.5049866199
H 1.2795873268 -1.1481493751 0.4289316867
