51
CONF12
C -0.2240393630 2.1545161406 -4.2457148937
C -0.2055140973 1.4135698771 -2.9235995680
C -1.4516726374 1.6420499678 -2.0889563982
O 0.9570654760 1.9430129538 -2.2063931509
C 1.5137124318 1.2105457832 -1.2400526635
N 2.4807715069 1.8387427172 -0.5693159441
C 3.0629452791 1.1114542684 0.3876401013
C 2.7139527048 -0.1809884543 0.7160747472
C 1.6699218313 -0.7105365022 -0.0571962327
N 1.0833273384 -0.0436570131 -1.0369653409
O 1.2595811232 -1.9485115035 0.2508792026
C 0.1219865424 -2.4831109351 -0.4577348177
C -1.1968562455 -1.7770532956 -0.2487070117
C -2.1575255813 -1.9836565434 -1.2412462062
C -3.4318337344 -1.4418774027 -1.1437153464
C -3.7593238627 -0.6584194177 -0.0425210385
C -2.8092056645 -0.4364313428 0.9433701875
C -1.5259576909 -0.9938207707 0.8703747828
C -0.5699938253 -0.6790682339 1.9571638885
C -0.1716695221 0.5864009821 2.2116576240
O -0.5829621435 1.6239431971 1.4710234478
C -0.0406740911 2.9056580442 1.8452573088
C 0.0369035278 -1.7185549502 2.8016166529
O 0.9116227324 -1.5461725029 3.6286282514
O -0.5062884252 -2.9380352023 2.5446035359
C 0.0742048011 -4.0188689939 3.2979780604
C 4.1595206967 1.8391869263 1.1433654029
F 3.6607275816 2.9147595943 1.8003118859
F 5.1215917658 2.2818491803 0.3143463980
F 4.7433692153 1.0431278078 2.0639356951
H -1.0694081698 1.8086400030 -4.8474252925
H 0.6983558524 1.9794433236 -4.8052499201
H -0.3328004724 3.2305768309 -4.0807531417
H -0.0477524741 0.3421280935 -3.0831945168
H -1.6009962078 2.7137718321 -1.9217942730
H -2.3260809421 1.2454580756 -2.6139426110
H -1.3806745219 1.1356439530 -1.1238920934
H 3.1656834727 -0.7444606778 1.5198248788
H 0.3514578523 -2.5127381955 -1.5283007391
H 0.0568565275 -3.5069147032 -0.0772834819
H -1.8953874587 -2.5789133104 -2.1126516230
H -4.1595755256 -1.6226476942 -1.9282669179
H -4.7478540320 -0.2201067124 0.0473258008
H -3.0534765049 0.1760105854 1.8051418727
H 0.5277068586 0.7883317432 3.0226995367
H -0.4273136563 3.6187508269 1.1174673677
H -0.3747236923 3.1796588797 2.8519693690
H 1.0518558477 2.8903511708 1.7950180204
H 1.1419507230 -4.1065269263 3.0774670993
H -0.0543747444 -3.8518978170 4.3705710312
H -0.4611353228 -4.9146135513 2.9819085730
