45
CONF457
O -1.0502612563 0.1008763284 -2.7804832485
C -2.2210219806 -0.6865829108 -2.5996842961
C -2.6241260558 -0.8208440022 -1.1481758932
O -1.5868601936 -1.5709665442 -0.4451985438
C -1.3606007381 -1.0314193368 0.8430834535
C -1.2974475130 -2.1786441126 1.8461588378
O -2.4849506596 -2.9603179232 1.8210792111
O -0.1328899436 -0.2806700389 0.9085391416
C 1.0021886755 -0.8116308242 0.2399678197
O 1.2494403446 -0.1242114160 -0.9776511419
C 1.5643431003 1.2842298361 -0.8354797386
C 1.7760522618 1.8189397342 -2.2427216324
O 2.8642052500 1.1844848369 -2.9161657566
C 2.7951497591 1.4536256788 0.0517757936
O 3.0098789122 2.8573497165 0.2020468586
C 2.5666241606 0.7805491451 1.3933164768
O 3.7754226630 0.9116797635 2.1448257939
C 2.2062068537 -0.6852474896 1.1787141015
O 1.9779760998 -1.3557186190 2.4148044378
C -2.4909938846 -0.0126997025 1.0736632114
O -2.2008937554 0.9861955554 2.0263937164
C -2.7676615371 0.4757034141 -0.3513279585
O -4.0078930835 1.1345321796 -0.5387507129
H -0.3561405921 -0.2399675166 -2.1892969656
H -3.0342447978 -0.1906143768 -3.1411070294
H -2.0931366352 -1.6937203464 -3.0251095659
H -3.5651715485 -1.3905590598 -1.0898156961
H -1.2074534404 -1.7582234491 2.8529756130
H -0.4063613874 -2.7894657912 1.6408339368
H -2.5548469206 -3.3408999170 0.9350095802
H 0.8388047717 -1.8547609041 -0.0452284342
H 0.7103396000 1.8111022591 -0.3832427800
H 2.0203991763 2.8819887420 -2.1757069077
H 0.8432340504 1.7120102875 -2.8110746448
H 2.6390745154 0.2499283512 -3.0104067700
H 3.6591097354 0.9802400449 -0.4400419512
H 3.7522327935 2.9661161865 0.8109529441
H 1.7383505837 1.2908135267 1.9129717053
H 3.6346011419 0.4790391854 2.9974816759
H 3.0545698938 -1.1957541740 0.7087338273
H 1.1972706369 -0.9511271970 2.8213862552
H -3.3696763445 -0.5569562478 1.4426981500
H -1.3575080932 1.3888859974 1.7741173967
H -1.9911685119 1.1894375352 -0.6517936357
H -4.7141650753 0.5432737061 -0.2430664390
