58
CONF33
C -4.5977765764 2.3265842856 -2.4513581251
C -3.4348289921 1.6651043951 -3.0993460347
C -2.0522899695 1.8456311809 -2.8123616048
C -1.4161987655 0.9951867665 -3.7112450574
N -2.3659682708 0.3817534998 -4.4466753867
N -3.6115182797 0.7966828791 -4.0937682118
C -2.1832574695 -0.5721006298 -5.5206016947
O -0.0967051464 0.7636928794 -3.9236548029
C 0.6331261381 0.2258219550 -2.8575840393
C 1.9955245955 0.4943366751 -2.8534987935
C 2.7782263075 -0.0217266589 -1.8262371188
C 2.2045604689 -0.7969265859 -0.8220620098
C 0.8401090314 -1.0673144352 -0.8554516616
C 0.0408619171 -0.5563720899 -1.8731499238
C -1.3719538674 2.6690972293 -1.8515991283
N -1.9961267182 3.2077765702 -0.8670977276
O -1.1061425421 4.0358529640 -0.1330008013
C -1.3956652190 3.8700297629 1.2643231354
C -0.9126567905 2.5242816620 1.7358370761
C -1.8055005072 1.4717211642 1.9389823845
C -1.3404145412 0.2063994234 2.2686067143
C 0.0309098910 -0.0264895766 2.3950161358
C 0.9310638702 1.0257279117 2.1969297191
C 0.4577118783 2.2875433957 1.8711131827
C 0.4704855249 -1.4143270482 2.7054844900
O -0.3001133314 -2.3395362851 2.8667115043
O 1.8155662585 -1.5081418441 2.7646750593
C 2.4724836533 -2.7948278595 3.0873014758
C 3.9504618415 -2.4225407643 3.0649934068
C 2.1613826794 -3.8296760293 2.0110182176
C 2.0557283772 -3.2582863926 4.4792920386
H -4.7045577114 1.9965730116 -1.4132589878
H -4.4568727234 3.4112315846 -2.4199181094
H -5.5107751554 2.0890185321 -3.0011285853
H -2.5139079343 -0.1406293783 -6.4703779258
H -2.7667569953 -1.4731733696 -5.3144556062
H -1.1232381426 -0.8240288205 -5.5830017397
H 2.4195679386 1.1082334089 -3.6403738670
H 3.8417063336 0.1937070512 -1.8086697703
H 2.8119226966 -1.1778359376 -0.0084491984
H 0.3840417130 -1.6760700833 -0.0813583573
H -1.0265819112 -0.7478827620 -1.8904476860
H -0.2943880346 2.8182926884 -1.9721906088
H -2.4726818646 3.9902281064 1.4364180550
H -0.8517676204 4.6836771133 1.7542588305
H -2.8702608426 1.6460588474 1.8168550770
H -2.0245647637 -0.6211341608 2.4210148179
H 1.9952676851 0.8458228599 2.2883649107
H 1.1574407655 3.1005267753 1.6987803048
H 4.5576825214 -3.3033898009 3.2907444809
H 4.2387038825 -2.0467332432 2.0788754210
H 4.1640460000 -1.6501687233 3.8090928501
H 2.4206416499 -3.4422024833 1.0206018856
H 1.1083581731 -4.1120507054 2.0213232896
H 2.7671121458 -4.7229542850 2.1930440091
H 2.2171995967 -2.4581884549 5.2080119560
H 2.6736873553 -4.1139471760 4.7691192538
H 1.0078890238 -3.5579392180 4.5030194982
