40
CONF58
C 3.2664807392 -0.8165649038 -2.0167006196
C 2.4519112587 0.4090471617 -1.6836372496
O 2.3824371345 0.4882947453 -0.2241384335
P 1.4310101879 1.5283617836 0.5181426395
S 0.5158732781 2.8875282190 -0.5105219025
O 2.4237513271 2.0117413377 1.6719173390
C 2.1662611993 3.2183024591 2.4562907039
C 1.0687865834 3.0119578847 3.4762897956
O 0.4585731448 0.5615865846 1.4492863935
C -0.5530669216 -0.1984669605 0.9394013310
C -1.4922101142 -0.6861011099 1.8440483938
C -2.5055391033 -1.4672115309 1.3091143702
N -2.5733988007 -1.7201330798 -0.0146117296
C -1.6202965961 -1.1988192750 -0.7871170162
N -0.5895532662 -0.4460715317 -0.3568937497
C -1.6895045699 -1.4674733480 -2.2705921590
C -1.7617452637 -0.1539827329 -3.0581613898
C -0.4921846211 -2.3162951602 -2.7165465771
C -3.5768454276 -2.0679189691 2.1631334903
H 4.2782623847 -0.7374266023 -1.6101928121
H 3.3342964930 -0.9172324583 -3.1042863622
H 2.7931044269 -1.7160398600 -1.6132119373
H 1.4327834951 0.3407083008 -2.0736271246
H 2.9192078957 1.3263199067 -2.0549256776
H 3.1263868561 3.4220254434 2.9353164110
H 1.9295160487 4.0344737660 1.7657365909
H 0.1005712608 2.8579592355 2.9921035261
H 0.9980785027 3.9048474796 4.1057608077
H 1.2871092552 2.1514014975 4.1145590933
H -1.4250113593 -0.4573801696 2.9004365834
H -2.6090416424 -2.0375304010 -2.4363194978
H -2.6248329651 0.4452148833 -2.7520137723
H -1.8508543332 -0.3651780878 -4.1283840745
H -0.8599139551 0.4436918832 -2.8952070120
H -0.5717148642 -2.5452357758 -3.7838313661
H 0.4424969906 -1.7730682855 -2.5493623599
H -0.4457334598 -3.2596105084 -2.1634244155
H -4.5613114054 -1.7752810635 1.7861432521
H -3.5232244152 -3.1601841280 2.1067775325
H -3.4809165639 -1.7602566248 3.2059540046
