39
CONF207
C 4.7718449651 0.0049011424 -2.8526575173
C 4.0672909411 0.2964938178 -1.5289576395
C 2.5534654796 0.4249954785 -1.7019905372
C 1.8361072490 0.7232953644 -0.3947487327
C 1.6848374610 -0.4797936058 0.5348126960
O 0.4293399917 -1.0439061275 0.1104207185
C -0.4001811885 0.0655689438 -0.1572236567
C -1.3881139966 -0.3241987205 -1.2744952560
N -2.4714530860 -1.1590438815 -0.7914750681
C -3.7128402418 -0.7770200726 -0.4276291782
N -4.3806965996 -1.8060739280 0.0785956001
C -3.4688442155 -2.8169148573 0.0075503475
N -2.2953051379 -2.4739299336 -0.5086332618
O 0.4519755110 1.0839813592 -0.6691824488
C -1.1265748287 0.5235694243 1.1158322270
C -1.8175070751 1.7337662761 1.2343933993
Cl -1.9110109752 2.8882788226 -0.0902465820
C -2.4972500524 2.0884383779 2.3956807391
C -2.4940757611 1.1993181862 3.4608408300
Cl -3.3508903275 1.6366944069 4.9281960604
C -1.8391481286 -0.0216602453 3.3868409490
C -1.1698681437 -0.3408447116 2.2129386226
H 4.5816873451 0.8025256684 -3.5790658019
H 5.8544880479 -0.0778546368 -2.7168495297
H 4.4126578461 -0.9348967225 -3.2860634325
H 4.4593708556 1.2260948365 -1.0962075258
H 4.2949048372 -0.5016453384 -0.8108710836
H 2.1392346848 -0.4961336164 -2.1342435076
H 2.3354605522 1.2393037012 -2.4040054076
H 2.3037036716 1.5712540011 0.1192774887
H 1.6335358205 -0.1783200089 1.5891267401
H 2.4527624352 -1.2431383570 0.4003323734
H -1.8275797944 0.5837154907 -1.6914209825
H -0.8334684128 -0.8515014820 -2.0545292811
H -4.0741146603 0.2354962197 -0.5577113642
H -3.6723912810 -3.8291975810 0.3338201361
H -3.0209636641 3.0343164824 2.4593963589
H -1.8508673570 -0.7118240466 4.2220993738
H -0.6595225553 -1.2941093542 2.1380530338
