18
CONF9
C -2.2151021780 -0.5045392389 0.9833241770
C -0.9211742962 0.1444079810 0.5143728644
C -0.0480082497 -0.8493694532 -0.2563225586
C 1.2601850519 -0.2681856534 -0.7495842986
O 0.8902047025 0.7282922893 -1.7549735129
N 1.9853058956 1.4181810027 -2.3117677836
O 1.6527801666 2.2421165077 -3.1281621999
O 3.0948293821 1.1273341662 -1.9322844058
O -0.1958445427 0.7177863589 1.6173359809
H -2.8274909699 0.2178284302 1.5298456994
H -2.7920864218 -0.8759288770 0.1303227133
H -1.9988840233 -1.3526691655 1.6441852301
H -1.1536946118 0.9980794944 -0.1320703141
H -0.6137497973 -1.2615484151 -1.0998342694
H 0.2045942593 -1.6910226926 0.4026358838
H 1.8098022916 0.2283220212 0.0544445517
H 1.8891778395 -1.0274932869 -1.2228491129
H -0.0208445884 0.0084083405 2.2506905478
