44
CONF2
C -5.3898526045 -0.2605680961 -1.2332460666
N -3.9320843174 -0.2608383201 -1.1069101233
C -3.4412637431 -1.3963757334 -0.2992763466
C -3.7521926283 -1.0141963373 1.1770316760
C -3.7528662929 0.5363701424 1.1609639405
C -3.4387085133 0.8891547441 -0.3216684636
C -1.9299350896 1.0052290859 -0.5755480830
C -1.2275897511 -0.2512530648 -0.0821803060
C -1.9323414843 -1.5215583047 -0.5472391127
O 0.1373565145 -0.2060904936 -0.6022177199
C 1.0699319073 -0.8851139717 0.0818461652
O 0.8491232933 -1.5395860735 1.0828290942
C 2.4425182281 -0.7122589928 -0.5464200725
C 3.4337169746 -1.7160945363 0.0647653511
O 3.0247989922 -3.0628365844 -0.1158698281
C 2.9327121741 0.7079052498 -0.3626378254
C 2.9080325030 1.3026224988 0.9021549308
C 3.3983656353 2.5905121412 1.0863573350
C 3.9233665516 3.2999627377 0.0095875193
C 3.9535316877 2.7139805625 -1.2519794810
C 3.4600543318 1.4259860237 -1.4360141136
H -5.9337318571 -0.2530247060 -0.2717586445
H -5.7017344662 0.6195693709 -1.8050507016
H -5.7029098761 -1.1489535794 -1.7914211301
H -3.9416849108 -2.3201236071 -0.6078485672
H -4.7273660890 -1.4053643882 1.4792250903
H -3.0122219664 -1.4307196039 1.8669501824
H -3.0165956066 0.9674424806 1.8461441491
H -4.7292554483 0.9332537075 1.4517341072
H -3.9367863522 1.8078043830 -0.6487560641
H -1.5165418779 1.8842833634 -0.0684446042
H -1.7616695561 1.1181697709 -1.6514627498
H -1.1547652708 -0.2473076571 1.0100217192
H -1.7615837022 -1.6548741450 -1.6209267950
H -1.5236407596 -2.3866837498 -0.0151839393
H 2.3399560575 -0.9205065560 -1.6174917919
H 4.3976691010 -1.6039751548 -0.4414320205
H 3.5784711556 -1.4771394499 1.1283650904
H 2.2589670022 -3.1902904490 0.4591886628
H 3.3699598617 3.0419156954 2.0730504601
H 4.3060076379 4.3051787339 0.1533027904
H 4.3590928395 3.2613986958 -2.0969308848
H 3.4802749833 0.9730240552 -2.4231695153
H 2.4952910575 0.7543756365 1.7451947332
