39
CONF17
C 4.8600537651 0.5482094856 -2.6146811655
C 3.5686592069 0.9181372132 -1.8885880879
C 3.6229399692 0.5617603830 -0.4030844332
C 2.3720069588 0.9483701922 0.3505874783
C 2.3468118522 0.5817306797 1.8226776881
O 0.9408384865 0.4519151852 2.1040784775
C 0.2753631141 0.1415426577 0.8785322763
C -0.3103646087 -1.2863591915 0.8876808342
N 0.7047039911 -2.2678722263 1.2136565780
C 1.6218885921 -2.8282413351 0.3980110720
N 2.4448572841 -3.6018042903 1.0942705200
C 1.9772438779 -3.4638891012 2.3681012379
N 0.9252751519 -2.6655515517 2.4926457370
O 1.2517518841 0.1693114186 -0.1405601143
C -0.8280442730 1.1705289370 0.6225436304
C -1.8139323489 1.5099934100 1.5555881234
Cl -1.8841092421 0.7672143160 3.1481271043
C -2.7983235713 2.4538469067 1.2799421508
C -2.7968324024 3.0664488227 0.0345872308
Cl -4.0323072324 4.2604372612 -0.3201300318
C -1.8477078201 2.7548137252 -0.9280848700
C -0.8801782248 1.8072857559 -0.6194695775
H 5.7169366089 1.0761565080 -2.1818748653
H 5.0563062911 -0.5268773767 -2.5375649389
H 4.8066400277 0.8054136088 -3.6768911650
H 2.7210784179 0.4007509730 -2.3532996191
H 3.3764825127 1.9939044513 -1.9930101046
H 4.4687754586 1.0776407216 0.0706513594
H 3.7903189900 -0.5161937364 -0.2763687507
H 2.1455538014 2.0181483364 0.2179255139
H 2.7542234046 1.3585570108 2.4737520390
H 2.8624426336 -0.3727481436 2.0024833229
H -1.1163523398 -1.3688026924 1.6172559384
H -0.7049912862 -1.4999308281 -0.1099894558
H 2.4122105910 -3.9682515075 3.2218047884
H -3.5462496585 2.7018034599 2.0229434116
H -1.8599118641 3.2376055599 -1.8979956860
H -0.1309616952 1.5525265194 -1.3599489417
H 1.6404399979 -2.6518986831 -0.6689102619
