52
CONF37
O 3.9867192137 -1.4727739843 -2.5203735057
C 2.7164547068 -1.4414091386 -1.8522228517
C 2.7520180359 -0.6159520303 -0.5648279103
C 3.8961459431 -0.7431374976 0.2524006611
C 3.9598928660 0.0137057644 1.3942481792
C 2.9352131095 0.8817488860 1.7516424866
C 1.8030320781 1.0111583580 0.9891580304
C 1.7057672510 0.2456431648 -0.1933172578
C 0.4308333853 0.4277191488 -1.0274752676
C -0.8147362309 0.4600029945 -0.1613455232
C -1.6172400159 1.5972491633 -0.1445787721
C -2.7613819246 1.6281056047 0.6606744183
O -3.6143302897 2.6853048539 0.7479624634
C -3.3116503476 3.8418977725 -0.0443845521
C -3.0922307879 0.5221930491 1.4546421267
O -4.1895866633 0.5672348019 2.2816826430
C -5.3938152114 0.0971531246 1.6406361742
C -2.2752449327 -0.6193851598 1.4289821039
O -2.6799149334 -1.6421775746 2.2306250018
C -1.8755160156 -2.8292879153 2.2358843924
C -1.1336540152 -0.6466096105 0.6268468737
C 0.3815784539 -0.6673470869 -2.0850693499
C -0.5801990321 -0.5184720161 -3.2426893527
O -0.0326451366 -1.1034540963 -4.3418965244
C 1.3040132544 -1.6243908305 -4.0271360801
C 1.7147238589 -0.8300387742 -2.7971545451
O -1.6725417360 -0.0036952757 -3.2823845271
O 3.2292256567 1.4805194128 2.9517498747
C 4.6121220549 1.1502547456 3.2036859358
O 4.9386251682 0.0267449374 2.3579825878
H 4.5069573941 -2.2015718713 -2.1626247527
H 2.4066647551 -2.4716536737 -1.6149358919
H 4.7070300402 -1.4113375510 -0.0148285563
H 0.9966352011 1.6730826325 1.2866278524
H 0.5031235655 1.3931692228 -1.5471644192
H -1.3504215688 2.4442178437 -0.7646922633
H -3.3149615904 3.5982871606 -1.1131149598
H -4.1032778025 4.5599471607 0.1711511826
H -2.3411111460 4.2670056607 0.2361847761
H -6.1918932352 0.1784743185 2.3811191780
H -5.6322443641 0.7181255634 0.7692717017
H -5.2809940577 -0.9484217985 1.3309747439
H -1.8324268316 -3.2796755935 1.2373526392
H -0.8604810237 -2.6146485307 2.5897477026
H -2.3678550013 -3.5141170591 2.9267939863
H -0.4821921575 -1.5124440956 0.6230792254
H 0.1224191958 -1.6273653778 -1.6075843218
H 1.9260886579 -1.4634390067 -4.9073947585
H 1.2119507163 -2.6959867872 -3.8150289168
H 2.0797757377 0.1600256439 -3.1064266935
H 5.2433073935 2.0058402467 2.9274378894
H 4.7322294484 0.8639821264 4.2501064107
