52
CONF5
C 1.8039479768 0.6000069451 -0.1911771719
C 2.9285987056 1.3245793552 -0.9483491462
C 4.2284223902 0.6457964517 -0.4441233334
C 3.7790936679 -0.5239877035 0.4971143307
O 4.5945347990 -1.6955932580 0.3635395539
C 3.8021861271 -0.0770761050 1.8901052067
C 3.9026948228 0.2957778390 3.0322654818
C 2.3339246586 -0.8304677455 0.0006926337
C 2.4394861013 -1.6142872830 -1.3166600686
C 1.4218230497 -1.5593811523 0.9841214078
C -0.0305100228 -1.5490603796 0.4845250998
C -0.5543360859 -0.1308235384 0.1883172541
C 0.3873329013 0.6547133469 -0.7526723720
C -0.0973389828 2.0958361266 -0.8874722820
C -1.5236210679 2.1367100756 -1.4308959171
C -2.4809726561 1.3119934567 -0.6213859408
C -3.7269488939 1.7699862348 -0.3749653734
C -4.6557226626 0.8943429122 0.2689194046
C -4.3288487904 -0.3059936217 0.8258258523
C -2.9015399131 -0.7244919981 0.8971921371
C -2.0508579655 -0.1188379829 -0.2632068853
C -2.2920608169 -0.9619136672 -1.5357105083
C -5.5664965737 -0.7926224214 1.2980874649
N -6.5633537424 0.0323718803 1.0432052992
O -5.9777704835 1.1284528657 0.3787215016
H 1.7559877188 1.0419995274 0.8176212202
H 2.9263530286 2.4004645106 -0.7553217460
H 2.8120671483 1.1895146639 -2.0298038294
H 4.8835403048 1.3387616167 0.0882687492
H 4.8051508223 0.2043103951 -1.2609448176
H 5.3851617934 -1.5626369089 0.8989697915
H 3.9660800574 0.6184536822 4.0435905605
H 3.1167542251 -1.1406467840 -2.0310266954
H 1.4637910306 -1.7066541439 -1.7976312746
H 2.8195936804 -2.6192466395 -1.1198630088
H 1.4710898848 -1.0557699384 1.9572460119
H 1.7609469389 -2.5908964123 1.1359226482
H -0.1136278949 -2.1730875061 -0.4117078399
H -0.6587577507 -2.0218778054 1.2458169637
H -0.5337547097 0.4214185070 1.1435644657
H 0.3804728738 0.1954160076 -1.7525136817
H 0.5652843104 2.6613562298 -1.5522697949
H -0.0586760711 2.5816804938 0.0978554404
H -1.8938223516 3.1650082657 -1.4983986048
H -1.5076731265 1.7452890761 -2.4598560422
H -4.0452325136 2.7548079010 -0.7027028345
H -2.8123658504 -1.8147476373 0.8732546219
H -2.4810301928 -0.3943447899 1.8596475311
H -1.7014553578 -0.6047607428 -2.3832874250
H -3.3496702522 -0.9096876016 -1.8127441501
H -2.0418417004 -2.0125044505 -1.3631153482
H -5.7860329062 -1.7176496465 1.8174323524
