46
CONF175
C -6.7477839190 0.6248136495 -2.7725641075
C -5.2443970139 0.6519770841 -2.5041636564
C -4.7641960656 2.0391013392 -2.0785277026
C -3.2735715768 2.1248835282 -1.8197108010
O -2.9231918807 1.3239646587 -0.6425422600
C -2.3317747664 0.1387258650 -0.8297539224
O -1.9998667250 -0.3327437850 -1.8955536854
C -2.1718395578 -0.5722633667 0.5157189788
C -3.4706802107 -1.2808379159 0.8739193650
O -1.1620160252 -1.5770744960 0.4296975287
C 0.1409125256 -1.1798181165 0.3037860676
C 1.0744851506 -2.2186916463 0.2170348113
C 2.4257294367 -1.9324227931 0.0974309995
C 2.8341382132 -0.6047449825 0.0636452433
C 1.9247460888 0.4344764427 0.1457954079
C 0.5647974287 0.1505030623 0.2655852941
O 4.1934082731 -0.3094272559 -0.1205224949
C 4.9852449149 -0.2654377541 0.9804700453
C 6.3495677350 -0.0340076665 0.7530018634
C 7.2621379232 0.0419209933 1.7767774270
C 6.8028450997 -0.1197461815 3.0949670029
C 5.4447356943 -0.3514255874 3.3460544000
C 4.5433433653 -0.4234309097 2.2945933118
C 7.7231246009 -0.0463071499 4.1728301111
N 8.4727864526 0.0129169535 5.0553734153
F 6.7649824219 0.1167743820 -0.5206604658
H -7.0799710859 -0.3735259711 -3.0730139551
H -7.3083893059 0.9118315106 -1.8760663017
H -7.0140555349 1.3251345442 -3.5718852024
H -5.0021035972 -0.0776746008 -1.7213309362
H -4.6969702306 0.3412244219 -3.4029435737
H -4.9928183949 2.7663089318 -2.8690870074
H -5.3064326792 2.3665084788 -1.1821416516
H -2.6896878418 1.7710619392 -2.6729123490
H -2.9702178954 3.1413949090 -1.5598437204
H -1.9171844064 0.1622443853 1.2897535585
H -3.7298571102 -2.0095415745 0.1007397022
H -3.3510209028 -1.7961868436 1.8298069167
H -4.2786910648 -0.5511139511 0.9634784565
H 0.7251909735 -3.2453915074 0.2437623703
H 3.1599840984 -2.7285783576 0.0301262228
H 2.2709017305 1.4623270775 0.1158037038
H -0.1337342917 0.9761696290 0.3279069237
H 8.3083801873 0.2213065036 1.5572526480
H 5.0965586763 -0.4735068513 4.3651435940
H 3.4924513937 -0.6016711202 2.4897911048
