48
CONF6
C 2.7010589338 -1.2165592514 -1.2071832965
C 1.7686748095 -2.4010145825 -0.8862871686
C 1.8749975024 -2.5536941221 0.6571769572
C 2.8518119863 -1.4381092554 1.0741817610
C 2.1427652414 -0.1054145420 1.3728234242
C 1.3058205458 0.4159071891 0.1991313242
C 1.9767862578 0.1405212778 -1.1569989193
O 0.0063740200 -0.2194418985 0.2765071840
C -1.0273831100 0.5184360282 -0.3639705510
C -2.2322057217 -0.3858099494 -0.5332666807
C -3.2727161421 0.0278386511 -1.3705112022
C -4.4058658831 -0.7609932675 -1.5343739315
C -4.5150456402 -1.9767020409 -0.8592210411
C -3.4822721818 -2.3927292239 -0.0243703223
C -2.3445327361 -1.6024263154 0.1393765859
C -1.3907776366 1.7629559821 0.4330400175
C -1.4225309630 3.0177734498 -0.1730043739
C -1.7661971231 4.1508072814 0.5641953117
C -2.0743711127 4.0340140048 1.9163049221
C -2.0388161840 2.7803303996 2.5290423727
C -1.7016444023 1.6516595267 1.7907179712
N 3.7026924437 -1.3498259307 -0.1299297508
C 4.7645921162 -0.3529934928 -0.1041021674
H 3.1912264213 -1.3259565864 -2.1829707427
H 2.1318984675 -3.3029025437 -1.3868791525
H 0.7454410848 -2.2130233182 -1.2186617553
H 0.9092103088 -2.4550175520 1.1570017004
H 2.2956985228 -3.5289087410 0.9179024979
H 3.4631884663 -1.7218920868 1.9401286889
H 2.8961999053 0.6510012455 1.6215637908
H 1.4947698782 -0.2057896959 2.2507460511
H 1.1585186175 1.4993273653 0.3215912964
H 2.6966347676 0.9426624345 -1.3607809697
H 1.2300837708 0.1898936771 -1.9576643801
H -0.7056751022 0.8408349254 -1.3669759454
H -3.1915565260 0.9755520628 -1.8971704636
H -5.2035259752 -0.4295283533 -2.1922695006
H -5.3982499497 -2.5948111103 -0.9870171829
H -3.5575408938 -3.3390450343 0.5030483989
H -1.5401519989 -1.9338213920 0.7859081690
H -1.1724914174 3.1097346435 -1.2270776074
H -1.7852592058 5.1239306023 0.0829081316
H -2.3390512573 4.9145386779 2.4934982099
H -2.2780450639 2.6851902374 3.5839772846
H -1.6752247292 0.6748684766 2.2656711289
H 5.3328475659 -0.4122540845 -1.0395940825
H 4.4312512162 0.6914112895 0.0173202899
H 5.4485881907 -0.5805250472 0.7217046200
