74
CONF24
C -0.3844634802 -0.9890749299 -0.4442039215
C 0.6054808490 -1.9572025032 -1.0750239171
O -0.0672765908 -3.2593032462 -0.9604303384
C -0.9839579465 -3.2315700592 0.0427448816
O -1.6019141845 -4.2207690209 0.3595763643
C -1.0015806708 -1.8485152569 0.6475932422
C -2.3141054433 -1.2532680361 1.1632532158
C -3.4661150117 -1.3653172077 0.1708590865
C -4.2755712362 -2.5024588172 0.1973116964
C -5.3148282489 -2.6535719958 -0.7225866996
O -6.1558551881 -3.7258724941 -0.7801499024
C -5.9249787161 -4.7859592638 0.1556782585
C -5.5537525558 -1.6556701404 -1.6747474258
O -6.5781376248 -1.8150099923 -2.5645188041
C -4.7478727925 -0.5123307346 -1.6848623717
O -5.0878708386 0.3963407361 -2.6510524141
C -4.3124642343 1.5988758279 -2.7265890764
C -3.7107887434 -0.3603834482 -0.7674310943
C -2.0407482417 0.1953354320 1.5469999189
C -2.9743273103 0.8087623432 2.4088012291
C -2.7787132972 2.1266608626 2.7351588835
C -1.7062696681 2.8560393894 2.2282319423
O -1.7801452132 4.1549556662 2.6654268931
C -2.8034111152 4.1519143774 3.6822428491
O -3.5645467199 2.9366713014 3.5128960062
C -0.7916508383 2.2909449215 1.3783266479
C -0.9615464151 0.9301308413 1.0355642654
C 0.1058057531 0.3194061616 0.1439855270
O 1.2933948429 0.0830332869 0.9552689805
C 2.4328324201 0.7538960618 0.5342390513
O 2.9156239258 0.1173293139 -0.6608951252
C 4.0884574900 0.7688392606 -1.1449015491
C 4.5225175885 0.1502617472 -2.4628721863
O 5.7627237100 0.7594479534 -2.8504623868
C 6.7766584129 0.5741608833 -1.8696310144
C 8.0392297099 1.2263818248 -2.3643668094
O 6.4085528156 1.1868288443 -0.6319893206
C 5.2122381712 0.5872621073 -0.1277673458
C 4.8124771535 1.2423643841 1.1776783034
O 5.7475164037 1.0019565308 2.2312638072
C 3.4785783331 0.6594151111 1.6447355634
O 2.9792892071 1.3760565883 2.7688917865
H -1.1622462854 -0.7517915813 -1.1811327000
H 0.7994273331 -1.7867279465 -2.1345620564
H 1.5444263065 -2.0130295067 -0.5197630890
H -0.2965535239 -1.8996412276 1.4939807526
H -2.6075081478 -1.7966821206 2.0686025115
H -4.0795766880 -3.2712565806 0.9329626891
H -6.0510260619 -4.4359579676 1.1871576249
H -6.6759570828 -5.5442087596 -0.0680085093
H -4.9218507105 -5.2103850057 0.0297794686
H -6.5932065768 -1.0333320988 -3.1366382098
H -3.2604267874 1.3716372878 -2.9347992405
H -4.7361114104 2.1732018128 -3.5506335589
H -4.3908927139 2.1724369402 -1.7957392593
H -3.1100963928 0.5406323309 -0.7631215961
H -3.8231763494 0.2501776274 2.7897321711
H -2.3293651765 4.1449555630 4.6730372441
H -3.4594783580 5.0127795942 3.5397275558
H 0.0349231905 2.8678319648 0.9772358867
H 0.3670963522 1.0260571227 -0.6529271654
H 2.2197028246 1.8149843805 0.3066254581
H 3.8998615422 1.8452700236 -1.2920213248
H 3.8041441241 0.3488776143 -3.2619920256
H 4.6454009853 -0.9378967454 -2.3428832169
H 6.9032223814 -0.5098521491 -1.6937128911
H 8.3490451350 0.7642617815 -3.3041881896
H 8.8344388850 1.0986936881 -1.6266237195
H 7.8661325557 2.2937210974 -2.5274124629
H 5.3770185994 -0.4921725704 0.0346972256
H 4.6900255324 2.3252382966 1.0137271392
H 6.5472614265 1.5078908983 2.0399512909
H 3.6207325264 -0.4064034824 1.8872158692
H 3.6961274114 1.4136962174 3.4169524110
