41
CONF6
C 3.5763782567 0.9017491925 1.0557154404
C 2.9785558838 1.2755439275 -0.2572573005
N 1.9877177225 0.4882213520 -0.7164485805
C 1.4706681895 0.8501570179 -1.8913873181
N 1.8659231044 1.8979086866 -2.6298920914
C 2.8584818072 2.5914277185 -2.0793886010
N 3.4535540022 2.3403378812 -0.8990257647
O 3.3501640122 3.6514455139 -2.7111679699
C 2.7703781322 4.0015026333 -3.9931479383
N 0.4338275214 0.1197917043 -2.4314322026
C -0.2636249765 -0.9876203010 -1.9375082409
O -1.2313215147 -1.4206496516 -2.5418464089
N 0.2356893808 -1.5248491017 -0.7719612596
S -0.6158729588 -2.7075872875 0.1048267034
O 0.1494274427 -2.8344373511 1.3517382063
O -0.8178164686 -3.8727157230 -0.7573625487
C -2.2233633956 -1.9983834948 0.4833256903
C -3.3176475601 -2.4590675777 -0.2388939688
C -4.5916409897 -2.0112301392 0.0971587227
C -4.7616786825 -1.1320274674 1.1609972710
C -3.6616135769 -0.6886883482 1.8895851125
C -2.3740682814 -1.1047927996 1.5512045207
C -1.2155967332 -0.5039466156 2.2834755277
O -0.3353694508 0.1361871918 1.7457605593
O -1.3183978686 -0.7053607690 3.5999399492
C -0.2662566785 -0.1059130623 4.4046354652
H 4.2542798743 1.6779153807 1.4090946980
H 4.1288030224 -0.0381134117 0.9441477760
H 2.7837551631 0.7242005228 1.7881766151
H 2.8992138679 3.1816249569 -4.7031091648
H 3.3245258837 4.8814325359 -4.3164787890
H 1.7095356063 4.2341295564 -3.8774401965
H 0.0680153197 0.4672661656 -3.3091508176
H 0.9366174379 -0.9622888856 -0.2593756478
H -3.1710345789 -3.1656614813 -1.0465023448
H -5.4482617938 -2.3618163450 -0.4680628952
H -5.7551270848 -0.7904897038 1.4317153078
H -3.7942834775 -0.0023373912 2.7190715674
H 0.7023812395 -0.5154331729 4.1094313859
H -0.5045181257 -0.3752513142 5.4321157010
H -0.2703991551 0.9784597541 4.2747239303
