45
CONF66
C -3.6532484548 1.8264466613 1.1560704665
O -3.1580160411 0.9797872992 0.0899318235
C -3.7414336416 -0.2372109091 0.0170960026
O -4.6026964401 -0.6503358989 0.7727192984
N -3.2274810968 -0.9397767683 -1.0436903196
C -2.1603057912 -0.5441289654 -1.8978758438
C -2.4065575028 0.3969722431 -2.8965422264
C -1.3796308079 0.7842269642 -3.7488913563
C -0.1183604461 0.2074741360 -3.6155840912
C 0.1178744362 -0.7418838745 -2.6260779410
C -0.8949742846 -1.1256630587 -1.7466917470
C -0.6334619869 -2.1368858823 -0.6595184468
O 0.7349989063 -2.1138404249 -0.2138353524
C 1.0977034464 -1.0145323285 0.4853888805
N 2.3825057163 -0.8895656231 0.8005466540
N 2.4427632401 0.2764170970 1.5034820924
C 1.2192331676 0.8632844673 1.6213047507
C 0.3118371308 0.0583476393 0.9697023417
C 3.6750983516 0.7285896350 2.0202182234
C 4.7319472369 -0.1699255961 2.1831974557
C 5.9450754358 0.2714971309 2.6963738903
C 6.0880191479 1.6074122083 3.0503096578
C 5.0457657749 2.5128298016 2.8918945472
C 3.8381642868 2.0723698148 2.3659264884
Cl 7.6222901385 2.1672373082 3.7053891842
O -3.5614822928 -2.2979889372 -1.0813573174
C -4.5843385301 -2.5227604199 -2.0785594909
H -4.7205769965 2.0180101045 1.0237276273
H -3.4738144704 1.3570691734 2.1260696631
H -3.0850903717 2.7516740501 1.0682274562
H -3.4008208842 0.8224903877 -2.9861773100
H -1.5671587380 1.5227348461 -4.5213674046
H 0.6854500107 0.4969613016 -4.2848471343
H 1.1050994073 -1.1795852522 -2.5186548848
H -0.7861358367 -3.1541151200 -1.0299856546
H -1.3046371455 -1.9842466531 0.1938027009
H 1.0714921569 1.7818468263 2.1684327497
H -0.7477730365 0.2314691842 0.8685831336
H 4.6047489491 -1.2111080111 1.9156912863
H 6.7657395414 -0.4249095817 2.8254177707
H 5.1733643003 3.5556291679 3.1585974872
H 3.0386379391 2.7879708093 2.2148823794
H -4.2268564963 -2.2245671176 -3.0703742571
H -4.7668627129 -3.5988966343 -2.0553307289
H -5.4960946253 -1.9759604071 -1.8176228961
