17
CONF3
C -1.7058544658 0.2484047087 0.6947277277
C -0.8719918704 -0.2806258013 -0.4856219613
C -0.6866972649 0.7809215128 -1.5721458621
C 0.4204383761 -0.8330634436 0.0693581957
O 0.6452115001 -1.9476489769 0.4328987854
O 1.3560677402 0.2153967822 0.1711237988
O 2.5773223975 -0.2357473177 0.7032722503
N 2.4545728116 -0.3399574475 2.2448065500
O 1.4087465003 -0.0270074275 2.7118171411
O 3.4846764327 -0.7241991139 2.6929422157
H -1.2136526082 1.1073744638 1.1597664011
H -2.6865068098 0.5673092959 0.3301149387
H -1.8519207643 -0.5231946458 1.4550718009
H -1.3762139037 -1.1578036831 -0.9055925487
H -0.2470672749 1.6944816575 -1.1645407825
H -0.0447082020 0.4220743769 -2.3811986757
H -1.6624230975 1.0332849692 -1.9971259836
