48
CONF108
C -2.4990961989 2.3565831906 -0.7574956018
C -1.0158180811 2.5929994599 -1.0263934408
C -0.1181519999 1.8633836110 -0.0249301968
C 1.3640742481 2.1881711400 -0.2246038119
O 1.7708120164 3.1689521390 -0.8111148373
O 2.1430811843 1.3002549841 0.4025681998
C 3.5856966040 1.5235585398 0.3350839688
C 4.2514779571 0.2673980082 0.8506173662
C 4.0381344194 -0.9479452781 -0.0703897250
C 4.7476938511 -0.7949700451 -1.3802654671
C 4.1536179578 -0.6880623844 -2.5679788847
N -0.3580901871 0.4133841669 0.0315002262
C -0.5594529607 -0.1665469413 1.3814934390
C -1.8189905064 0.2868226061 2.0169861328
C -2.0819643999 1.1418266655 3.0439974683
C -3.5043816375 1.1998520963 3.1768483507
C -4.0113581821 0.3784077483 2.2205409679
O -2.9971925561 -0.1936976836 1.5033476662
C 0.0165733874 -0.2973986448 -1.0588848325
O 0.6282134239 0.1724753180 -2.0107179242
N -0.3638834748 -1.6780127885 -1.0840706634
C -1.5715333834 -2.2616719396 -0.7236888150
C -1.4470015557 -3.5805764862 -1.0545834720
N -0.1996486295 -3.8330259869 -1.6022937938
C 0.4176298218 -2.6746659435 -1.6202633306
H -2.7666021029 1.3040776644 -0.8912115720
H -2.7665496338 2.6433385016 0.2659532134
H -3.1070244544 2.9491403812 -1.4469094845
H -0.7544191177 2.2901010314 -2.0442675421
H -0.7823688252 3.6583090450 -0.9410177892
H -0.3657620258 2.2408984583 0.9772137640
H 3.8234664330 2.3968863218 0.9503784629
H 3.8574447612 1.7323506933 -0.7041342991
H 5.3240943793 0.4760375316 0.9463658519
H 3.8763473417 0.0453083421 1.8559134360
H 2.9657524807 -1.1034951511 -0.2370812554
H 4.4199740467 -1.8376916994 0.4462135762
H 5.8367807965 -0.7485740667 -1.3236331998
H 4.7296482247 -0.5681976569 -3.4811193969
H 3.0699274726 -0.7139448889 -2.6590547020
H -0.5203750625 -1.2551667356 1.3105895657
H 0.2749320411 0.1531226556 2.0161827883
H -1.3441933156 1.6688537891 3.6316505139
H -4.0728212837 1.7782727486 3.8899794845
H -5.0113298495 0.0957872970 1.9296644439
H -2.3851112333 -1.6872546000 -0.3100022352
H -2.1860857341 -4.3611822137 -0.9393005211
H 1.4193562722 -2.4783094588 -1.9785148734
