46
CONF8
C -5.2438570795 -1.8658764727 -2.3537970374
N -4.5253262580 -1.5883166024 -1.1140010735
C -4.2169063925 -2.7571457185 -0.2966450559
C -4.0131447152 -0.3625931596 -0.8991022212
O -4.1997895397 0.6177671081 -1.6290393985
C -3.2375680558 -0.1385107871 0.3754990368
C -1.8796411210 -0.3818404077 0.5591712880
N -1.1782144602 -0.0751882574 1.6392101802
C -1.8212737558 0.5207358737 2.6464337262
C -3.1808852022 0.8199102177 2.5859494967
C -3.8895243975 0.4919329902 1.4412891124
S -0.8773915114 -1.2395296292 -0.7024167035
O -1.5899115092 -1.2176223165 -1.9824395995
O -0.4057606423 -2.5193103358 -0.1544985934
N 0.5259087717 -0.2953814638 -0.8015170655
C 0.4333807258 1.0789531128 -0.9487228803
O -0.5784830194 1.6520549297 -1.3287914592
N 1.5893937003 1.7865501115 -0.6582210122
C 2.7936681365 1.3788723477 -0.0899177973
N 2.9390021978 0.0957925937 0.2443985501
C 4.1116868087 -0.2390895876 0.8004016292
C 5.1276518839 0.6824014346 1.0156842071
C 4.8477511651 1.9885455731 0.6181556021
N 3.6870861558 2.3568315471 0.0647658774
O 5.8048710341 2.9027555919 0.8114012196
C 5.5301350187 4.2655176258 0.4068774036
O 4.3246295084 -1.5061591742 1.1677888276
C 3.2566963720 -2.4600378679 0.9516763069
H -5.4984679384 -0.9280737119 -2.8461157645
H -6.1575277618 -2.4236905010 -2.1263416560
H -4.6188804934 -2.4706421071 -3.0230956827
H -3.4963241673 -3.4056304993 -0.8115663677
H -3.8050868650 -2.4606313423 0.6684041792
H -5.1361461719 -3.3245735490 -0.1212687272
H -1.2304403736 0.7674501777 3.5245716853
H -3.6701627843 1.3056763868 3.4225919924
H -4.9476942055 0.7192207972 1.3578137620
H 1.3568234026 -0.6364720640 -0.2866956182
H 1.5161526676 2.7794878582 -0.8401483850
H 6.0723559016 0.4050584058 1.4633553575
H 5.3384101069 4.3145052218 -0.6676360169
H 6.4346816588 4.8180426239 0.6583850788
H 4.6738638531 4.6627017646 0.9570731030
H 3.0276170302 -2.5439855311 -0.1142311514
H 2.3621681037 -2.1657669148 1.5076010673
H 3.6444737198 -3.4046953718 1.3306532949
