44
CONF56
C -4.5716925385 2.1106307738 3.3460034912
C -3.5679733254 1.0934282429 2.8501472123
C -4.0046626156 -0.3799397567 3.0179958228
O -4.2948359273 -0.8181552672 1.6789890670
C -3.4229213355 -0.0635116293 0.8582671820
O -3.4373534138 1.2381158439 1.4099740972
C -4.0503187530 -0.0164534155 -0.5467325361
N -3.1283338089 0.5059383782 -1.5362730462
C -2.3150217251 -0.1882114092 -2.3594465512
N -1.5097829038 0.6378689235 -3.0145683667
C -1.8768227264 1.8579395534 -2.5287105178
N -2.8499397897 1.8300820780 -1.6270449274
C -1.9958760529 -0.6247429268 0.8324196254
C -1.6794633849 -1.9656458042 0.5906323428
C -0.3675347810 -2.4113838632 0.4938559626
C 0.6679903040 -1.4947894742 0.6344269879
C 0.4007564364 -0.1511943686 0.8786416191
C -0.9207143636 0.2595616869 0.9686324695
O 1.9458584247 -2.0040337866 0.5778826849
C 2.9487322628 -1.2272347626 0.0197412556
C 4.1807875703 -1.2257630533 0.6627198119
C 5.2466275068 -0.5287941830 0.1026163792
C 5.0507004936 0.1594367553 -1.0883715800
C 3.8206375248 0.1597323935 -1.7373010812
C 2.7602332440 -0.5451555921 -1.1797338768
Cl 6.3935739114 1.0503088630 -1.7969448300
Cl -2.9249918887 -3.1858232400 0.3370681262
H -4.2561187420 3.1231495471 3.0793567487
H -5.5560010063 1.9163393057 2.9085005887
H -4.6508815563 2.0506007556 4.4358864876
H -2.5857448571 1.2570908296 3.3117038223
H -3.2029637042 -0.9916752250 3.4503681135
H -4.9169903193 -0.4892663654 3.6080903206
H -4.3252251061 -1.0299986502 -0.8457690249
H -4.9443617193 0.6102346119 -0.5089944027
H -2.3561038093 -1.2663642620 -2.4497478204
H -1.4262575413 2.7884975551 -2.8503015098
H -0.1439455742 -3.4535616364 0.2990790237
H 1.2083315767 0.5627650524 0.9935874718
H -1.1404238598 1.3055416965 1.1480386172
H 4.3026770822 -1.7691728517 1.5933560488
H 6.2128934221 -0.5190356236 0.5936418813
H 3.6898235132 0.6936367593 -2.6715484905
H 1.7969796982 -0.5637534104 -1.6787496410
