49
CONF44
C -5.1027601582 1.2435891966 0.8165480851
C -3.7277904995 1.3423761936 0.1933177939
C -3.1297262265 0.1719141895 -0.5303957533
C -2.6504522751 0.5039333771 0.8794238635
C -1.2424491566 0.9060486036 1.0145504369
O -0.5510310256 1.4488662263 0.1807679562
O -0.7717362627 0.5283283705 2.2440761344
C 0.6742853321 0.6123562959 2.3888581355
C 0.9224127346 0.7215376996 3.8242327154
N 1.1509203430 0.8012716193 4.9530318906
C 1.3224326704 -0.6155994697 1.7874536774
C 2.0703395886 -0.4801812863 0.6216657789
C 2.5941899406 -1.6244118722 0.0203624705
C 2.3715441890 -2.8851033109 0.5704957801
C 1.6190469732 -3.0009130347 1.7340668120
C 1.0937873640 -1.8706675074 2.3537188076
O 3.2929423282 -1.5902244900 -1.1627427400
C 3.9005334033 -0.4005200050 -1.5522326247
C 4.8695010565 0.1963012925 -0.7511785471
C 5.5051712404 1.3459021163 -1.2100944626
C 5.1810753737 1.8827389105 -2.4557192089
C 4.2144839187 1.2656028255 -3.2460307740
C 3.5640166278 0.1185770382 -2.7955631784
C -3.8297161922 -1.1282311262 -0.7624815992
C -2.9110456695 -2.2646819147 -1.2393860769
Br -2.0336493490 -1.8628957592 -2.9516771811
Br -3.9105873788 -3.9527996133 -1.4007559824
Br -1.4948037789 -2.5323331745 0.1227719138
Br -5.2860620609 -0.8335514315 -2.1060600103
C -3.3971223151 2.7183574176 -0.3373623554
H -5.3234583527 0.2446383865 1.2001710270
H -5.8670489164 1.5085248197 0.0797074148
H -5.1738700940 1.9487517918 1.6508875522
H -2.4251446389 0.4484465351 -1.3107684089
H -3.0142281837 -0.1345283544 1.6770590342
H 1.0423942436 1.5222527227 1.9020570887
H 2.2244501453 0.4973935934 0.1795531615
H 2.7856085968 -3.7589816841 0.0789611745
H 1.4481150185 -3.9825047055 2.1639731824
H 0.5091264702 -1.9636957738 3.2636812132
H 5.1180519343 -0.2360729507 0.2128480812
H 6.2638148054 1.8179783346 -0.5938299096
H 5.6833513806 2.7772168949 -2.8091176361
H 3.9591186888 1.6778877806 -4.2170677607
H 2.8052073697 -0.3745481932 -3.3940134588
H -4.3570148932 -1.4878703282 0.1231604933
H -2.4036656821 2.7582068684 -0.7860315197
H -4.1357515509 2.9961876680 -1.0965398090
H -3.4468079760 3.4547909066 0.4716477406
