45
CONF633
C 3.9135557909 2.1607731445 2.0292684759
C 4.1077787194 0.9936339955 1.0634341249
C 4.0270207113 -0.3613851143 1.7669403554
C 4.3160084298 -1.5639968960 0.8609470724
C 3.4230518422 -1.6664617995 -0.3802142641
C 1.9293735869 -1.6924904548 -0.0632327043
C 1.0597254064 -1.8658585924 -1.3059736353
C -0.4448299431 -1.7145026626 -1.0224208840
C -0.8377287025 -0.3499236254 -0.5084796242
C -1.0511900095 -0.1625475281 0.8580076911
N -1.4240627058 1.0834295504 1.2494234099
C -1.5906411349 2.1406652512 0.3545823852
N -1.9560340794 3.2230405832 1.0540173215
C -1.9863914649 2.7705614995 2.3233448388
N -1.6739002533 1.4840801552 2.5231860611
N -1.3767656456 1.9874936102 -0.9487422266
C -1.0027232085 0.7747034204 -1.3607376166
C -0.7272631836 0.6966385724 -2.8428576381
C 0.4993374746 1.5377285509 -3.2209075525
N -0.9737840858 -1.1011627540 1.8410728426
H 3.9645786057 3.1231571205 1.5117938932
H 4.6820366172 2.1564617567 2.8096820654
H 2.9375447099 2.0998647550 2.5231868565
H 5.0802232922 1.0824784945 0.5602971268
H 3.3478543901 1.0518848797 0.2737572132
H 3.0357359108 -0.4664340177 2.2292193686
H 4.7438912379 -0.3722969839 2.5985063256
H 4.2135831649 -2.4848881654 1.4505071014
H 5.3639655484 -1.5218603889 0.5366897972
H 3.6908987417 -2.5740038784 -0.9371579484
H 3.6256769450 -0.8259414230 -1.0566961239
H 1.6484828865 -0.7571903190 0.4377786460
H 1.7250788118 -2.5086031649 0.6480748526
H 1.3592836462 -1.1230158777 -2.0556586706
H 1.2425005128 -2.8514817725 -1.7530278646
H -1.0101303244 -1.9331290436 -1.9338069103
H -0.7579224303 -2.4856563019 -0.3077469994
H -2.2489444370 3.4016769909 3.1636134705
H -1.6054372682 1.0933251699 -3.3641747220
H 0.6808657013 1.4918051620 -4.2986779121
H -1.0003911692 -0.7393727314 2.7841348425
H -0.3778577575 -1.8950124786 1.6820383294
H 0.3408187088 2.5797570608 -2.9341706956
H -0.5881515816 -0.3350017670 -3.1717815351
H 1.3971024820 1.1778715561 -2.7068333951
