64
CONF163
C 1.7865240484 2.8809007362 3.1060569204
C 2.4360781732 1.5226890160 3.2786904143
O 1.5217718217 0.4469284055 3.0826224826
C 1.4311666385 0.0456222254 1.7231673618
C 0.3393627863 -1.0040959274 1.6456236010
O 0.4171238488 -1.5441503649 0.3237500857
C -0.5553167202 -2.4075222708 -0.0746524617
C -1.6202027511 -2.8362496639 0.7054751842
C -2.5786708363 -3.7002023474 0.1700607404
C -2.4744084894 -4.1330285979 -1.1409319627
C -1.3968248178 -3.7210934167 -1.9313930222
C -0.4316627034 -2.8743575695 -1.4026942626
O 0.6778778268 -2.4326996107 -2.0627792277
C 0.8803451045 -2.8484916534 -3.4090498166
C 2.2245142736 -2.3116853989 -3.8479719738
O 2.1878204383 -0.8990897535 -4.0145588439
C 3.1848630856 -0.1710360177 -3.2907860380
C 2.8039384839 0.1478147496 -1.8487647833
O 1.9322165677 1.2679506973 -1.7228243524
C 0.6043869222 1.0247924868 -2.1862714443
C -0.2386918130 2.2241324732 -1.8120191339
O -0.5483907773 2.2917986320 -0.4151943780
C -1.5997838202 1.5572736967 0.0446683722
C -2.3430232934 0.6432578361 -0.6951013267
C -3.4131252711 -0.0379729681 -0.1104094049
C -3.7429271842 0.1898356090 1.2138679790
C -3.0010779629 1.0993440816 1.9729369671
C -1.9300986140 1.7779214320 1.4027383271
O -1.1338405083 2.6706937859 2.0525311996
C -1.3750767847 2.8963679371 3.4431276244
C -0.2744373061 3.7959921871 3.9728294917
O 0.9318534754 3.1001869036 4.2334847192
H 1.2260218228 2.9200399612 2.1650891864
H 2.5679799178 3.6590860985 3.0818338820
H 2.8058487026 1.4331509158 4.3063014751
H 3.2934996833 1.4305678682 2.5921599018
H 2.3855475999 -0.3952492501 1.3875608300
H 1.1894468150 0.8863534242 1.0553986051
H -0.6431535633 -0.5482948067 1.8220402926
H 0.5143785374 -1.7920680082 2.3920949553
H -1.7248538960 -2.4831648833 1.7238330574
H -3.4089880730 -4.0212768813 0.7898667642
H -3.2207387400 -4.7974431205 -1.5627832091
H -1.3178670206 -4.0702676923 -2.9539262540
H 0.0808387714 -2.4607417764 -4.0573646644
H 0.8914529554 -3.9475748969 -3.4756864053
H 2.9802551998 -2.6073962112 -3.1072481955
H 2.4872305126 -2.7785658086 -4.8100461147
H 4.1396934340 -0.7205898838 -3.3049760389
H 3.3306750294 0.7684459266 -3.8367624696
H 3.7144325326 0.4340421810 -1.3077872163
H 2.3679032421 -0.7381091246 -1.3631391681
H 0.5847265686 0.9069649133 -3.2807012742
H 0.2137082251 0.1020192718 -1.7365215684
H 0.3293360885 3.1365177339 -2.0164822958
H -1.1623548871 2.2499780739 -2.4052166631
H -2.0907344736 0.4356043814 -1.7273546994
H -3.9636502873 -0.7632249111 -0.6992842266
H -4.5710629825 -0.3386479952 1.6737664605
H -3.2663036197 1.2727560764 3.0085869671
H -1.3571059183 1.9454940922 3.9936143653
H -2.3566156363 3.3787114600 3.5775347834
H -0.6026464324 4.2009126384 4.9374572889
H -0.1191848703 4.6401428873 3.2828844275
