34
CONF66
C -4.5304589311 -1.9849015101 -0.4993532222
C -3.2480520443 -2.5084426106 -1.1004825880
O -2.0602538073 -1.8950291440 -0.4809363483
P -1.6562101712 -0.3843296178 -0.7587501241
S -1.8526119505 0.3423721850 -2.5420513231
O -2.3582412169 0.3798474825 0.4514727475
C -2.3791063734 1.8490872468 0.5395994589
C -1.0429141609 2.4040017163 0.9768837970
O -0.0363474007 -0.4128585678 -0.3952010591
N 0.2365112698 -0.8478598095 0.9106093540
C 1.4812296882 -0.6693519560 1.2191451750
C 1.7463323220 -1.0826459252 2.5698826201
N 1.9945146739 -1.4081878291 3.6516922535
C 2.6026658451 -0.1066594694 0.4489317098
C 3.5662465637 0.6466361078 1.1364695109
C 4.6375643577 1.2020772843 0.4500125136
C 4.7735440457 0.9881250426 -0.9197805795
C 3.8330893626 0.2176414222 -1.6013882943
C 2.7459118104 -0.3255061333 -0.9292599957
H -4.6771667771 -0.9250623899 -0.7274965352
H -5.3686805410 -2.5443784761 -0.9265850313
H -4.5381565613 -2.1216151324 0.5854521431
H -3.1118985365 -3.5731821093 -0.9044761330
H -3.1954956747 -2.3306336864 -2.1790335560
H -3.1588957765 2.0479047747 1.2768657630
H -2.6928215499 2.2452232218 -0.4312678439
H -1.1476494184 3.4824654643 1.1314793849
H -0.2704351645 2.2425907630 0.2191682275
H -0.7211080031 1.9489806218 1.9179273280
H 3.4665131949 0.8109593066 2.2050527497
H 5.3696842995 1.7961214889 0.9867451132
H 5.6159529011 1.4145925683 -1.4548007018
H 3.9466597478 0.0358082609 -2.6650327919
H 2.0300837598 -0.9337898871 -1.4655821210
