47
CONF22
C -3.7622449650 2.2455579417 -1.8462088080
O -3.9395741197 1.2428048455 -0.8184280219
P -3.5261610194 1.5856878258 0.6926734098
S -1.7973730517 2.3992014862 0.9890093868
O -4.8178706762 2.4016063142 1.1805592901
C -4.8158495142 3.0316331253 2.4818673378
O -3.7976486354 0.1531549140 1.4043600343
C -2.8107761139 -0.8233385932 1.5258021581
C -2.6547111114 -1.4182904002 2.7684081821
C -1.6783295413 -2.3948905319 2.9392482573
C -0.8725704631 -2.7731857775 1.8659389181
C -1.0710909421 -2.1903359943 0.6119058901
C -2.0366911757 -1.2107708933 0.4379336526
S 0.4198892520 -3.9953901707 2.1103058202
C 1.7312439187 -3.1307250328 1.2426650893
C 2.2139914364 -3.6175574874 0.0289115631
C 3.1186417985 -2.8644045894 -0.7140828065
C 3.5227261270 -1.6289317308 -0.2283243280
C 3.0984384005 -1.1576719881 1.0096081238
C 2.2018594867 -1.9162740851 1.7473760926
O 4.3803588797 -0.8381492619 -0.9926602829
P 3.6895319585 0.2537370583 -1.9844368741
S 2.6204683525 -0.4316222230 -3.4418927336
O 5.0487673068 1.0257324386 -2.3212222832
C 5.0257918871 2.0553510343 -3.3334282918
O 2.9433835773 1.2841875958 -0.9955441706
C 1.5002315187 1.3472804432 -0.8708035722
H -4.0149294678 1.7541494060 -2.7860193134
H -2.7243457325 2.5912650728 -1.8634044443
H -4.4374564045 3.0886762472 -1.6713778612
H -3.9547387475 3.6991306230 2.5789901012
H -5.7457942042 3.5979417994 2.5390366037
H -4.7931414593 2.2711699391 3.2687505920
H -3.2746187751 -1.0952275717 3.5972086083
H -1.5229867789 -2.8399725490 3.9162999052
H -0.4567732903 -2.4912614787 -0.2300235897
H -2.1899110057 -0.7531382914 -0.5329255773
H 1.8480365494 -4.5633362193 -0.3560791322
H 3.4740496247 -3.2003315191 -1.6811354712
H 3.4551131975 -0.1981714984 1.3668428560
H 1.8359018284 -1.5527518702 2.7015603201
H 4.6593718071 1.6495626903 -4.2811188846
H 4.3954035772 2.8908920631 -3.0120486036
H 6.0584734452 2.3887875659 -3.4381592856
H 1.2887084714 2.2822467802 -0.3513991954
H 1.0323127096 1.3421410088 -1.8583690234
H 1.1328909886 0.5038317397 -0.2791236471
