20
CONF44
C -0.2445972398 -0.3571990380 0.4375843702
O -0.0504887132 -1.2245786820 -0.7054773629
C 1.2928202395 -1.4017148824 -0.9108854566
O 1.7330148642 -2.0715173098 -1.8242379555
C 2.0275899763 -0.6949925291 0.1211287314
O 3.3801328776 -0.6805106322 0.2000340011
C 1.1393467788 -0.0912790635 0.9326253684
O 1.2982434601 0.6879680608 2.0116985492
C -0.9993695319 0.9111303339 0.0118262794
O -0.2819480743 1.6432052866 -0.9754778111
C -2.3609129445 0.5883618280 -0.6079323338
O -3.1931556487 -0.1526394979 0.2839593374
H -0.8427289345 -0.8990476830 1.1818251031
H 3.7274061815 -1.2343258509 -0.5164420399
H 2.2414673192 0.7943435122 2.2086515576
H -1.1519417041 1.5069351651 0.9238273471
H 0.3983858881 2.1726210078 -0.5410279867
H -2.2126593514 0.0606033652 -1.5580392152
H -2.8674638321 1.5357459588 -0.8163571413
H -3.0331414044 -1.0931094608 0.1427163670
