41
CONF32
C 3.9637394161 2.5111091390 -1.7634958678
C 2.9199961059 2.0054013065 -0.7631285740
C 1.8477383128 3.0759255074 -0.5461235930
C 3.5720623351 1.6444307871 0.5757435149
N 2.2035234144 0.8275399926 -1.3169903758
C 2.7792246303 -0.3507254104 -1.6143193309
O 3.9691038887 -0.6115478484 -1.6017586435
O 1.9141599874 -1.3655694262 -2.0163390664
C 0.5315001898 -1.2122199399 -1.9118800836
C -0.2132817885 -1.1501299085 -3.0823206367
C -1.5995836826 -1.0677244655 -2.9700844813
C -2.2124568565 -1.0175126256 -1.7250072998
C -1.4423107936 -1.0702973168 -0.5537871211
C -0.0522608288 -1.1943013532 -0.6510090680
N -2.1038730541 -1.0572689014 0.6791068804
C -1.5946672807 -0.5011612818 1.8542228457
O -0.5068062736 0.0829575457 1.8876613910
N -2.3868966312 -0.6747015152 2.9548937028
C -2.1026631641 0.0942260892 4.1616733821
C -3.6736098696 -1.3637973389 2.9169050447
H 3.4891138337 2.7621704346 -2.7172758706
H 4.4379293852 3.4126277324 -1.3639068310
H 4.7361153102 1.7594865184 -1.9389143316
H 2.3107025967 3.9761146469 -0.1343370540
H 1.3620142835 3.3386649864 -1.4919301171
H 1.0860525965 2.7268768712 0.1601627374
H 2.8149995086 1.2952274974 1.2852396000
H 4.0583560481 2.5308270616 0.9942895990
H 4.3256360304 0.8639316280 0.4473971658
H 1.1949532373 0.8773549168 -1.3266888879
H 0.2839230734 -1.1708410475 -4.0454121101
H -2.2095757162 -1.0260943365 -3.8666659836
H -3.2926204525 -0.9325414287 -1.6510195738
H -1.1157610824 0.5470395156 4.0777573898
H -2.1231558961 -0.5662950308 5.0349729113
H -2.8512999448 0.8852261018 4.3039491648
H -3.9716195054 -1.5869525236 3.9435815351
H -4.4645338450 -0.7501802421 2.4606941978
H -3.5966125415 -2.3151465024 2.3822718340
H -3.1014406838 -1.1964692279 0.6242114790
H 0.5665924864 -1.2716891138 0.2326781748
