38
CONF5
C -5.1646701612 -2.7013377642 0.8925073544
C -4.9809535210 -1.3045457799 0.3640784554
C -3.7337777961 -0.8969699024 -0.1151431110
C -3.5626604681 0.3916718571 -0.6323616280
C -4.6470664360 1.2768773279 -0.6673820718
C -5.8838797158 0.8679326037 -0.1866561244
C -6.0570632322 -0.4133720383 0.3279925342
N -2.3370604651 0.8733638877 -1.1278269716
C -1.1524613899 0.2132498493 -1.2253349513
O -0.9051437317 -0.9290327035 -0.8985783438
O -0.2277156559 1.0697771328 -1.7899612016
C 1.0794926620 0.5875651795 -1.9147631521
C 1.5471688135 0.2973977424 -3.1856228071
C 2.8738648649 -0.1113685752 -3.3114355798
C 3.6907933176 -0.2266447436 -2.1967948547
C 3.1920536989 0.0713038283 -0.9188445891
C 1.8656014061 0.4900315692 -0.7756687584
N 4.0778110143 -0.0671073689 0.1566137692
C 3.8337094781 0.1510737595 1.4853845249
O 2.7851161433 0.5224032023 1.9821098704
O 4.9618792862 -0.1141713596 2.1901099962
C 4.8443805820 0.0802959950 3.6179584634
H -5.7949362154 -2.7038657884 1.7866587729
H -4.2052753226 -3.1628418804 1.1384619440
H -5.6583594765 -3.3331223518 0.1447803157
H -2.8976868260 -1.5816186297 -0.0835056663
H -4.5163163398 2.2789743408 -1.0652811897
H -6.7192228049 1.5609114168 -0.2130701820
H -7.0275350164 -0.7236689670 0.7043854128
H -2.3334678341 1.8272790115 -1.4613414764
H 0.8922338550 0.3910027751 -4.0442613752
H 3.2748319866 -0.3444694219 -4.2923477409
H 4.7221865523 -0.5475795419 -2.3077981965
H 1.4524664585 0.7312807944 0.1928233083
H 5.0109834348 -0.3789825639 -0.0718641022
H 4.0775424060 -0.5799472038 4.0301441451
H 4.5977632263 1.1212302766 3.8407496736
H 5.8237401912 -0.1742053842 4.0214151375
