41
CONF3
C -2.6478524867 -2.8527165488 -1.0222798637
C -1.1698639939 -2.7439445034 -1.3917028380
C -0.4330851841 -1.5906505438 -0.6858046762
C -0.5087291724 -1.7292496433 0.8408543431
O -0.2203733561 -2.7287355206 1.4740923462
C -1.0295648781 -0.4613921205 1.3932019897
C -1.1567091629 -0.0725249384 2.7222138278
C -1.6594444220 1.1993348791 2.9798368438
C -2.0399808130 2.0536602931 1.9345111642
C -1.9235868631 1.6589967333 0.6055302177
C -1.4054540049 0.3942266398 0.3500002380
C -1.1318478426 -0.2500922732 -0.9490750930
O -1.4268708392 0.1805812907 -2.0499907382
C 1.0392439444 -1.5588285916 -1.1747372924
C 1.9974767142 -0.6752803076 -0.3967128972
C 3.3948962404 -1.1240625845 -0.2615549594
O 2.4704307689 -1.2585544736 0.8362519819
C 1.7246544036 0.7975211832 -0.3199668404
C 1.7524596609 1.4461661019 0.9161829993
C 1.4770247706 2.8042289811 0.9674540864
C 1.1843874857 3.5458796169 -0.1698450455
C 1.1801941866 2.8901790191 -1.3984137518
C 1.4470167736 1.5280249375 -1.4777426105
Cl 1.4856131071 3.6126533061 2.5346045619
H -3.1060006288 -3.6962566509 -1.5458321365
H -3.1996896768 -1.9489107276 -1.3003057157
H -2.7814167744 -3.0160484751 0.0524713922
H -0.6478973037 -3.6721988918 -1.1337688580
H -1.0585374080 -2.5969979821 -2.4721390736
H -0.8617747875 -0.7361868060 3.5285158004
H -1.7601624361 1.5411774812 4.0049403195
H -2.4268208255 3.0395846982 2.1716806533
H -2.2117302012 2.3182326707 -0.2067306785
H 1.0316022074 -1.2569813405 -2.2287575010
H 1.4256688177 -2.5820522734 -1.1305590466
H 4.1719979499 -0.3756299137 -0.1144417191
H 3.6986003132 -2.0617240340 -0.7255509464
H 1.9655893302 0.8866618479 1.8185777629
H 0.9671453590 4.6055759312 -0.1007789829
H 0.9620680543 3.4526664562 -2.3004320569
H 1.4313229572 1.0336664843 -2.4431567938
