48
CONF13
C 2.9317502105 -1.0554270900 -1.2211907886
C 1.6553739152 -0.8973873016 -0.7605499048
C 1.0423273696 0.3435869492 -0.3812680880
C 1.8559425410 1.6030235374 -0.4903822275
C -0.2632754070 0.3095419928 0.0535445373
C -1.0227516884 1.4180748512 0.5289544831
C -2.3383032500 1.4765928804 0.9205675210
C -2.7885324936 2.6934510355 1.6057320809
C -1.8576138074 3.8775559381 1.7239428375
C -3.9958676514 2.7628721461 2.2142158391
C -5.0176365483 1.6825978572 2.1462136658
C -4.7797182469 0.8281871315 0.9123821581
C -3.3310978817 0.3119752321 0.7799582186
C -3.2710754651 -0.3625793713 -0.6062920356
C -3.0569381035 -0.7265191955 1.8857727516
C 3.4662005558 -2.3289381891 -1.5793786624
C 4.7211239976 -2.6060236051 -2.0503249664
C 5.7782009047 -1.5643463470 -2.2713444213
C 5.0495646849 -3.9863859865 -2.3503504433
C 6.2292895828 -4.4369792222 -2.8153546911
H 3.5665875487 -0.1798438909 -1.3199865858
H 1.0335582025 -1.7888852579 -0.6689423365
H 2.7580114719 1.5349650793 0.1285597349
H 1.3030750816 2.4916430780 -0.1879510949
H 2.1904355239 1.7537592564 -1.5232825863
H -0.7185463301 -0.6738365201 0.0727429422
H -0.4566451251 2.3335911272 0.6513652481
H -0.9543303713 3.6342478936 2.2952170734
H -2.3651567320 4.7009471554 2.2311970092
H -1.5324443077 4.2355433607 0.7404936670
H -4.2389743928 3.6562901847 2.7861934898
H -4.9902088297 1.0713248203 3.0617436468
H -6.0226823721 2.1210175786 2.1183061720
H -5.0097334094 1.4328029772 0.0247920546
H -5.4549085623 -0.0352812198 0.9010210147
H -2.3899726919 -0.9859567838 -0.7548105109
H -3.2954512197 0.3903901018 -1.4008805249
H -4.1488593934 -1.0077985038 -0.7225028773
H -3.1348704120 -0.2755839632 2.8799992495
H -3.7853648294 -1.5431123068 1.8190552505
H -2.0537997734 -1.1516082015 1.7906888288
H 2.7885842985 -3.1757854754 -1.4614206483
H 5.4319733632 -0.5577972857 -2.0382099115
H 6.1158084321 -1.5750543619 -3.3143326786
H 6.6596677107 -1.7730771847 -1.6533408222
H 4.2513325752 -4.7076739093 -2.1746859248
H 7.0665838198 -3.7742544592 -3.0115930333
H 6.3793680028 -5.4938463367 -3.0098444115
