44
CONF219
C -4.0228018537 -1.8517868490 -2.0047537298
S -2.7232322696 -2.9153207290 -1.3513379531
O -2.4102455606 -3.9353780690 -2.3734082780
O -3.0988886652 -3.3772709795 0.0031339992
C -1.2680699274 -1.8196916807 -1.2271173712
C -1.2225070498 -0.7379062171 -0.3349280930
C -0.0555201347 0.0358495209 -0.3603667927
C 1.0229850714 -0.2672297127 -1.1899657533
C 0.9482630936 -1.3756588675 -2.0278412647
C -0.2071817227 -2.1420237660 -2.0644054972
C 2.2494488587 0.6012443449 -1.2299323435
O 2.2315100887 1.7025656017 -1.7334901117
C 3.5124624729 -0.0147876901 -0.6246299763
C 3.2882198723 -0.1737002555 0.8976323313
O 2.6889379192 -1.1395624530 1.3189688339
C 3.8521131937 0.9126706468 1.7715612891
C 4.0977483490 2.2207935249 1.0193016735
C 5.0631403235 2.0071537333 -0.1454918865
C 4.7285233370 0.8204682175 -1.0100787133
O 5.3888527681 0.5024092116 -1.9796671032
Cl 0.1007515781 1.4041572457 0.7241446325
C -2.3454101472 -0.3663557920 0.5942935162
O -2.9918419812 0.7912512027 0.0234795498
C -3.7578586460 1.5460696671 0.9398067733
C -5.1726220437 1.0069563240 1.0737128983
F -5.2055905723 -0.2473130936 1.5894737778
F -5.8094198436 0.9548099652 -0.1195667315
F -5.9044180506 1.7994281299 1.8915137248
H -4.9069012076 -2.4887425828 -2.1008142297
H -4.2062886246 -1.0289413921 -1.3111198878
H -3.6958982066 -1.4819528819 -2.9791768469
H 1.7869732559 -1.6273502593 -2.6689966044
H -0.2826435642 -2.9896705170 -2.7344495150
H 3.6069691936 -1.0241207246 -1.0411471511
H 3.1847214765 1.0358779662 2.6297132313
H 4.8035045050 0.5214101021 2.1651044552
H 4.5133545565 2.9611586400 1.7072735912
H 3.1473441066 2.6260032266 0.6566079169
H 6.0832655921 1.8361952849 0.2253624374
H 5.1186610959 2.8851159356 -0.7993534483
H -3.0500722298 -1.1894511723 0.7185735171
H -1.9384301277 -0.1176751636 1.5823919496
H -3.3063225187 1.5754751119 1.9406430761
H -3.8355846552 2.5648277476 0.5478233939
