41
CONF34
C 0.2640449528 -3.6464526838 -0.1413730169
C -0.2359867199 -2.2831298531 0.1743765605
C -1.5249319694 -1.8273862731 0.2045569891
C -1.4945791995 -0.4137205916 0.4697497296
C -0.1408837845 -0.0288827950 0.5828946294
N 0.6361757831 -1.1916684991 0.3827428621
C 2.0284319674 -1.3017297441 0.4955497519
O 2.5553190249 -2.3157083742 0.9309080343
C 2.8346800560 -0.1553632742 0.0073067858
C 2.4763708162 0.5466407334 -1.1477060781
C 3.2985554079 1.5503518198 -1.6416640168
C 4.4694268389 1.8543204268 -0.9540830044
C 4.8485400876 1.1688327674 0.1963354001
C 4.0296955174 0.1505519518 0.6638862507
Cl 5.5033175171 3.1351590369 -1.5602403778
C 0.2054042677 1.2660252281 0.9401048897
C -0.8146878311 2.2018548483 1.1143550835
C -2.1617776385 1.8362829093 0.9552696144
C -2.5113800550 0.5219372489 0.6438652992
O -3.2070956458 2.7049044073 1.1047650352
C -2.9019480843 4.0610894467 1.4473448011
C -2.7757646402 -2.6039913227 -0.0308120733
C -3.4487823154 -2.3430441471 -1.3635836939
O -4.6481119397 -2.3706346574 -1.5425951572
O -2.5623038783 -2.1140463316 -2.3529539141
H 1.0574706609 -3.6102594740 -0.8940125647
H -0.5545584015 -4.2497972198 -0.5378344225
H 0.6754371385 -4.1466282288 0.7396235379
H 1.5588576396 0.3018255283 -1.6725065058
H 3.0342929368 2.0879747612 -2.5448376725
H 5.7669488602 1.4240336825 0.7120840244
H 4.3099669685 -0.4059592455 1.5518824369
H 1.2336805172 1.5726077130 1.0843741611
H -0.5436089175 3.2151386454 1.3814071101
H -3.5588798403 0.2489244527 0.5607471186
H -2.3869051558 4.1187048837 2.4138013803
H -3.8630284213 4.5718287111 1.5152248288
H -2.2877322540 4.5362209114 0.6730022195
H -3.5207333141 -2.3940480411 0.7427420585
H -2.5824041918 -3.6827001909 0.0049201251
H -3.0605330779 -1.9900586748 -3.1789777169
