51
CONF3
C 2.6914740479 -0.2049331190 2.2980374924
C 2.7544454552 -1.2484119841 1.1855086034
C 2.7511838251 -0.6759538003 -0.2569898540
C 4.0119719273 0.1459405768 -0.5346350563
C 2.6578431903 -1.8424141417 -1.2551708272
C 1.5477976848 0.2391982834 -0.3957414067
O 1.5438734485 1.4231894342 -0.5666280733
O 0.3677973697 -0.4927931915 -0.1988447578
C -0.8491509548 0.0972354302 -0.2604107018
C -1.3674241780 1.0916064217 -1.0073669949
C -2.7716003513 1.2546819468 -0.5513013765
O -3.5965755973 2.0514075306 -0.9141968165
O -3.0454480384 0.3121511801 0.4100035481
C -1.8683096799 -0.4827806353 0.6768874405
C -1.4730320615 -0.2932261726 2.1468674708
C -2.5337294609 -0.8661872097 3.0878608937
C -2.8091835648 -2.3379375120 2.7752205373
C -3.2335932327 -2.5150455248 1.3162028351
C -2.1798700031 -1.9511574756 0.3616903660
C -0.8393253242 1.9385745523 -2.0731519213
C -1.0617395102 3.3212426126 -2.0201736988
C -0.5826379791 4.1798478143 -2.9958751928
C 0.1229487841 3.6477176949 -4.0681467761
C 0.3431584782 2.2827036524 -4.1837266106
C -0.1480942705 1.4498948543 -3.1867450709
Cl 0.0999250830 -0.2749748889 -3.3866440411
Cl 0.7409416095 4.7127483508 -5.3120617056
H 3.5585761269 0.4607276840 2.2834143041
H 2.6661121899 -0.6938336028 3.2761871526
H 1.7936269062 0.4178660486 2.2167304527
H 1.9115170842 -1.9418338336 1.2820836282
H 3.6684462868 -1.8468959239 1.2858680743
H 4.0930608305 1.0058208427 0.1326208220
H 4.0050607099 0.5258521360 -1.5596579145
H 4.8938747029 -0.4887397896 -0.4048165752
H 1.7471775994 -2.4270063269 -1.1049674057
H 2.6716040039 -1.4793256008 -2.2860713255
H 3.5205170702 -2.5008744490 -1.1113879197
H -1.3113682993 0.7748061521 2.3317626477
H -0.5156764295 -0.8066371119 2.3040466129
H -2.1995928395 -0.7484433133 4.1245496554
H -3.4593992638 -0.2887095856 2.9798452487
H -3.5855505428 -2.7263217679 3.4434036883
H -1.9009490365 -2.9280302668 2.9652990555
H -4.1864547369 -2.0001174174 1.1452026393
H -3.3965379477 -3.5743601652 1.0890831723
H -2.5060242964 -2.0229944869 -0.6816289643
H -1.2439768792 -2.5159146599 0.4572757912
H -1.6189628190 3.7222774680 -1.1822313915
H -0.7536882780 5.2471423834 -2.9278523527
H 0.8749621505 1.8732192240 -5.0326812829
