45
CONF13
C 5.9388155217 0.6530246760 4.7425988953
C 5.7406392614 0.0079892729 3.5953906188
C 6.5201133022 0.3622299549 2.3906917516
O 7.3639070072 1.2255105612 2.3078688763
O 6.1571094514 -0.4333058502 1.3472967564
C 6.8252527196 -0.1472397567 0.1020553374
C 6.2131362374 -1.0333125385 -0.9682553116
C 4.9155641790 -0.5385057753 -1.5830106321
C 3.6895489717 -0.4382975314 -0.6229304348
C 2.3009254449 -0.3358554526 -1.3472403330
C 1.1623184081 0.2162828650 -0.4164395846
C -0.2792546583 -0.0968147626 -0.9568912450
C -1.3838452503 0.8186031726 -0.3179138820
C -2.8346819888 0.2417614847 -0.4920155984
C -3.9519953064 1.3239252272 -0.2834539641
C -5.3656623766 0.7054037502 -0.0113770583
C -6.5469147047 1.7081246920 -0.2259034278
F -6.3042969845 2.8583922049 0.4183664693
F -7.6682230599 1.1645137984 0.2657355964
F -6.7309516796 1.9621790971 -1.5252543628
F -5.5662911506 -0.3452738002 -0.8402610607
F -5.4174201255 0.2790583728 1.2679310236
F -3.6195098690 2.1001344153 0.7728926036
F -4.0220644579 2.0936971479 -1.3926654010
F -2.9584839058 -0.2655072511 -1.7385594405
F -3.0177367555 -0.7467294682 0.4118334173
F -1.1320149308 0.9492091189 1.0037917965
F -1.3287226843 2.0349044100 -0.9049937554
F -0.2950511928 0.0863768201 -2.2956238395
F -0.5748647810 -1.3868392860 -0.6793268783
F 1.3008127336 1.5572187894 -0.3111446899
F 1.2878848193 -0.3417288081 0.8091532330
F 2.4132649311 0.4871316684 -2.4122360831
F 1.9417131842 -1.5691395553 -1.7740349413
F 3.8440082856 0.6598527861 0.1598933003
F 3.6701187762 -1.5434067673 0.1616700669
F 4.5655065862 -1.3970095827 -2.5934410310
F 5.1103402787 0.6936797954 -2.1392747964
H 6.6788038864 1.4453082858 4.8037028277
H 5.3715368597 0.4071935291 5.6333949471
H 5.0092205595 -0.7873942898 3.4934706496
H 7.8913013516 -0.3718423995 0.2113706089
H 6.7294150204 0.9170625960 -0.1350783551
H 6.0641254282 -2.0476863377 -0.5889524588
H 6.9050622722 -1.0920927218 -1.8158013452
