45
CONF1019
N 6.4163125838 0.2853126736 -0.5880012956
C 5.5366560802 0.2589838576 0.5930070037
C 4.0827027184 -0.1327110397 0.3090361995
C 3.3625795058 0.8966630184 -0.5616360028
C 1.9514663769 0.4749963272 -0.9791682218
C 0.9829919242 0.3321402545 0.1895099253
N -0.3783724653 0.0690976003 -0.3004619970
C -1.3521288139 -0.1301441980 0.7744940875
C -2.7593807501 0.0179067091 0.2094678699
O -2.8098263074 1.1564924252 -0.6387918601
O -3.1022822723 -1.1658677334 -0.5104000564
C -4.5491078153 -1.3455925670 -0.5107342519
C -5.0536217556 -1.2757837531 -1.9400066824
O -4.8644132483 0.0084565757 -2.5322863926
C -5.1091530298 -0.2747250259 0.4298581513
O -6.1658857301 -0.8351133764 1.2039722384
C -3.8808400144 0.1494469723 1.2430981813
O -3.9724839454 1.4214824954 1.8551462070
C 6.1583441021 -0.6724509608 1.6456538103
O 7.3892899067 -1.0899502656 1.3350687319
O 5.6080985125 -0.9901181159 2.6803929981
H 6.0410013541 -0.2985117446 -1.3287823503
H 6.5142578266 1.2216524339 -0.9591324174
H 5.5476442381 1.2556968583 1.0568925427
H 3.5730859033 -0.2516061308 1.2694104434
H 4.0726876688 -1.1158924064 -0.1838319902
H 3.9504191678 1.0779441539 -1.4696743669
H 3.3168455912 1.8534573331 -0.0231040087
H 1.5455261291 1.2199909390 -1.6744930931
H 2.0035442674 -0.4761460578 -1.5276181338
H 1.3234816430 -0.4618169315 0.8758510817
H 0.9604214824 1.2673071352 0.7655897495
H -0.3591421775 -0.7629607624 -0.8846075267
H -1.2107924851 0.6613930380 1.5209220903
H -1.2686043626 -1.1007033795 1.2867838441
H -1.8890223128 1.2466883322 -0.9670303384
H -4.7667310577 -2.3399997237 -0.0991749703
H -4.5481667091 -2.0572026662 -2.5276499647
H -6.1300852818 -1.4839330749 -1.9486621726
H -4.0019299435 0.3426130378 -2.2346141114
H -5.4711184011 0.5893699032 -0.1455003941
H -6.6065182201 -0.1096928871 1.6642452317
H -3.7148414725 -0.5828862098 2.0427512861
H -3.9238778817 2.0766621706 1.1430891978
H 7.5509687513 -0.6700700544 0.4411217276
