33
CONF3
C 5.3161617706 0.2927905786 -0.4628644049
C 4.2814575529 1.2072186839 -0.4648066178
C 2.9515132629 0.7678081280 -0.3580534350
C 2.6859120154 -0.6132751540 -0.2507856237
C 3.7309640767 -1.5441343528 -0.2493119553
C 5.0165763940 -1.0659134190 -0.3530859604
F 6.0430697775 -1.9437882638 -0.3497577899
C 1.3090338044 -1.0829811747 -0.1713896230
O 0.9533636598 -2.2492812073 -0.1282170407
N 0.3466883663 -0.0384780400 -0.1746207228
C 0.7363280797 1.2860958769 -0.2612088078
N 1.9426772145 1.7121544579 -0.3481826334
N -0.3184746032 2.2382073395 -0.2664977737
C -1.2350094959 2.5199106454 0.6960948951
N -2.0391536773 3.4783607466 0.2789094529
C -1.5690721858 3.7537401886 -0.9747033919
N -0.5256167228 3.0342267833 -1.3533393674
C -1.0352474308 -0.4192942125 -0.1920480570
C -1.6608661109 -0.8941009740 0.9618172918
C -2.9990720691 -1.2652352975 0.9414701346
C -3.6975763387 -1.1463538133 -0.2540827252
C -3.0980174794 -0.6779693360 -1.4175872787
C -1.7572290141 -0.3224065390 -1.3766970552
Cl -5.3866114516 -1.6037348444 -0.2854923737
Cl -0.7770610038 -0.9997039311 2.4603510803
H 6.3505073670 0.6088637529 -0.5433448194
H 4.4781415985 2.2703554387 -0.5474200352
H 3.5275109906 -2.6056404957 -0.1691737807
H -2.0061421266 4.5014237269 -1.6241975730
H -3.4824907855 -1.6305064064 1.8390331032
H -3.6619955018 -0.5970230576 -2.3387813523
H -1.2594381563 0.0393873314 -2.2704454405
H -1.2508872639 2.0235553817 1.6578879254
