47
CONF4
C 0.8571874986 2.1185305196 1.4160143270
C -0.5916215472 1.6387133566 1.4634930894
C -1.5683311388 2.7509260041 1.0805878582
C -3.0225886253 2.3226317530 1.0863362920
O -3.2724365674 1.3093714186 0.0559594973
C -3.5039485399 1.7584802938 -1.1784385096
O -3.5782216759 2.9271580239 -1.5024167758
C -3.7509630427 0.6285870874 -2.1775268474
C -5.2494156585 0.3926160651 -2.3060296647
O -3.1689026627 -0.6140063402 -1.7801420698
C -1.8033664229 -0.7097332457 -1.7470074051
C -1.3054318540 -1.9477522828 -1.3248811624
C 0.0614343632 -2.1616037319 -1.2534434787
C 0.9283717789 -1.1294782897 -1.5954926872
C 0.4516091348 0.0976511735 -2.0183615686
C -0.9245736294 0.3153164429 -2.1004722883
O 2.3129025132 -1.3480835363 -1.6093526992
C 2.9700879200 -1.4691276923 -0.4254540063
C 4.3309650147 -1.7983591920 -0.5101731486
C 5.0324328504 -1.9143212390 0.6687257972
C 4.3628685947 -1.6995905968 1.8812808244
C 3.0148668317 -1.3776958681 1.8515278308
N 2.3219271193 -1.2625651816 0.7102392711
C 5.1104609541 -1.8325029609 3.1653108304
F 6.2137215876 -1.0363686734 3.1935281077
F 5.5618046468 -3.1026213079 3.3621843434
F 4.3621126965 -1.5100493675 4.2430164060
H 1.5493320735 1.3279619750 1.7197221316
H 1.1289686258 2.4299389502 0.4008924136
H 1.0068532521 2.9764436367 2.0811643326
H -0.7200949392 0.7876553445 0.7832472813
H -0.8347293006 1.2791529569 2.4718135963
H -1.4742610391 3.5827220885 1.7914433030
H -1.3134905187 3.1532432140 0.0919136879
H -3.6970090077 3.1649264598 0.9151306788
H -3.2891985416 1.8195720866 2.0189684936
H -3.3379824230 0.9529488313 -3.1410257801
H -5.4324724799 -0.3773373678 -3.0592496085
H -5.7428015509 1.3162314731 -2.6172721981
H -5.6664045275 0.0677270676 -1.3487571180
H -2.0040903982 -2.7343479629 -1.0598837270
H 0.4558838522 -3.1194522014 -0.9309191688
H 1.1475961935 0.8864596709 -2.2834954863
H -1.2770640176 1.2842552037 -2.4339580420
H 4.7980016978 -1.9523000473 -1.4755739364
H 6.0876930956 -2.1683730454 0.6564097155
H 2.4623168348 -1.2007510554 2.7704165696
