33
CONF18
C -5.3306340982 1.6006973040 1.8857686922
C -5.1692073102 0.5474419937 0.7902028271
C -3.6946391954 0.3059775418 0.4766084529
S -3.5634782003 -0.9637684588 -0.8401764038
C -1.8090587494 -1.1374991551 -1.0910859357
C -1.4225957068 -2.0826257417 -2.0664823459
C -0.0888730464 -2.3198084982 -2.3645751327
C 0.8818727855 -1.5966846927 -1.6721779279
C 0.4768288585 -0.6561112353 -0.7006515857
C -0.8526656499 -0.4023899401 -0.3867592643
N 1.6546480581 -0.1216359835 -0.2079133736
C 2.6685328586 -0.7462506539 -0.8844661794
N 2.2670137390 -1.6325249021 -1.7669412495
N 4.0050103736 -0.4707938095 -0.6615586860
C 4.4888601459 0.4376738483 0.2445873721
O 3.8062199909 1.1315998115 0.9790706388
O 5.8357570338 0.4479301115 0.2010864816
C 6.4625899030 1.3752037260 1.1182153498
H -4.8390119708 1.2832775756 2.8113551416
H -6.3879496431 1.7719915972 2.1075630268
H -4.8910344059 2.5559708004 1.5801900651
H -5.6883490250 0.8721840821 -0.1190538846
H -5.6354157889 -0.3933468534 1.1052322681
H -3.1679395399 -0.0473710030 1.3706350025
H -3.2224664833 1.2328871482 0.1311678699
H -2.1926725379 -2.6365370276 -2.5949010375
H 0.1920413134 -3.0494690034 -3.1166706392
H -1.1179165011 0.3292095922 0.3657838845
H 1.7911005367 0.5837456458 0.5015097580
H 4.6605004546 -0.9966142997 -1.2221279256
H 6.1979526146 1.1257258354 2.1483122038
H 6.1522745052 2.3981163589 0.8927916587
H 7.5327061737 1.2537985922 0.9561820745
