45
CONF17
C -3.4276638802 -1.0745064082 2.5532440743
O -3.3248584586 -0.7445825958 1.1465862181
C -2.3204871174 0.0990720915 0.8483761687
O -1.5483468063 0.5861669694 1.6604722309
N -2.2350509410 0.3365650352 -0.5001103629
C -1.3897293142 1.3157413552 -1.0855414898
C -1.4266996504 2.6326352175 -0.6250249702
C -0.6113171825 3.5925204329 -1.2102890339
C 0.2172166991 3.2409974300 -2.2743612214
C 0.2353378788 1.9310660895 -2.7406632556
C -0.5557053200 0.9460591602 -2.1478778352
C -0.5010148723 -0.4763126678 -2.6438131980
O 0.8299316516 -0.8381867701 -3.0775633597
C 1.7372945277 -0.9923489810 -2.0920344571
N 1.4260908075 -0.9413347747 -0.8027288515
N 2.6104539543 -1.1663829634 -0.1635288123
C 3.6360508249 -1.3463046574 -1.0460715537
C 3.1110950316 -1.2415660450 -2.3123626506
C 2.6588997526 -1.1546335296 1.2451967121
C 1.6161523083 -0.5675631774 1.9660555976
C 1.6541589128 -0.5549825703 3.3544039425
C 2.7410617757 -1.1188032617 4.0110730406
C 3.7852632987 -1.7058134577 3.3066210155
C 3.7386757391 -1.7318574904 1.9183730992
Cl 2.7946063831 -1.0971166958 5.7702107754
O -3.1471784922 -0.2862516959 -1.3661572702
C -4.2917119705 0.5690712218 -1.5918780204
H -4.2714450189 -1.7600057151 2.6209907703
H -2.5106909097 -1.5594165144 2.8965154465
H -3.6159254643 -0.1737613761 3.1418822166
H -2.0889942045 2.8898980125 0.1943900122
H -0.6349343928 4.6145733617 -0.8466420061
H 0.8480633059 3.9890833421 -2.7436203674
H 0.8898072386 1.6557985242 -3.5615646783
H -1.1211498109 -0.6039195165 -3.5352070850
H -0.8403996872 -1.1755308556 -1.8749238907
H 4.6524035524 -1.5071940087 -0.7210108002
H 3.6295165626 -1.3227116233 -3.2545688510
H 0.7756359913 -0.1223868160 1.4486866667
H 0.8447310030 -0.0993835823 3.9136593217
H 4.6214793023 -2.1544501122 3.8302996489
H 4.5401273460 -2.2186789798 1.3755439021
H -3.9817140400 1.5141224575 -2.0517854150
H -4.9267204955 0.0094237642 -2.2812475079
H -4.8223157179 0.7540531968 -0.6520043341
