51
CONF75
C -0.5658545500 -1.4478043517 3.3027495699
N -1.2324250418 -1.8352783841 2.0556330379
C -2.0732824307 -3.0140290367 2.3279354225
C -2.8347362865 -3.4713747253 1.0924741903
C -1.8528854244 -3.8053144066 -0.0260263414
C -0.9512576974 -2.6026120190 -0.2841558116
C -0.2481690807 -2.1227302004 0.9913872726
C 0.6439177806 -0.9090494779 0.6916967429
C -0.1375975143 0.3873602565 0.4627158862
N 0.7646151705 1.4812110742 0.0840542464
C 0.5402244668 2.7697242589 0.6131465142
C -0.7035957623 3.1701391987 1.1178536899
C -0.8663962558 4.4359642751 1.6755345477
C 0.1902340242 5.3407729653 1.7047237401
C 1.4194807362 4.9739908457 1.1616495744
C 1.5958573341 3.6976886929 0.6366762462
S 3.1911455344 3.1769279025 0.0399237247
C 2.6213773265 2.1742695480 -1.3149213787
C 1.4682060766 1.3972874573 -1.1336348593
C 1.0408921560 0.5648850420 -2.1766480232
C 1.7716801744 0.4891698470 -3.3634678389
C 2.9224871931 1.2693729467 -3.5325361438
C 3.3263115661 2.1217479360 -2.5142126740
S 1.3161823037 -0.5566381292 -4.7282770362
C -0.2310519016 -1.3448905271 -4.1722964159
H -1.3189791488 -1.3106887739 4.0853752530
H -0.0272123421 -0.5031228697 3.1912051493
H 0.1539456505 -2.2143140137 3.6492041190
H -2.7725576803 -2.7480699283 3.1295533902
H -1.4532949297 -3.8557314608 2.7027628054
H -3.4493388905 -4.3414001451 1.3503397979
H -3.5136757958 -2.6722871882 0.7668935220
H -2.3811402976 -4.0918577910 -0.9423890435
H -1.2381080911 -4.6642466291 0.2772311221
H -0.1787084305 -2.8516112553 -1.0208744132
H -1.5514665464 -1.7851116787 -0.7046427194
H 0.4238465985 -2.9432263331 1.3255918287
H 1.2428822644 -1.1564369848 -0.1910600808
H 1.3561170802 -0.7363575292 1.5057481069
H -0.9494087791 0.2558045040 -0.2661813968
H -0.6112645996 0.6734048206 1.4017486717
H -1.5520038606 2.4972796342 1.0739991617
H -1.8362523324 4.7163910842 2.0740121325
H 0.0608775190 6.3286712352 2.1337462909
H 2.2522156720 5.6706146341 1.1608489848
H 0.1402512769 -0.0200451474 -2.0511230699
H 3.4925547458 1.2189744374 -4.4548222132
H 4.2108829915 2.7377298516 -2.6432563559
H -0.0626922857 -1.9640734028 -3.2880744317
H -1.0054627464 -0.5987035990 -3.9766876433
H -0.5473681727 -1.9823764387 -5.0011264915
