47
CONF168
C -2.3547227954 -2.9323908774 2.3536181924
C -2.5334956050 -1.5806965463 1.6983524059
C -2.1293225682 -1.3830474314 0.2626476431
C -1.2367476962 -0.8312496318 1.3921757105
C -1.1303780845 0.6295582491 1.4868461204
O -1.9159387682 1.4548465507 1.0712325202
O 0.0334233532 0.9807654043 2.1228982474
C 0.3936603058 2.3827329156 2.0391361124
C -0.5784889323 3.2217022626 2.7441531200
N -1.2903589959 3.8982169261 3.3514474907
C 0.6492966479 2.8010318183 0.6020865236
C 1.4548624098 1.9484205204 -0.1526263601
C 1.6838053933 2.2431641994 -1.4920613197
C 1.1576245960 3.4002829209 -2.0683790087
C 0.3881596546 4.2545828334 -1.2908694572
C 0.1165878414 3.9577339514 0.0445696390
O 2.4649621624 1.4582060138 -2.3090680041
C 2.7534936419 0.1526436675 -1.9242557531
C 4.0916235794 -0.2178680729 -1.8847808859
C 4.4208732394 -1.5356270401 -1.5739302328
C 3.4200143671 -2.4630782032 -1.2961085119
C 2.0819665696 -2.0728052719 -1.3412804863
C 1.7372921062 -0.7638031997 -1.6641513067
C -1.6164300930 -2.4629474555 -0.5805486447
C -1.6609789201 -2.4773329218 -1.9139972391
Cl -1.0532738812 -3.8167888636 -2.8520383994
Cl -2.3137882430 -1.1861892850 -2.8844792241
C -3.7457127253 -0.8241661477 2.1910310845
H -1.4228111566 -3.4223354066 2.0644212496
H -3.1913454407 -3.5880440011 2.0885145796
H -2.3478852792 -2.8120909171 3.4415779576
H -2.6764476678 -0.5989014986 -0.2515565007
H -0.3232331505 -1.3742846384 1.6085327133
H 1.3263554344 2.4342206270 2.6132488779
H 1.8775136742 1.0570299229 0.2960979856
H 1.3561216540 3.6130049778 -3.1134282483
H -0.0257367325 5.1533560227 -1.7363647610
H -0.5169183700 4.6146756554 0.6308452409
H 4.8572576942 0.5211777232 -2.0966252285
H 5.4644846455 -1.8324780118 -1.5434393125
H 3.6788964799 -3.4868677838 -1.0468930725
H 1.2987565183 -2.7935290123 -1.1301825963
H 0.6975967182 -0.4530787125 -1.7043236039
H -1.1642384721 -3.3272103564 -0.1036341993
H -3.8789288932 0.1273142630 1.6747798711
H -3.6585302619 -0.6314524328 3.2658844413
H -4.6389144563 -1.4364029862 2.0279713196
