48
CONF119
C 0.4617990239 0.4282302711 -1.4052032984
C -0.9962530610 -0.0019709177 -1.4631226801
N -1.1119450799 -1.3331384909 -2.0594762131
C -0.2664164261 -2.3076265998 -1.3490782692
C 1.1763797792 -1.8360938625 -1.2952834623
N 1.2664033114 -0.5279157056 -0.6447004093
C 2.6528766083 -0.0635879665 -0.5355424336
C 3.4693683043 -0.8297775967 0.5022913697
C 2.8444876179 -0.8218606097 1.8971685016
N 2.6009574779 0.5285814911 2.3805045441
C 1.3726128401 1.0593105510 2.6686472205
O 0.2522773990 0.5520075214 2.6541432752
N 1.6962978303 2.3836008767 3.0221418083
C 0.8502959253 3.3884160222 3.4163447899
C 1.3888590651 4.5979114454 3.7186360272
C 2.8008064355 4.7978738722 3.6240938416
C 3.6395205012 3.7921989771 3.2325220675
C 3.0779162249 2.5324728971 2.9169572935
N 3.6507331620 1.4113252690 2.5238412968
C -2.3798186932 -1.7635841342 -2.4585839517
C -3.5235389355 -0.9620001826 -2.2778496823
C -4.7494492577 -1.4052901906 -2.7563038079
C -4.9215792634 -2.6226639073 -3.3949556632
C -3.7853313367 -3.4183844525 -3.5541150462
C -2.5410573467 -3.0078529631 -3.1040412920
Cl -6.1602196420 -0.3654927120 -2.5123477355
H 0.5138902178 1.4072946237 -0.9144672855
H 0.8451890621 0.5466439471 -2.4388371674
H -1.4313074233 0.0204446628 -0.4472301657
H -1.5359489079 0.7198677585 -2.0833406039
H -0.6442421364 -2.4500022232 -0.3210205185
H -0.2967466684 -3.2726560321 -1.8560732549
H 1.5918583879 -1.8000295845 -2.3226788614
H 1.7519799189 -2.5734013291 -0.7261853532
H 2.6221155858 0.9953595330 -0.2483432944
H 3.1726968546 -0.1140152460 -1.5119288167
H 4.4689677072 -0.3843300509 0.5451496502
H 3.6088738399 -1.8758660708 0.2095256104
H 3.4996860558 -1.3363868120 2.6092105438
H 1.8725945541 -1.3210724237 1.8933003079
H -0.2033283292 3.1383651415 3.4583373442
H 0.7400557877 5.4059604010 4.0321004376
H 3.2099723844 5.7717179385 3.8701682444
H 4.7122166726 3.9250521156 3.1555537707
H -3.4730741278 -0.0134632608 -1.7613062663
H -5.8923015278 -2.9394310171 -3.7560130042
H -3.8770917756 -4.3757319837 -4.0579227424
H -1.6829048214 -3.6440432413 -3.2835047134
