33
CONF7
C -4.8449364127 1.6753012542 -1.0524045597
C -4.3426804563 0.2829314405 -0.6684512633
C -4.0868839056 0.1744448537 0.8283260826
S -3.4641175933 -1.4802434726 1.3632448434
C -1.8694849616 -1.4928555596 0.5482893423
C -1.6824205953 -2.2921779003 -0.5939523733
C -0.4591120983 -2.3502285523 -1.2512454862
C 0.5898996159 -1.5806040975 -0.7543141233
C 0.3850221759 -0.7809997399 0.3962787665
C -0.8239850452 -0.7264424261 1.0704750203
N 1.6065422599 -0.1669539650 0.6247762728
C 2.4416977343 -0.6134189395 -0.3634306877
N 1.8935662764 -1.4521911619 -1.2089876622
N 3.7623524760 -0.2138657645 -0.4663828658
C 4.3966641483 0.6560806545 0.3839643088
O 3.8862476708 1.1998147828 1.3456727075
O 5.6784973362 0.8177935010 -0.0088437066
C 6.4455747501 1.7172869313 0.8207131780
H -4.1124038495 2.4450192583 -0.7870013598
H -5.7823197384 1.9149463365 -0.5387317009
H -5.0262990419 1.7442903725 -2.1290271000
H -3.4147285415 0.0595973362 -1.2076642028
H -5.0705060172 -0.4810640178 -0.9643757554
H -5.0135068868 0.3196247048 1.3964717609
H -3.3733629968 0.9376032635 1.1607043688
H -2.5232985599 -2.8700841000 -0.9611549819
H -0.3192916242 -2.9705368422 -2.1296646935
H -0.9651264938 -0.1330582820 1.9674697423
H 1.8830973988 0.4780011170 1.3501434445
H 4.2785436748 -0.6131334722 -1.2360661193
H 7.4405358486 1.7338438246 0.3775830109
H 6.4853562985 1.3459969843 1.8475140044
H 6.0008686568 2.7152819794 0.8107929947
