41
CONF36
C 1.6497869393 3.1147980653 -1.8167183305
C 2.9444694956 2.3811201712 -1.4579529840
C 3.6159196855 3.0683005996 -0.2642344946
C 3.8803733450 2.3524798748 -2.6707639945
N 2.5352652153 1.0008092386 -1.0939487687
C 3.3738691218 0.0259697458 -0.7023128206
O 4.5819052639 0.1047222098 -0.5661689704
O 2.7830508024 -1.2020558798 -0.4182897045
C 1.4093113657 -1.3825202481 -0.5950975327
C 0.9371995147 -1.8410040494 -1.8185036179
C -0.4324557082 -2.0586320338 -1.9457943983
C -1.3079169879 -1.8261457768 -0.8911092142
C -0.8135609534 -1.3519449270 0.3326875366
C 0.5640808654 -1.1321605127 0.4754635125
N -1.6224266405 -1.1398834672 1.4532994262
C -2.9791654097 -0.8135943943 1.4329112019
O -3.5786028949 -0.5513433159 0.3858712381
N -3.5826317587 -0.8229297327 2.6598950960
C -4.9009314791 -0.2171458077 2.8097764150
C -2.8940921751 -1.1781611352 3.8970111309
H 1.1492730441 2.6338350170 -2.6641771743
H 0.9636440691 3.1335051308 -0.9630740019
H 1.8814431433 4.1458586091 -2.0948436486
H 4.5367956524 2.5534849450 0.0170934192
H 3.8615440965 4.1002083184 -0.5325781238
H 2.9404373033 3.0848139713 0.5968992654
H 4.1331591571 3.3774420480 -2.9585147516
H 3.3909304070 1.8637150643 -3.5190229424
H 4.8048916540 1.8187734309 -2.4394662615
H 1.5521382583 0.7822967563 -1.1661844899
H 1.6265696666 -2.0243254277 -2.6352142306
H -0.8285759421 -2.4290048750 -2.8860466420
H -2.3654293302 -2.0138387050 -1.0096506719
H -4.8367259831 0.7017959629 3.4074884648
H -5.5777209886 -0.9148342236 3.3152599304
H -5.3029671210 0.0225713613 1.8263664881
H -3.6479815615 -1.4060355295 4.6541028307
H -2.2799220938 -2.0731535202 3.7629316544
H -2.2678882108 -0.3581151078 4.2784854869
H -1.1230410629 -0.9978415913 2.3181644926
H 0.9783850467 -0.7678587660 1.4109778290
