42
CONF2
C 1.3078004757 2.6289555218 0.5710889155
C 0.1332692397 2.5182010019 -0.1682315479
C -0.6142660392 1.3477420576 -0.1195920336
C -0.1951178452 0.2690847069 0.6643029591
C 0.9765250711 0.3942539854 1.4127637788
C 1.7232541776 1.5667838133 1.3681180157
C -0.9906909017 -1.0259611226 0.6842884260
C -2.2802279140 -0.9064747279 1.4657591963
C -3.4240251238 -0.3051578557 0.9360996021
C -4.5669025701 -0.1613884995 1.7147006246
C -4.5861752805 -0.6147642853 3.0306187398
C -3.4532275017 -1.2191045815 3.5645702870
C -2.3106381837 -1.3635557883 2.7843753124
C -1.1542409703 -1.5611018500 -0.7426891523
O -2.2047411458 -1.9084279115 -1.2207598052
C 0.1264829657 -1.6351136036 -1.5892603143
C 1.4657893232 -1.7772701852 -0.8597759082
O 1.7274250069 -2.6022428278 -0.0088634353
C 2.3864937253 -0.7484978389 -1.3975276056
C 3.7222123758 -0.5308036749 -1.0808792428
C 4.3756816901 0.5182601852 -1.7173888301
C 3.7067100153 1.3304605411 -2.6438082182
C 2.3698096449 1.1103225077 -2.9567332820
C 1.7221067776 0.0572676580 -2.3218735509
C 0.3178756905 -0.3907843366 -2.4918734675
O -0.5122726444 0.0979519318 -3.2202124101
H 1.8954738199 3.5402088711 0.5271564605
H -0.1982006762 3.3414895737 -0.7928198569
H -1.5199002595 1.2649587790 -0.7120610699
H 1.3164643696 -0.4425673543 2.0163063459
H 2.6360387559 1.6464271194 1.9500489207
H -0.3606728445 -1.7777019505 1.1795444406
H -3.4355612785 0.0315647713 -0.0934211051
H -5.4506874080 0.3012339906 1.2869845330
H -5.4813272411 -0.5024529533 3.6337472933
H -3.4577827471 -1.5822410164 4.5873484770
H -1.4276003116 -1.8369684973 3.2057366394
H -0.0132737123 -2.4986512539 -2.2516541736
H 4.2248534305 -1.1642432837 -0.3574956462
H 5.4195903298 0.7165665121 -1.4962041237
H 4.2450002283 2.1426106838 -3.1218757136
H 1.8386767874 1.7311309224 -3.6705064701
