48
CONF57
C -2.2453510786 -0.8232104890 3.7782703797
O -3.4684563245 -0.6539511796 3.0593309693
C -3.4238989319 -0.7991783461 1.7057971330
C -4.6664524944 -0.6065073995 1.0532684942
C -4.7491991454 -0.7238476029 -0.3054586474
C -3.6061211200 -1.0362814387 -1.0851960405
N -3.7698162247 -1.1357670129 -2.4304949847
C -2.7040371402 -1.4315273560 -3.1498665410
C -1.4273214410 -1.6437512475 -2.6039941621
C -1.2280373924 -1.5458324601 -1.2426908176
C 0.1653760077 -1.7532427854 -0.6968610344
O 0.7423511041 -2.8490191798 -1.4261117323
C 1.0278926128 -0.4906970718 -0.8995532074
C 2.5288426321 -0.7081939788 -0.5740233425
C 3.0846188363 0.6209026282 -0.0314270541
C 2.4956035772 0.8355251666 1.3678656726
C 0.9639407989 0.6130538262 1.2609586680
N 0.5056540822 0.6663976620 -0.1444380108
C 1.0646927235 1.8850869187 -0.7556259391
C 2.6094073234 1.7572816528 -0.9727085439
C 3.3048293198 3.0586713932 -0.7480092516
C 3.9786265989 3.7319928401 -1.6800011212
C -2.3490348927 -1.2308152256 -0.4254534596
C -2.2892614116 -1.1046932119 0.9854244631
H -2.4926039573 -0.6632889276 4.8281402512
H -1.8460505526 -1.8364032284 3.6441538170
H -1.4968950691 -0.0869579071 3.4589444378
H -5.5364612200 -0.3679768074 1.6561920856
H -5.6912989701 -0.5806324323 -0.8242062605
H -2.8476914893 -1.5115500273 -4.2268787633
H -0.6003911329 -1.8937924575 -3.2591284370
H 0.1263444041 -2.0124949598 0.3695406574
H 1.6114043749 -3.0289227854 -1.0479016452
H 0.9283502778 -0.2385402602 -1.9636198457
H 3.0754769971 -1.0266779100 -1.4678057720
H 2.6608338080 -1.4858297541 0.1938180272
H 4.1782619842 0.5955753992 0.0027569866
H 2.7241793905 1.8421381381 1.7330791899
H 2.9409338852 0.1286206284 2.0766050233
H 0.4101310538 1.3700412000 1.8278192219
H 0.6918920081 -0.3614613707 1.6784761251
H 0.8444989390 2.7276134369 -0.0883500388
H 0.5638048710 2.0798465304 -1.7107027275
H 2.8051157160 1.4426632079 -2.0062463827
H 3.2247171718 3.4835983774 0.2537497828
H 4.4513150781 4.6847613655 -1.4622451925
H 4.0752604753 3.3490562547 -2.6933939391
H -1.3459775395 -1.2417823049 1.4926414001
