44
CONF41
C -5.5455759750 -0.4153632994 1.2752646220
N -4.0971733154 -0.4664213065 1.0400361105
C -3.4926634430 0.8853479527 1.0324842395
C -3.9007210678 1.5060953966 -0.3330199025
C -4.0915095422 0.2739299345 -1.2555301225
C -3.7766751949 -0.9337037509 -0.3281218069
C -2.2856131172 -1.2964199514 -0.3560547111
C -1.4476722511 -0.0586115336 -0.0548335108
C -1.9724298602 0.7121991256 1.1481570925
O -0.0682519340 -0.4445605904 0.2626300354
C 0.7703865352 -0.6474316007 -0.7652823264
O 0.4596497293 -0.5602758540 -1.9375465954
C 2.1681029144 -0.9612564465 -0.2648293439
C 2.9645302075 -1.7239123741 -1.3336009191
O 4.2417839552 -2.1249516272 -0.8376719871
C 2.8594403057 0.3295615060 0.1378284266
C 3.3607294071 0.4875386453 1.4314353373
C 4.0188899395 1.6602636065 1.7967349809
C 4.1794005565 2.6885812466 0.8715716499
C 3.6808863054 2.5380066007 -0.4216564658
C 3.0262136860 1.3656123564 -0.7874422246
H -6.1000840833 0.2094289545 0.5550354910
H -5.9538043589 -1.4303061434 1.2273186476
H -5.7323625320 -0.0203073619 2.2793318516
H -3.8606850964 1.4654426660 1.8846223587
H -4.8319926047 2.0698433153 -0.2330544471
H -3.1391926250 2.1988904172 -0.7035642756
H -3.4323952713 0.2933857531 -2.1287579303
H -5.1185672415 0.2153859927 -1.6253722349
H -4.3735425256 -1.8182388669 -0.5722721741
H -2.0108088827 -1.7055442564 -1.3336629079
H -2.0895775697 -2.0591150316 0.4062948972
H -1.4049447080 0.5906658778 -0.9342748862
H -1.7470558876 0.1572293248 2.0657278533
H -1.4794630312 1.6889374241 1.2062306161
H 2.4335277937 -2.6427597013 -1.5993935239
H 3.0637510926 -1.1096428024 -2.2377142206
H 3.2347780094 -0.3134283368 2.1544904972
H 4.4059924918 1.7687909298 2.8052585069
H 4.6909373005 3.6029704415 1.1554079326
H 3.8014524844 3.3361382551 -1.1477320271
H 2.6398803496 1.2574990197 -1.7972921552
H 2.0754485311 -1.5941315347 0.6236872933
H 4.7592808945 -1.3250206217 -0.6735650672
