46
CONF20
C 6.9888254375 -2.0531163982 0.2265180855
C 5.6037328278 -1.9866268898 -0.3737153380
O 4.6898143941 -1.7245249930 0.7212044011
C 3.3903426597 -1.6258461258 0.4336134742
N 2.9911583887 -1.7619935158 -0.8272126846
C 1.6555057141 -1.6470414006 -0.9899722914
N 0.7718266754 -1.4299288925 -0.0003922100
C 1.3235210408 -1.3021235438 1.2096995975
N 2.6218015858 -1.3890372603 1.5055997101
N 0.5002084882 -1.0522364521 2.2911139039
C -0.8821837005 -0.8291952821 2.3808510413
O -1.3807442390 -0.5100977907 3.4430477700
N -1.5779974253 -1.0146277826 1.2037630391
S -3.2012919415 -0.5277675048 1.0396987942
O -3.4467749167 -0.6180222071 -0.4034139357
O -4.0164861989 -1.2652972084 1.9971090228
C -3.2264819472 1.2107904215 1.5214490797
C -3.7293652372 1.5145390206 2.7798272771
C -3.8697438862 2.8463548415 3.1551149207
C -3.5324372500 3.8595216239 2.2650551930
C -3.0407907886 3.5474247536 1.0023006329
C -2.8631540562 2.2173294256 0.6198732024
C -2.2076943042 1.9357277649 -0.6928536494
O -1.2038525143 1.2728403238 -0.8312725710
O -2.8335418693 2.5825720640 -1.6918359241
C -2.2470791668 2.3881328356 -2.9978600991
N 1.1733061100 -1.7599833848 -2.2399159989
C -0.2443467676 -1.6791451376 -2.5602323786
H 7.7195497102 -2.2525893069 -0.5626878071
H 7.2493905089 -1.1079587675 0.7098837817
H 7.0528897603 -2.8526906770 0.9690399984
H 5.5131312284 -1.1840075447 -1.1132620892
H 5.3188637414 -2.9270385479 -0.8571930550
H 0.9804428665 -0.9381046620 3.1726679540
H -1.0186652398 -1.0686808812 0.3394368978
H -4.0053037213 0.7070399102 3.4467223764
H -4.2521548783 3.0873556343 4.1410094073
H -3.6536578340 4.8990242016 2.5511133391
H -2.7775981589 4.3347019448 0.3045844789
H -1.2087004247 2.7292467124 -3.0040173988
H -2.8562374529 2.9807467095 -3.6793222090
H -2.2854232992 1.3294008256 -3.2672206330
H 1.8486716190 -1.9614326463 -2.9572501335
H -0.3547757623 -1.7375248742 -3.6448303877
H -0.8073379958 -2.5024077326 -2.1051209203
H -0.6691620711 -0.7337019892 -2.2077729474
