47
CONF84
C -3.9710612148 -1.8457499677 0.5359156430
C -2.6780258294 -1.4939781409 1.2361737073
C -2.6077728086 -1.4932439119 2.7469298589
C -2.6732201153 -0.1649059168 1.9968986257
C -1.4763424492 0.6876631084 1.9782200069
O -0.3507839092 0.3815477755 2.3082840457
O -1.7929271327 1.9265781046 1.4870114229
C -0.6483830688 2.7939435252 1.2679223636
C -1.1944119307 4.1487874629 1.2028907237
N -1.5909884447 5.2311908925 1.1382249313
C 0.0786192651 2.4284164078 -0.0090000347
C 1.4225141376 2.0756413850 0.0487173709
C 2.0747668657 1.6980587166 -1.1218336184
C 1.4007112021 1.6725871660 -2.3411297681
C 0.0548264699 2.0264268591 -2.3786409215
C -0.6137538370 2.4076110191 -1.2204694126
O 3.4196542692 1.4162093693 -1.0105084689
C 3.9742150964 0.4531706007 -1.8440043194
C 5.1984226984 0.7500381799 -2.4315086492
C 5.8282544044 -0.2190073512 -3.2093509462
C 5.2350660115 -1.4647817444 -3.4008807051
C 4.0073407326 -1.7448642187 -2.8018222682
C 3.3702487445 -0.7901008782 -2.0149243874
C -3.7439202972 -1.8816738212 3.5855990432
C -3.6618724181 -2.6015062938 4.7048395113
Cl -5.0701000207 -3.0241730258 5.6456665764
Cl -2.1701716858 -3.2111041532 5.3691468238
C -1.4426361785 -1.9351447798 0.4853726525
H -4.8496861117 -1.4369007944 1.0385792005
H -4.0777582603 -2.9346322157 0.4784746379
H -3.9519950953 -1.4524048852 -0.4855924873
H -1.6225925619 -1.7183217316 3.1435457046
H -3.6191519992 0.3660020073 1.9955150347
H 0.0318204689 2.7364558136 2.1253462514
H 1.9632601535 2.0761570089 0.9893602405
H 1.9209237275 1.3826148951 -3.2474962863
H -0.4721194780 2.0123270724 -3.3271201052
H -1.6635683358 2.6811166169 -1.2563930184
H 5.6439363976 1.7268875023 -2.2750521245
H 6.7844847420 0.0067670981 -3.6707923468
H 5.7269410200 -2.2151832670 -4.0109448428
H 3.5433374739 -2.7166524646 -2.9385509271
H 2.4190872377 -1.0052080912 -1.5386127212
H -4.7394601411 -1.5659313995 3.2886619884
H -0.5234651164 -1.7077630675 1.0274882960
H -1.4027342134 -1.4460985135 -0.4946707046
H -1.4895269673 -3.0168672493 0.3215611081
