63
CONF63
C 2.3398866934 -1.8928371264 -0.4409802868
C 1.1776119998 -2.4752612172 -1.2394218183
N -0.0057776166 -1.6128954560 -1.1512081526
C 0.2955346724 -0.2931999371 -1.7194325170
C 1.4212845912 0.3891701791 -0.9491485446
C 2.6687273507 -0.4927518704 -0.9580448655
N 3.7832291710 0.1181281584 -0.2277256693
C 5.0153389350 0.4662832139 -0.7711261967
C 5.5235311728 0.3647252232 -2.0585970061
C 6.8280523534 0.8192226990 -2.2760635559
C 7.5948979434 1.3565505364 -1.2398656264
C 7.0850164732 1.4599871737 0.0575423071
C 5.7929618132 1.0092094053 0.2715345994
N 5.0075405996 0.9700310822 1.4081004093
C 3.7632815665 0.4255943655 1.1306179908
O 2.8412431772 0.2549408025 1.9262607794
C -1.1510819340 -2.2467266064 -1.8196899048
C -2.4771209518 -1.5427397793 -1.5339069827
C -2.8375586572 -1.5312746949 -0.0454908796
C -3.7838868158 -0.3754104698 0.3218923516
C -4.3650675135 -0.4793978540 1.7219478478
C -5.5912940823 0.1378571649 1.9939659111
C -6.1549009400 0.1068829186 3.2654001546
C -5.4648084545 -0.5546319050 4.2674906680
C -4.2511353202 -1.1794601926 4.0480560587
C -3.7069410198 -1.1359399200 2.7649381760
F -6.0062173157 -0.5963951125 5.5155630226
C -3.0811661885 0.9614964443 0.1337235155
C -3.4884293371 1.8516841964 -0.8613743952
C -2.8175678447 3.0554039049 -1.0753113991
C -1.7319412341 3.3478016775 -0.2703968526
C -1.2965785165 2.4992408284 0.7344165219
C -1.9826592893 1.3050618561 0.9286476538
F -1.0654832974 4.5175726236 -0.4700479190
H 3.2177498799 -2.5415538604 -0.5371672295
H 2.0671067239 -1.8362932953 0.6176681876
H 0.9195432731 -3.4637714421 -0.8428539670
H 1.4899203477 -2.6170073138 -2.2957533741
H 0.5732707674 -0.3808652986 -2.7911285265
H -0.5963404046 0.3384441858 -1.6621558038
H 1.1021665738 0.5661179232 0.0827817210
H 1.6458096645 1.3592012209 -1.4072521787
H 3.0094023890 -0.5860921136 -1.9960614170
H 4.9397855257 -0.0496764284 -2.8728373755
H 7.2488260496 0.7507784057 -3.2738815011
H 8.6040918783 1.7001372135 -1.4417809958
H 7.6746835335 1.8761275131 0.8674398293
H 5.2685936781 1.2866470093 2.3284185197
H -1.2118409954 -3.2807960886 -1.4549403166
H -0.9918958906 -2.3007047875 -2.9151563030
H -2.4418152493 -0.5174034735 -1.9180895257
H -3.2644135426 -2.0488235704 -2.1053449077
H -3.3035381684 -2.4844949824 0.2337273898
H -1.9151616118 -1.4417772342 0.5383304085
H -4.6303401066 -0.3952029094 -0.3769404795
H -6.1167009218 0.6534491799 1.1943591184
H -7.1079135679 0.5794880816 3.4777551620
H -3.7455643859 -1.6906904219 4.8603354358
H -2.7568999263 -1.6287281968 2.5890477890
H -4.3385797184 1.6007105881 -1.4894365077
H -3.1270675944 3.7491187241 -1.8496227790
H -0.4411882926 2.7690118102 1.3446650636
H -1.6502086997 0.6317647749 1.7136100624
