41
CONF13
C 3.1195831993 3.6144451854 0.5900225800
C 2.8997730990 2.2063255348 0.1306103528
C 3.4337001018 1.1306774317 0.8316269142
C 3.2264130022 -0.1851730779 0.4454901222
C 2.4769080383 -0.4975860527 -0.6826426598
C 1.9391673539 0.5751580848 -1.3858453916
C 2.1469332010 1.8881921585 -0.9954376104
F 1.5919327807 2.8695811009 -1.7307067066
F 1.1823266632 0.3286881081 -2.4718300540
C 2.1886601273 -1.9027057215 -1.1097032961
O 0.7899450665 -2.1638298544 -0.8005005981
C -0.0196919110 -2.5721869035 -1.8035758675
O 0.3773863273 -2.8757941024 -2.9122365361
C -1.4514346473 -2.5978425546 -1.4376681201
C -2.1165033836 -1.6029438055 -0.4501299751
C -2.0514664802 -3.0808610830 -0.1277945415
C -3.3545517657 -3.8404216034 -0.2692016434
C -1.1855883078 -3.5956024769 0.9992276976
C -1.3485093023 -0.6153802341 0.2984427685
C -1.6493311372 0.6810961069 0.4091824254
C -0.8649697202 1.6401045425 1.2546081170
F 0.2259206144 1.0553857583 1.7919732025
F -1.6048472714 2.1303736038 2.2822710902
F -0.4379535825 2.7150194258 0.5460915274
Cl -3.0120038018 1.4412185804 -0.3820881948
F 3.7661157430 -1.1688611665 1.1883476758
F 4.1662010602 1.3729774848 1.9360921418
H 2.8056083682 3.7246557781 1.6321648086
H 4.1817570915 3.8731639714 0.5355051858
H 2.5561582306 4.3158788263 -0.0244297329
H 2.3502612395 -2.0364783637 -2.1810765631
H -3.0729916041 -1.2494594300 -0.8223702368
H -3.9256654085 -3.7737471987 0.6628455456
H -3.9682106116 -3.4407119030 -1.0808753064
H -3.1538863901 -4.8976134998 -0.4731397807
H -1.7372642042 -3.5128591019 1.9415742284
H -0.9637143818 -4.6544534379 0.8300039843
H -0.2397020429 -3.0670258703 1.1020871008
H -0.4691875968 -0.9430565048 0.8388508582
H -2.0576735923 -2.7982010093 -2.3147849529
H 2.7904595823 -2.6204857853 -0.5516092144
