46
CONF13
C 1.8998155190 -4.0428318745 0.2939737671
C 1.4958709966 -2.7205103317 -0.3483313383
C 2.6995619888 -1.9396775647 -0.9982066744
N 2.3391206906 -0.5402973424 -0.9457228923
C 1.5745317268 -0.0633636714 0.2158665458
S 0.8498839565 -1.5679903912 0.9886044254
C 0.7244169699 0.8121782107 -0.7694970573
C 1.6128149111 0.1969860721 -1.8739705073
O 1.6816660709 0.2705588931 -3.0779494999
N 0.7024087370 2.2333403264 -0.6423757110
C -0.3284740868 2.9590664603 -0.1252035136
O -0.2674474435 4.1809946743 -0.0092406324
C -1.5423658161 2.1834886752 0.2982452949
C -1.5381131991 1.4786985948 1.5083113837
C -2.6912947815 0.8286446145 1.9550703920
C -3.8362212164 0.8890603628 1.1668360542
C -3.8659773818 1.5718475899 -0.0451239905
C -2.7077689122 2.2246191651 -0.4772951238
O -2.5987899548 2.9086033660 -1.6465176162
C -3.7589954832 2.9802762939 -2.4880080969
O -0.3509198641 1.4918871311 2.1761079756
C -0.3059066294 0.8712403440 3.4703173633
C 4.0309389954 -2.2376287404 -0.3267927816
O 4.7707702894 -3.1248338245 -0.6898053375
O 4.2762585028 -1.4307138692 0.7176838238
C 0.4201915789 -2.9445462133 -1.4114074069
H 1.0202993982 -4.5295351451 0.7243037856
H 2.3154308516 -4.7075611543 -0.4703304315
H 2.6408902525 -3.9068332560 1.0859436302
H 2.1532836439 0.4986750133 0.9521083902
H 1.5484520743 2.7499389252 -0.8503054672
H -2.7054214820 0.2858978401 2.8910289812
H -4.7350055869 0.3842134623 1.5071314406
H -4.7739072177 1.5886761541 -0.6334619974
H -4.0696485985 1.9804706395 -2.8114403060
H -3.4558299439 3.5695535814 -3.3533685364
H -4.5862438159 3.4798191465 -1.9715644799
H -0.5394848363 -0.1968522505 3.4033626113
H -1.0014103905 1.3633828687 4.1592453728
H 0.7183261569 1.0014199792 3.8203873303
H 5.1296460297 -1.6868961770 1.1096747334
H 0.1317160719 -2.0119263917 -1.9042946801
H -0.4732164501 -3.3751606277 -0.9521729720
H 0.7940966833 -3.6401330384 -2.1715105360
H -0.2938460090 0.4191815573 -0.8551878690
H 2.7993719576 -2.2513789706 -2.0423840613
