54
CONF3
C -6.3640454719 1.7640449642 -1.2386625918
C -5.2144025788 0.8154293634 -0.9249622111
C -4.7529760859 0.8536127378 0.5789616655
N -3.3577171210 0.4563022208 0.5629375008
C -2.6541118619 0.3895613067 -0.7307552132
S -3.6954145290 1.3525683746 -1.8879506868
C -1.4214964653 1.0557840436 -0.0410885516
C -2.2703913613 0.9772846435 1.2492891441
O -2.1131674860 1.2774888283 2.4101116915
N -0.1283306084 0.4469809049 -0.0830397934
C 0.1020178525 -0.7612361576 0.4718305349
O -0.7833626726 -1.4385783293 0.9917802231
C 1.5455332451 -1.2767332364 0.5023302614
C 2.1276996830 -1.0567703207 1.8980135080
C 2.2088456002 0.2283453820 2.4393265552
C 2.7440320048 0.4162737466 3.7099797903
C 3.2035381228 -0.6747153919 4.4455241342
C 3.1262491728 -1.9558898036 3.9051137546
C 2.5903764143 -2.1477800052 2.6339895314
C 2.5216863336 -0.6847570356 -0.4933687885
O 2.5404777625 0.4568925236 -0.8998064406
O 3.4414840669 -1.6177612588 -0.8344120678
C 4.5179732877 -1.1901150824 -1.6396025554
C 4.4704525898 -1.4512212174 -2.9991012654
C 5.5631785532 -1.0843613826 -3.7822772518
C 6.6696679256 -0.4692457838 -3.2002860322
C 6.6895354360 -0.2183466424 -1.8291474623
C 5.6054548335 -0.5805907489 -1.0335597914
C -4.9158804358 2.2462416662 1.1802309788
O -4.1250819337 3.1537879927 1.0550682200
O -6.0794297919 2.3424868023 1.8433123764
C -5.5896121993 -0.6225448754 -1.2864204949
H -6.1063635919 2.8078421438 -1.0384943434
H -7.2377034585 1.4922859771 -0.6378250647
H -6.6369988923 1.6705484650 -2.2932265517
H -5.3783525456 0.1512499833 1.1406731328
H -2.4780670650 -0.6291600118 -1.0858194920
H -1.3365292365 2.1047070319 -0.3389590417
H 0.6517438513 0.9477683307 -0.4925762925
H 1.4851647085 -2.3523913345 0.3248628394
H 1.8525340269 1.0834726646 1.8723758284
H 2.8011731864 1.4171784605 4.1259410707
H 3.6202031428 -0.5261495648 5.4366575062
H 3.4814306756 -2.8102177651 4.4727746703
H 2.5288935789 -3.1463817127 2.2119707861
H 3.5977740385 -1.9307871807 -3.4296126357
H 5.5462672081 -1.2816145167 -4.8492645423
H 7.5179415298 -0.1863051828 -3.8148790421
H 7.5510085902 0.2592119664 -1.3737101867
H 5.5985493063 -0.3966783277 0.0360697950
H -6.1791870405 3.2569537638 2.1622274443
H -5.8176972792 -0.6908997872 -2.3528306777
H -6.4790001235 -0.9170647310 -0.7179756626
H -4.7855676007 -1.3260078853 -1.0534537186
