37
CONF4
C -2.6891443922 2.8956761382 -0.4836746799
N -2.2421396113 1.5227844750 -0.3342249631
C -1.3898142019 1.1807828424 0.6589775584
O -1.0201953231 1.9619335183 1.5298906310
C -0.8913290801 -0.2474644821 0.6363647762
N -1.4306389073 -1.0210751707 -0.2378083263
O -0.9319528271 -2.3058937957 -0.2169769426
C -1.5968638928 -3.0848792826 -1.2195327916
C 0.1500192986 -0.6327331961 1.6085685502
C -0.1154662566 -0.5245180093 2.9769458701
C 0.8165398319 -0.9296637519 3.9227478545
C 2.0463308828 -1.4335231735 3.5086478785
C 2.3470926434 -1.5124655551 2.1551668351
C 1.4080137649 -1.1084184512 1.2126283229
O 1.7671411978 -1.2456308017 -0.1111255501
C 1.5391326839 -0.2067699434 -0.9894701674
C 1.5506067117 1.1290099981 -0.5947813662
C 1.3273925351 2.1155114251 -1.5500895369
C 1.1104971660 1.7803542301 -2.8834938977
C 1.1245215136 0.4398479649 -3.2638058294
C 1.3359353501 -0.5584459790 -2.3207546608
H -3.4529686728 2.9370993434 -1.2629535199
H -3.1138304288 3.2598344193 0.4561345300
H -1.8599143136 3.5599341391 -0.7580451147
H -2.4203678963 0.8434075626 -1.0567019977
H -1.4359097112 -2.6522338522 -2.2127543455
H -2.6698434051 -3.1519500969 -1.0094591518
H -1.1406932045 -4.0747356826 -1.1616742992
H -1.0736515412 -0.1242362256 3.2875489857
H 0.5844691795 -0.8480200812 4.9789105597
H 2.7824065088 -1.7504287914 4.2402682722
H 3.3069361629 -1.8768498532 1.8061805328
H 1.7059256009 1.3925767469 0.4456098900
H 1.3275490477 3.1559241551 -1.2407618576
H 0.9397383593 2.5565133543 -3.6217363363
H 0.9640439282 0.1671797180 -4.3021966613
H 1.3404310130 -1.6084343527 -2.5925690568
