52
CONF204
C -3.7835206078 -0.9787221845 -3.5289304507
C -2.2726933523 -0.8432900701 -3.3587869695
C -1.7461867286 -1.6150865499 -2.1502412457
C -0.2445950738 -1.4317100864 -1.9449727793
C 0.2847911680 -2.0385093914 -0.6413001381
C 0.0931306106 -3.5621399481 -0.5315120752
C 0.7307810820 -4.3858221311 -1.6515022768
C 1.7485630729 -1.6781707356 -0.4256087903
O 1.9286740188 -0.2304515201 -0.3204012704
P 1.6617409668 0.4982676246 1.0679600677
O 1.3529365909 -0.3750532722 2.2199871088
O 2.9767384662 1.4164729834 1.1555799827
C 3.1042753543 2.3680547667 2.1771174163
C 3.1998655636 3.7001153527 1.8009393268
C 3.3872293330 4.6634073375 2.7864566541
C 3.4708432445 4.2917032380 4.1256277606
C 3.3698017287 2.9494113042 4.4796055461
C 3.1888867383 1.9719126056 3.5053810154
O 0.5714755824 1.6504903423 0.7338848498
C -0.7873119040 1.3741021750 0.5797541365
C -1.3979760339 1.8696837449 -0.5662035249
C -2.7644109608 1.6798594875 -0.7415666701
C -3.5064746697 0.9919095159 0.2146248404
C -2.8761524008 0.5008696351 1.3543444527
C -1.5112732877 0.6924293963 1.5522989819
H -4.0715708934 -2.0267459780 -3.6656815475
H -4.3074388439 -0.6057557289 -2.6415474579
H -4.1452480807 -0.4165528372 -4.3954797805
H -2.0074727592 0.2160631141 -3.2451423764
H -1.7622515834 -1.1931828613 -4.2660502151
H -1.9892996389 -2.6792527414 -2.2725696379
H -2.2761061747 -1.2748967088 -1.2490773728
H 0.3048136218 -1.8499137921 -2.8001375197
H -0.0217082729 -0.3578831741 -1.9370219515
H -0.2747301102 -1.5908144750 0.1942846605
H -0.9813134912 -3.7734270575 -0.4971206047
H 0.4929072115 -3.8897205636 0.4366847177
H 0.3042884161 -4.1384672529 -2.6284981615
H 1.8129942175 -4.2316906862 -1.7113233749
H 0.5635037206 -5.4536116271 -1.4821438604
H 2.3680200361 -1.9571503356 -1.2824794522
H 2.1405642883 -2.1529752390 0.4799359043
H 3.1262894472 3.9632120863 0.7518185335
H 3.4649593109 5.7083794223 2.5045334303
H 3.6154253799 5.0464781535 4.8912227271
H 3.4358529714 2.6546430818 5.5218429028
H 3.1047877798 0.9219995555 3.7606491391
H -0.7984889573 2.4005251807 -1.2975761709
H -3.2484793582 2.0681050257 -1.6320172410
H -4.5718959523 0.8435183030 0.0742504697
H -3.4496678508 -0.0314839443 2.1062854191
H -1.0078719724 0.3208672586 2.4367193911
