51
CONF43
C -1.0426774193 0.3117410336 1.7737074447
C -0.3676481631 -1.0470638734 1.9167509996
N 0.1223336044 -1.5283931654 0.6182837113
C -0.9969605927 -1.6806223393 -0.3183993063
C -1.7055268030 -0.3503322037 -0.5456772291
C -2.2119291476 0.2209296561 0.7962811993
C -2.8814987408 1.5582339999 0.5559318864
O -2.3064289959 2.6084653012 0.8237064827
C -4.2387316393 1.5880669303 -0.0655022945
C -5.0218334488 0.4383477530 -0.2409069901
C -6.2842090663 0.5172762887 -0.8159931074
C -6.7449904289 1.7614028246 -1.2140353424
C -6.0043606304 2.9248634339 -1.0626544811
C -4.7492385727 2.8261936837 -0.4835271303
F -7.9723446236 1.8474898243 -1.7751768326
C 0.8595659854 -2.7838860397 0.7560004087
C 2.2754447514 -2.5882408441 1.2985183788
N 3.0764351236 -1.7213887364 0.4183645878
C 3.2247978451 -0.3705300294 0.7592107014
O 2.7855647117 0.0698481833 1.8175706349
C 3.9405817841 0.4541772436 -0.2161824829
C 4.1215534818 1.8245107171 0.0082120061
C 4.7994005812 2.6004941261 -0.9153609865
C 5.3079202797 2.0080801240 -2.0788271780
C 5.1407708793 0.6549622591 -2.3206191026
C 4.4521669661 -0.1259847918 -1.3848392223
N 4.2654335705 -1.4772674813 -1.5884468041
C 3.5874870193 -2.3130305490 -0.7394539253
O 3.4437708548 -3.5070247799 -0.9835332032
H -1.3931926256 0.6521426684 2.7543551998
H -0.3140993549 1.0454406214 1.4117164366
H -1.0814904327 -1.7739291426 2.3566775729
H 0.4803704040 -0.9589732178 2.6020313978
H -1.7331621644 -2.4249332061 0.0498209766
H -0.6038360742 -2.0518401124 -1.2720576929
H -2.5330601184 -0.4965850628 -1.2475129187
H -4.6623465952 -0.5340553152 0.0742543754
H -6.9024067669 -0.3629128131 -0.9530344402
H -6.4091367831 3.8750760883 -1.3934765742
H -4.1428099758 3.7150877046 -0.3500092442
H 0.3401970855 -3.5016912686 1.4201480955
H 0.9298658794 -3.2517996832 -0.2316294683
H 2.7707237240 -3.5588889368 1.3685645275
H 2.2711880352 -2.1238285318 2.2843319302
H 3.7189514525 2.2576960484 0.9171063543
H 4.9377942968 3.6617571695 -0.7407760653
H 5.8413357832 2.6138022836 -2.8044922880
H 5.5345476419 0.1936532228 -3.2208839693
H -1.0070496601 0.3665665972 -0.9962294282
H -2.9519082631 -0.4819276212 1.2015936889
H 4.6329732929 -1.9122923603 -2.4240243927
