55
CONF70
C -8.6427052398 -0.8660517580 0.1823734358
C -8.1155986485 0.4215255394 -0.4137525009
O -6.7224255413 0.2794688104 -0.8189675313
C -5.7995722058 0.4381269280 0.1606670888
O -6.0532594363 0.7442337439 1.3136208029
N -4.5555086119 0.2080849822 -0.3630239123
C -3.3158990236 0.2856856498 0.2840559924
C -2.1813273065 0.0735822893 -0.5085440878
C -0.9183194970 0.1054049422 0.0617007092
C -0.7597091008 0.4026307686 1.4169712883
C -1.8882536380 0.6323643165 2.2001213807
C -3.1620837203 0.5583883851 1.6506391013
S 0.8784239354 0.4875800300 2.1093182972
C 1.7082659809 1.1873753542 0.6987313904
C 2.7586082254 2.0896466172 0.8669268711
C 3.3745224319 2.6442697621 -0.2498596651
C 2.9101879902 2.3442948335 -1.5299939421
C 1.8511508731 1.4586709240 -1.6982131145
C 1.2865223294 0.8332195803 -0.5880494186
N 0.2505269614 -0.1408520293 -0.7245024933
C 0.4214686778 -1.3956278832 -1.2974355109
O -0.4714794235 -2.2354954266 -1.2378831185
C 1.7299824905 -1.7199264832 -1.9868825157
C 2.4375544445 -2.8644567863 -1.2560546186
N 2.8746782245 -2.4787491066 0.0900913098
C 3.2359618494 -3.6762786428 0.8628885004
C 3.6985781391 -3.2844832516 2.2550568983
O 4.8340396432 -2.4129783270 2.1965813966
C 4.4964614690 -1.2382001234 1.4515162847
C 4.0410654279 -1.5838684628 0.0441027689
H -8.5394132291 -1.6917315024 -0.5274424640
H -9.7047408774 -0.7444488321 0.4177259115
H -8.1124151238 -1.1189524594 1.1043457118
H -8.1974772649 1.2587865232 0.2839956506
H -8.6326321821 0.6736719494 -1.3418585752
H 1.7405862211 -3.7041073046 -1.1594172903
H -1.7755145242 0.8725707448 3.2524913889
H -4.0273179209 0.7309443049 2.2733032900
H 3.0847435170 2.3569921057 1.8670605647
H 4.1987051829 3.3372605360 -0.1167947210
H 3.3652562412 2.8074733895 -2.3989241202
H 1.4746844378 1.2232924483 -2.6886338598
H 1.4730635302 -2.0614268309 -2.9954370573
H 2.3912327676 -0.8626136099 -2.0908665787
H 3.2878658708 -3.2086331075 -1.8742153114
H 2.3573639233 -4.3273324284 0.9454871430
H 4.0408094396 -4.2495818256 0.3615069562
H 2.8781455845 -2.7852015314 2.7966782792
H 4.0095522451 -4.1703042768 2.8161268864
H 3.7001400594 -0.6866182325 1.9770547387
H 5.3955862021 -0.6162919120 1.4157401104
H 4.8793592386 -2.0546153287 -0.5070376856
H 3.7812296112 -0.6516686882 -0.4704354179
H -2.2828677205 -0.1353529166 -1.5682670202
H -4.5331805433 -0.0258169810 -1.3458195967
