78
CONF287
C -0.7822069732 -0.6484855329 -0.4586705956
C 0.1512259891 -1.8032523409 -0.7891956754
O -0.6923270808 -2.9922395625 -0.5894923870
C -1.7207648034 -2.7061954714 0.2507344667
O -2.4967907175 -3.5620185093 0.6088381364
C -1.6405088526 -1.2511244096 0.6422896050
C -2.9217311497 -0.4454646463 0.8742348307
C -3.9589581575 -0.6152143930 -0.2299893954
C -3.9595757999 0.2140930697 -1.3536610139
C -4.8953774594 0.0249911201 -2.3724247313
O -4.9732366143 0.7797873557 -3.5070071382
C -3.9983760701 1.8183090549 -3.6667526988
C -5.8475081385 -0.9941421129 -2.2642363641
O -6.7632414992 -1.1620591492 -3.2651039915
C -5.8515740329 -1.8103263515 -1.1268605375
O -6.8383461009 -2.7578142656 -1.1326979927
C -6.9068376166 -3.6481944930 -0.0104582253
C -4.9156742612 -1.6252145849 -0.1117606864
C -2.5251594145 1.0149205716 1.0542483323
C -3.4836414910 1.8602346381 1.6526588464
C -3.1794236797 3.1923576804 1.7767293527
C -1.9706548962 3.7131596446 1.3246396063
O -1.9253425335 5.0625231687 1.5551126931
C -3.1640359661 5.3998855367 2.2180756364
O -3.9482577839 4.1887235713 2.3127274918
C -1.0228127948 2.9179972088 0.7339286519
C -1.3076996901 1.5398735448 0.5990069017
C -0.2111249192 0.6767995284 0.0028236630
O 0.7913982738 0.4446294384 1.0365266146
C 2.0608471201 0.9230308334 0.7450809527
O 2.6559402520 0.0498113251 -0.2300299429
C 3.9688286783 0.4871226746 -0.5730371304
C 4.5348558844 -0.4070440179 -1.6609234020
O 5.8984208503 -0.0068767555 -1.9058926644
C 6.7227577015 -0.0195857362 -0.7539458765
O 6.1958315596 0.7788008446 0.3043748290
C 4.8635798164 0.3734687410 0.6555855092
C 4.3370716569 1.2746613876 1.7522154442
O 5.0405227535 1.1165764704 2.9858128005
C 2.8788549553 0.9117960242 2.0362109079
O 2.2874389155 1.8510275622 2.9276704938
C 7.0295322640 -1.4244287987 -0.2982505523
C 7.0217338215 -2.5796188275 -1.0330712103
C 7.4742990102 -3.7111942149 -0.3002241242
C 7.8340826062 -3.4049190429 0.9831330319
S 7.6187693027 -1.7171615566 1.3151888354
H -1.4183091493 -0.4523896045 -1.3312835349
H 0.9947039673 -1.8716372612 -0.0983429726
H 0.5009218003 -1.8265225403 -1.8218155321
H -1.0595307404 -1.2438062978 1.5796278293
H -3.3811236299 -0.7911075569 1.8073076257
H -3.2443480093 1.0242713311 -1.4193006427
H -2.9824251380 1.4057940637 -3.6758973736
H -4.0851718902 2.5670110389 -2.8703769563
H -4.2162817469 2.2808113310 -4.6298156610
H -7.3383206131 -1.9007736487 -3.0143614165
H -7.7410282281 -4.3190592215 -0.2160784092
H -5.9800888911 -4.2254216989 0.0849025996
H -7.0961008680 -3.0934168502 0.9154284689
H -4.9162427445 -2.2614415982 0.7639307256
H -4.4340827183 1.4624295099 1.9937923719
H -3.7079676931 6.1351218171 1.6166130092
H -2.9464340595 5.7688905291 3.2262627373
H -0.0844455817 3.3298639172 0.3771603701
H 0.2647481892 1.2056635207 -0.8314180010
H 2.0255540129 1.9468961786 0.3292867659
H 3.9507899841 1.5329602586 -0.9214608762
H 4.0078780446 -0.2813175480 -2.6093070908
H 4.4787424736 -1.4581271534 -1.3464810165
H 7.6413341783 0.4938807448 -1.0578204684
H 4.8622015112 -0.6714030578 1.0044546616
H 4.3851038608 2.3219776792 1.4140513984
H 5.9021297604 1.5430389694 2.8952089411
H 2.8405837872 -0.1072081416 2.4546060497
H 2.8833419718 1.9325491121 3.6851624468
H 6.6989605906 -2.6130568816 -2.0669720566
H 7.5275282901 -4.7137805157 -0.7083767326
H 8.2025765546 -4.0652246486 1.7571513630
