42
CONF19
C -2.9493733185 -1.3658605871 1.9344330487
C -2.4110344947 -0.4177006015 0.9187153793
C -3.1141122206 0.3510078548 0.0430406738
C -2.1784430198 1.1100300943 -0.7822434640
C -0.8581349261 0.7710336112 -0.4024775532
C -0.9691446094 -0.2363923038 0.6691688367
C -0.0211827302 -0.9126859639 1.3615138882
C 1.4149430827 -0.9907537060 1.1194608200
C 1.9395967151 -1.1176465565 -0.1775614132
C 3.3051077402 -1.2491950674 -0.3798184008
C 4.1607911993 -1.2385081780 0.7186285061
C 3.6701762749 -1.1565034162 2.0143191063
C 2.2998652005 -1.0441619378 2.2080490722
S 5.9602920867 -1.4519717297 0.4935515253
O 6.5595908506 -1.6227232667 1.8746336776
C 6.2852770732 0.3032543699 0.0098046121
C 0.2123431366 1.4609453787 -0.9550079370
C -0.0219770352 2.4363615156 -1.9274872252
C -1.3261702777 2.7035652625 -2.3112354878
C -2.4289459942 2.0693901935 -1.7532097218
F -1.5389742793 3.6409023200 -3.2632351433
C -4.5885129168 0.4609760743 -0.1181324301
C -5.0968848962 -0.2223038243 -1.3741751918
O -4.4841700385 -0.9991240689 -2.0605462415
O -6.3826970544 0.1439354360 -1.6288350154
H -2.5784801005 -1.1296235187 2.9387364871
H -4.0401039558 -1.3425190597 1.9705396048
H -2.6492357689 -2.3958218498 1.7096567640
H -0.3656393618 -1.4957767652 2.2144926589
H 1.2599218087 -1.1479919682 -1.0224677592
H 3.6964849049 -1.3777971214 -1.3856856380
H 4.3666075874 -1.1969659009 2.8466310131
H 1.9023446461 -0.9847478265 3.2171751663
H 5.7448112205 0.5379748930 -0.9112451066
H 5.9591602244 0.9437493054 0.8329687155
H 7.3631505361 0.3907694443 -0.1454291110
H 1.2306321624 1.2627398645 -0.6429470517
H 0.7917242425 2.9876177714 -2.3838751943
H -3.4291554848 2.3404138546 -2.0739147774
H -4.9060849923 1.5109075014 -0.1523103449
H -5.1273466601 0.0156977737 0.7254392648
H -6.6570168693 -0.3444967827 -2.4210669255
