55
CONF296
C 5.9297993770 -2.5064644874 -2.3758891362
O 4.8123123326 -1.6552624780 -2.6629438837
C 3.7507520700 -1.7016621280 -1.8121130511
C 3.6693177509 -2.5314507870 -0.6916882382
C 2.5260906503 -2.4884366929 0.1042437408
C 1.4637830200 -1.6326714977 -0.1846640654
C 1.5602490457 -0.8138595663 -1.3176659934
C 2.6854316696 -0.8464114914 -2.1226968968
C 0.2881866384 -1.5927928295 0.7528560655
S -1.2846045707 -1.7288598773 -0.2328992721
C -2.4964098372 -1.1232457127 0.9273642422
C -3.4901851433 -1.9890593983 1.3924775890
C -4.5023394861 -1.5225232691 2.2229638824
C -4.5124967084 -0.1872555583 2.6194130299
C -3.5194829659 0.6786136217 2.1788958955
C -2.5127472437 0.2265472710 1.3230959576
N -1.5389435654 1.1527829300 0.8547609865
C -2.0077000503 2.3275841457 0.1004382656
C -2.1864271965 1.9669199290 -1.3760786638
N -2.6841406709 3.0990198768 -2.1589268794
C -1.6353636625 4.1028568429 -2.3651623042
C -3.1726394776 2.6296282331 -3.4584390926
C -0.1911869464 0.9271810559 0.9132556996
O 0.6307059931 1.6995815468 0.4295987607
C 0.2342187458 -0.3378969703 1.6587669645
O 1.5465100641 -0.0719560905 2.1860149630
C 1.9427559508 -0.8261203971 3.2436578576
C 3.3373480234 -0.4642578599 3.6489967401
O 1.2444691956 -1.6709585846 3.7622560625
H 6.3623152198 -2.2686684677 -1.3970367869
H 6.6615216675 -2.3066923885 -3.1589924675
H 5.6371630854 -3.5625352672 -2.4053939164
H 4.4722895155 -3.2094978356 -0.4305977811
H 2.4683558645 -3.1367064007 0.9749849032
H 0.7464885761 -0.1440668781 -1.5745741874
H 2.7599571465 -0.2131946636 -3.0009612299
H 0.3394973483 -2.4584809243 1.4188555278
H -3.4646630291 -3.0303292532 1.0891919417
H -5.2726130299 -2.2036389849 2.5691074582
H -5.2871009274 0.1803948139 3.2842430195
H -3.5149540893 1.7141839941 2.5028899447
H -1.2736165605 3.1227016658 0.2378140453
H -2.9620707512 2.6550493605 0.5190634739
H -1.2280408478 1.5776667543 -1.7739603432
H -2.9188762391 1.1527368693 -1.4409629806
H -2.0380928331 4.9334988638 -2.9533408945
H -0.7614918352 3.6878981337 -2.9034194744
H -1.2898461458 4.5064238936 -1.4097519050
H -2.3782168312 2.1451786622 -4.0580213000
H -3.9831350784 1.9080703490 -3.3135045713
H -3.5622794584 3.4771538341 -4.0317286279
H -0.4465396306 -0.5362954898 2.4913411381
H 3.6250871800 -1.0363538179 4.5297935600
H 4.0200809999 -0.6820495784 2.8215746648
H 3.4015158656 0.6079842490 3.8534971610
