38
CONF42
O -0.5232473308 0.0375713913 3.1235844979
P 0.3136109556 0.2128629604 1.9212533421
O 0.9594846276 -1.1299017243 1.3058874906
C 0.2150365570 -1.9700632290 0.4614933204
C -0.9507671742 -2.5744503404 0.9131318635
C -1.6517571989 -3.4000005092 0.0372455803
C -1.1789359911 -3.6221457019 -1.2543530964
C 0.0051413744 -3.0197774005 -1.6752095911
C 0.7120142676 -2.1833455306 -0.8158185464
O 1.6088473193 1.0985048402 2.2032513815
C 2.5772232024 1.3595865432 1.2109726700
C 3.6712155951 0.5132526452 1.1093118525
C 4.6531557448 0.8080023733 0.1667043205
C 4.5315095434 1.9310357227 -0.6491272014
C 3.4253989086 2.7684848357 -0.5211364429
C 2.4344905550 2.4876696918 0.4167330870
O -0.3594481318 0.9699777168 0.6700476807
C -1.6591875115 0.7074233198 0.2001659931
C -2.7620000488 0.8494852471 1.0314284844
C -4.0272428677 0.6070783808 0.5000661007
C -4.1778273060 0.2454515697 -0.8364798721
C -3.0550182715 0.1324576018 -1.6545905238
C -1.7837055143 0.3648273982 -1.1390684953
H -1.3038793593 -2.3948961149 1.9230968784
H -2.5693824640 -3.8730743808 0.3717863156
H -1.7302427715 -4.2670872329 -1.9305943856
H 0.3792383238 -3.1929363932 -2.6791575825
H 1.6272351472 -1.6891927871 -1.1247879001
H 3.7475309766 -0.3538812766 1.7557862825
H 5.5159138559 0.1563095421 0.0737984687
H 5.3001331791 2.1558880623 -1.3812077906
H 3.3296769121 3.6475620797 -1.1502175104
H 1.5681608188 3.1286674011 0.5359492462
H -2.6317158216 1.1347060523 2.0683643645
H -4.8983712967 0.7081977593 1.1394637559
H -5.1669309440 0.0583692968 -1.2412303958
H -3.1642896721 -0.1422933713 -2.6988726376
H -0.8956807508 0.2696260564 -1.7540542403
