33
CONF23
O -3.4056977358 -1.4180114961 3.9863550004
C -3.1367749304 -1.0846199590 2.7026645704
C -4.1292298229 -1.1024671908 1.7189599876
C -3.7874351962 -0.7490980452 0.4217613981
O -4.7406482195 -0.7371113051 -0.5233116582
C -2.4522932622 -0.3815130665 0.0883020557
C -2.1239606091 0.1062229760 -1.2213801695
O -2.9591502729 0.1698290348 -2.1480900816
C -0.7121567469 0.5931150375 -1.4131204990
C 0.2490219301 -0.1664235585 -0.5088210251
O -0.1890828333 -0.0564549147 0.8829260903
C -1.4795886377 -0.3951075292 1.1210437386
C -1.8114133811 -0.7367752467 2.4196801931
C 1.6601121651 0.3386604391 -0.5770699764
C 1.9837331671 1.6192317755 -0.1266667016
C 3.2910839428 2.0864676231 -0.2179726360
C 4.2842328310 1.2856438075 -0.7708861681
O 5.5593378198 1.7634967569 -0.8562610947
C 3.9616807089 -0.0001997114 -1.2296161692
O 4.9990168285 -0.7209368848 -1.7561667880
C 2.6586468676 -0.4705104876 -1.1237825176
H -4.3378281010 -1.6627597991 4.0769571950
H -5.1520915426 -1.3762936688 1.9570149841
H -4.2951800583 -0.4128349332 -1.3569969541
H -0.4189206992 0.4737975615 -2.4597938833
H -0.6849366825 1.6659306065 -1.1759900035
H 0.2217011379 -1.2338405982 -0.7676500844
H -1.0581375206 -0.7544347046 3.1981050171
H 1.2179467492 2.2551491993 0.3055550702
H 3.5562670215 3.0779140437 0.1355340405
H 6.1207026982 1.0845530085 -1.2586639626
H 4.6863120949 -1.5869520909 -2.0498147201
H 2.4247311785 -1.4736673677 -1.4728044597
