34
CONF5
C 0.0356563487 1.4309823094 -2.3789443359
C -0.7201878957 0.8872678861 -1.2004783236
C -0.1898963431 0.0832992012 -0.2403098673
C -1.0506589440 -0.5948342986 0.8434230058
C -2.5505654345 -0.3938922228 0.5665329446
C -2.8756953429 1.0221144011 0.1177999517
C -2.1702718639 1.2858252341 -1.2028934155
C -0.6812649392 -0.0081588641 2.2186687282
C -0.7938089110 -2.1149539921 0.8785979725
C 1.2319454903 -0.2158813610 -0.1585959828
C 2.2641315434 0.6175875924 -0.4216949998
C 3.6702692760 0.2441233729 -0.2841274624
O 4.5506753931 1.0785747276 -0.5216289160
C 4.0406268346 -1.1553356449 0.1502582583
H 0.9460687371 0.8726033444 -2.6023263316
H 0.3132031735 2.4802910254 -2.2151070071
H -0.6175435505 1.4167906569 -3.2592309860
H -3.1094096859 -0.6658808235 1.4699614616
H -2.8607621865 -1.0902529043 -0.2253349916
H -3.9568376043 1.1546325453 0.0035898185
H -2.5408809389 1.7471573503 0.8698037989
H -2.2270273682 2.3481376148 -1.4780441076
H -2.6780824927 0.7478650555 -2.0190489979
H -1.2430395806 -0.5188644354 3.0090820601
H 0.3874968172 -0.1391867353 2.4210574610
H -0.9029630396 1.0624951463 2.2711657843
H 0.1875563181 -2.3678324089 1.2898528401
H -1.5448207616 -2.5853488927 1.5228067462
H -0.8797453109 -2.5531505140 -0.1216368619
H 1.4834588607 -1.2037191115 0.2198749891
H 2.0954298003 1.6471473159 -0.7238607340
H 3.6612410729 -1.8955179649 -0.5617312575
H 5.1261559969 -1.2369330087 0.2147153508
H 3.5995462083 -1.3871511738 1.1254771787
