39
CONF258
C 5.1278719297 2.7913426228 0.8086717242
C 6.2520145993 1.7541049669 0.8277505308
C 5.8759699283 0.4203274404 0.1701288676
C 4.7965446210 -0.3399301695 0.9422328839
C 4.2789387528 -1.6283899388 0.2818235453
C 5.3852896033 -2.6365762712 -0.0655188334
C 6.2216157644 -3.0656199138 1.1379831010
C 3.4691422715 -1.3509334622 -0.9815110559
O 2.3167505746 -0.5177419578 -0.6678561260
C 2.3436814635 0.7609048584 -1.0946058638
O 3.1922740100 1.2474464550 -1.8021309610
C 1.1942793343 1.5239667665 -0.5102296591
C 0.9039604945 1.3081514942 0.8338370736
C -0.0527965621 2.0672983845 1.4865858702
C -0.7657318079 3.0517882669 0.7965702715
C -0.5054777923 3.2522951384 -0.5713270061
C 0.4776769945 2.4933044464 -1.2222407503
Br 0.7800682073 2.7144459678 -3.0790754245
Br -1.4933742821 4.5500513287 -1.5310712257
Br -2.0628311587 4.0867885493 1.6983817321
Br -0.3423057059 1.7102935103 3.3288625705
H 5.4751200838 3.7512569978 1.2027395045
H 4.7646519762 2.9522184530 -0.2118106968
H 4.2737383336 2.4821104920 1.4201146192
H 7.1230203370 2.1659541734 0.3040982280
H 6.5730199177 1.5721429293 1.8625831984
H 5.5378867133 0.6197221260 -0.8543052320
H 6.7763793795 -0.2017723659 0.0926355777
H 3.9386295658 0.3194251965 1.1180056216
H 5.1800578717 -0.5879569403 1.9401884727
H 3.6000576448 -2.1133217002 0.9993953547
H 6.0393314443 -2.2132562380 -0.8385954969
H 4.9197186491 -3.5243824792 -0.5130239787
H 5.5859697316 -3.4634614548 1.9366066243
H 6.9339783224 -3.8466117628 0.8568532145
H 6.7946507648 -2.2308123234 1.5521141612
H 3.0504010656 -2.2786242403 -1.3821014528
H 4.0647684988 -0.8584705175 -1.7542818261
H 1.4457065918 0.5443151962 1.3760418217
