38
CONF16
C -5.8994453797 -2.6930047767 -0.0199347345
C -4.8630464181 -1.6326914288 0.3248786757
C -5.5783612288 -0.3215196446 0.6573958657
O -5.8891039353 0.5232867279 -0.1416154527
O -5.8600311974 -0.2741772272 1.9791384740
C -6.6172734323 0.8870210897 2.3927587376
O -4.0381473016 -1.4768804289 -0.8196208942
C -2.9364242184 -0.6718790107 -0.7158486424
C -2.1883386034 -0.5340183570 -1.8883776840
C -1.0439158327 0.2448760560 -1.8955361656
C -0.6521589537 0.8832680217 -0.7272172178
C -1.3833940923 0.7641388280 0.4379782502
C -2.5363706499 -0.0187041426 0.4506217974
O 0.4600181351 1.7413743745 -0.7480551383
C 1.6805374659 1.1996245817 -0.5593956012
C 2.7863903765 2.0754671997 -0.5954310723
C 4.0462508938 1.5538470401 -0.4031773341
C 4.1776575004 0.1792801954 -0.1818951745
C 3.0342025365 -0.6036101623 -0.1632966727
N 1.8113816542 -0.0971870842 -0.3492182392
C 5.5417930735 -0.3950023160 0.0373979031
F 5.5164347608 -1.7379531277 0.1670466791
F 6.1209647648 0.1083793436 1.1576696178
F 6.3779000991 -0.1014235622 -0.9904232759
Cl 2.5599087626 3.7762568590 -0.8764266433
H -6.4923640515 -2.3663719578 -0.8780862063
H -6.5610240049 -2.8621540382 0.8332679387
H -5.3949494701 -3.6290140358 -0.2706037443
H -4.2682109419 -1.9527235799 1.1915068381
H -7.5784063726 0.9154083491 1.8733735606
H -6.7598615353 0.7743189291 3.4669141556
H -6.0595274550 1.7991472146 2.1668076986
H -2.5252432434 -1.0430638365 -2.7842448733
H -1.0570612165 1.2815045502 1.3333041725
H -3.1018761845 -0.0990627602 1.3711536125
H 4.9147261204 2.2029251614 -0.4259165329
H 3.0934790328 -1.6749817811 0.0051123349
H -0.4545551999 0.3620911287 -2.7981507907
