65
CONF44
C 4.9884834240 3.2617416873 5.8969043984
O 5.0401616043 1.8317217835 5.8195902277
C 4.5745990867 1.2473356384 4.6756992725
C 4.6404966590 -0.1505213346 4.6358765133
C 4.1934330209 -0.8344621952 3.5150135955
C 3.6754556380 -0.1549290369 2.4049779249
C 3.6183782561 1.2367781238 2.4639554880
C 4.0596298114 1.9464826692 3.5819151497
C 3.1393609335 -0.9063571354 1.2149431109
C 1.6707404293 -1.2931448661 1.4379772101
N 1.1004353906 -2.0858908624 0.3437317661
C 0.8699508527 -1.2562382030 -0.8488578639
C 0.3330819923 -2.0923146057 -2.0050288633
C -0.9716091615 -2.8071939816 -1.6286641170
C -0.7645391210 -3.5707262038 -0.3195328354
C -0.1680717694 -2.6889068812 0.7758841870
N -2.0992126475 -1.8733571811 -1.4692791656
C -2.6002334670 -1.2105887425 -2.5463833527
N -2.4243462672 -1.5468643966 -3.8168780917
C -3.1673603877 -0.6183354279 -4.5307037357
C -3.3432531077 -0.4838650017 -5.9068052502
C -4.1419697964 0.5626838776 -6.3700226944
C -4.7544895508 1.4596491334 -5.4854422690
C -4.5920811770 1.3404992704 -4.1024633289
C -3.7993303714 0.2948421293 -3.6518311089
N -3.4275612811 -0.1133165934 -2.3784982330
C -3.7619151008 0.5151279125 -1.1092771155
C -2.5623166566 1.1549819371 -0.4410708481
C -1.6462025056 1.9014167247 -1.1865475143
C -0.5507528463 2.5006576596 -0.5741665906
C -0.3934794330 2.3356399642 0.7924741179
C -1.2736929897 1.6002059390 1.5651491338
C -2.3636376707 1.0067761312 0.9319925010
F 0.6781713124 2.9116959428 1.3971580550
H 5.5975364243 3.7213848339 5.1094234999
H 5.3974746633 3.5205323215 6.8740287217
H 3.9559417292 3.6230704312 5.8222478471
H 5.0480022335 -0.6828798127 5.4898533660
H 4.2515245105 -1.9201045180 3.4981309407
H 3.2218500362 1.7898978813 1.6163865165
H 4.0004330025 3.0281864899 3.5818484272
H 3.2386611064 -0.2820077512 0.3215050081
H 3.7208084446 -1.8205605764 1.0485804366
H 1.0768433427 -0.3733339255 1.6187853108
H 1.6122207480 -1.8938793172 2.3546248415
H 1.8126665724 -0.7915231233 -1.1522889087
H 0.1643609356 -0.4301625145 -0.6184476987
H 0.1723752130 -1.4539419012 -2.8798441983
H 1.0756345429 -2.8516681855 -2.2789190058
H -1.2494963116 -3.5074961653 -2.4224705149
H -1.7118532115 -3.9998468587 0.0244516108
H -0.0748855391 -4.3986029266 -0.5181991710
H -0.8918851790 -1.9034465549 1.0829749693
H 0.0213226052 -3.2986922309 1.6665910689
H -2.1015106144 -1.3491968812 -0.6048658711
H -2.8674581983 -1.1757109332 -6.5953626920
H -4.2909223356 0.6859398301 -7.4383580505
H -5.3669697698 2.2650630858 -5.8780335345
H -5.0669650998 2.0408528352 -3.4227231848
H -4.5302163971 1.2679174122 -1.3119406272
H -4.2130137937 -0.2266695934 -0.4394620051
H -1.7832801753 2.0133467705 -2.2583093433
H 0.1701687974 3.0804889881 -1.1402516225
H -1.1035709108 1.4862374128 2.6301311655
H -3.0621208772 0.4155828036 1.5176659407
