47
CONF98
C 5.0719792244 -1.7320717744 -0.2803901234
C 3.7890836448 -0.9663342366 -0.1527462550
C 2.5517603805 -1.6535492371 0.0210399065
C 2.5279489689 -3.1496151595 0.0649957662
C 1.3625638158 -0.9488984499 0.1417035458
C 1.3514704900 0.4501868800 0.0925873157
N 0.1934295578 1.1946447161 0.2127994332
C -1.0936388382 0.5266704235 0.4841743722
C -1.7819169903 0.0663848019 -0.8005367680
O -2.0102590427 1.1578399689 -1.6970765509
C -3.1265373113 -0.6174055422 -0.5013808470
O -4.0497677396 0.3034631444 0.0805353928
C -3.0204401012 -1.7881576278 0.4715683809
O -1.8816355093 -2.5699317635 0.0932987896
C -4.2771310051 -2.6476314683 0.4532150583
O -4.1209282137 -3.7849996400 1.3143302289
C 0.2154809166 2.5589493010 0.0699090506
N -0.9304143112 3.2170617718 0.0811399539
C -0.9164498016 4.5800051192 -0.0263950985
O -1.9407421495 5.2576740767 -0.0347656526
N 0.3261986459 5.2344447697 -0.1344193547
C 1.5671178625 4.6465119783 -0.1850245211
O 2.5998464086 5.2910036004 -0.3005911286
C 1.5137167326 3.1649409989 -0.0875957344
N 2.6337007888 2.4972730531 -0.1625344222
C 2.5798815212 1.1447771106 -0.0925353557
C 3.7771703282 0.4092295121 -0.2062154305
H 5.2566822863 -2.3417297563 0.6110637700
H 5.9162301664 -1.0539576353 -0.4168038522
H 5.0367509349 -2.4190444023 -1.1331391660
H 2.9259335472 -3.5715715674 -0.8650862079
H 1.5138836236 -3.5250377737 0.2123826844
H 3.1628096308 -3.5249410114 0.8756262872
H 0.4424889922 -1.5103256498 0.2527672406
H -0.8965068627 -0.3222706116 1.1390741784
H -1.7279107658 1.2350654772 1.0190652747
H -1.1425864284 -0.6485685366 -1.3295459109
H -2.0587308203 1.9756288504 -1.1721007148
H -3.5097568641 -0.9837675865 -1.4676061620
H -4.2192591125 0.9901048348 -0.5784550282
H -2.8843069092 -1.3863474228 1.4909587195
H -1.9541369992 -3.4027276242 0.5820472188
H -4.4279634280 -3.0476465087 -0.5555044322
H -5.1506252474 -2.0471319238 0.7345554015
H -4.1819248357 -3.4749108278 2.2271702128
H 0.2917200050 6.2452238165 -0.2030941755
H 4.6957213853 0.9714899392 -0.3424645970
