52
CONF426
C 2.6113647827 -1.0207707993 -2.2787351692
C 2.0413253258 0.3164424161 -1.8640658017
C 2.7985863288 1.5060542976 -2.4582473301
C 2.2817320070 2.8313913805 -1.8868841503
C 2.3115286039 2.7995985016 -0.3510534863
C 1.6852778746 1.5211622210 0.2011249296
O 2.1250938470 0.3560703090 -0.4084972406
O 0.2445719339 1.7382145890 0.0511147017
C -0.5831940942 0.6490720095 0.0056445208
C -0.6846094966 -0.2805866361 1.0060837797
O -1.4767169837 -1.3803271172 0.8579369159
C -2.2383552416 -1.5632907828 -0.2595720455
C -2.9987595595 -2.7179936051 -0.3111542594
C -3.7960082797 -2.9134888661 -1.4393478207
C -3.8349256482 -1.9879140563 -2.4904302427
C -3.0611519919 -0.8405145652 -2.4161004425
C -2.2423162992 -0.5993394314 -1.2795263767
C -1.3913631335 0.5522098337 -1.1862506633
O -1.3253528726 1.4227861861 -2.1009908250
O -3.0834884580 0.0435324684 -3.4271680858
O -4.5350414894 -4.0489229893 -1.4667286049
C -0.0075808766 -0.2657715936 2.2955078910
C 0.1883673974 0.9459514024 2.9790583149
C 0.8153623941 0.9515688989 4.2117765788
C 1.2640884495 -0.2534393589 4.7834859461
C 1.0608123483 -1.4533746111 4.1102537099
C 0.4234084682 -1.4646323841 2.8777453276
O 1.8906593089 -0.2635063668 5.9863092324
O 1.0409984413 2.0746246627 4.9555305012
O 3.6579591490 2.7887532447 0.1269140312
O 0.9974419117 3.1557955690 -2.4201441467
O 2.6874788814 1.5080138073 -3.8795474979
H 2.0379617307 -1.8341745451 -1.8250085631
H 2.5620725379 -1.1214005767 -3.3651289643
H 3.6564006730 -1.1028717459 -1.9628452005
H 0.9863266115 0.3782100278 -2.1652682279
H 3.8626109405 1.4027718674 -2.2146813328
H 2.9461223522 3.6372268289 -2.2244892950
H 1.7527741770 3.6593368240 0.0441582232
H 1.9282656206 1.4079617965 1.2628867175
H -2.9797043015 -3.4401140650 0.4955572930
H -4.4588114448 -2.1602958029 -3.3618076327
H -0.1658750211 1.8803352619 2.5541743292
H 1.4140624161 -2.3731663366 4.5645103436
H 0.2760011518 -2.4034154425 2.3571266838
H 1.9559218470 0.6451921129 6.3166864700
H 0.7228709864 2.8564819766 4.4846493487
H 4.0611640349 3.6356406894 -0.1016509717
H 0.3122434259 2.5589699754 -2.0590358838
H 1.8323382764 1.9208862900 -4.0783168869
H -5.0499767106 -4.0908857008 -2.2846446288
H -2.4434900900 0.7657344590 -3.1757046101
