58
CONF25
C 5.0876882697 1.9333571199 -0.7406168912
C 5.1731902798 1.3484069406 0.6714870488
C 4.0703254647 1.9261574832 1.5618284267
C 5.1707338647 -0.1903080167 0.6641349156
C 3.9275958436 -0.8498874653 0.0650892950
C 3.9662135407 -2.3741932317 0.2007599164
C 2.8386732712 -3.0972434915 -0.5415803481
C 1.4430167358 -2.6752995814 -0.0847894158
C 0.3283696882 -3.4549020938 -0.7781566034
C -1.0626456783 -3.0123858029 -0.3709432414
O -1.3405526496 -1.6628688587 -0.8667172975
P -1.2609059387 -0.3944776794 0.0868212778
O -1.1387410978 -0.6653125733 1.5346338444
O -2.5200804774 0.5054444341 -0.3741419152
C -3.8184168462 0.0968444554 -0.0445059494
C -4.6664656567 -0.2440095455 -1.0892916508
C -5.9792368293 -0.6013288344 -0.7996618920
C -6.4273574233 -0.6207260169 0.5184041805
C -5.5586881693 -0.2779231860 1.5508019560
C -4.2437808723 0.0872756742 1.2775694829
O -0.0786900998 0.4424232809 -0.6174197866
C 0.3480129391 1.7097095207 -0.2271766142
C 0.1100909625 2.2428188392 1.0352280037
C 0.5970354251 3.5156681415 1.3221130048
C 1.3165765499 4.2363320330 0.3751265017
C 1.5551627734 3.6770597379 -0.8769941865
C 1.0697864884 2.4121296302 -1.1855325675
H 4.1099431156 1.7307597803 -1.1905582326
H 5.2154580046 3.0208860420 -0.7183074116
H 5.8593391190 1.5134079130 -1.3953897207
H 6.1392874203 1.6532819468 1.0991664501
H 4.1703282703 3.0130409802 1.6491781054
H 4.1073195423 1.4997149889 2.5702245208
H 3.0763618081 1.7298587521 1.1470491767
H 6.0558929266 -0.5412834177 0.1149870919
H 5.2920436492 -0.5430279050 1.6981459093
H 3.8361568837 -0.5865366816 -0.9975355029
H 3.0305223158 -0.4595265398 0.5598738018
H 4.9310410147 -2.7417899069 -0.1737726837
H 3.9293180182 -2.6405330162 1.2663181572
H 2.9352204266 -2.9075037088 -1.6199584275
H 2.9548782404 -4.1812593598 -0.4070044953
H 1.3122909137 -1.6084523242 -0.2888381774
H 1.3539710941 -2.7971272294 1.0035738814
H 0.4255686409 -3.3684313288 -1.8679703926
H 0.4125505260 -4.5240904731 -0.5377850809
H -1.1864595729 -3.0216428065 0.7172751344
H -1.8340899613 -3.6375589304 -0.8283802073
H -4.2911282447 -0.2230490537 -2.1061937632
H -6.6521201525 -0.8666073663 -1.6086132789
H -7.4516407673 -0.9007178063 0.7402123165
H -5.9040421005 -0.2904454603 2.5794327672
H -3.5499038360 0.3501073646 2.0671345456
H -0.4290901026 1.6708342629 1.7813830545
H 0.4156956128 3.9381929134 2.3050600689
H 1.6955779325 5.2242290935 0.6133650999
H 2.1224670510 4.2256961288 -1.6218034237
H 1.2387027781 1.9592403351 -2.1560983502
