52
CONF39
C -0.9596040436 -2.5641984811 -0.5161824596
C -1.3369002542 -1.6641092494 0.6241250772
C -2.2371622486 -0.6677142539 0.5588329266
C -3.0275277707 -0.2926734999 -0.6237605010
C -2.9666925518 1.1594006441 -1.2076119294
C -4.2294835014 0.6068733620 -0.5691279431
C -4.7441929578 1.1451705517 0.7465147944
C -5.3383845423 0.2978018274 -1.5556758888
C -2.0554253559 2.1152902022 -0.5669801868
O -1.9578343666 2.3790720471 0.6162624538
O -1.2378300558 2.6735572300 -1.5092682385
C -0.1607720632 3.4838463167 -0.9869718503
C 0.8829286142 2.6558473958 -0.2803285037
C 1.1184912343 1.3362892442 -0.6602328101
C 2.0884261767 0.5906904199 0.0022599208
C 2.8424148995 1.1419322585 1.0363103559
C 2.6112022611 2.4668748081 1.3942812325
C 1.6366925501 3.2228358977 0.7484102601
O 2.1968769332 -0.7348106104 -0.3743715375
C 3.4195294935 -1.3770327480 -0.2640358711
C 4.5923999440 -0.8001524956 -0.7463144991
C 5.7775516852 -1.5261290364 -0.6790430876
C 5.7909591104 -2.8148833804 -0.1465037519
C 4.6068167779 -3.3797741712 0.3213375546
C 3.4145742751 -2.6616189885 0.2687960603
C -0.5984282731 -1.9429808038 1.9029046169
H -1.1827594912 -3.6092138942 -0.2657957162
H -1.4626122558 -2.3192828736 -1.4526760069
H 0.1227538828 -2.5080795776 -0.6857894245
H -2.3923463311 -0.0774414327 1.4571092034
H -3.0531501693 -1.0278906237 -1.4221411683
H -2.9553043411 1.2021416464 -2.2916137436
H -5.3977899945 0.3976248150 1.2099739389
H -5.3396221187 2.0471729953 0.5673927172
H -3.9495098211 1.4014694715 1.4443294510
H -5.9140097272 1.2026862246 -1.7800896303
H -4.9409065527 -0.1004380477 -2.4938219259
H -6.0223696850 -0.4444862888 -1.1293420583
H 0.2607966563 3.9695292395 -1.8720736994
H -0.5586473404 4.2505815103 -0.3159882530
H 0.5422981958 0.8685579147 -1.4520287465
H 3.5859599774 0.5468894452 1.5547048356
H 3.1857521586 2.9053470587 2.2043015777
H 1.4503595899 4.2480674966 1.0542724590
H 4.5736377310 0.1996583896 -1.1674306396
H 6.6944578815 -1.0827371204 -1.0547978656
H 6.7187905233 -3.3754103495 -0.1003168623
H 4.6072711990 -4.3831172660 0.7355650246
H 2.4831435523 -3.0839782213 0.6315966547
H -0.7500024764 -2.9820223127 2.2225377670
H -0.9169221860 -1.2786319596 2.7103856384
H 0.4821070669 -1.8163999219 1.7533747726
