47
CONF84
C -6.2467194600 -0.9166322029 2.2779265939
O -5.0201401590 -1.7016282253 2.1517712083
P -4.6768203544 -2.4520442161 0.7881147390
S -2.9899765753 -3.3991733278 0.8596175521
O -6.0176176374 -3.2752012231 0.5108736734
C -6.1117384466 -4.1288274443 -0.6642819687
O -4.8007184780 -1.3329262811 -0.3973162887
C -3.7206717949 -0.5318171884 -0.7643571295
C -3.2093717000 -0.6811120457 -2.0446855321
C -2.1522696550 0.1286502648 -2.4497955586
C -1.6310044640 1.0843329309 -1.5770850803
C -2.1716046569 1.2346029514 -0.2966870590
C -3.2139124488 0.4170248791 0.1185503668
S -0.3199909906 2.1579947973 -2.1485112206
C 0.9723126745 1.8800267614 -0.9426595667
C 1.1179047465 0.6703005431 -0.2588916586
C 2.1711931020 0.4977711621 0.6309955062
C 3.0811717501 1.5302515775 0.8143498168
C 2.9558189158 2.7361650544 0.1399954859
C 1.8907380878 2.9133400272 -0.7365062497
O 4.1083624621 1.3739336374 1.7616141542
P 5.5655910569 0.8132699764 1.3347201363
S 6.7594276970 0.7329657059 2.8594787015
O 6.0472397394 1.6963017695 0.0838141964
C 6.7631322074 2.9448272909 0.2916985047
O 5.1647692447 -0.5488678731 0.6020272074
C 6.2075499995 -1.4127467103 0.0693525577
H -6.3175814875 -0.1934370433 1.4613291001
H -6.1619450954 -0.3989871222 3.2326704618
H -7.1125144473 -1.5816660026 2.2791297241
H -7.1000395997 -4.5847150396 -0.6175159365
H -6.0143756699 -3.5281627038 -1.5725112518
H -5.3360339282 -4.8980251715 -0.6277087829
H -3.6235374671 -1.4344299451 -2.7059557191
H -1.7278230665 0.0075895904 -3.4406750799
H -1.7745569181 1.9861518751 0.3776064986
H -3.6386722928 0.5237551801 1.1111592117
H 0.4129301582 -0.1391129465 -0.4139123176
H 2.2922722908 -0.4332335292 1.1734852432
H 3.6680201371 3.5352816672 0.3135520852
H 1.7733073308 3.8606054246 -1.2531963874
H 6.9177541972 3.3613858541 -0.7034692617
H 6.1671278494 3.6317059898 0.8989426041
H 7.7213718153 2.7466078394 0.7775098734
H 6.8772323879 -1.7277681860 0.8740683946
H 5.6887509483 -2.2742054247 -0.3497745243
H 6.7656569207 -0.8901226911 -0.7118110164
