53
CONF74
C 2.8350737808 -2.0123276674 -0.5377630472
N 3.0708104490 -0.5785457671 -0.7241781212
C 3.4005256371 -0.3368638616 -2.1361432372
C 3.7448781937 1.1221137866 -2.3961136324
C 2.5758373208 2.0101871752 -1.9882228523
C 2.1852735345 1.7167728944 -0.5433652960
C 1.9012292394 0.2279182766 -0.3203445955
C 1.5399578176 -0.0525189552 1.1443841935
C 0.4034355036 0.8195050062 1.6904245391
N -0.7419192845 0.8932809863 0.7778473922
C -1.4478624782 2.1013716115 0.6419669956
C -1.4870302764 3.0583067461 1.6613360621
C -2.1584824337 4.2630520719 1.4738125207
C -2.8373218624 4.5165573781 0.2881440631
C -2.8427343849 3.5542517985 -0.7179685938
C -2.1374856693 2.3681611507 -0.5507861649
S -2.0265672943 1.2014275752 -1.8905887502
C -1.9845495132 -0.2946619891 -0.9411379718
C -1.3245902737 -0.2866822890 0.3018403563
C -1.2435928896 -1.4834612350 1.0171747360
C -1.7432293227 -2.6525042708 0.4564151475
C -2.3742308304 -2.6729097554 -0.7802478936
C -2.5189099945 -1.4694164130 -1.4628853485
S -1.5389363688 -4.1873388418 1.3744131519
O -1.5456524752 -5.3021204137 0.4118882639
O -0.4241609069 -3.9984924369 2.3214564440
C -3.0666969146 -4.2990749659 2.3478717651
H 1.8907644696 -2.3548147692 -1.0067432904
H 2.8099762706 -2.2820227017 0.5205707779
H 3.6586910455 -2.5700489941 -0.9932276264
H 4.2530279119 -0.9754313264 -2.3956983867
H 2.5575936244 -0.6357238701 -2.7969571405
H 3.9887757256 1.2547658834 -3.4565237678
H 4.6366509302 1.3885757099 -1.8147335152
H 2.8239958682 3.0706987505 -2.1092322794
H 1.7143032686 1.8047322760 -2.6390397521
H 1.2935146859 2.2976739762 -0.2848781392
H 2.9956601055 2.0232238382 0.1330654248
H 1.0295169376 -0.0504216914 -0.9526228352
H 2.4241183251 0.1295270635 1.7687798131
H 1.2830347078 -1.1058542104 1.2677924406
H 0.7624127965 1.8438654025 1.8124540940
H 0.1133288433 0.4652285791 2.6931083688
H -0.9966528981 2.8602911348 2.6073887079
H -2.1616275112 4.9978665327 2.2719501235
H -3.3686752415 5.4508344303 0.1452465692
H -3.3763755517 3.7295434804 -1.6466017324
H -0.7643076035 -1.5234903929 1.9873007797
H -2.7266787209 -3.6065046713 -1.2034497850
H -3.0176466292 -1.4441746736 -2.4263483137
H -3.1310633470 -3.4289661487 3.0042241535
H -3.9160931395 -4.3452403534 1.6634658103
H -2.9893130816 -5.2201210511 2.9314797128
