35
CONF169
C -4.6138050608 -1.1470198482 0.6221678425
C -3.7582067115 -1.7869046428 1.6907846638
O -2.4824313881 -1.0775331575 1.8719887996
P -1.3280091579 -1.1571956148 0.7754269217
S -0.9731188651 -2.8580560739 -0.0788112276
O -1.5693536647 0.0035323943 -0.2892868362
C -1.7639392378 1.3997433473 0.1481320383
C -2.1238907511 2.2009930271 -1.0765537876
O -0.1630299222 -0.5886237987 1.7970449775
C 1.1268559954 -0.4398868638 1.4091284186
N 2.1180718743 -0.5824603130 2.3161182764
C 3.1844269236 -0.3297482369 1.5658840296
N 2.8505691185 -0.0583435803 0.2917237143
N 1.4932808836 -0.1224046360 0.1783388354
C 3.6875567974 0.2557806867 -0.8811969142
C 3.3513970334 1.6508545244 -1.3965958423
C 3.5139882343 -0.8271714280 -1.9403300586
Cl 4.7970729965 -0.3460762924 2.1441263610
H -4.1626897108 -1.2491660508 -0.3692514791
H -4.7751793527 -0.0863546589 0.8346846184
H -5.5862847402 -1.6491466212 0.6065948029
H -3.5354513818 -2.8348376098 1.4672301814
H -4.2249723824 -1.7216169286 2.6750209316
H -2.5598475336 1.4198856218 0.8985924815
H -0.8271504151 1.7435836769 0.5981284993
H -3.0540462225 1.8362447136 -1.5206806658
H -1.3254184851 2.1504816657 -1.8217485881
H -2.2632577826 3.2468070686 -0.7868871328
H 4.7148654450 0.2410033609 -0.5062175899
H 3.4659733262 2.3983673018 -0.6069163510
H 4.0311629048 1.8991619868 -2.2158257921
H 2.3256564496 1.6843794609 -1.7744901230
H 4.1939608203 -0.6231090810 -2.7715833192
H 2.4893208947 -0.8304417852 -2.3225290912
H 3.7459222533 -1.8147219219 -1.5322116110
