31
CONF4
C -3.7054433768 -0.3177775346 0.8695074815
C -3.2612834086 -0.3224948342 -0.6005252505
C -3.4069571084 1.0586971703 -1.2393776300
O -4.0804546608 -1.2250666010 -1.3426919334
C -1.8144751144 -0.8556054861 -0.6810790791
O -1.5869618642 -1.9746528136 -1.1293285261
N -0.8507296363 -0.0152870074 -0.1926698789
C 0.5196510958 -0.2337019965 -0.0757408726
C 1.2859007553 0.8394939506 0.4098262191
C 2.6532259842 0.7273839452 0.5926975728
C 3.2690429237 -0.4898119912 0.2598379464
C 2.5252633875 -1.5422402031 -0.2586334132
C 1.1547035810 -1.4333821217 -0.4186119903
N 4.6924069551 -0.7428474994 0.4814543345
O 5.2188598354 -0.2411065378 1.4699675765
O 5.2695127710 -1.4768414428 -0.3161389467
C 3.4007769731 1.9595342387 1.0589111077
F 2.6627209580 3.0768907056 0.8584765565
F 4.5563823125 2.1418918649 0.3813236831
F 3.6902515566 1.9284402497 2.3785023334
H -3.5993846897 -1.3174537597 1.3014751823
H -3.1246423884 0.3908249230 1.4675292565
H -4.7585121636 -0.0249107002 0.9106781032
H -4.4721111933 1.3037076807 -1.2798944833
H -3.0063609280 1.0583767645 -2.2568363060
H -2.9103243257 1.8397865104 -0.6572628092
H -3.5621579094 -2.0413588058 -1.4448652717
H -1.1668297749 0.8893822556 0.1281464785
H 0.7936259497 1.7792611305 0.6317463226
H 3.0263682106 -2.4697330507 -0.5078332959
H 0.5879358118 -2.2693989140 -0.7985901816
