20
CONF7
C 2.5954171842 0.4937697171 1.1316478588
C 2.0264159100 0.3325993813 -0.0628788014
C 0.5563878911 0.3048673365 -0.3627296394
C -0.3563899183 0.5446256596 0.8391690447
C -1.8167627652 0.6560652617 0.3934837819
C -2.1929169601 -0.4183002076 -0.5863725261
C -1.2966094181 -1.1871030774 -1.2097682020
C 0.1873071488 -1.0314039989 -1.0376827174
H 3.6760115546 0.4825976927 1.2400762725
H 2.0116579324 0.6417102110 2.0357441569
H 2.6692912700 0.1822037045 -0.9322344592
H 0.3563670628 1.0976074226 -1.1023751663
H -0.0601334776 1.4536947795 1.3738281657
H -0.2509064931 -0.2939606667 1.5407877154
H -1.9999577510 1.6429001711 -0.0575363293
H -2.4817356039 0.6042926599 1.2649066708
H -3.2540004119 -0.5675890340 -0.7796260741
H -1.6362267153 -1.9681925646 -1.8880366589
H 0.6837801672 -1.1051394343 -2.0137661960
H 0.5830031976 -1.8652447123 -0.4375436963
