46
CONF9
C 2.9336112532 2.7093816602 0.6182310591
C 3.6222716682 1.3838400316 0.9154842002
N 3.8145557166 0.5509147008 -0.2863494766
C 5.0214227116 0.8362697724 -1.0810058349
C 6.2449502490 0.0758177341 -0.5803765508
C 3.1560835787 -0.5773862000 -0.6186880797
O 3.5068180915 -1.3869684419 -1.4608702774
N 1.9076382035 -0.8510626432 0.0716439329
C 1.3172274303 -2.0819250919 0.1212125451
N 0.1491382233 -2.0030051986 0.7225279765
C 0.0612441485 -0.6737046569 1.0114814920
N 1.0844459865 0.0707347930 0.6356393401
S -1.3615947893 0.0392116648 1.8766120465
O -1.1053056742 1.4783919395 2.0099168898
O -1.5579544955 -0.7776077428 3.0797310702
C -2.6887081118 -0.2476278830 0.6806818579
C -3.5642588813 -1.3434196566 0.8369633708
C -4.5862465866 -1.4815673162 -0.1044246585
C -4.7452523150 -0.6087821932 -1.1750111729
C -3.8351182229 0.4345876567 -1.3145751206
C -2.7946827732 0.6429782902 -0.4109484918
C -1.8638473661 1.7971250884 -0.6818436646
C -5.8394461159 -0.8128820410 -2.1836753498
C -3.4782455333 -2.3879761514 1.9189873422
H 2.8889343016 3.3108150463 1.5310421407
H 1.9128833038 2.5370897039 0.2728191732
H 3.4781565175 3.2828857366 -0.1382741187
H 4.6234016975 1.5599943254 1.3292698357
H 3.0611360574 0.8237945350 1.6635808134
H 4.8136372855 0.5745827614 -2.1216046287
H 5.1861614137 1.9175861935 -1.0296563872
H 6.4624317252 0.3127138252 0.4656714939
H 7.1214340103 0.3472822691 -1.1762025916
H 6.0848029033 -1.0007807290 -0.6728539865
H 1.7861869740 -2.9632882440 -0.2920705170
H -5.2761780447 -2.3136077001 0.0063608597
H -3.9318299602 1.1143852454 -2.1570545690
H -2.0382580683 2.1666916550 -1.6948397182
H -0.8113050795 1.5179544987 -0.5910502954
H -2.0291265431 2.6128890411 0.0254608975
H -6.6754343952 -1.3724283410 -1.7570013281
H -6.2154512322 0.1424896085 -2.5595525733
H -5.4653034592 -1.3799933472 -3.0441582172
H -3.6984771464 -1.9706680152 2.9034993685
H -4.1976010534 -3.1816422995 1.7052538639
H -2.4789475137 -2.8240828734 1.9776165324
