50
CONF12
C 2.9428863797 -0.1473675782 0.1223871193
C 2.0302681176 -0.0841905411 -1.0781332236
C 1.3454519414 1.1035596063 -1.3430618286
C 0.6273242180 1.2421864088 -2.5456336864
C 0.5970758387 0.2499866356 -3.4939744502
C 1.2501269672 -0.9756944742 -3.2523968767
C 1.9146475818 -1.1664895795 -2.0004033850
C 2.3866942807 -2.5217878400 -1.7980735053
N 2.3968208557 -3.4146177820 -2.7830291964
C 1.8608898063 -3.0512000023 -3.9725034603
N 1.2278763138 -1.9168939744 -4.2391623051
N 1.9142258121 -4.0019035715 -4.9574826397
N 2.8268167890 -2.9742643121 -0.5977130966
C 1.3442434955 2.2751528346 -0.3754697299
N 0.8658562918 1.9824456076 0.9772482498
C -0.3456455147 1.3392280725 1.1952613996
C -1.3971269710 1.4415830946 0.2732257006
C -2.6213239479 0.8311109319 0.5543593833
C -2.8147040039 0.1139977571 1.7424177889
C -1.7559862596 0.0245085608 2.6595847389
C -0.5245819220 0.6190776179 2.3885404520
O -2.0275278712 -0.6882424104 3.7895811015
C -0.9785017955 -0.8170167993 4.7574640331
O -4.0128400522 -0.5241997744 1.9917345661
C -4.9489548168 0.3075504627 2.7051212150
O -3.6972495533 0.8745354908 -0.2822855812
C -3.5345739331 1.5546856957 -1.5333908703
H 3.8143712911 -0.7745951964 -0.0706886337
H 3.3147018777 0.8501470759 0.3653591442
H 2.4354002127 -0.5253956158 1.0199342674
H 0.1026953251 2.1761271142 -2.7342875444
H 0.0785973912 0.3840112202 -4.4378507685
H 1.7607440937 -3.6822809152 -5.9010318253
H 2.5973827092 -4.7342192231 -4.8432704524
H 2.9551188492 -3.9725616588 -0.5231473924
H 2.3524543326 2.6908029002 -0.2655943011
H 0.7350382744 3.0764264416 -0.8109626129
H 1.5906475168 1.6956008110 1.6173075218
H -1.2629563031 2.0006735393 -0.6408471611
H 0.3002014384 0.5416357175 3.0869066164
H -1.3993554106 -1.4106035489 5.5696308508
H -0.6712429165 0.1637910517 5.1389360716
H -0.1117371496 -1.3365455571 4.3324845793
H -5.1931894281 1.2024751290 2.1200726162
H -5.8503543269 -0.2910574984 2.8544560553
H -4.5376428627 0.6039120396 3.6774743258
H -2.7367312178 1.0958205167 -2.1297767445
H -4.4880457869 1.4482024616 -2.0516893243
H -3.3160532776 2.6180957076 -1.3805374823
H 2.5740581114 -2.4957550468 0.2488356101
