44
CONF67
C 4.9428194894 1.7338823271 -2.1127176587
C 3.7304073710 1.0807884117 -1.4576516078
C 2.6035210455 0.6635403741 -2.4752371179
N 1.3682605178 0.6849732770 -1.7273424131
C 1.2027380939 1.7252351832 -0.7026976267
S 2.9004099049 2.3402071373 -0.3374956353
C 0.5239501591 0.6473401960 0.2098279006
C 0.7984379503 -0.3250431835 -0.9620242066
O 0.6253019556 -1.5013566694 -1.1774073705
N -0.8248959032 0.8276734062 0.6405710520
C -1.1839819985 0.8197784284 1.9536973358
O -0.3733341397 0.7331609635 2.8719602729
C -2.6963100752 0.8569049931 2.2023682008
C -3.2167720291 -0.5709388887 2.0805298754
C -2.8892121321 -1.5367874142 3.0358373682
C -3.3492228453 -2.8425805453 2.9195883215
C -4.1500530867 -3.2007111369 1.8319855319
C -4.4864901226 -2.2495057592 0.8692852041
C -4.0172687761 -0.9472672364 0.9999964938
O -4.6346240026 -4.4671640070 1.6651139053
N -2.9343993668 1.5138524494 3.4883422117
C 2.5116366462 1.6046541170 -3.6658280827
O 3.2871798378 1.1804266422 -4.6778358124
O 1.8400083132 2.6107840225 -3.6964760867
C 4.1541313078 -0.1469771973 -0.6509092975
H 5.6711565059 2.0111001477 -1.3457108799
H 4.6747590678 2.6331338873 -2.6734050352
H 5.4213384571 1.0200686107 -2.7907667815
H 2.8012362656 -0.3523650855 -2.8311547947
H 0.5594365139 2.5594578014 -0.9925564842
H -1.5482547737 0.9131205564 -0.0598276021
H -2.2654476697 -1.2705066824 3.8845025384
H -3.0887599355 -3.5867571899 3.6679244129
H -5.1145237175 -2.5367326987 0.0321360322
H -4.2834585583 -0.2093501669 0.2474744933
H -4.3249855484 -5.0277933070 2.3891185940
H -3.8728004521 1.2883702535 3.8025168949
H -2.2949956633 1.1226653028 4.1748521491
H 4.8508371191 0.1492788499 0.1372769476
H 3.3015389033 -0.6435195041 -0.1799298953
H 4.6552782212 -0.8652497325 -1.3100751556
H 3.2354457682 1.8311544982 -5.4001615974
H -3.1650019870 1.4500605219 1.4066022556
H 1.1474368700 0.3957532676 1.0730140436
