42
CONF8
C 0.5675486147 -0.8211156702 2.5927154192
C -0.0477464007 -1.4973878170 1.3707634793
C -1.3902325475 -2.1836244768 1.7264137992
C -2.4076485286 -1.0942235556 1.5041864366
C -1.8814132614 -0.1005849409 0.6781081850
C -0.4708083619 -0.4629352800 0.2779884329
N 0.3766484437 0.7066094066 0.1400397991
C 1.5628732970 0.7129565487 -0.5045641598
N 1.9255606986 -0.4025822577 -1.1808120287
C 3.0908376027 -0.2898323811 -1.8205137265
N 3.9000254466 0.7604033786 -1.8396958914
C 3.4463493496 1.8107929692 -1.1025755036
N 2.2914370696 1.8427214941 -0.4238112278
N 4.2272121141 2.9060220055 -1.0689130980
C 3.4704965074 -1.4986753022 -2.6492203063
C 2.8705040444 -1.4226202375 -4.0397099438
F 4.8723255242 -1.5766581649 -2.7674892212
C -2.6297846720 1.0121072940 0.3204777660
C -3.9402368121 1.1476618608 0.7981710646
C -4.4597215318 0.1475795694 1.6290431154
C -3.7058337201 -0.9730362623 1.9826406177
C -4.7811444778 2.3325111990 0.4053114858
H 0.7941696101 -1.5686912360 3.3589277505
H -0.1236113405 -0.0887126256 3.0273610362
H 1.4975544075 -0.3030986108 2.3393312954
H 0.6666619290 -2.2130163792 0.9526400514
H -1.5845702302 -3.0233004232 1.0453429372
H -1.3999150974 -2.5818813909 2.7463037289
H -0.4904534171 -0.9736187495 -0.6938323508
H 0.1926188776 1.5006759840 0.7366223816
H 5.1188173002 2.8970566169 -1.5341861968
H 3.9591321780 3.6993910895 -0.5116058607
H 3.1436908536 -2.4028131874 -2.1245075132
H 1.7799518218 -1.3908086314 -3.9673835731
H 3.2194811980 -0.5204162970 -4.5505377331
H 3.1592551717 -2.3044944602 -4.6173170063
H -2.2065015586 1.7815760605 -0.3214865265
H -5.4713265423 0.2536988919 2.0124770424
H -4.1294632926 -1.7307115234 2.6364828801
H -5.4894642355 2.5955110514 1.1957701165
H -4.1589415017 3.2050976414 0.1887956034
H -5.3643330168 2.1124663179 -0.4970590535
