50
CONF18
C 5.4385293105 2.6604903420 0.7203402189
C 4.5413254227 3.5809600071 1.5223371075
O 3.1465263316 3.2179547788 1.3671040364
C 2.7266459303 2.1906880474 2.1591863903
O 3.4374944542 1.6267400820 2.9724678069
N 1.3991294681 1.9079987646 1.9531268350
C 0.8951288243 0.6538484107 2.5021736135
C 1.0042410517 -0.4809360566 1.4653495759
C 0.3240359474 -0.0840956265 0.1815282143
C -0.6667525121 -0.7955243863 -0.3923169767
C -1.0980305978 -2.1391502658 0.0767324031
C -2.4312990634 -2.4851772180 0.3671742239
C -3.6262039614 -1.5508196221 0.3076400938
C -3.3818336078 -0.0908029054 -0.0891712790
C -2.7529262443 0.0329126588 -1.4453106250
C -1.3985237055 -0.3059823143 -1.5941497512
N -0.7451975600 -0.2334382499 -2.7594407652
C -1.4312325651 0.1780770833 -3.8311957763
C -2.7756068901 0.5286010610 -3.7932959340
C -3.4427785961 0.4567708398 -2.5752529942
C -2.7189903819 -3.7988214445 0.7570389789
C -1.7195888695 -4.7513877356 0.8463649825
C -0.4017179483 -4.4382079322 0.5392198490
C -0.1150120874 -3.1397210626 0.1526225668
Cl -2.1280128197 -6.3854982067 1.3403094620
C 0.7816281144 1.2504317632 -0.3444595743
C 0.6860021562 2.3296338484 0.7491405431
H 5.1509403652 2.6630540152 -0.3351853926
H 5.3823465755 1.6398819726 1.1060701334
H 6.4768948895 2.9994705356 0.7946602288
H 4.5896203937 4.6086532964 1.1526933009
H 4.7980602169 3.5625476993 2.5851173523
H 1.4627461733 0.4101488646 3.4013456102
H -0.1576695306 0.8005282915 2.7768417605
H 2.0731917418 -0.6649620619 1.2851860136
H 0.5752181822 -1.3933230044 1.8857176766
H -4.1169524845 -1.5669133076 1.2892329422
H -4.3493476403 -1.9831429249 -0.3971604150
H -4.3424800845 0.4349438135 -0.0734553405
H -2.7350782793 0.3877507100 0.6561601584
H -0.8741579651 0.2281926553 -4.7652811485
H -3.2842438867 0.8547027003 -4.6942283723
H -4.4908314641 0.7356033549 -2.5007515678
H -3.7419475144 -4.0739897846 0.9943647361
H 0.3738098614 -5.1931291006 0.5882327541
H 0.9025661905 -2.8799839890 -0.1203056289
H 1.8340683646 1.1750649122 -0.6541758597
H 0.2085483331 1.5579182382 -1.2211759503
H 1.0853258734 3.2794890981 0.3953581796
H -0.3676068226 2.4819485665 1.0204767119
