44
CONF11
C -4.1436090058 -0.3465014965 -2.1764647532
N -4.1974973680 -0.3195193679 -0.7259262881
C -3.5831130114 -1.4477992120 -0.0130156420
C -3.8600121199 -1.0536543333 1.4524862870
C -3.8783854018 0.5018567463 1.4223722541
C -3.6056177258 0.8466297331 -0.0561193799
C -2.0940477177 0.9748540208 -0.3435570018
C -1.3658034636 -0.2726262788 0.1360344495
C -2.0684571885 -1.5566258112 -0.2934863694
O -0.0173148475 -0.2202966824 -0.4341041309
C 0.9504130033 -0.8684203318 0.2306187676
O 0.7780704238 -1.4978728919 1.2568476289
C 2.2942928280 -0.6988519464 -0.4589800847
C 3.3358817127 -1.6387740916 0.1704528497
O 2.9629643981 -3.0042397230 0.0783061218
C 2.7527137065 0.7410387114 -0.3855405589
C 3.2163709076 1.4024097338 -1.5226736912
C 3.6802239223 2.7117648484 -1.4403973725
C 3.6842375627 3.3759602304 -0.2178468237
C 3.2233023597 2.7232693071 0.9223009923
C 2.7624597373 1.4141279698 0.8393986711
H -4.6765649277 0.5261224327 -2.5706417930
H -3.1313341223 -0.3462519651 -2.6176364041
H -4.6611998491 -1.2426178919 -2.5369101069
H -4.0763032156 -2.3853549961 -0.2955963668
H -4.8314408095 -1.4428343110 1.7653304902
H -3.1030683765 -1.4563231976 2.1319072520
H -3.1353264690 0.9481244867 2.0900571786
H -4.8601276829 0.8800349073 1.7160716023
H -4.1171450750 1.7629111839 -0.3739074771
H -1.6828427261 1.8608433165 0.1532503167
H -1.9276036359 1.1030744674 -1.4191319100
H -1.2542457867 -0.2582043105 1.2245163234
H -1.8975336695 -1.7189372189 -1.3642521670
H -1.6414086454 -2.4109015517 0.2420122394
H 2.1563364176 -0.9777745513 -1.5101474745
H 4.2779233836 -1.5269294384 -0.3754841360
H 3.5097470490 -1.3365936909 1.2136019520
H 2.2157883289 -3.1192412661 0.6801589777
H 4.0361856004 3.2145316614 -2.3340509650
H 4.0440234844 4.3976712005 -0.1535056821
H 3.2218721490 3.2357465107 1.8791418334
H 2.3990766164 0.9104542708 1.7316813177
H 3.2099955704 0.8881263469 -2.4795428907
