45
CONF65
C -6.8208611846 0.5510570784 -1.2226193857
C -8.2424232449 1.1280220897 -1.2239384608
O -8.4446082392 1.9547967769 -2.3700507297
C -6.5415441914 -0.2620969658 0.0139416814
C -5.1705582464 -1.0121151367 0.0499596464
C -3.9063356068 -0.1162705273 -0.1669125542
C -2.5672321267 -0.8014367506 0.2825191840
C -1.2894252505 -0.1158966349 -0.3236831140
C 0.0256658043 -0.4790589411 0.4559066312
C 1.3305671700 -0.1824810042 -0.3666114559
C 2.6174832537 -0.1203489998 0.5340279953
C 3.9468239231 -0.2852086906 -0.2854498008
C 5.2153987912 0.2086221496 0.4975457215
C 6.5560368706 -0.3521388739 -0.0893839294
C 7.8280587151 0.4341654411 0.3717965590
F 8.9157319288 -0.2665777346 0.0251672161
F 7.8890145528 1.6343589360 -0.2134861599
F 7.8199153611 0.5926684281 1.7026980714
F 6.5109197373 -0.3035645150 -1.4408073324
F 6.7022723511 -1.6347821392 0.3041004226
F 5.1182920163 -0.1872719244 1.7869049094
F 5.2531022942 1.5591109726 0.4530547713
F 4.1073131041 -1.5922760079 -0.5895029371
F 3.8449696725 0.4285514649 -1.4289178976
F 2.6441984296 1.0738492552 1.1665962122
F 2.5533227915 -1.1093838376 1.4528969532
F 1.4913770862 -1.1575503128 -1.2886013730
F 1.1874497992 1.0052155704 -0.9956682743
F 0.0621141772 0.2444445379 1.5973016913
F 0.0001752022 -1.7950674368 0.7625383400
F -1.4532712241 1.2252691093 -0.2870565981
F -1.1560562838 -0.5118511864 -1.6094831344
F -2.5841325572 -2.0953875994 -0.1070831383
F -2.4879325109 -0.7445980811 1.6315434980
F -4.0501121638 1.0330270904 0.5307964266
F -3.8177609177 0.1827518858 -1.4871927410
F -5.0541599468 -1.6303044259 1.2541550651
F -5.1904064688 -1.9595240820 -0.9203652701
F -6.6196696566 0.5087884084 1.1436659410
F -7.4810504675 -1.2567862532 0.1621613052
H -6.1001583172 1.3727412145 -1.2745946251
H -6.6734514931 -0.0906214289 -2.0983533352
H -8.9839738569 0.3209302029 -1.1851500567
H -8.3876339480 1.7727821518 -0.3530005062
H -8.4738562222 1.3831246963 -3.1475411791
