18
CONF1
C -1.2095755641 1.0152380557 0.2549274002
N 0.0874933659 1.4387782304 -0.2579635531
C 1.2572808121 0.7931590037 0.3528629178
N 1.0736939632 -0.6494701954 0.2961475730
C -0.1884798083 -1.1724894166 0.8281778948
N -1.2919128150 -0.4396956370 0.2009948389
N -2.1223092868 -0.9674814851 -0.7188321602
O -2.0453661023 -2.1713991604 -0.8784442031
N 1.8710319093 -1.3284130277 -0.5546480289
O 1.5897874186 -2.4990303291 -0.7275715937
N 0.0974871006 2.0371854088 -1.4641227103
O 1.1944016003 2.2139072285 -1.9611600901
H -1.3060134347 1.3404244546 1.2975644242
H -2.0023044544 1.4460333240 -0.3612287667
H 2.1558726918 1.0685375351 -0.2034422017
H 1.3292867047 1.1166840600 1.3975231613
H -0.2172676863 -1.0076719753 1.9108291570
H -0.2731060071 -2.2342959738 0.5883860464
