47
CONF12
C -3.2475225883 -1.1386517526 1.5273475770
C -3.3252361380 -0.6802837192 0.0681786340
C -4.2538131162 -1.6040721081 -0.7268898064
C -1.9562845784 -0.5740569636 -0.6291103097
C -1.0088221755 -1.7750565716 -0.4748647257
C 0.3618133737 -1.1845362355 -0.8072329805
C 0.3646286024 0.1573922518 -0.0598940906
C 0.7303458620 0.0027448943 1.4318548810
C 2.1276856695 -0.5217149942 1.6174869855
C 2.3640813760 -1.8500854526 1.9763426243
C 3.6564131338 -2.3465306208 2.1182359698
C 4.7298816041 -1.4948859916 1.8959275535
Cl 6.3667416248 -2.1051113818 2.0726123994
C 4.5323770075 -0.1650873139 1.5424330552
C 3.2327578989 0.3080695704 1.4071908782
C -1.0866821467 0.6902552909 -0.2596655288
O -1.5017473373 1.3744559508 0.9145205352
C -1.0662879470 1.6927796538 -1.4346071712
N -2.4037254383 2.1045547677 -1.8368070170
C -3.0971671087 1.8185596953 -2.9603128937
N -4.3296213456 2.2971285152 -2.8820034610
C -4.3450740727 2.8733597344 -1.6527431693
N -3.2028208300 2.7853436736 -0.9778024782
H -2.9790795245 -2.1987748518 1.5949489568
H -2.5207352256 -0.5534351960 2.0949099763
H -4.2248639171 -1.0240514644 2.0074491312
H -3.7745060922 0.3223293847 0.0551934979
H -3.8434797935 -2.6190331174 -0.7808074679
H -4.4011006460 -1.2399850791 -1.7494405009
H -2.1702878572 -0.4931350651 -1.7052654289
H -1.0137145222 -2.1472164301 0.5545325056
H -1.2818900869 -2.6116397581 -1.1245720188
H 0.4407986848 -1.0149673565 -1.8891072791
H 1.2015443657 -1.8239407666 -0.5208295711
H 1.0890321391 0.8549120160 -0.5017284261
H 0.0152829357 -0.6620867791 1.9266169787
H 0.6291519868 0.9774952952 1.9156071031
H 1.5214498665 -2.5129229884 2.1534987775
H 3.8284421734 -3.3787361145 2.4003922105
H 5.3825981876 0.4880100379 1.3834913957
H 3.0765672497 1.3500090988 1.1403538728
H -0.5884438067 1.2441759958 -2.3113132889
H -0.5022002348 2.5827957109 -1.1346996616
H -2.6654255272 1.2829422946 -3.7956675685
H -5.2088343538 3.3769724215 -1.2394983115
H -5.2368149540 -1.6704582303 -0.2496454974
H -2.2672132122 1.9272986093 0.6866039800
