50
CONF12
C 1.1046761924 -0.7161220903 -0.1492926820
C 2.5415774746 -1.3151059676 -0.2940019449
C 3.4805950753 -0.1877254767 -0.5949801900
C 4.6856808763 -0.0678680687 -1.2450975613
N 5.0980373941 1.2608328903 -1.2062220857
C 4.1612707277 2.0152533889 -0.5369449297
C 4.0694144453 3.3673954982 -0.1974372570
C 2.9388480064 3.7613962289 0.5193145594
C 1.9185140439 2.8647565916 0.8970310902
C 2.0101420212 1.5152573872 0.5606888078
C 3.1425613647 1.1197062577 -0.1583214395
C 1.0766364650 0.4219714082 0.8664767618
C 0.3136665462 0.3870552109 1.9689281316
C -0.5475833184 -0.7878195369 2.3317866966
C -0.0960821284 -2.0212530758 1.5418991814
N 0.0372568778 -1.6810724319 0.1247123611
C 0.0541652874 -2.8550321189 -0.7430091883
C -2.0290458726 -0.4150909564 2.1296865692
O -2.7371616544 -0.0511376800 3.0746821603
N -2.4444806476 -0.4799178248 0.8504581865
C -3.7803399807 -0.1095120700 0.3946589137
C -3.6902271780 0.4969743025 -1.0069960716
C -2.8303945954 1.7582387739 -1.0604866435
C -4.7157912360 -1.3218719271 0.4551729953
O -4.2711619397 -2.4070355489 -0.3677837245
H 0.8730301689 -0.2629652362 -1.1278165594
H 2.8208227533 -1.8206609075 0.6406305892
H 2.5506685228 -2.0647411444 -1.0903764940
H 5.2996019023 -0.8099933536 -1.7366247405
H 5.9515995450 1.6075666641 -1.6122184426
H 4.8342746092 4.0858881927 -0.4738817856
H 2.8349518515 4.8079338402 0.7897140603
H 1.0530509428 3.2398328333 1.4352692185
H 0.3254302150 1.2272950293 2.6596708776
H -0.4456272189 -0.9907137693 3.4030968428
H -0.8395243212 -2.8216444470 1.6326258561
H 0.8471313295 -2.3957649792 1.9780455692
H -0.8968833485 -3.3890788753 -0.6383299757
H 0.8686510957 -3.5619707124 -0.5117346896
H 0.1568834260 -2.5384568541 -1.7865510895
H -1.7401621246 -0.7985352687 0.1774290156
H -4.1734509016 0.6409532596 1.0938442947
H -3.2978639211 -0.2595572350 -1.6981980389
H -4.7104575498 0.7245683077 -1.3374643930
H -3.2082385376 2.5178699879 -0.3672715734
H -2.8316051019 2.1873217123 -2.0669416602
H -1.7910620122 1.5453251648 -0.7888351205
H -5.7049105300 -1.0373038007 0.0814655313
H -4.8193939632 -1.6474769197 1.5000050585
H -3.4476905861 -2.7379651611 0.0145257487
