39
CONF42
C 1.0612970283 -2.1357487782 2.6817528615
C -0.2424398791 -2.5304633887 2.0568254739
C -1.2076279514 -1.5876335174 1.6956655038
C -2.4293247194 -1.9333016938 1.0906524402
C -2.6927619962 -3.2988702942 0.9069509458
C -1.7509674000 -4.2606811846 1.2422190357
C -0.5408303598 -3.8695753029 1.7973060625
Cl -4.2476527791 -3.8268262635 0.3099499688
N -3.3890293002 -0.9655582349 0.7003705689
S -3.3610990016 -0.4294443778 -0.9256148964
O -3.2142564661 -1.6125431409 -1.7708547109
O -4.4877909242 0.4939802512 -1.0514421568
C -1.8471894607 0.5256427219 -1.0790893789
N -0.7077809532 -0.1101100277 -1.3378552901
N 0.1710504510 0.9189700789 -1.2340097567
C 1.5351725450 0.8688700828 -1.3795317120
C 2.2068803292 2.0543263370 -1.2181679814
C 1.4590920391 3.2220167145 -0.9164840334
N 0.1447021817 3.2704165329 -0.7678729320
C -0.4901159074 2.1079826924 -0.9233055283
N -1.8001682123 1.8469709921 -0.8230952747
O 2.1881121868 4.3319246577 -0.7782309422
C 1.4838434828 5.5583982045 -0.4647723600
O 2.0113407752 -0.3297159951 -1.6519295196
C 3.4500432369 -0.4454332068 -1.8068604994
Cl -0.8942885845 0.1026982396 2.0445728828
H 1.6162654651 -1.4523573480 2.0299279286
H 0.9018363394 -1.6169028721 3.6325852262
H 1.6743125107 -3.0198959783 2.8638762982
H -1.9717925229 -5.3097533652 1.0848413799
H 0.1912240368 -4.6276989367 2.0567917841
H -3.4541585437 -0.1594720131 1.3208580820
H 3.2813406365 2.1162765304 -1.3122149892
H 0.7751512006 5.8022381569 -1.2596218445
H 2.2625249532 6.3168247510 -0.3974582453
H 0.9570035919 5.4599279503 0.4871691842
H 3.7847066702 0.1732941896 -2.6438171263
H 3.6253980795 -1.4985467881 -2.0164280522
H 3.9479780158 -0.1502256666 -0.8793974051
