39
CONF56
N 1.2708299019 -0.1669358582 2.4147397757
C 1.7138720966 -1.2908335635 1.7893361319
N 1.7326578474 -2.4229848484 2.5081634302
C 2.2101489526 -3.5230641491 1.9005382051
N 2.1743989511 -4.6866201475 2.6238162514
N 2.6733898178 -3.6031779243 0.6396321815
C 2.6411223859 -2.4489572035 -0.0478214213
C 2.1812180264 -1.2468848844 0.4506160420
C 2.1691033221 0.0165830038 -0.3621054976
C 0.7752352447 0.5532892052 -0.6425986625
C -0.2270347026 -0.3196980533 -1.0662214829
C -1.5047228619 0.1723168076 -1.3413848307
O -2.5517147798 -0.5908950922 -1.7570829851
C -2.3209243438 -1.9992042059 -1.9033634220
C 0.5095835309 1.9133392336 -0.4848728770
C -0.7713013603 2.4079183481 -0.7573475676
O -1.1376440767 3.7117682365 -0.6270631987
C -0.1405661014 4.6331470500 -0.1635731549
C -1.7812948231 1.5405962213 -1.1947688700
O -3.0304970831 2.0303709030 -1.4981822696
C -3.9225595641 2.0261404810 -0.3632612498
H 0.7853844533 -0.2901651657 3.2905996854
H 0.9780860927 0.6182382429 1.8530288459
H 2.7654735816 -5.4345437140 2.2957008907
H 2.0988093339 -4.5937753849 3.6248284677
H 3.0142377875 -2.4897887121 -1.0720194487
H 2.6741778572 -0.1840980505 -1.3151099973
H 2.7529908968 0.7990089391 0.1396321640
H -0.0009207411 -1.3741143189 -1.1695177230
H -1.5538288752 -2.1952836176 -2.6613608619
H -2.0229006493 -2.4494420387 -0.9494907180
H -3.2731173085 -2.4200716947 -2.2272097782
H 1.3000638687 2.5737207169 -0.1483599954
H 0.7052612084 4.6807897504 -0.8589981605
H 0.2153784333 4.3568502317 0.8355960676
H -0.6358360493 5.6035222459 -0.1215839668
H -4.0705364310 1.0039797818 0.0041690664
H -4.8729261500 2.4336498625 -0.7134996540
H -3.5230992933 2.6553094666 0.4406614052
