52
CONF52
O 4.1905654336 -1.4547329233 -2.1485755547
C 2.8108663063 -1.4265308189 -1.7541037599
C 2.7005267311 -0.6575276912 -0.4456930086
C 3.7433985648 -0.8291766613 0.4901389107
C 3.6741969082 -0.1222850076 1.6633477942
C 2.6139096209 0.7332755500 1.9386935849
C 1.5759242866 0.9001527182 1.0579675949
C 1.6172855797 0.1902587790 -0.1613225253
C 0.4449568604 0.4127025074 -1.1249545486
C -0.8909972462 0.3859038263 -0.4049770557
C -1.2680657196 -0.7579927939 0.3002306774
C -2.4914455746 -0.7856540828 0.9712291722
O -2.9524593692 -1.8433982080 1.6932531077
C -2.1135720865 -3.0042355475 1.7641298441
C -3.3428415975 0.3301948774 0.9313559994
O -4.5684146155 0.2853213804 1.5529604419
C -4.5271342437 0.7754376628 2.9096015007
C -2.9488853884 1.4770646275 0.2296720470
O -3.8334898905 2.5111633615 0.2574766489
C -3.4733219711 3.7054854999 -0.4502226217
C -1.7200854064 1.5033683892 -0.4392938488
C 0.5243668184 -0.6192067012 -2.2430737341
C -0.2829575470 -0.3890752791 -3.5008256113
O 0.3910680007 -0.9256832718 -4.5542439692
C 1.6714519576 -1.4832318896 -4.1035595999
C 1.9365095672 -0.7576920792 -2.7921930625
O -1.3536251110 0.1503814972 -3.6494293033
O 2.7680298567 1.2783479667 3.1896933450
C 4.1166287167 0.9384291743 3.5781546215
O 4.5357012203 -0.1538448071 2.7335023864
H 4.2952272055 -2.1606182519 -2.7991236203
H 2.4575576226 -2.4603249893 -1.5986087869
H 4.5729376442 -1.4916767663 0.2754109631
H 0.7385079794 1.5493923856 1.2907742131
H 0.5628064566 1.4072482110 -1.5768023073
H -0.5959413864 -1.6071608968 0.3407647502
H -1.9381092001 -3.4235745271 0.7666834682
H -1.1548616339 -2.7678939566 2.2403729873
H -2.6595029784 -3.7238940788 2.3746806136
H -3.8448653797 0.1680983662 3.5158434171
H -4.2080372547 1.8239197865 2.9293539631
H -5.5428205338 0.6913073683 3.3009483349
H -3.3439328520 3.5045762333 -1.5199405290
H -4.3055324884 4.3945472303 -0.3041796057
H -2.5553803316 4.1436665175 -0.0415219733
H -1.4064511653 2.3798119225 -0.9929420191
H 0.2023473606 -1.6024471735 -1.8601864359
H 2.3999453218 -1.2904610066 -4.8916768657
H 1.5419533278 -2.5627087915 -3.9596285198
H 2.3415481011 0.2423722662 -3.0016719009
H 4.7707671996 1.8034245914 3.4019579497
H 4.1237474076 0.6151765095 4.6205521340
