47
CONF19
C -7.3982911112 -1.6618512786 1.3663786128
O -6.3047055505 -1.5692522111 0.4097154786
P -4.9542213154 -2.3979397095 0.6794070228
S -4.1333406978 -2.2185639675 2.4229579130
O -5.2643764275 -3.9180332421 0.3062301810
C -5.9017697923 -4.2519742534 -0.9653593625
O -4.0885436394 -1.9267677377 -0.6085501528
C -3.3282071410 -0.7610759255 -0.6596302897
C -3.8124351406 0.4584456837 -0.2051256923
C -3.0029329602 1.5863107249 -0.3130786714
C -1.7401276725 1.4936601679 -0.8980795336
C -1.2793683294 0.2616621071 -1.3720822238
C -2.0671356503 -0.8721669214 -1.2367907286
S -0.7797481875 2.9869845369 -1.1082269902
C 0.8163444792 2.5291677799 -0.4429938912
C 0.9505567728 1.6661709042 0.6480967535
C 2.2120175686 1.3783935917 1.1534759835
C 3.3260032543 1.9784278078 0.5817922715
C 3.2108685863 2.8549431496 -0.4879819104
C 1.9487382004 3.1198538503 -1.0095805620
O 4.5785039688 1.7159512281 1.1472705675
P 5.6736034416 0.7910310069 0.3884209786
S 4.9715091851 -0.7304125522 -0.5933983115
O 6.6923240125 0.4913846080 1.5835409442
C 6.4027008250 -0.5679417664 2.5379278117
O 6.4749511032 1.8994309049 -0.4390169571
C 7.5015730721 1.4965401831 -1.3893700676
H -8.1938677118 -1.0360818913 0.9631471508
H -7.0743793109 -1.2864246559 2.3404297236
H -7.7395573238 -2.6975261853 1.4513856464
H -6.1294443274 -5.3156147274 -0.9051997416
H -6.8209550612 -3.6749245047 -1.0919902050
H -5.2099083063 -4.0574171476 -1.7878573992
H -4.7993529959 0.5341440458 0.2367203197
H -3.3615740255 2.5396854253 0.0602935085
H -0.3019710458 0.1852035248 -1.8368493754
H -1.7208085255 -1.8384343334 -1.5870394152
H 0.0756969665 1.2119152397 1.1005995656
H 2.3352896754 0.7015101332 1.9921380865
H 4.0951456928 3.3125897290 -0.9179348591
H 1.8491223196 3.7860950935 -1.8604731145
H 5.4750975414 -0.3478126498 3.0736647788
H 6.3257773456 -1.5270626112 2.0198179699
H 7.2439720047 -0.5758547865 3.2302526919
H 7.0687574520 0.8456112900 -2.1530903531
H 7.8621905718 2.4213371232 -1.8385064149
H 8.3162771039 0.9866834306 -0.8684117464
