39
CONF49
C 5.1763535014 0.4595822333 -1.9522911193
C 4.0449051419 0.2792059863 -0.9426039086
C 2.6691336889 0.4469548166 -1.5901954280
C 1.5463536660 0.2715904755 -0.5908365703
C 1.3732638455 -1.1602515555 -0.0432389888
O -0.0396170131 -1.4356519976 -0.1773230813
C -0.6713696128 -0.2061541204 -0.5036905577
C -1.8536774630 -0.5193015955 -1.4321267631
N -2.9098305983 -1.2205758804 -0.7265579165
C -2.9984420704 -2.5335359307 -0.4326624078
N -4.0722561616 -2.7647912623 0.3130678736
C -4.6122648224 -1.5208702365 0.4548252420
N -3.9427085807 -0.5510976758 -0.1544255957
O 0.2796485899 0.5168849763 -1.2492148276
C -1.0916263675 0.5289517313 0.7763972112
C -1.5238666249 1.8588369562 0.8041308135
Cl -1.6260515739 2.8342417771 -0.6558985590
C -1.9178936240 2.4853162853 1.9816562185
C -1.8870359152 1.7539359137 3.1608286563
Cl -2.3851429385 2.5354587576 4.6514240931
C -1.4781160085 0.4286850085 3.1850030466
C -1.0875099771 -0.1625052738 1.9902188012
H 6.1547489041 0.3418652436 -1.4769056972
H 5.1001552292 -0.2786183923 -2.7578841322
H 5.1375052502 1.4560652433 -2.4055586694
H 4.1522218259 1.0081508092 -0.1292313139
H 4.1183057765 -0.7152666036 -0.4835712676
H 2.5392467421 -0.2856995483 -2.3975503615
H 2.5922473596 1.4470142507 -2.0343285890
H 1.6552105891 0.9856325792 0.2386471428
H 1.6766481755 -1.2389775483 1.0064808103
H 1.9129314111 -1.9000196571 -0.6429603324
H -2.2675425558 0.4029933809 -1.8414472857
H -1.4835569798 -1.1489034749 -2.2448671854
H -2.2800492418 -3.2618267955 -0.7847041543
H -5.5199450760 -1.3230796217 1.0110455660
H -2.2457005202 3.5175444103 1.9734877937
H -1.4638460191 -0.1328962534 4.1115641824
H -0.7708297516 -1.1988866438 1.9912971551
