40
CONF38
C 2.9068487869 3.4011562896 4.1832694373
O 3.7042478712 2.5528925905 3.3277841745
C 3.0133074654 1.6089380682 2.6617205261
O 1.8249380432 1.4176295799 2.7899729344
C 3.9228400001 0.8284076298 1.7413289207
S 4.4010233827 1.7728089310 0.2401054953
C 3.0306643937 1.4923284759 -0.8612905390
C 1.7990904190 0.9678339798 -0.4707745202
C 0.7716797480 0.7349957942 -1.3924888622
C 1.0048571030 1.0929373821 -2.7249298122
C 2.2010799139 1.6442592462 -3.1420482446
C 3.2090322055 1.8369115926 -2.2089056241
Cl 4.7234196212 2.5329783144 -2.7431456964
F 0.0191008025 0.9285508566 -3.6336533366
N -0.4604499444 0.2629161561 -0.9491291668
C -0.9461089787 -0.8254030013 -1.4036694723
N -2.2235834126 -1.2467013405 -1.0776463664
N -2.4196981054 -2.6258283997 -1.3180365205
C -1.5117624592 -3.2073682376 -2.1680851071
O -1.6036894007 -4.3033565890 -2.6671971923
S -0.1397185167 -2.0457523919 -2.4353157759
C -3.8275455136 -3.0364223652 -1.3537671711
C -4.4953853853 -2.6429933105 -0.0415527687
C -4.2918636141 -1.1510620755 0.2220869787
C -2.8101717285 -0.7961557241 0.1964771095
H 2.4162639352 2.8051590658 4.9569090659
H 2.1488669984 3.9229701700 3.5938196867
H 3.6083724616 4.1080793431 4.6246758641
H 3.4491926904 -0.1143711717 1.4602366962
H 4.8718188098 0.6257448183 2.2456009075
H 1.5855804380 0.7459243906 0.5679560384
H 2.3395590177 1.9161727112 -4.1813510438
H -4.3268901115 -2.5488888875 -2.2049912208
H -3.8308473281 -4.1158085653 -1.5162845053
H -5.5612119809 -2.8864187446 -0.0963254737
H -4.0611587869 -3.2313662609 0.7759553407
H -4.8162617687 -0.5628639099 -0.5410115289
H -4.7039362288 -0.8696315152 1.1963414691
H -2.2741092730 -1.2699511304 1.0335332896
H -2.6473927662 0.2807481341 0.2505310179
