41
CONF50
C -2.7161000343 4.5543803347 0.2510217827
C -1.6149941660 3.5418318381 -0.0484869982
C -1.6126491847 3.1580466941 -1.5325528726
N -1.7730708600 2.3916451309 0.8606698793
C -0.7344292465 1.3628224323 0.7314967341
C -0.7924323496 0.4543096399 1.9569270296
O -0.7116656192 1.2269643984 3.1525704643
C 0.3695939136 -0.5232457314 1.9985001351
O 0.2298665910 -1.3756604820 0.8593894093
C 1.2386222116 -2.2472399029 0.5720304784
C 2.3240761099 -2.4849174632 1.4166790610
C 3.3076004214 -3.3961657635 1.0336117618
C 3.2133703664 -4.0672683571 -0.1789261282
C 2.1215655719 -3.8215321726 -1.0110831580
C 1.1235198135 -2.9179587864 -0.6595347832
C -0.0323872710 -2.6307215332 -1.5768838259
C 0.0980704605 -1.3685603318 -2.3909025590
C 1.1354318747 -0.5358292978 -2.3893888930
H -2.6979706758 4.8498747294 1.3039581155
H -2.5961823671 5.4491164517 -0.3668967985
H -3.7010554051 4.1248337129 0.0303504902
H -0.6439454860 3.9963030161 0.1959991727
H -0.8071240812 2.4558769363 -1.7682089643
H -1.4795884824 4.0450933356 -2.1607482128
H -2.5667080520 2.6895232916 -1.8046778736
H -2.6815290739 1.9664526062 0.6858588038
H -0.8088409958 0.7515441083 -0.1803502886
H 0.2428460929 1.8662461330 0.7171836202
H -1.7358581623 -0.1202821053 1.9364516888
H -1.1962049854 2.0435632959 2.9414648682
H 0.3359428903 -1.1055302472 2.9294301398
H 1.3215611210 0.0248226981 1.9536377741
H 2.4089307674 -1.9741056387 2.3681703626
H 4.1486209456 -3.5764468636 1.6958685319
H 3.9780185438 -4.7767454511 -0.4767178002
H 2.0403326160 -4.3389401926 -1.9636256473
H -0.1610643373 -3.4739833145 -2.2684573135
H -0.9657777618 -2.5705796502 -1.0019492643
H -0.7554267224 -1.1541797757 -3.0346435641
H 2.0042205829 -0.7124887553 -1.7602395214
H 1.1428149438 0.3497714560 -3.0169958315
