52
CONF31
C -2.6881535661 -4.9924628929 0.9474779198
C -3.0968617454 -3.6098246735 0.5273714643
C -2.2651882891 -2.5738778703 0.3364163451
C -0.8029415916 -2.5964213130 0.4875986830
C -0.0118711078 -1.3998599776 1.0613879948
C 0.1329849425 -1.8226359567 -0.4023241880
C -0.3962079367 -0.9390327987 -1.5070878259
C 1.4503814193 -2.4837886998 -0.7452534686
C -0.6679099864 -0.1348261738 1.4267316998
O -1.6907744740 0.3299263255 0.9681930257
O 0.0770211303 0.5038870659 2.3803325427
C -0.3987060926 1.8007531182 2.8010762606
C 0.2697498508 2.9171304289 2.0424144158
C 0.5202868255 2.7992628114 0.6775448458
C 1.1068066370 3.8578185720 -0.0065726288
C 1.4262274040 5.0474049169 0.6385899469
C 1.1601326565 5.1634970918 1.9981732668
C 0.5972496356 4.1035527519 2.7018591503
O 1.3213119620 3.8014078739 -1.3714591129
C 1.8487194460 2.6516645565 -1.9225873039
C 1.4352181872 2.3308867557 -3.2125076327
C 1.9951379672 1.2324444274 -3.8553766998
C 2.9557799505 0.4533635296 -3.2161303991
C 3.3582167588 0.7856234254 -1.9248724741
C 2.8108404002 1.8831547179 -1.2689736019
C -4.5769353637 -3.4446115838 0.3216177979
H -3.2007763587 -5.2735205082 1.8760815395
H -2.9941778742 -5.7255838212 0.1903999368
H -1.6153281086 -5.1051241442 1.1078117612
H -2.7026194823 -1.6242846261 0.0484348470
H -0.3896522573 -3.5375795273 0.8378083207
H 0.8249425859 -1.6526659978 1.7034632901
H -0.5859117992 -1.5476367869 -2.3981817375
H 0.3555899986 -0.1866715806 -1.7723465122
H -1.3169003853 -0.4236455893 -1.2366930098
H 1.3319223723 -3.1177109135 -1.6315186482
H 2.2094357715 -1.7268721641 -0.9713606823
H 1.8158132089 -3.1089777521 0.0749539052
H -1.4854858472 1.8415631163 2.6672392071
H -0.1600916995 1.8691667142 3.8655193544
H 0.2572488070 1.8963259934 0.1391135602
H 1.8768610760 5.8553566932 0.0733711669
H 1.4119141205 6.0833103959 2.5160518768
H 0.4122720688 4.1975204784 3.7679118813
H 0.6849987420 2.9488722777 -3.6932886839
H 1.6715913809 0.9818775971 -4.8605411301
H 3.3876208475 -0.4049464617 -3.7193801669
H 4.1159287770 0.1927314396 -1.4218900930
H 3.1281302758 2.1470114613 -0.2663121327
H -4.8328691296 -2.4258363688 0.0215251075
H -5.1265003384 -3.6817571653 1.2417405541
H -4.9444698887 -4.1353583952 -0.4482890415
