56
CONF2875
C -3.4565134207 0.2176723353 -0.5202061021
N -3.0893998631 -0.4327502228 0.7373544996
C -4.1336345583 -1.2222094160 1.3958268061
C -5.0005084435 -0.4308143923 2.3889680531
C -4.2090145447 0.1524025659 3.5525281495
O -3.5698399778 -0.8742796574 4.3184495055
O -6.0253207827 -1.3079264266 2.8701693648
C -1.8417496564 -0.4497355176 1.2332674353
O -1.5262854240 -0.9657061188 2.3167170786
C -0.7387264296 0.1391233070 0.3866703421
C -0.2754193345 1.4399624262 0.5804866129
C 0.8274064851 1.9414682794 -0.1211295646
C 1.4613513995 1.0968772280 -1.0406559349
C 1.0152823959 -0.2034127853 -1.2741184193
C -0.0811104035 -0.6638087649 -0.5471199978
I -0.7783724216 -2.6432309139 -0.8764394895
C 1.6682900560 -1.0633696939 -2.3331626641
O 1.2681852133 -1.0192261361 -3.4970217675
N 2.6875683948 -1.8159886188 -1.8935030358
C 3.4348600306 -2.7081229024 -2.7704239417
C 2.7891260815 -4.0955685208 -2.8617394254
C 3.5085642867 -4.9785564844 -3.8665337121
O 4.8546402144 -5.1551716061 -3.3974248606
O 2.7383465612 -4.7193900408 -1.5733356135
I 3.1465003760 1.8296453017 -2.0932273787
N 1.2953958777 3.2513839614 0.0946493147
C 2.0653558079 3.5830055869 1.1703403053
O 2.3434102242 2.8091206473 2.0791483917
C 2.6108667444 5.0064196133 1.1424886541
O 2.0415098420 5.8343013625 0.1447039372
C 0.8140058536 6.4437414006 0.5748769032
I -1.3211831610 2.7159519139 1.9006328659
H -4.3571083055 0.8188849052 -0.3659215351
H -2.6554090829 0.8739763185 -0.8600750138
H -3.6587143568 -0.5359424323 -1.2901599453
H -4.7831390771 -1.6271879661 0.6134996525
H -3.6608017182 -2.0623046386 1.9155104277
H -5.5102022596 0.3884921178 1.8672379620
H -4.9044286372 0.6672839461 4.2236761075
H -3.4799799235 0.8859367003 3.1834967080
H -2.7864262767 -1.1360218468 3.8020807834
H -5.5978548871 -1.8944277603 3.5122582467
H 2.9016320265 -1.8095063364 -0.9067704869
H 3.4787368857 -2.2567604420 -3.7668718634
H 4.4529390110 -2.7941720885 -2.3800871026
H 1.7481669034 -3.9814537581 -3.1861958895
H 2.9889845240 -5.9432673398 -3.9298840983
H 3.4940305866 -4.5015876726 -4.8574512115
H 5.2420861065 -5.8990370671 -3.8727524700
H 3.6405578229 -5.0065265488 -1.3708920226
H 1.2389200016 3.9293669109 -0.6580506287
H 3.6842374177 4.9215639019 0.9313975063
H 2.4957090132 5.4315409531 2.1492738274
H 0.0704599308 5.6870053625 0.8591391634
H 0.4371271575 7.0227920036 -0.2700188754
H 0.9968890044 7.1095431723 1.4279829516
