58
CONF89
C -1.4523530455 -0.7798901347 -2.9031934897
C -0.7795555266 -1.4466272525 -1.7148352042
O 0.0801028134 -0.4569147346 -1.1186224578
C 1.0185422496 -0.9981228105 -0.2125883842
O 2.0173373389 -1.7455180978 -0.8803179328
C 2.8121519746 -0.9031514017 -1.7390367222
C 3.4615280137 0.2007032568 -0.9350246908
N 2.4419537615 1.0166897058 -0.2516727075
C 3.1022749916 2.0715762393 0.5283585050
C 3.6827282580 3.1008354429 -0.3745214112
N 4.8898184627 3.5888037125 -0.2831041438
N 4.9510318734 4.5305592727 -1.2863434921
C 3.7954053412 4.6267794010 -2.0207360252
O 3.5376867915 5.3521035694 -2.9795679241
N 2.9808676316 3.6861779189 -1.3962644118
C 1.6224914686 0.1558743904 0.6149247406
C 0.5147765120 0.8979693508 1.3247593338
C -0.1836925297 1.9424576533 0.7130454136
C -1.2395790255 2.5710852075 1.3638257026
C -1.5891733128 2.1271357104 2.6288349575
F -2.6227305522 2.7359109902 3.2690511706
C -0.9282769192 1.0950786437 3.2685035764
C 0.1337168654 0.4869405865 2.6029015168
C -1.7926500990 -1.9448364143 -0.7043619109
C -2.0437253586 -3.3038900007 -0.5630709933
C -3.0117913666 -3.7489644700 0.3396220320
C -3.7357422623 -2.8496484590 1.1078553004
C -3.4760615211 -1.4862778944 0.9607871005
C -2.5094891373 -1.0313714370 0.0739421310
C -4.2619896082 -0.5201393521 1.7995752677
F -5.5809499605 -0.8404065760 1.8284190943
F -3.8432563409 -0.5150597679 3.0941032850
F -4.1721367160 0.7499329997 1.3512764756
C -3.2330280618 -5.2270468138 0.4767088039
F -4.3125874071 -5.5285539376 1.2293742630
F -2.1649374274 -5.8415095398 1.0530640209
F -3.4088630872 -5.8215146537 -0.7309062169
H -0.6969022884 -0.4498018796 -3.6215085442
H -2.0346143101 0.0860140181 -2.5724233616
H -2.1260091663 -1.4860829438 -3.3960686763
H -0.1732358704 -2.2944619615 -2.0596620746
H 0.5350914240 -1.7081384491 0.4731328450
H 3.5728690306 -1.5518425980 -2.1793248676
H 2.1854556313 -0.4883507751 -2.5388012909
H 4.0395405093 0.8434468451 -1.6098418734
H 4.1639557610 -0.2411267862 -0.2024555803
H 3.9076230472 1.6873884497 1.1785922123
H 2.3566330968 2.5528466877 1.1723518924
H 5.7949676995 5.0590055202 -1.4445014820
H 2.0438989182 3.4507072872 -1.6868661326
H 2.2533814847 -0.3369048660 1.3800548552
H 0.1036256432 2.2700926030 -0.2801217594
H -1.7877766805 3.3850403316 0.9015496740
H -1.2327818884 0.7807996661 4.2606546713
H 0.6728001659 -0.3210128177 3.0899973596
H -1.4846997050 -4.0193927768 -1.1597113682
H -4.4897781627 -3.1952740647 1.8052810959
H -2.3038897399 0.0298791110 -0.0193562599
