54
CONF640
C -5.1116104997 -1.6478007594 -0.5711317481
N -3.9222800127 -1.3527606106 -1.3850859356
C -3.9722309647 -0.7802112356 -2.6305923612
C -5.3423141960 -0.4327448743 -3.1446560404
O -2.9415433483 -0.5660110566 -3.2714235089
C -2.6512027939 -1.7081689243 -0.8699362887
C -1.9144976445 -0.8071599903 -0.0962126552
I -2.7418019710 1.1029647794 0.2819130304
C -0.6655978391 -1.1398629844 0.4283467081
C 0.0715881213 -0.1572085791 1.3057548485
O -0.1049976201 -0.1480260878 2.5267992219
N 0.8856516000 0.6859104846 0.6491559188
C 1.5142673159 1.8247561852 1.3058489390
C 2.8416427225 1.4504642573 1.9891703745
O 2.7007543894 0.4567655380 2.9527567381
O 3.3602340342 2.6188867847 2.6328569639
C 3.7134187716 3.6515519267 1.6999255436
C 4.3955415544 4.7487973266 2.4979943406
O 3.5330511258 5.3488017034 3.4665573331
C 2.4526932083 4.1196779000 0.9749353676
O 2.8403367758 5.1021541311 0.0180597744
C 1.7705315855 2.9388864122 0.2881215010
O 0.5835143799 3.3534194426 -0.3874151329
C -0.1525564781 -2.4108963342 0.1741065407
I 1.7101783832 -2.9673003189 1.0053860033
C -0.8498078562 -3.3412232102 -0.6061146481
N -0.3088212049 -4.6154554736 -0.8761973737
C 0.6190747911 -4.8062985966 -1.8672099910
C 1.1047365186 -6.2209505451 -2.0303338938
O 1.0439054794 -3.8714777631 -2.5410748753
C -2.0954003494 -2.9662126385 -1.1218976808
I -3.1592298935 -4.3285517027 -2.3301619296
H -5.7007211809 -2.4584489642 -1.0127302601
H -5.7350214218 -0.7564309081 -0.4635803950
H -4.7778928355 -1.9565682606 0.4210603399
H -5.8032650718 0.3352657188 -2.5141414145
H -5.2466426048 -0.0549110758 -4.1618517699
H -6.0027363070 -1.3055932444 -3.1351496157
H 0.9493637471 0.6098784450 -0.3571884885
H 0.8329902430 2.1907056176 2.0889589178
H 3.5736597004 1.1022906733 1.2414507188
H 1.7730783127 0.4230600827 3.2418212678
H 4.4320120936 3.2634907904 0.9572912400
H 5.2908722189 4.3269588131 2.9761832893
H 4.7075350353 5.5447680387 1.8170003247
H 3.2668992437 4.6558721907 4.0849764988
H 1.7574840206 4.5484131460 1.7152890347
H 2.0582259009 5.2998158085 -0.5158449152
H 2.4349750995 2.5609411192 -0.5017132641
H -0.0603685158 3.6397812734 0.2774822982
H -0.7136176862 -5.4154483902 -0.4085483336
H 2.0665465064 -6.3098516732 -1.5128137262
H 0.4176524487 -6.9611144410 -1.6154714138
H 1.2717451540 -6.4175896128 -3.0907251952
