45
CONF43
C 3.0180648718 0.7148938566 -3.8198754338
C 3.1657585407 1.9214812188 -2.8926253989
C 2.3365021501 1.8085515935 -1.6096627905
C 2.7695987352 0.6602017479 -0.6979947861
C 2.0015625908 0.5938300536 0.6240157311
C 0.4858866464 0.3560333723 0.4764615405
C -0.1785771929 0.2435917581 1.8590448613
C -1.6989456314 0.1126199262 1.8036102481
C -2.3324954100 0.0553349607 3.1936154346
C -3.8424804237 -0.2005204159 3.1844718236
C -4.6495085068 0.8990379367 2.4948482070
C 0.1898934461 -0.8517409152 -0.3866580598
C 0.6401892236 -2.1243884585 -0.0208220477
C 0.3747611721 -3.2332216877 -0.8159340497
C -0.3484754425 -3.0921972019 -1.9979477133
C -0.8048618135 -1.8335347708 -2.3729429625
C -0.5362617826 -0.7265932507 -1.5719297870
H 1.9624076300 0.5248583569 -4.0454019840
H 3.4259506885 -0.1953158260 -3.3708310792
H 3.5414760765 0.8781678608 -4.7669161597
H 4.2235733912 2.0591907483 -2.6311110872
H 2.8615404846 2.8276479353 -3.4309547052
H 2.4011231715 2.7522445509 -1.0503759070
H 1.2818958998 1.6829657140 -1.8880498385
H 2.6506245153 -0.2955242037 -1.2217950207
H 3.8412468146 0.7652036804 -0.4807234087
H 2.1488980656 1.5268365430 1.1849867013
H 2.4238737264 -0.2080953396 1.2440430847
H 0.0491173789 1.2301238405 -0.0248158953
H 0.2444362815 -0.6180379939 2.3939792439
H 0.0909636275 1.1321023728 2.4468669156
H -2.1079431831 0.9595014995 1.2370332438
H -1.9670899069 -0.7924558099 1.2421075746
H -2.1282786973 0.9950786217 3.7265335570
H -1.8410153803 -0.7384621040 3.7721410343
H -4.1885635846 -0.3044546187 4.2202916745
H -4.0417986190 -1.1632186710 2.6953994482
H -5.7245804728 0.7203267505 2.5935994832
H -4.4236295867 0.9567779560 1.4259017605
H -4.4312366287 1.8786781161 2.9352554374
H 1.2081663512 -2.2507701704 0.8966542074
H 0.7344510726 -4.2120404706 -0.5137150964
H -0.5545177421 -3.9574101294 -2.6196922473
H -1.3718789494 -1.7109240401 -3.2906381372
H -0.8998225821 0.2536262182 -1.8695728239
