40
CONF1
C -1.9525768981 -0.4271844810 2.3855081185
Si -2.0165674218 -0.1134215277 0.5513874922
C -3.7503287611 -0.0081997332 -0.1131886067
O -1.2319767085 1.3147752306 0.2658513944
Si -0.2624687420 1.9203354800 -0.9284984844
C 0.0219781048 3.7193920451 -0.5523411919
C -1.0319649348 1.6365292649 -2.6001264060
O 1.1840299088 1.1171896999 -0.9081172121
Si 2.0726415962 0.2977781174 0.2196084470
C 3.7208028045 -0.0907960205 -0.5499584372
C 2.2164838696 1.2916588822 1.7876374410
O 1.2946365849 -1.1130116238 0.5958291626
Si 0.2058374098 -2.1067511307 -0.1525874492
C 0.7661883841 -2.5033850938 -1.8832275339
C 0.0093622706 -3.6166623730 0.9153747399
O -1.2471078294 -1.3243196822 -0.2700452796
H -2.4584186454 -1.3650750167 2.6393914518
H -0.9139117070 -0.4953244788 2.7283055321
H -2.4406121941 0.3838395695 2.9369723552
H -3.7373778315 0.1710860148 -1.1940476301
H -4.2999246469 0.8114440243 0.3618481771
H -4.2976518143 -0.9387022622 0.0721949267
H -0.9199277883 4.2777429274 -0.5836307919
H 0.4584286261 3.8412964145 0.4451727060
H 0.7068967804 4.1650793066 -1.2815932405
H -1.1945850669 0.5666489748 -2.7729564803
H -0.3825536903 2.0153101668 -3.3969114552
H -1.9984792455 2.1463341254 -2.6765515634
H 4.2653410144 0.8284100464 -0.7914422775
H 3.5887884682 -0.6630264381 -1.4748906323
H 4.3385136888 -0.6838299518 0.1328969206
H 2.7223048813 2.2449565911 1.6001100665
H 1.2251760615 1.5056672108 2.2029390658
H 2.7903478836 0.7437317260 2.5430346080
H 0.0405378793 -3.1503519644 -2.3882471342
H 0.8740904737 -1.5869981296 -2.4744638905
H 1.7326069043 -3.0190553930 -1.8723348731
H -0.3141153858 -3.3350149232 1.9235646380
H 0.9552712476 -4.1624760839 1.0001295043
H -0.7397154512 -4.2956196274 0.4941090170
