53
CONF263
C -3.0718615345 -3.5152044424 -2.7553553640
O -2.9060499923 -2.4549885644 -1.7716794315
C -3.0385143246 -1.2110789764 -2.2336796419
O -3.2471864329 -0.9092074646 -3.3855917541
C -2.9517924841 -0.1843279100 -1.0827528784
C -4.2675237892 -0.2676454994 -0.2668097831
C -3.8930489041 -1.1569991919 0.8944997644
C -2.5000728731 -1.2702202493 1.0221276323
C -1.8897100926 -0.5053285306 -0.0494099152
N -0.7279700204 0.0421693043 0.0000568628
N -0.4211711618 0.9099421424 -1.0073780101
C -1.3779847408 1.1866487356 -2.0965049025
O -2.7078979390 1.1118262909 -1.6035274787
C 0.7538511358 1.6231703464 -0.9613265017
O 1.1470335468 2.2759591023 -1.9156698380
N 1.5114173983 1.4908497005 0.2334763602
C 2.9112936690 1.2523649877 0.1063023802
C 3.3563004711 0.2778642864 -0.7859544657
C 4.7179290114 0.0481179825 -0.9380791728
C 5.6062459656 0.7913828595 -0.1770626666
C 5.1824001623 1.7508946418 0.7296242676
C 3.8205226734 1.9913773714 0.8613686459
O 6.9886622967 0.5094001247 -0.2758861766
C 7.6749638657 1.2251593411 -1.1941279933
F 7.6461553666 2.5564019701 -0.9523458111
F 7.2084936983 1.0521110534 -2.4523880343
F 8.9496903622 0.8206556387 -1.1594506507
C 0.9355024429 1.5823639242 1.5064183224
O 1.4218391650 1.1023626496 2.5075692897
O -0.1798129611 2.3261885628 1.4622039089
C -0.9947261964 2.2731179158 2.6593108521
C -1.9261445500 -1.9780266091 2.0743315210
C -2.7626562507 -2.5974609304 2.9957690814
C -4.1454041906 -2.4868590553 2.8443212272
C -4.7370239770 -1.7697359802 1.8060444899
Cl -5.1855514706 -3.2840657040 4.0143562466
H -4.0724668103 -3.4629185946 -3.1893257350
H -2.3160547187 -3.4148249903 -3.5367962567
H -2.9366082690 -4.4413884638 -2.1998156799
H -4.5114453997 0.7420288865 0.0844088817
H -5.1130530362 -0.6406481240 -0.8503045254
H -1.2126431545 2.2040465985 -2.4497073797
H -1.2216270377 0.4702510750 -2.9137637226
H 2.6412693174 -0.3040874570 -1.3585500926
H 5.0844166812 -0.7074947145 -1.6234696287
H 5.9062959688 2.3083714633 1.3130742506
H 3.4679695833 2.7509144137 1.5499743448
H -1.2847795197 1.2385141323 2.8623756113
H -1.8706736057 2.8798370815 2.4344323714
H -0.4459309355 2.6856899135 3.5082641855
H -0.8483966898 -2.0574352822 2.1709348383
H -2.3509324410 -3.1681209247 3.8200379193
H -5.8155386649 -1.6919146360 1.7254299284
