40
CONF73
C 1.8639497857 3.5029480535 -1.0335087594
C 0.7739722050 2.4641293849 -0.9225272027
O 1.3415382930 1.1164756141 -1.0156615732
P 1.8053256407 0.2612533596 0.2489410350
S 1.6250284198 1.0121444371 2.0241806729
O 3.2976345031 -0.1840547247 -0.0705723401
C 3.6867478803 -0.6762561116 -1.4071717447
C 4.6299106347 0.3170834012 -2.0397779930
O 1.0624603724 -1.1923693741 -0.0201350769
C -0.2926535150 -1.3679029097 0.0191884267
N -1.0760151508 -0.3155278990 0.1620887125
C -2.3988933747 -0.5626911078 0.2084477547
N -2.9621842000 -1.7670119550 0.1063095913
C -2.1403417741 -2.8275405897 -0.0518287832
C -2.7874200143 -4.1704474436 -0.1658197770
C -0.7624107094 -2.6721754388 -0.0968906494
C -3.3063763548 0.6326419113 0.3655843499
C -3.3283522863 1.4433400949 -0.9386707800
C -2.8855281905 1.5068856606 1.5508996378
H 2.5638165432 3.4261214656 -0.1959633605
H 1.4109808443 4.4994444117 -1.0147445756
H 2.4153259302 3.3901489322 -1.9711063931
H 0.2192786400 2.5465392860 0.0163422071
H 0.0715568305 2.5180714334 -1.7571965808
H 2.7935758812 -0.8340420639 -2.0178773195
H 4.1655741955 -1.6416868403 -1.2268037359
H 5.5087383889 0.4740329117 -1.4085655726
H 4.1313069464 1.2765385302 -2.2026682273
H 4.9629887989 -0.0712030044 -3.0076284586
H -2.0489002533 -4.9615101066 -0.3057634113
H -3.4865075959 -4.1750081228 -1.0082658210
H -3.3702987830 -4.3783929714 0.7374461334
H -0.0847221843 -3.5090419856 -0.2120046762
H -2.3314185777 1.8392183308 -1.1572674255
H -3.6503313467 0.8275311399 -1.7843246767
H -4.0198411758 2.2860608462 -0.8411407918
H -3.6002527089 2.3258028010 1.6784435127
H -2.8539402093 0.9286743882 2.4797960997
H -4.3106394303 0.2368780588 0.5483241922
H -1.8940799877 1.9377517889 1.3815139842
