39
CONF24
C 4.6035466638 0.3936789209 -1.1871623752
C 3.3583465497 1.1649021650 -0.7541961950
C 2.0899093182 0.3258459838 -0.9043258620
C 0.8367920824 1.0532644907 -0.4422783808
C 0.6633836357 1.1058103459 1.0772609532
O -0.0565107755 -0.1018706126 1.3516938966
C -0.9712835251 -0.2359971482 0.2818057819
C -1.2396915682 -1.7290627101 0.0225520693
N -0.0227650271 -2.4635990124 -0.2461436406
C 0.9242665936 -2.8823435203 0.6260980674
N 1.9223905843 -3.4601956600 -0.0213813483
C 1.5255499673 -3.3595687382 -1.3220256717
N 0.3573571404 -2.7622338987 -1.5125881851
O -0.3397055978 0.3176217070 -0.8598008278
C -2.2869850492 0.5023462323 0.5641543003
C -3.0242381173 0.3591866300 1.7455087861
Cl -2.5081093689 -0.6975973230 3.0504904392
C -4.2130084240 1.0504136116 1.9591433807
C -4.6825456564 1.8963722705 0.9642239856
Cl -6.1760735825 2.7669137168 1.2281644714
C -3.9911588720 2.0592003158 -0.2282362427
C -2.8063334874 1.3591539871 -0.4094984577
H 4.7243000356 -0.5153876459 -0.5891143603
H 4.5290583783 0.0913792807 -2.2369248877
H 5.5084637015 0.9977354454 -1.0738204307
H 3.2631600053 2.0826751824 -1.3498361456
H 3.4762398584 1.4862446791 0.2894929737
H 2.1857751840 -0.6090702058 -0.3374692606
H 1.9510084813 0.0433990683 -1.9542632898
H 0.7805636943 2.0543407009 -0.8899208297
H 0.0797837119 1.9812302413 1.3965062515
H 1.6044384186 1.0646091368 1.6289923218
H -1.7463653607 -2.1640714428 0.8873665350
H -1.8855319798 -1.8152616399 -0.8537107983
H 0.8369942684 -2.7398634240 1.6943860516
H 2.1070131980 -3.7405934727 -2.1512173096
H -4.7589742201 0.9268146745 2.8856992077
H -4.3705574091 2.7198160496 -0.9983282182
H -2.2485032224 1.4737623964 -1.3312968616
