44
CONF80
C -5.4504892126 0.1636046662 1.2870543045
C -3.9773178296 0.0369508698 1.6196575093
C -3.4397154457 -1.3905141711 1.5385778584
O -3.0291136754 -1.4889623918 0.1619291262
C -2.4506336244 -0.2351601052 -0.1365783629
O -3.1876736999 0.7288263230 0.6098315958
C -2.6791657513 0.0596570125 -1.6335438338
N -1.7748182796 -0.6875473809 -2.4870363181
C -0.5989638087 -0.2792719961 -3.0068316505
N 0.0105731395 -1.2890835923 -3.6154064831
C -0.8581444004 -2.3218052975 -3.4206577617
N -1.9520638048 -2.0087516197 -2.7378140460
C -0.9597712801 -0.2218350548 0.2212311212
C -0.3057964539 -1.4399183740 0.4336887122
C 1.0578842304 -1.5207273170 0.6704823190
C 1.8078889561 -0.3507248522 0.6925074995
C 1.2016442580 0.8858422278 0.4937335349
C -0.1662063758 0.9290853060 0.2539573957
Cl -0.8415607075 2.5319771830 -0.0379856726
O 3.1491179528 -0.4681925851 0.9800703681
C 4.0410181597 0.4238028255 0.4054591630
C 3.9990822891 0.7181970805 -0.9550448774
C 4.9604638187 1.5611831453 -1.5004936950
C 5.9496553128 2.0839055029 -0.6743630417
C 6.0026617835 1.7841083023 0.6812061426
C 5.0332343007 0.9474203961 1.2254532088
Cl 7.1674890704 3.1513296091 -1.3661539336
H -6.0512152984 -0.2912738177 2.0813060230
H -5.6731984103 -0.3408603736 0.3412561574
H -5.7325995445 1.2166369479 1.2013808665
H -3.7492796159 0.4956978507 2.5875747064
H -2.5811805451 -1.5411894291 2.2059469383
H -4.1973420455 -2.1550152480 1.7182474173
H -3.7132410483 -0.1903420682 -1.8829551116
H -2.5070524763 1.1223308699 -1.8140663599
H -0.2461888597 0.7410741098 -2.9246435402
H -0.6883657390 -3.3237924873 -3.7945441078
H -0.8929088352 -2.3501308825 0.3939526529
H 1.5444281374 -2.4769782467 0.8270187959
H 1.7825907495 1.8000295230 0.5195343734
H 3.2263750367 0.2931021526 -1.5870500540
H 4.9417520263 1.7980616270 -2.5581493317
H 6.7818389664 2.2000130110 1.3095467956
H 5.0463075745 0.6992409344 2.2811911725
