43
CONF121
C 5.6890857495 -0.8794952652 -1.2010287835
O 4.9018120675 -1.2723272611 -0.0688892676
C 3.7593072449 -0.5711384148 0.1756586027
C 3.3208228144 0.4939679895 -0.6085560724
C 2.1235015329 1.0863118128 -0.2080909289
C 1.3811601667 0.6614502954 0.9173324274
C 1.8502911030 -0.4071880810 1.6888869980
C 3.0321047683 -1.0121147828 1.3081129097
N 0.2428948018 1.4428469415 1.0659429692
C 0.2992340438 2.2814204589 0.0595169219
N 1.4028328272 2.1344218038 -0.7369833881
S -0.9245383224 3.5624495165 -0.2830646542
O -0.2063587526 4.5753770073 -1.1729904894
C -2.0033164845 2.5349648001 -1.4453014314
C -2.5571597609 1.3566649057 -0.7148367841
N -3.4958491663 1.6529846331 0.1982086269
C -3.9961390817 0.6597860413 0.9368017600
C -3.5886108559 -0.6685946474 0.8389474284
C -4.1778683575 -1.7453430466 1.6973719915
C -2.6022817161 -0.9498233290 -0.1116236088
O -2.1899044185 -2.2534626423 -0.2500873725
C -0.9181621727 -2.5215273357 0.3828333533
C -2.0743783248 0.0545045776 -0.9321521085
C -1.0658552229 -0.2721534558 -1.9958760248
H 5.1174141874 -0.9844539605 -2.1306400942
H 6.0375706516 0.1546390135 -1.0955421329
H 6.5436838515 -1.5560679970 -1.2162515607
H 3.8591613658 0.8484060495 -1.4777191467
H 1.2993264837 -0.7535198110 2.5570198342
H 3.4330358427 -1.8471706436 1.8729639443
H 1.6262194542 2.6970515001 -1.5462054373
H -2.7864053276 3.2411979267 -1.7356525480
H -1.3635251651 2.2959040976 -2.2961123682
H -4.7633926016 0.9311317825 1.6615514936
H -4.6647091523 -2.5100524877 1.0835133246
H -4.9167339310 -1.3258379535 2.3837523553
H -3.4044876798 -2.2514426100 2.2839940541
H -0.7085894877 -3.5786617093 0.2130948992
H -0.1224578529 -1.9093188663 -0.0558332502
H -0.9798975159 -2.3199259046 1.4586527733
H -1.0428357288 -1.3468166784 -2.1821370018
H -1.3096991235 0.2296246452 -2.9359005037
H -0.0563040559 0.0413316723 -1.7069544226
