40
CONF35
C -5.0942750651 -0.5739260626 3.2905495712
N -4.6411330650 0.7863566739 2.9733543606
C -3.3188068350 0.8066696393 2.3317725869
C -3.4014245100 0.3983465382 0.8615468183
C -2.0614642759 0.5069369478 0.1418508897
O -1.1961756954 -0.4725145973 0.7655679159
C 0.1328821475 -0.4490677140 0.4904884435
C 0.8854631970 -1.4666967420 1.0920617942
C 2.2532993561 -1.5300320127 0.8961444653
C 2.8895297270 -0.5749562302 0.0983609008
C 2.1411568747 0.4314551861 -0.5065670484
C 0.7658037492 0.5026053418 -0.3169826163
C 4.3571747789 -0.6672103948 -0.1539567968
F 4.9283650830 0.5482965013 -0.3474211312
F 4.6491147036 -1.4016297699 -1.2697212577
F 5.0230366542 -1.2602356250 0.8684675140
C -2.2049729883 0.2525530248 -1.3411849811
C -2.2219298761 -1.0487527033 -1.8456236952
C -2.4056689915 -1.2701591835 -3.2079425748
C -2.5796649802 -0.1943982294 -4.0764198584
C -2.5656523212 1.1060647621 -3.5762785064
C -2.3753962432 1.3274021194 -2.2149505076
H -6.0071450578 -0.5210527657 3.8916917771
H -4.3441889862 -1.1644109960 3.8465425238
H -5.3354944959 -1.1183508838 2.3718623008
H -2.5962323975 0.1547691217 2.8544224336
H -2.9328158952 1.8326379951 2.3866880375
H -3.7640973277 -0.6305071564 0.7499130593
H -4.1126823026 1.0519934628 0.3439541816
H -1.6417538509 1.5090647212 0.3101189597
H 0.3783950589 -2.1966451448 1.7139927955
H 2.8266504396 -2.3207248710 1.3676727625
H 2.6269483414 1.1723936433 -1.1325859982
H 0.2074991847 1.2915960757 -0.8036570636
H -2.0830619051 -1.8882121356 -1.1710733086
H -2.4123737826 -2.2856128291 -3.5921355489
H -2.7210807017 -0.3686160184 -5.1384720678
H -2.6947421849 1.9493805615 -4.2477132546
H -2.3545336491 2.3429203917 -1.8269942531
H -4.5678931547 1.3004098416 3.8447945615
