51
CONF88
C -0.1891130485 -1.4971876647 1.5519393939
C -0.7210751979 -0.1003946278 1.3978280185
C -1.8048743163 0.1400007683 0.6393939227
C -2.3990656233 1.4586141253 0.3701123496
C -2.5520698244 1.9548486534 -1.1068299808
C -3.7595033719 1.6531896079 -0.2451419602
C -4.6699322458 0.4774057894 -0.5243255592
C -4.5188710993 2.8849649589 0.2090574909
C -2.0154185234 1.0696718675 -2.1527957452
O -2.3621186603 -0.0673110631 -2.4150884947
O -0.9850395494 1.6893342556 -2.7908074128
C -0.2117816398 0.8458037728 -3.7052665817
C 0.7577259035 0.0000616745 -2.9569340542
C 2.0302403049 0.4051508897 -2.4268607906
C 2.5758579831 -0.6865606182 -1.8260894858
O 1.7119209891 -1.7509996254 -1.9405459241
C 0.6146688520 -1.3127485948 -2.6272290020
C 3.8709676939 -0.9469997200 -1.1413588441
C 3.7094727013 -1.3379494566 0.3139390633
C 3.5901285631 -2.6801068144 0.6827036889
C 3.4242856048 -3.0358990927 2.0194551173
C 3.3798012167 -2.0520042177 3.0051247819
C 3.4992277330 -0.7112240044 2.6454959344
C 3.6608634019 -0.3578703646 1.3080242901
C 0.0731758853 0.9476469792 2.1212251650
H 0.8462134246 -1.5521418691 1.1892261577
H -0.7909102637 -2.2256770133 1.0017294694
H -0.1595907067 -1.7910418003 2.6092231587
H -2.2675170463 -0.7124935330 0.1496750431
H -2.0779894763 2.2631187344 1.0243722792
H -2.3002575583 3.0012795816 -1.2469672456
H -4.1360325725 -0.4163785381 -0.8395895171
H -5.2438418706 0.2484291676 0.3806913619
H -5.3808847149 0.7412792953 -1.3149638627
H -5.2347398183 3.1963589547 -0.5598862468
H -5.0770118719 2.6657237411 1.1260549454
H -3.8430677192 3.7215903638 0.4097354750
H 0.3040141648 1.5607021406 -4.3486322977
H -0.8964756665 0.2387431660 -4.3005892559
H 2.4840126313 1.3831287729 -2.5029310244
H -0.1656953326 -2.0385929325 -2.7958792466
H 4.4680162370 -0.0341068605 -1.2201156164
H 4.4087603374 -1.7413270352 -1.6738671598
H 3.6331484725 -3.4507668607 -0.0821882299
H 3.3346250930 -4.0833681836 2.2914606293
H 3.2544744495 -2.3284758214 4.0474364442
H 3.4669153693 0.0618159749 3.4074497698
H 3.7540050964 0.6892134260 1.0309336445
H 0.1564970262 0.6929715901 3.1853334602
H -0.3449590413 1.9515334292 2.0373195004
H 1.0988176142 0.9690443297 1.7316481778
