47
CONF106
C -3.5468728280 -3.4907881041 0.3120465418
C -3.0838303289 -2.8497969293 -1.0003666361
C -2.8957220870 -3.9379549795 -2.0647338498
C -1.7919712752 -2.0118454027 -0.8791466091
C -0.7146812546 -2.5298903845 0.0786907582
C 0.3300395904 -1.4077925970 0.0724423747
C -0.4670298420 -0.0919595039 -0.1568431111
C -0.3288929840 0.9006916198 1.0111932999
C 1.0722982765 1.4439108888 1.1218086570
C 1.9331436688 1.0345487984 2.1421595323
C 3.2378423168 1.5164001809 2.2276092846
C 3.6759279304 2.4241146216 1.2737442412
Cl 5.3237923869 3.0464521237 1.3688259789
C 2.8458777100 2.8594460976 0.2468741490
C 1.5486827377 2.3628745351 0.1805330870
C -1.9373023130 -0.5338339934 -0.4520474742
O -2.7688754175 -0.5055483172 0.7157527682
C -2.6006597170 0.2825247517 -1.5749442465
N -2.7196839603 1.7025069750 -1.2658015799
C -3.6971037409 2.3344717885 -0.5838994443
N -3.4048333183 3.6239306898 -0.4462683332
C -2.2049171705 3.7255279757 -1.0813859676
N -1.7477939227 2.5890977147 -1.5947813023
H -2.8276915099 -4.2444858802 0.6518073287
H -3.6721504372 -2.7530255132 1.1067185724
H -4.5053179532 -3.9977403323 0.1563988008
H -3.8876792235 -2.1857634873 -1.3464695525
H -3.8017619942 -4.5444511323 -2.1674444738
H -2.6622084098 -3.5034565895 -3.0424862895
H -2.0741097269 -4.6087010824 -1.7864271430
H -1.3360493633 -1.9687454768 -1.8803498410
H -1.1385318259 -2.6487584070 1.0809972929
H -0.3036707817 -3.4960689979 -0.2293881852
H 1.0411671749 -1.5606032947 -0.7459202445
H 0.9087938823 -1.3742268753 1.0002529415
H -0.0914990645 0.4074402464 -1.0563668558
H -0.5992031390 0.4014531763 1.9484570150
H -1.0153632427 1.7462691099 0.8714018179
H 1.5833677962 0.3281771851 2.8896369792
H 3.8970757141 1.1913123013 3.0246306677
H 3.2038482927 3.5745590113 -0.4853093396
H 0.8930350270 2.7007918380 -0.6175027001
H -3.6116695103 -0.0956259601 -1.7496938190
H -2.0222189116 0.1950924511 -2.4980142844
H -4.5853715206 1.8270958410 -0.2299664989
H -1.6558730997 4.6539234955 -1.1776875306
H -2.7203392681 0.3703806593 1.1199395804
