43
CONF6
C -0.6780958647 2.5559361177 0.3549413270
C 0.4984474912 1.8263050962 1.0008870518
C 0.9965782309 2.5747187961 2.2370447195
C 0.1263968049 0.3795829059 1.4007203415
C -0.2238571087 -0.4981999230 0.2313193041
C 0.7853919026 -1.0364085454 -0.5972733018
C 0.4023489646 -1.8710042710 -1.6536293508
N -0.8627099208 -2.1424502668 -1.9509372504
C -1.8197534895 -1.5933040174 -1.2123862363
C -1.5563244840 -0.7841153923 -0.1030827043
C -2.6840281730 -0.2808832532 0.7515596883
O -2.8561237585 -0.5977844182 1.9044548693
O -3.4642621372 0.5607603613 0.0578111139
C -4.6413070159 1.0191908059 0.7627122661
C -3.2117753862 -1.9713278794 -1.6751647016
F -3.7489363974 -0.9738770462 -2.4465503244
F -4.0526135367 -2.1606171358 -0.6060688277
C 1.3970653902 -2.5763332752 -2.5737119471
F 2.5764760335 -2.8214884116 -1.9610787891
F 0.9168819186 -3.7570554378 -2.9928502052
F 1.6517501724 -1.8282936788 -3.6714138749
C 2.2095719470 -0.7096276268 -0.3360486333
N 2.8433133163 -1.1036591166 0.6895079019
C 4.1906752556 -0.5396327923 0.7497541587
C 4.6361435747 -0.0956742049 -0.6549009453
S 3.0721758142 0.3528448308 -1.5114217474
H -0.3891303960 3.5709693123 0.0652525964
H -1.0378428332 2.0424430133 -0.5419282086
H -1.5173682801 2.6344393813 1.0571145758
H 1.3178086462 1.7810209302 0.2724601725
H 1.2887004784 3.5977908079 1.9804391470
H 1.8622918683 2.0751627504 2.6843983642
H 0.2104530407 2.6309159398 2.9991262462
H -0.7114617768 0.4086551768 2.1011280050
H 0.9720933489 -0.0714180367 1.9256643331
H -5.1580988631 1.6740006430 0.0626318017
H -5.2661080939 0.1644004767 1.0326714688
H -4.3531191488 1.5609603915 1.6670412290
H -3.1842079019 -2.8909376976 -2.2691975316
H 4.1606610832 0.3167798687 1.4407794183
H 4.8852080030 -1.2758644470 1.1667597710
H 5.1092937377 -0.9121518622 -1.2090173095
H 5.3073975485 0.7652306223 -0.6295176750
