50
CONF339
C 0.5121028974 -0.4557150471 -0.1968216140
S 0.3126851354 1.2978159637 0.2764059743
C 1.8995052096 1.2932215820 1.2109306157
C 2.0299620057 0.2052436596 2.2485795755
C 2.9352720316 0.5339674722 3.3889118535
S 4.6701272852 0.9126775226 2.8170264657
C 5.1581513033 -0.6962754113 2.3481838622
N 4.5705085369 -1.8544625166 2.6364222454
N 5.3459594191 -2.8043362424 2.0560499768
N 6.3594208742 -2.2827362470 1.4480349003
N 6.2621144485 -0.9446879999 1.6094736879
C 7.2370457361 -0.0138555288 1.0592671773
C 1.4204746120 -0.9970369853 2.1262902219
N 0.6436510128 -1.2887587050 1.0022629385
C -0.6196157025 -1.8652904123 0.8774881633
O -1.2852522618 -2.5405090196 1.6199141559
C -0.8105157838 -1.2257681411 -0.5157444156
N -2.0278358873 -0.4982187345 -0.7002513462
C -2.5921134588 -0.3445920716 -1.9246579091
O -2.1204982666 -0.7887005127 -2.9643599551
C -3.8801100026 0.4544671880 -1.9232625539
N -5.0305183495 -0.1118568636 -1.7831514186
O -4.8918701689 -1.4842227501 -1.5800342389
C -6.1930264422 -2.0740049108 -1.4219420338
C -3.7867766504 1.8862225735 -2.1396355398
C -2.5913374900 2.5362724111 -2.3090210500
S -2.8629772483 4.2351646821 -2.5341508793
C -4.6110395198 3.9238465378 -2.3817535735
N -5.5009420826 4.9503983169 -2.4070750728
N -4.9219837937 2.6732870914 -2.1820912506
C 1.5229499744 -2.0982386279 3.1304037598
O 1.5554544760 -3.2990919459 2.5295028341
O 1.5569398237 -1.9405437395 4.3326738787
H 1.3378140217 -0.5765074915 -0.9031579637
H 2.7246225575 1.2385683130 0.4914094341
H 1.9638460721 2.2698397040 1.7014338857
H 2.6289482071 1.4717091680 3.8648848912
H 2.9907197358 -0.2472489461 4.1423704420
H 7.9308050914 -0.5827579851 0.4407762714
H 7.7797886464 0.4792308318 1.8703233831
H 6.7213701053 0.7332965784 0.4500011786
H -0.6754754181 -1.9317711704 -1.3400768968
H -2.4767845942 -0.0723384211 0.0991622473
H -6.7958107169 -1.9218055408 -2.3229268276
H -6.7027600919 -1.6529613813 -0.5494065839
H -6.0070464020 -3.1385385801 -1.2701677455
H -1.5908702055 2.1257739587 -2.3251677936
H -6.4657191543 4.6848714465 -2.5459179958
H -5.2259168026 5.8078515988 -2.8611721900
H 1.5965567461 -3.9808946069 3.2223865351
