37
CONF9
C 5.5910018149 -2.3360459780 1.9635457018
C 4.6246582568 -2.7002563697 0.8572379258
C 5.3076972399 -3.0727439278 -0.4449588404
O 3.8083692991 -1.4895686116 0.6345255591
C 2.6013976758 -1.6539293647 0.0909004696
O 2.0861336369 -2.7267943320 -0.1617575926
C 1.8894397955 -0.3571785254 -0.1202933747
C 2.4589661083 0.8192496538 -0.6237846066
C 1.6958591564 1.9685603014 -0.7907105471
C 0.3598249131 1.9341472474 -0.4372353590
C -0.2678263917 0.7868124505 0.0509445969
C 0.5273778431 -0.3492654637 0.1870463003
C -1.6875302382 0.7696649174 0.4076713210
N -2.6224898646 1.2445958924 -0.4287038666
N -3.7949164613 1.0843245559 0.1860445934
C -3.6573594260 0.5037398198 1.4094248302
C -2.2964064432 0.2900942235 1.5855591236
Br -1.4053986725 -0.3825359070 3.0983341497
C -4.8290586723 0.2490469391 2.2940786172
F -5.3597250405 1.4046092820 2.7745255188
F -4.4998415990 -0.5102275889 3.3510096991
F -5.8287649566 -0.3852729242 1.6314093663
C -5.0262409944 1.4645863640 -0.5031676002
F -0.3486531505 3.0693912801 -0.5672848764
Cl 4.1247336540 0.8971147228 -1.1509063062
H 5.0550334213 -2.0454821406 2.8709557595
H 6.2178489722 -3.2024257233 2.1928349164
H 6.2396402249 -1.5111722902 1.6525957937
H 3.9442638985 -3.4942486223 1.1787936755
H 5.9166773444 -3.9683851734 -0.2897565323
H 5.9619007694 -2.2600104820 -0.7755152932
H 4.5755389129 -3.2855968314 -1.2280259867
H 2.1258927538 2.8801063427 -1.1882087077
H 0.0796236294 -1.2710083680 0.5411797270
H -5.5165450018 0.5803351475 -0.9186794337
H -4.7476309998 2.1466974687 -1.3058198377
H -5.6997805990 1.9706585956 0.1908014620
