27
CONF252
C -3.1095835395 0.5666238096 -0.5694764659
C -4.6106499438 0.7923948633 -0.4323390574
O -5.2584467848 0.3753708034 -1.6391986779
C -2.6907743225 -0.8695233542 -0.3697422252
C -1.1752282880 -1.1747660872 -0.6116815667
C -0.1672500931 -0.2863236263 0.1882683880
C 1.2821401888 -0.8829343276 0.2581462607
C 2.3701194713 0.1803859979 0.6362343274
C 3.7139960457 -0.4374681321 1.1454202155
F 4.6330809644 0.5346484201 1.2208123452
F 4.1465992039 -1.3788386985 0.2951034096
F 3.5648809887 -0.9765121913 2.3598052260
F 1.8956738055 0.9865573371 1.6140473654
F 2.6506108482 0.9257051599 -0.4542032389
F 1.2990599978 -1.8684396716 1.1844820081
F 1.6071134852 -1.4074593774 -0.9454725709
F -0.1040172453 0.9305198532 -0.4080550715
F -0.6188962917 -0.1264171274 1.4533058398
F -0.9466845386 -2.4753126915 -0.2896166158
F -0.9230434250 -1.0102324377 -1.9344238834
F -3.3490064865 -1.7157412285 -1.2262500587
F -2.9969687460 -1.2974211202 0.8965376045
H -2.7690518863 0.9054552314 -1.5533595294
H -2.5976739072 1.1686440549 0.1871881677
H -5.0028080334 0.2461239362 0.4364797272
H -4.7708019195 1.8646526042 -0.2598527993
H -6.2041257495 0.5322133027 -1.5278167877
