46
CONF80
C -0.5211356437 2.8764484681 0.4985111030
C -1.8601872687 2.2873511506 0.0606174453
C -1.8257189447 1.8138097888 -1.3923162659
C -3.1085836503 1.1484281171 -1.8550741329
O -3.3679511535 -0.0799570551 -1.0947228438
C -2.7010837202 -1.1722277665 -1.4816985126
O -1.9327841056 -1.2320548066 -2.4179825281
C -3.0699156363 -2.3762450201 -0.6106268085
C -4.1311322825 -3.2088719978 -1.3095899022
O -1.9187974337 -3.2134463212 -0.4473969918
C -0.8238480441 -2.6657025944 0.1685522717
C 0.3678710833 -3.3843550343 0.0434870593
C 1.5344932419 -2.9033415433 0.6224123403
C 1.4979135164 -1.7071316377 1.3264598983
C 0.3199830651 -0.9930937715 1.4772398706
C -0.8498239251 -1.4712384502 0.8933958320
O 2.6722120926 -1.2670239010 1.9507170681
C 3.2305567452 -0.1064019207 1.5214362543
C 4.2259685309 0.4413205175 2.3428981050
C 4.8864190247 1.6023889194 2.0219578653
C 4.5447497242 2.2567661078 0.8265601427
C 3.5581534278 1.7243365962 -0.0133463384
C 2.9075326362 0.5499495460 0.3330562602
C 5.2093801958 3.4593243614 0.4708143939
N 5.7514022145 4.4415277482 0.1778938644
F 4.5352667510 -0.2056039898 3.4841711581
H 0.2752410494 2.1278206832 0.4160874847
H -0.2425979651 3.7304280562 -0.1291806534
H -0.5551837314 3.2171788472 1.5379481703
H -2.1199404322 1.4467388713 0.7146869022
H -2.6564738763 3.0335747689 0.1784603985
H -1.6520313062 2.6715394596 -2.0556906254
H -0.9848914198 1.1255538347 -1.5435200900
H -3.9815518334 1.7724290853 -1.6498666571
H -3.0758206713 0.8965451736 -2.9179149549
H -3.4391499965 -2.0335819125 0.3628088117
H -4.3812928295 -4.0750258787 -0.6921315386
H -5.0334825242 -2.6095503534 -1.4561320309
H -3.7651767042 -3.5496679268 -2.2818495382
H 0.3710607329 -4.3118646251 -0.5192335691
H 2.4691606019 -3.4450738713 0.5238397082
H 0.3088223986 -0.0667842205 2.0430140409
H -1.7642893484 -0.9073701438 1.0270378479
H 5.6470205643 1.9943432602 2.6873089013
H 3.3038305240 2.2299724560 -0.9376840270
H 2.1458066171 0.1378388139 -0.3183924870
