49
CONF13
C -1.9633075074 -2.4567691102 -4.0555479495
C -2.5542286132 -1.9370742701 -2.7653303818
O -1.4603997920 -1.4638386501 -1.9548684537
C -1.7443760767 -0.9356965451 -0.7271154364
C -0.6241356203 -0.4859917924 -0.0041428885
C -0.8388836255 0.0777529954 1.2433373661
C -2.1249611890 0.1942982381 1.7787741268
C -3.2362730364 -0.2557119182 1.0683338351
C -3.0261383736 -0.8244043041 -0.1986743258
C -4.6664229265 -0.1565757597 1.6065973913
C -5.5189826884 0.6902441259 0.6420962297
C -5.2702890093 -1.5704481855 1.7124393424
C -4.7203901908 0.4951293896 2.9935778739
C 0.7382437375 -0.6298272939 -0.6369631259
C 0.9293643844 0.2740985628 -1.8901645567
O 2.1298735919 1.0510585210 -1.5801400641
C 2.5058313484 0.6596183377 -0.3340080972
N 1.8311580167 -0.2361092944 0.2706999139
C 3.7038887722 1.3277072803 0.1976656275
C 3.8321539653 2.7183699529 0.2082380494
C 4.9433156472 3.3747498124 0.7041946849
C 5.9893162098 2.6100819982 1.2126547953
C 5.9187835433 1.2204465110 1.2262110229
C 4.7824713012 0.6125517374 0.7229029773
F 4.7266736798 -0.7331607682 0.7149710677
F 2.8037477650 3.4553906970 -0.2589819063
H -2.7657014643 -2.8245202428 -4.7014633700
H -1.4294580737 -1.6622401907 -4.5848471750
H -1.2701665947 -3.2802839778 -3.8615067939
H -3.2513555727 -1.1095888084 -2.9534083772
H -3.0899275414 -2.7295070949 -2.2258956418
H 0.0149490690 0.4317347138 1.8116460982
H -2.2388570049 0.6417284387 2.7584053382
H -5.5650016557 0.2421688878 -0.3548526305
H -6.2924731976 -1.5118080628 2.1026769593
H -4.6770027121 -2.1931037336 2.3905695060
H -5.3079928837 -2.0662870203 0.7379325893
H -4.3258159685 1.5162874325 2.9743450476
H -5.7615536169 0.5432442523 3.3280244039
H -4.1560161310 -0.0821886828 3.7332142360
H 0.8824140193 -1.6828524297 -0.9126365095
H 1.1225341664 -0.2884628801 -2.8048795909
H 0.1053925666 0.9759770212 -2.0414717730
H 4.9764053475 4.4579058204 0.6946447723
H 6.8709870953 3.1044703537 1.6054976186
H 6.7266661445 0.6097227054 1.6119248612
H -5.1039205768 1.6991500556 0.5452561052
H -6.5425495834 0.7726038968 1.0240403317
H -3.8748317920 -1.1787776476 -0.7697401548
