44
CONF4
C 3.3818744182 -2.4504749121 -1.2090938300
C 2.8086822183 -1.0787571806 -0.8644600770
C 3.7699016215 -0.1893444276 0.0107179967
N 2.9234729736 0.6708982443 0.8102216358
C 1.6750922121 0.0885123081 1.3300123671
S 1.2822488157 -1.3187778794 0.2122926475
C 0.9870897445 1.4817460108 1.1057415955
C 2.3222373150 1.8591742459 0.4080186459
O 2.7244186317 2.7807037175 -0.2611452948
N -0.1840965978 1.5421127707 0.2996306890
C -1.3365146148 2.1357756192 0.6949401883
O -1.4715144341 2.7542630315 1.7497407959
C -2.5206472887 1.9326340148 -0.2664404982
C -3.3879713413 0.8329240785 0.3143982006
C -4.5816134695 1.1414433526 0.9695245174
C -5.3670166913 0.1455086535 1.5384058163
C -4.9588204109 -1.1859122424 1.4546785974
C -3.7676581835 -1.5127011469 0.8018935986
C -2.9907779970 -0.5052673795 0.2420117157
O -5.7640440547 -2.1294517923 2.0261655739
N -2.0631035880 1.5775978764 -1.6163978441
C 4.6636820681 -1.0205843359 0.9171764234
O 5.8342910304 -1.2977211802 0.3225653556
O 4.3536812453 -1.3982996371 2.0252409200
C 2.4356035785 -0.3249673138 -2.1413431260
H 4.2817265427 -2.3265789000 -1.8199825519
H 2.6530764501 -3.0187110234 -1.7935368231
H 3.6332356345 -3.0290543312 -0.3162817001
H 4.3916224162 0.4206573531 -0.6518202795
H 1.7186115982 -0.2603161517 2.3627777113
H -0.2157961922 1.0455173209 -0.5852395721
H -3.0890653303 2.8729412352 -0.2239983019
H -4.9062593112 2.1762135303 1.0332723070
H -6.2969240023 0.3880400566 2.0427198739
H -3.4515785290 -2.5507104952 0.7367850043
H -2.0636171264 -0.7681634189 -0.2585141496
H -5.3709780414 -3.0045282243 1.9049945877
H -2.8562781603 1.2514171904 -2.1586554860
H -1.7125035701 2.4070558911 -2.0862626038
H 1.6856577861 -0.8905195266 -2.7005899234
H 2.0249899562 0.6655750181 -1.9305604740
H 3.3258726533 -0.2072474424 -2.7696410079
H 0.8147247236 2.0266634373 2.0383999133
H 6.3558844962 -1.8700727386 0.9130699366
