39
CONF34
C 4.9138973357 2.2351958440 -1.3123911608
C 3.8507613967 1.1466390812 -1.4424547900
C 3.8810374240 0.1612756157 -0.2739074539
C 2.8485818371 -0.9593102456 -0.3792135988
N 1.4776094743 -0.4605901815 -0.3001323119
C 0.6034890263 -0.9044320089 0.6330437263
O 0.8493529923 -1.7697626403 1.4648469150
N -0.6746812477 -0.2842336319 0.5756602878
C -1.0385496654 0.9409980108 -0.0077842881
C -0.3080066933 2.0438056849 -0.4333785939
C -1.0301319071 3.1318889045 -0.9257934902
C -2.4275493902 3.1217103730 -0.9641026141
C -3.1534856632 2.0323241780 -0.4932486714
C -2.4497230011 0.9361167683 -0.0047904769
N -2.9478982764 -0.2244436736 0.5650849085
C -1.9007117175 -0.9204222831 0.9010932611
N -1.8522127159 -2.1490197504 1.5104792846
C -2.8708411571 -3.0588967891 1.7698170779
O -2.6582569874 -4.0882860736 2.3741695089
O -4.0531020327 -2.6696493722 1.2770260690
C -5.1285435026 -3.5961278494 1.5350699530
H 5.9173792323 1.7983511137 -1.2766108718
H 4.7700376917 2.8133142044 -0.3936445587
H 4.8802875699 2.9306276757 -2.1558041457
H 3.9946208658 0.5968146723 -2.3823292603
H 2.8622960711 1.6211765952 -1.5101139782
H 4.8750038842 -0.3017623513 -0.2218557737
H 3.7320285055 0.6963259111 0.6728233756
H 2.9688623037 -1.6767357279 0.4354382236
H 2.9784555105 -1.5044843072 -1.3244400098
H 1.1247098980 0.1145166197 -1.0492105971
H 0.7719615706 2.0970604398 -0.3555886502
H -0.4904826318 4.0074792569 -1.2699992383
H -2.9538457226 3.9875534467 -1.3516502329
H -4.2376885115 2.0268424511 -0.4887046981
H -0.9320479799 -2.4393945798 1.8302137390
H -6.0088629279 -3.1385414127 1.0847861738
H -5.2674278017 -3.7285678955 2.6109010387
H -4.9163212520 -4.5653575601 1.0766963137
