43
CONF19
C 3.1462752737 3.7318139903 -2.9656808424
O 3.3171149773 2.5012257150 -3.6778183028
C 3.0744464230 1.3436173261 -2.9983295008
C 2.6762035424 1.2966285453 -1.6639119831
C 2.4684953457 0.0215318992 -1.1386633874
C 2.6445206620 -1.1678251058 -1.8829609201
C 3.0498220943 -1.0876434204 -3.2192108656
C 3.2586454114 0.1661566484 -3.7613843699
N 2.3669357655 -2.2764620589 -1.0923840550
C 2.0228260689 -1.7597114548 0.0600197246
N 2.0803744651 -0.3959486680 0.1144193447
S 1.5271640142 -2.6895994049 1.5244164781
O 1.4723337847 -1.6396052977 2.6324900462
C -0.2532186538 -3.0314923690 0.9686047183
C -1.0152748779 -1.7706525312 0.7408852404
N -0.9391864967 -1.2716986133 -0.5030285353
C -1.5453372927 -0.1113485864 -0.7581926464
C -2.2725580323 0.6147382819 0.1828042262
C -2.9157286012 1.9256707693 -0.1518852198
C -2.3673857851 0.0575138960 1.4619554839
O -3.0656548083 0.7511022423 2.4229340138
C -4.4067885766 0.2574517283 2.6283018375
C -1.7249876667 -1.1453764096 1.7815415161
C -1.8115963492 -1.7271091414 3.1640501026
H 3.3854819953 4.5221514243 -3.6775710250
H 2.1111794192 3.8459884813 -2.6216927612
H 3.8286380540 3.7881082132 -2.1089969382
H 2.5289935617 2.1830462995 -1.0609287725
H 3.1931931558 -1.9838914310 -3.8136115801
H 3.5699183525 0.2766846095 -4.7948202682
H 1.8368539623 0.1666600148 0.9177263558
H -0.1374882279 -3.6115806433 0.0489728907
H -0.6554510403 -3.6618653694 1.7647493036
H -1.4574511133 0.2693528867 -1.7757221553
H -3.9949321901 1.8986397393 0.0284617638
H -2.7451992716 2.1783135015 -1.2009511230
H -2.5082927385 2.7285572334 0.4711098905
H -4.8490957582 0.8856469590 3.4029278307
H -4.9901751698 0.3397461466 1.7038439302
H -4.3945592213 -0.7865122903 2.9607731941
H -2.5196297737 -2.5642681380 3.1930606438
H -0.8387544138 -2.0949818488 3.4935519663
H -2.1506715559 -0.9727731763 3.8758720477
