32
CONF1
C 5.6927648131 -0.3165732633 -0.3954360759
C 4.9111029749 -1.3496878977 -0.9087612902
C 3.5234444567 -1.2745409924 -0.8515323767
C 2.8875536656 -0.1633196427 -0.2784554302
C 3.6859805451 0.8693948856 0.2348359365
C 5.0734807731 0.7930481145 0.1763803345
C 1.4140151352 -0.0815952069 -0.2175804072
C 0.7657879837 0.4893297667 0.8866977546
C -0.6186665622 0.5656666053 0.9438000511
C -1.4141648854 0.0777257206 -0.1024669664
C -0.7658786669 -0.4918270113 -1.2073391029
C 0.6184932570 -0.5715104348 -1.2628234919
C -2.8876269339 0.1612109790 -0.0421169599
C -3.5683694995 -0.0154253026 1.1715248153
C -4.9557910262 0.0639059761 1.2278050889
C -5.6925285486 0.3217071953 0.0734514414
C -5.0285021213 0.4990328181 -1.1387126398
C -3.6411412727 0.4193258334 -1.1967407429
H 6.7756056360 -0.3758013058 -0.4407033126
H 5.3840086294 -2.2226187838 -1.3482740356
H 2.9260058687 -2.0967287922 -1.2333590459
H 3.2147134127 1.7498128534 0.6606957372
H 5.6732852946 1.6074783809 0.5710797938
H 1.3526836627 0.8650404149 1.7192215258
H -1.0897935837 1.0250856273 1.8072800170
H -1.3539805802 -0.8920546395 -2.0274429697
H 1.0906785382 -1.0065596755 -2.1382376510
H -3.0072534793 -0.2406644533 2.0731873031
H -5.4642557187 -0.0850627564 2.1754850369
H -6.7752243236 0.3839150886 0.1181573146
H -5.5926040274 0.7091157245 -2.0422913184
H -3.1338236554 0.5831744756 -2.1424848495
