97
CONF94
C -1.5945036148 -5.3491017494 1.2862609799
C -0.7437712674 -4.6769142083 2.3802096256
C 0.6875725306 -5.1024045583 2.1969727799
C 1.7043887792 -4.3474495997 1.7476543093
C 3.0507898412 -4.8517197443 1.6002538319
C 4.1188691022 -4.1621434454 1.1436436472
C 3.9805077195 -2.7663244636 0.6458265338
O 4.6026736905 -1.8275525285 1.1907417124
N 3.1852310316 -2.6087900324 -0.4384375151
C 2.7362108361 -1.4243128726 -1.0769731698
C 1.5026528966 -1.5033243694 -1.7368711398
C 0.9829323174 -0.4394829883 -2.4526845850
C 1.6687340665 0.8013671913 -2.4632659916
C 2.9209843433 0.8934926543 -1.7782877341
C 3.4780390935 -0.2475977179 -1.1409150611
O 4.7495844382 -0.1705854584 -0.6498124883
C 3.5976598017 2.1707353170 -1.7250897285
C 3.0768386681 3.3389245822 -2.2835152223
C 1.8558255039 3.2059128895 -2.9274163560
C 1.1546184826 1.9965493347 -3.0642043790
C -0.0475283450 2.3038244523 -3.7531555103
O -1.0106299989 1.5978136429 -4.0972167402
C -0.0103982707 3.8115518776 -4.0842998105
O 1.2215616693 4.2815980765 -3.4542198371
O -1.1222938428 4.5095293563 -3.5833593952
C -1.6478864218 4.1210751487 -2.3595350552
C -0.9577378245 3.8503247112 -1.2549864585
C -1.6287040464 3.2216833984 -0.0691228162
C -1.1589397647 1.7615455219 0.1037844535
C -2.0798380826 0.9852484041 1.0552865530
C -1.7951515456 -0.5237620026 1.1205986049
C -2.4870087777 -1.1380802252 2.3446882531
C -2.3777032225 -2.6742810864 2.4529117405
C -0.9149980097 -3.1550137959 2.3996202942
O -0.1576025261 -2.6580490908 3.5154367210
C -3.1289401438 -3.1796728721 3.6881151834
O -1.9008038167 -0.4934612305 3.5060121696
C -2.1861943606 -1.2377516147 -0.1774541525
O -3.4590664227 1.1372917034 0.5859577082
C -4.3614566733 1.7404695172 1.3873671544
O -4.1269952154 2.1417831433 2.5100516282
C -5.6814381343 1.8783764875 0.6864728947
C 0.2913790995 1.6836616035 0.5984982111
O -1.3525485518 3.9162863690 1.1518069951
C -2.0192477411 5.1744327819 1.2245612145
C 0.0742481397 4.0825807303 -5.5665215642
C 3.7966423271 4.6458862749 -2.1497629025
O 4.7611572243 2.3085239128 -1.0846376402
O -0.1833085692 -0.6585793895 -3.1010686011
C 5.5244809470 -4.6847935707 1.1767243431
H -1.3932446769 -4.8872184391 0.3130015070
H -2.6640221521 -5.2683628269 1.4990304253
H -1.3461939651 -6.4120170709 1.2123976915
H -1.0735180545 -5.0651670576 3.3546381420
H 0.8855808085 -6.1520136250 2.4212019473
H 1.5347879689 -3.2963288706 1.5288146876
H 3.2271056199 -5.8676077557 1.9538797939
H 2.7441130195 -3.4589406230 -0.7654380109
H 0.9354200012 -2.4288857547 -1.7030496413
H 4.8019238850 -0.7733198882 0.1824546894
H -2.7321990166 4.0466272620 -2.4069567287
H 0.1169320633 3.9900746700 -1.2089265009
H -2.7151933934 3.2235295280 -0.2511249332
H -1.2204442703 1.3125568549 -0.8958224527
H -2.0116649768 1.4202238033 2.0537559137
H -0.7145899042 -0.6261901421 1.2782415444
H -3.5588630039 -0.8868392401 2.3044570980
H -2.8834904062 -3.0674364333 1.5641518839
H -0.4790316986 -2.7692249411 1.4626651171
H -0.5070206102 -1.7704871978 3.7077794647
H -4.1384245058 -2.7552593863 3.7195905767
H -2.6119393252 -2.9073252663 4.6136151670
H -3.2280979525 -4.2686912719 3.6744404965
H -2.5167091356 -0.5803785297 4.2442526361
H -1.7546611742 -2.2404424731 -0.2244086866
H -3.2733867150 -1.3305584408 -0.2609812120
H -1.8253333027 -0.6918229395 -1.0521781044
H -5.9089528793 0.9872232626 0.0981007671
H -6.4682271301 2.0735078137 1.4146720771
H -5.6175241237 2.7269208105 -0.0040677461
H 0.7148226098 0.6911649397 0.4249548777
H 0.9265822965 2.4001307163 0.0711522271
H 0.3516658633 1.9046593916 1.6684319302
H -3.1096546355 5.0452042596 1.1503165655
H -1.6880295760 5.8537342146 0.4270227700
H -1.7731332357 5.6099455347 2.1955180266
H 0.1206981074 5.1616101568 -5.7343588803
H -0.8117368380 3.6715195756 -6.0559175023
H 0.9687814814 3.6104811947 -5.9794655527
H 4.8179685058 4.5662328354 -2.5344589641
H 3.2752991833 5.4315291256 -2.6969981000
H 3.8702221418 4.9432395511 -1.0982557498
H 5.0220318311 1.4154109749 -0.7378235589
H -0.5480466835 0.1746922230 -3.5169243216
H 6.1493947971 -4.0613447845 1.8262673784
H 5.9786446625 -4.6636104566 0.1789547088
H 5.5424713530 -5.7100670633 1.5521860499
