22
CONF2
C 4.2803978468 1.3177686575 0.1285964254
C 3.3583806511 1.6780817379 1.1040783341
C 2.0363038342 1.2651234727 0.9928564992
C 1.6073612005 0.4845662138 -0.0829008617
C 2.5387916751 0.1335390770 -1.0639640601
C 3.8570053911 0.5496548596 -0.9483316424
Br 5.1110445573 0.0540665995 -2.2977942130
C 0.2024125963 0.0351778223 -0.2306435508
C -0.6582427709 0.7485618683 -1.0636742059
C -1.9815510341 0.3598529787 -1.2415131256
C -2.4628461834 -0.7685869169 -0.5769043922
C -1.6174576383 -1.5001513303 0.2523499578
C -0.3001017124 -1.0966581436 0.4151460880
Br 0.8298280488 -2.1359812974 1.5420135517
Br -4.2544959872 -1.3631240523 -0.7641344690
Br -3.0744887255 1.3974784035 -2.3939902981
Br 0.7961077716 1.7958080181 2.3401124673
H 5.3126963586 1.6363729058 0.2089148835
H 3.6688992156 2.2827187859 1.9478260823
H 2.2210600301 -0.4729278729 -1.9040876349
H -0.2874989266 1.6303435409 -1.5735156022
H -1.9892294852 -2.3796237896 0.7617830602
