60
CONF5
C -5.4908702951 -1.0432122057 -3.3355312556
C -4.7687348478 -1.5329505153 -2.0821796566
C -5.7263937240 -2.1651781655 -1.0739510828
C -5.0077173058 -2.7165664773 0.1747098999
C -4.3147090872 -1.6561774090 0.9373019296
C -2.9902723594 -1.3300275032 1.1056353881
C -2.9655173655 -0.1008413805 1.8733825366
C -1.9784988442 0.7244125154 2.4227933822
C -2.3795538949 1.8348193560 3.1577862025
C -3.7360193390 2.1285332634 3.3618486373
C -4.7365521064 1.3116175120 2.8387789733
C -4.3091896320 0.2177846944 2.1096334352
O -5.1266529711 -0.7214144213 1.5231579084
C -1.8649667512 -2.1146391539 0.5805888679
O -1.8914764023 -3.3461721073 0.5508531834
C -0.6809313448 -1.3758113029 0.0659466592
C -0.7972668248 -0.0835124411 -0.4581870133
C 0.3220122830 0.5542932743 -0.9548210591
C 1.5989925537 -0.0362448994 -0.9255774339
C 1.6625081729 -1.3759396068 -0.4971974520
C 0.5523446690 -2.0295407932 0.0083559346
I 3.4333863499 -2.5187286541 -0.7387743153
O 2.6450917724 0.6414662480 -1.4474185029
C 3.7646327938 1.0056903717 -0.5832717237
C 3.3780568946 2.0013666550 0.4940842215
N 2.4179106845 1.4663478188 1.4569541988
C 1.6611681623 2.5337888797 2.1298806800
C 2.4608468767 3.4454117684 3.0667081139
C 3.0411574121 0.5078608651 2.3797794790
C 2.0319774575 -0.2284726930 3.2513616860
I 0.1127198541 2.4973486256 -1.7611072206
H -4.7927992764 -0.5884872243 -4.0451011573
H -5.9975886854 -1.8712481051 -3.8433058042
H -6.2481418142 -0.2940256676 -3.0795737594
H -4.2407116407 -0.6935207317 -1.6103555151
H -3.9993822332 -2.2673053190 -2.3563705628
H -6.2618193652 -2.9975249682 -1.5461544744
H -6.4824827088 -1.4316489855 -0.7690574333
H -5.7360904620 -3.2047682805 0.8337755202
H -4.2677427264 -3.4651802827 -0.1158663735
H -0.9261758816 0.5081576919 2.2762310221
H -1.6253263344 2.4883757229 3.5848936614
H -4.0134881527 3.0033082680 3.9406079045
H -5.7900392283 1.5165282428 2.9938460034
H -1.7617032702 0.4096274757 -0.4823417328
H 0.6200007391 -3.0558495738 0.3501251627
H 4.2207349042 0.1047878772 -0.1663614308
H 4.4819423971 1.4636065521 -1.2680518349
H 2.9380123173 2.8832327652 0.0149389020
H 4.3277423888 2.3263116480 0.9653795482
H 1.1923129209 3.1383223552 1.3439964316
H 0.8415066132 2.0727491434 2.6915909511
H 3.2814896122 3.9438858677 2.5406538055
H 1.8022986474 4.2202755775 3.4723526715
H 2.8801879521 2.8899824771 3.9111498463
H 3.8046287127 0.9940486646 3.0157761436
H 3.5753434104 -0.2347256632 1.7768511860
H 1.5472190459 0.4322581264 3.9762186192
H 2.5403598730 -1.0190634362 3.8115241108
H 1.2564380858 -0.6915312915 2.6312080748
