39
CONF8
C -2.7936414505 0.3953197370 3.6900567260
O -2.9701599444 -0.4787857032 2.5664484008
C -2.2038259216 -0.2453764033 1.4664792546
C -1.2586062917 0.7823206901 1.3618537510
C -0.5255326149 0.9321365986 0.1849611327
C -0.7195680206 0.0601279623 -0.8866043289
C -1.6630189393 -0.9641060676 -0.7847759291
C -2.4032764793 -1.1280526098 0.3967110834
O -3.2910633300 -2.1714975732 0.5164026834
C -4.6193797326 -1.8308400055 0.0666179740
O -1.9338545223 -1.8633899960 -1.7691633660
C -1.1956027969 -1.7410178575 -2.9930559363
C 0.4929722133 2.0532330000 0.0635144785
C 1.8160965816 1.6136319073 -0.4967624218
C 2.3085201499 2.0799472722 -1.6990723163
N 3.4876341625 1.7239408240 -2.2358707724
C 4.1983117110 0.8450663136 -1.5056860361
N 3.8371431936 0.3087534506 -0.3271506169
C 2.6525901106 0.6862102064 0.1756328523
N 2.3038937845 0.1780980966 1.3888697106
N 5.3860730577 0.4136064657 -2.0363668919
H -3.4917683026 0.0411567842 4.4488568620
H -1.7691786579 0.3376250806 4.0753860661
H -3.0319424490 1.4314815523 3.4237409942
H -1.0906966858 1.4684331056 2.1838334745
H -0.1298102936 0.1884940170 -1.7861868016
H -5.2314958161 -2.7247974789 0.2007127730
H -5.0280772107 -1.0086052891 0.6655698637
H -4.6050310774 -1.5469726866 -0.9920351363
H -1.3829207470 -0.7721571691 -3.4701766320
H -0.1208612939 -1.8659650665 -2.8176069402
H -1.5587772384 -2.5434429768 -3.6355742358
H 0.6314240451 2.5115706136 1.0512489142
H 0.0879705520 2.8370244860 -0.5887408274
H 1.7161862456 2.7944074276 -2.2723361239
H 1.3320616275 0.1974033634 1.6597912143
H 2.8423626355 -0.6047898851 1.7282522143
H 5.7892884980 0.9923959246 -2.7565667998
H 6.0392772496 -0.0087034112 -1.3950594514
