38
CONF31
C 0.9076703929 2.8156542653 -0.5688450145
S 2.5622653251 2.1420636702 -0.4184618599
O 3.5312362072 3.1270855917 -0.9124682411
O 2.7361821996 1.5309546873 0.9030954084
N 2.5672163614 0.8799937121 -1.5924652265
C 2.5380380473 -0.4837606603 -1.4079197849
O 2.7262916381 -1.2448688977 -2.3431664524
C 2.1025337188 -1.0237694681 -0.0732470737
C 2.9786161190 -1.5912358383 0.8550944989
C 2.5079096171 -2.2263602882 2.0033188047
C 1.1501833587 -2.2848129712 2.2429307009
C 0.2717457466 -1.7063367866 1.3248684978
C 0.7366248813 -1.0910885365 0.1617962755
O -1.0574687100 -1.8056239079 1.6264001354
C -1.9581636610 -1.0329033543 0.9175222326
C -2.0849013839 0.3337054964 1.1788269994
C -3.0378957877 1.0872692539 0.5083405184
C -3.8711328240 0.4565385242 -0.4119336926
C -3.7555251044 -0.9074072627 -0.6711491917
C -2.7937351454 -1.6515484524 -0.0015894227
C -4.8798558046 1.2732964475 -1.1667105073
F -5.9855449568 0.5574849129 -1.4748448591
F -5.2849420366 2.3597276525 -0.4703190494
F -4.3742800529 1.7322156518 -2.3442795646
Cl -1.0545362316 1.0909620426 2.3636439714
N 4.4121506775 -1.4779169822 0.6564604186
O 5.1604165211 -2.0862727818 1.4178711080
O 4.8092715208 -0.7663789671 -0.2691625990
H 0.7802551384 3.1677959946 -1.5946906972
H 0.1928830972 2.0278607872 -0.3226142136
H 0.8440212136 3.6425195286 0.1438454126
H 2.8290831685 1.1897097253 -2.5257581366
H 3.2112009740 -2.6482544599 2.7100000203
H 0.7574261099 -2.7580226582 3.1354230716
H 0.0431571316 -0.6696405635 -0.5583474769
H -3.1315473115 2.1465730347 0.7164438498
H -4.4086795759 -1.3905499657 -1.3884768757
H -2.6781713944 -2.7146581604 -0.1818966758
