88
CONF5
C 1.6414692076 -1.0598012958 -0.3994430780
C 0.1850079447 -0.7849757838 -0.0165088542
C -0.4820468172 0.0577282355 -1.0935006242
O -1.8483101732 0.3736009910 -0.7087468761
C -2.8023261991 -0.5414405587 -1.0181151816
O -2.5662756102 -1.5967513199 -1.5838743235
C -4.1192182387 -0.0698521558 -0.5825754258
C -5.2098624353 -0.8378776405 -0.7687582933
C -6.5830843241 -0.5244267976 -0.4129705430
C -6.9535997065 0.7197350481 0.1205891643
C -8.2855345900 0.9615287525 0.4425743305
O -8.7573927134 2.1242334750 0.9614707558
C -7.8086606961 3.1749031615 1.1930203580
C -9.2602985528 -0.0316172985 0.2287095436
O -10.5757855513 0.2303330739 0.4983282075
C -10.9567813149 -0.1042812628 1.8518448114
C -8.8845474758 -1.2765848723 -0.2977535023
O -9.8945584216 -2.1712530084 -0.4531076052
C -9.5558423474 -3.4615107916 -0.9814327588
C -7.5506299497 -1.5181067690 -0.6261139616
C 0.2242902466 1.3903273404 -1.3084613741
O -0.3434747183 2.0782080221 -2.4279153991
C -1.2035101751 3.1645464359 -2.0755435932
C 1.6968965210 1.1421735540 -1.6375292646
C 2.4317051174 2.4572457222 -1.7796223140
O 2.1027188016 3.5124175944 -1.2771269908
O 3.5607217402 2.2948840899 -2.4952975330
C 4.4028303845 3.4685463706 -2.6157689559
C 2.4227312394 0.2471054612 -0.6029029596
C 2.6570738277 0.9404456768 0.7414076448
C 3.3372767834 0.0123810699 1.7516893271
N 2.5797963466 -1.2506432021 1.8981579893
C 3.2605649152 -2.1355018092 2.8606200699
C 4.6558789754 -2.6201663296 2.4046101570
C 5.3889571298 -1.4900692460 1.7583412493
C 4.7751586815 -0.3030813118 1.4455277545
N 5.6909349396 0.5447194989 0.8412528006
C 6.9053793557 -0.0941547271 0.7507005140
C 6.7499634746 -1.3879703754 1.3180254732
C 7.8631422720 -2.2407610575 1.3419406138
C 9.0673819192 -1.8030183276 0.8180823722
C 9.1915927640 -0.5115889880 0.2605219704
O 10.4403894707 -0.2119146773 -0.2201646768
C 10.6246411180 1.0802728180 -0.8025775427
C 8.1118143302 0.3666608326 0.2169362410
C 2.3797312271 -1.9346238911 0.6117869322
H 1.6405045896 -1.6047018600 -1.3539409164
H -0.3573060824 -1.7303526064 0.0884514238
H 0.1255534985 -0.2607189344 0.9429756013
H -0.5103556734 -0.4869947306 -2.0444577955
H -4.1574642894 0.9081682948 -0.1149092776
H -5.0548288568 -1.8094028719 -1.2355605761
H -6.2057481998 1.4852629302 0.2762289704
H -8.3850353997 4.0037087505 1.6042106725
H -7.0446677270 2.8618156375 1.9139797123
H -7.3313139880 3.4852178677 0.2564407105
H -10.8067152667 -1.1740136755 2.0364315232
H -10.3744024311 0.4847420260 2.5692339335
H -12.0158683708 0.1425290095 1.9422326891
H -8.8437315511 -3.9782943563 -0.3277725491
H -9.1394225241 -3.3752208873 -1.9915909162
H -10.4928690889 -4.0174168833 -1.0168878227
H -7.2432942052 -2.4705521426 -1.0399345366
H 0.1349822952 2.0078241482 -0.4042255947
H -2.0807971437 2.8192807802 -1.5149654767
H -0.6614608915 3.9133568591 -1.4829947501
H -1.5321300518 3.6180196441 -3.0138817921
H 1.7400466206 0.6262465045 -2.6051489166
H 4.7133641406 3.8115349821 -1.6257386135
H 3.8641582442 4.2669434581 -3.1314861739
H 5.2644142478 3.1469116639 -3.1993254000
H 3.4019694807 -0.0102236863 -1.0274972610
H 1.7115130948 1.2770463159 1.1778808138
H 3.2680479083 1.8410696739 0.6118198197
H 3.2936664601 0.5151964277 2.7305173593
H 2.6113781577 -2.9967779417 3.0570533422
H 3.3645814315 -1.5758904488 3.7988013487
H 4.5629623634 -3.4677017987 1.7107160578
H 5.2013755802 -3.0009867183 3.2772431051
H 5.5076628293 1.4824257391 0.5234721520
H 7.7873872128 -3.2375576127 1.7671586836
H 9.9434116634 -2.4436159462 0.8249185110
H 9.9685569434 1.2198848040 -1.6709466712
H 10.4365002400 1.8755155367 -0.0702564472
H 11.6666397193 1.1181779948 -1.1224954054
H 8.1853782902 1.3614256489 -0.2052789531
H 1.8015660446 -2.8465399360 0.8082753936
H 3.3354818829 -2.2423656789 0.1509272727
