65
CONF980
C -4.7873663124 2.8889174320 -0.3121340214
C -4.1776643993 2.2809122695 -1.5740063346
C -2.6385093221 2.4146419112 -1.6600899574
C -2.1722201217 3.8573980436 -1.8270550240
C -2.0020411539 1.7751925366 -0.4435899320
O -1.3947521572 2.3677852975 0.4275969031
O -2.2078253752 0.4416385411 -0.4373107413
C -1.6837213746 -0.3111195922 0.6994459701
C -2.7112336704 -0.3345575142 1.8182640997
C -2.1519127463 -1.0780576285 3.0409496835
C -1.4488436346 -2.3365458418 2.6258944507
C -1.0931389711 -2.6375039967 1.3623597362
C -1.3814512971 -1.7120523346 0.1952745831
C -0.2217650239 -1.7627662750 -0.8221966533
C -0.1162521973 -3.2064139885 -1.3551580077
C 0.0166878754 -4.1692419463 -0.2059620259
C -0.4156287103 -3.8824009898 1.0339048207
C 0.9925197448 -3.3927320321 -2.3944869154
C 1.0995812126 -1.2402244989 -0.2102224033
C 1.5814845948 0.0437964779 -0.8881462523
C 2.7554923671 0.6875710857 -0.1727473049
C 4.0143393526 -0.1546239266 -0.1525821728
C 5.1595845362 0.6569693447 0.4133927868
C 5.4001255036 1.8568955673 -0.4935880837
C 4.1552401618 2.5993736257 -0.9198910113
O 4.1954083779 3.7227590045 -1.3822841607
O 2.9627787177 1.9803964085 -0.8542432225
O 6.3163850825 -0.1838583495 0.4773331271
C -1.2257891337 -0.1887951829 3.8905821512
H -4.3970504748 2.4050749305 0.5908097157
H -4.5804347246 3.9604363523 -0.2350899554
H -5.8736727815 2.7590151213 -0.3137697917
H -4.4422965566 1.2201135583 -1.6337193648
H -4.5979024440 2.7656110253 -2.4629725450
H -2.3119384508 1.8263459098 -2.5273873782
H -2.6289497876 4.2903247844 -2.7219890827
H -2.4481327241 4.4701838346 -0.9654126669
H -1.0851827221 3.9061823211 -1.9356057155
H -0.7689893729 0.1852826490 1.0358484285
H -2.9890309863 0.6886976951 2.0922245022
H -3.6110260398 -0.8429882969 1.4504245739
H -2.9995075327 -1.3611424305 3.6810762457
H -1.2039816712 -3.0436815647 3.4187133747
H -2.2840304157 -2.0835304167 -0.3153373363
H -0.4941444726 -1.1199811870 -1.6688490682
H -1.0685174080 -3.4214519744 -1.8675434233
H 0.4930290657 -5.1283109489 -0.4025841614
H -0.2740253371 -4.5978175542 1.8419206879
H 1.9873991622 -3.2494543479 -1.9611916518
H 0.9560151427 -4.4048387451 -2.8103654862
H 0.8714492328 -2.6808204126 -3.2176064558
H 0.9706095286 -1.0537655477 0.8644355091
H 1.8739194170 -2.0093368629 -0.2793022032
H 1.8650621604 -0.1630899072 -1.9283815711
H 0.7635190307 0.7740896341 -0.9159989375
H 2.4657820830 0.9445146461 0.8554201939
H 4.2618862321 -0.4975978258 -1.1662090008
H 3.8352663459 -1.0336649121 0.4739697134
H 4.8923359729 1.0018771130 1.4246382239
H 5.8644536761 1.4993633249 -1.4236666587
H 6.0849753436 2.5855434852 -0.0503219374
H 7.0325762358 0.3247340087 0.8789738447
H -0.8365066118 -0.7448887721 4.7493499636
H -1.7714214730 0.6840553908 4.2636489523
H -0.3710494573 0.1615614737 3.3025461892
