50
CONF43
C 7.2878737706 0.4052256789 -0.9070463754
C 6.4597974071 1.3052214546 -0.0201917794
O 5.1096869981 0.7685892832 -0.0136782894
C 4.2211861977 1.4386742719 0.7696559534
O 4.5056695286 2.4586892983 1.3929420431
N 3.0065960584 0.8400914855 0.7716821568
C 1.8846749117 1.5030424787 1.4449188185
C 0.5959864222 1.2788315338 0.6587777348
C 0.2704976836 -0.1900097184 0.5261055098
C -0.9787742475 -0.6355128383 0.2940326742
C -2.1383288983 0.2870001198 0.1763899307
C -2.7198143157 0.4755891144 -1.0861572654
C -2.1585637921 -0.2885107083 -2.2493678412
C -2.5211539026 -1.7760910229 -2.1682056957
C -2.0247142748 -2.5762169492 -0.9794708056
C -1.3007045213 -2.0792770885 0.1238644621
N -0.8826334860 -2.8797120097 1.1267729204
C -1.1553169120 -4.1842212346 1.0773161063
C -1.8655654730 -4.7691270516 0.0352872138
C -2.2960074837 -3.9475736465 -0.9940284718
C -3.8205665720 1.3209877635 -1.2232986781
C -4.3262185539 1.9640104273 -0.1005355688
C -3.7736576874 1.7855626653 1.1606296323
C -2.6772248744 0.9372895421 1.2877595093
Cl -5.7158267858 3.0352545757 -0.2842438897
C 1.4843038207 -1.0806983860 0.5872446108
C 2.7208532769 -0.3874287748 0.0150940340
H 8.3160900095 0.7770784246 -0.9387654876
H 6.8942178158 0.3923574924 -1.9274599212
H 7.3025974770 -0.6181251996 -0.5212308844
H 6.4308036052 2.3322614223 -0.3980487769
H 6.8382002383 1.3242039385 1.0069037583
H 1.7710649867 1.1194326837 2.4691586714
H 2.1078258197 2.5693807300 1.5133820189
H -0.2160485137 1.8291240662 1.1382381688
H -1.0680611685 -0.1739663097 -2.2729872697
H -2.5542530546 0.1096690505 -3.1882322645
H -3.6154212884 -1.8681556645 -2.1975771979
H -2.1547841936 -2.2728977658 -3.0752711170
H -0.7956631423 -4.7857740066 1.9107780889
H -2.0728647284 -5.8339218939 0.0328997070
H -2.8472865633 -4.3665685860 -1.8324493823
H -4.2740190021 1.4758971666 -2.1969258613
H -4.1889454728 2.2910263513 2.0248976512
H -2.2355209071 0.7792099412 2.2672388225
H 1.3194029117 -2.0143019101 0.0449263105
H 3.5785951004 -1.0595255813 0.0851077260
H 2.5641647977 -0.1554400363 -1.0486618028
H 0.7160364208 1.7111500338 -0.3462687035
H 1.6865832051 -1.3585714339 1.6306825067
