43
CONF58
C 1.3367659335 4.3558902342 1.6002312467
C 0.4366469255 3.6892500672 0.6233427305
N -0.4682318102 4.3895138037 -0.0434613493
N -1.1088158034 3.4942372443 -0.8487317496
C -0.6165478457 2.2521144247 -0.7163627452
C 0.4193263207 2.3127275241 0.2334192061
C 1.3568246530 1.3082467499 0.6870952021
O 2.0748099011 1.4682432673 1.6699742259
C 1.4345354117 -0.0138581196 -0.0357030103
C 1.6906014515 -0.1734771362 -1.3984347799
C 1.7079696322 -1.4316789258 -1.9943042638
C 1.4673427670 -2.5457324510 -1.2007511795
C 1.2578690245 -2.4339875304 0.1702616154
C 1.2608083711 -1.1674575891 0.7358409008
Cl 1.4549022799 -4.1283405368 -1.9468332096
Cl 2.0805201302 1.2004701478 -2.4072718170
O -1.0916764670 1.2542318436 -1.4935926385
C -1.6548721449 0.1247473792 -0.8278502154
C -3.0452801356 0.4000610291 -0.2685515162
O -3.5523718396 1.5008196026 -0.3727850706
C -3.7342402654 -0.7318503880 0.4099867845
C -5.0190634228 -0.5109345297 0.9202367197
C -5.7034877434 -1.5336821546 1.5584293214
C -5.1130307987 -2.7891793534 1.6950864776
C -3.8356229580 -3.0185462886 1.1921441804
C -3.1462866685 -1.9957172234 0.5519695733
C -2.1913498072 3.9411974472 -1.7027184402
H 1.1464466104 5.4310988334 1.5917578562
H 1.1775288828 3.9609866827 2.6074907083
H 2.3855713272 4.1633664994 1.3566075391
H 1.9168402601 -1.5372732288 -3.0514649512
H 1.1061467720 -3.3187752564 0.7768265002
H 1.1141603048 -1.0463107226 1.8047611662
H -1.0000928201 -0.2210654004 -0.0192453392
H -5.4577422072 0.4740208528 0.8033317918
H -6.6989196044 -1.3564226979 1.9521996613
H -5.6493555294 -3.5893942491 2.1948904279
H -3.3758532864 -3.9954186219 1.2988307682
H -2.1498692341 -2.1950819313 0.1705189509
H -3.0236205980 4.2926554880 -1.0877909844
H -1.8324804114 4.7555445840 -2.3378368119
H -2.5244784118 3.1007232114 -2.3092403255
H -1.6988030022 -0.6712921315 -1.5789721025
