21
CONF94
C 0.6705990143 -1.3602359736 -0.0054098904
C -0.0556985470 -0.0025015823 0.0789854866
C 0.9921052815 1.1183823719 0.1667835832
O 0.4254632549 2.4343378046 0.2334137635
C -0.9296626668 0.2155399363 -1.1706658441
O -1.7244096403 -0.9242900924 -1.5137713633
C -0.9672047638 -0.0001379423 1.3140401888
O -0.3054659700 -0.4108348612 2.5203777613
O 1.1115841060 -1.6968103647 -1.3323728798
H -0.0202220479 -2.1587396983 0.2828779568
H 1.5144568628 -1.3819266823 0.6960664297
H 1.5820851096 0.9955773628 1.0823690752
H 1.6871294533 1.0479534570 -0.6836622928
H 0.1531817480 2.6932832943 -0.6550695285
H -1.6352809431 1.0335220248 -0.9868893730
H -0.2909894663 0.5057418951 -2.0178001089
H -1.1081853910 -1.5889724787 -1.8513460001
H -1.4135694964 0.9958721208 1.4364056813
H -1.7755823714 -0.7220033233 1.1561171138
H 0.2493486695 0.3181953429 2.8222563484
H 1.8403180898 -1.1119523151 -1.5727061185
