48
CONF15
C -3.4585076607 1.3002607795 1.5748855381
C -3.8050082921 1.1230761145 0.0877520005
C -3.1427754273 2.2291244774 -0.7417126653
C -5.3340647738 1.2349917331 -0.0483719247
C -3.3940467447 -0.2914578825 -0.4188044779
C -1.8970304555 -0.4672968000 -0.7135337238
N -1.6208943680 -1.8200754004 -1.1982439358
C -1.2119136830 -2.2092632982 -2.4231323858
N -1.1364576511 -3.5319638661 -2.4804659499
C -1.5246037416 -3.9075398267 -1.2271406991
N -1.8334223459 -2.9058091156 -0.4154869696
O -1.1780623613 -0.2275485156 0.4724024933
C 0.1927328186 -0.0950984568 0.4209258082
C 0.9394870908 0.0557221267 -0.7460247096
C 2.3208251113 0.2044751930 -0.6534985254
C 2.9808049819 0.2085215953 0.5799652754
C 2.2023380021 0.0592442990 1.7382577193
C 0.8275048878 -0.0951279888 1.6640156291
C 4.4476776334 0.3632334015 0.6610985300
C 5.2869527133 -0.2164480514 -0.3017858813
C 6.6680598421 -0.0680012730 -0.2257037649
C 7.2408136203 0.6604682768 0.8151745662
C 6.4182743612 1.2401822398 1.7792639644
C 5.0368990497 1.0944718034 1.7030616056
O -3.9959423084 -0.6090294503 -1.6787337640
H -3.8829807769 0.4868570185 2.1745133570
H -3.8888849052 2.2418632131 1.9322754490
H -2.3820547534 1.3304986004 1.7476445894
H -3.5552294380 3.2020918846 -0.4550137672
H -2.0604518669 2.2678498678 -0.5744891009
H -3.3278882436 2.0857539625 -1.8117783227
H -5.8385188380 0.4034443313 0.4593428979
H -5.6710608616 2.1658578288 0.4179966843
H -5.6501770484 1.2524587403 -1.0953908424
H -3.6843221263 -1.0326642268 0.3406650121
H -1.6088362295 0.2104375072 -1.5255573886
H -0.9891979036 -1.5086504111 -3.2178595706
H -1.5780940336 -4.9395236691 -0.9033462207
H 0.4776235979 0.0768127720 -1.7250762811
H 2.8887916968 0.3419025330 -1.5683184929
H 2.6821606339 0.0363035736 2.7116851078
H 0.2306976451 -0.2255321485 2.5609167120
H 4.8553293565 -0.8070337072 -1.1042460154
H 7.2998767478 -0.5316176243 -0.9773425142
H 8.3185645303 0.7750411404 0.8747583103
H 6.8533086217 1.8168571562 2.5899678423
H 4.4061767989 1.5710609986 2.4474634640
H -4.9244709132 -0.8170841621 -1.5229750698
