21
CONF4
C 0.5885761139 0.8350019172 -0.8090241138
N 1.2073819364 -0.1679031468 0.0877370139
C 0.2648222919 -0.8738752747 0.9678190799
N -1.0710916771 -0.8983977973 0.3828965504
C -1.6339386487 0.4443953817 0.1746913967
N -0.5561743134 1.4022347797 -0.1225104561
N -0.2244181205 2.3258950541 0.9337350801
O -1.1039283464 2.5616990921 1.7418917603
O 0.8765725343 2.8348180011 0.8769698516
N -1.2066302986 -1.7942736891 -0.7369396756
O -2.1943736230 -1.6482499284 -1.4322282439
O -0.3509651748 -2.6525490337 -0.8429726395
N 2.2375113566 -0.9277889119 -0.4957353468
O 2.6708744530 -0.4969708572 -1.5549542265
O 2.6422559237 -1.8878827677 0.1330089375
H 0.2234238718 0.3763170739 -1.7390158688
H 1.3111035793 1.6091018081 -1.0602046665
H 0.1726328585 -0.3401125560 1.9208938705
H 0.6393376305 -1.8792740204 1.1575511290
H -2.1541452164 0.7775668401 1.0744058347
H -2.3388266336 0.4002480455 -0.6580152563
