46
CONF43
C -4.0770293640 0.3164825966 -2.3850912012
C -3.6596854248 -0.5149513082 -1.1952626288
C -2.3931963313 -1.3085759005 -1.2300307602
C -2.4961597131 -0.0686616713 -0.3081196651
C -1.6616008215 1.1041205541 -0.6067253332
O -1.3206587517 1.5022231747 -1.7050560869
O -1.2743720488 1.7069082829 0.5496637273
C -0.3586755880 2.8192247202 0.3979107834
C 1.0275877062 2.3725393602 0.0104818842
C 1.5284646016 1.1530511988 0.4642295578
C 2.8275914515 0.7817060417 0.1276059649
C 3.6323187061 1.6028917531 -0.6572934972
C 3.1197948440 2.8141849663 -1.1099144522
C 1.8241091762 3.2023715606 -0.7802985225
O 3.3634617090 -0.4423201907 0.4846521584
C 3.0419241979 -1.0095864654 1.7055726715
C 2.9182771787 -0.2524967001 2.8692385193
C 2.6632672693 -0.9027959198 4.0733089844
C 2.5430642188 -2.2908269020 4.1210884977
C 2.6870358800 -3.0336145664 2.9510593622
C 2.9352726867 -2.3974343058 1.7378666453
C -1.4975453685 -1.3066756879 -2.3996055166
C -0.2409510815 -1.7447958390 -2.3560533215
Cl 0.7978442927 -1.7859176970 -3.7554789896
Cl 0.5217808849 -2.2914664330 -0.8891965973
C -4.8235744520 -1.1271376133 -0.4443392712
H -4.6067113187 -0.3201271718 -3.1025026877
H -4.7660943223 1.1028375060 -2.0597801714
H -3.2348284683 0.7896904313 -2.8887692875
H -2.3877353329 -2.2336915136 -0.6573921117
H -2.5970993655 -0.2881393115 0.7490273687
H -0.3511943038 3.2890067805 1.3856965782
H -0.7535563031 3.5297638397 -0.3331284983
H 0.9104325760 0.4960093183 1.0662799360
H 4.6383769335 1.2840414037 -0.9082795462
H 3.7373550735 3.4579966319 -1.7282465729
H 1.4269965693 4.1456293259 -1.1434098908
H 3.0216800228 0.8266549476 2.8343336906
H 2.5666204537 -0.3162794503 4.9817596431
H 2.3447344569 -2.7892911818 5.0641302272
H 2.6025925683 -4.1155569233 2.9772673222
H 3.0563079052 -2.9629689612 0.8198498563
H -1.8651052421 -0.9507742382 -3.3569242737
H -5.4874392326 -0.3424251358 -0.0666609120
H -4.4820428542 -1.7310206278 0.4008602367
H -5.4016343829 -1.7698026994 -1.1173002176
