49
CONF45
C -4.7410436761 3.7143592937 -0.6199320201
C -4.4920187033 2.2874017041 -0.2168433286
C -3.8668856489 1.4398416292 -1.0506205434
C -3.5523084542 0.0243274458 -0.7941691069
C -2.2769670019 -0.5741398581 -1.4030632185
C -3.6670417744 -1.0533815795 -1.8389793343
C -4.0647059629 -0.6936767508 -3.2535052240
C -4.1634363182 -2.4122496152 -1.4016064732
C -1.4074985451 -1.3995127617 -0.5546147221
O -1.7211300951 -1.9701354463 0.4711949166
O -0.1495342027 -1.4543180744 -1.0931980088
C 0.8643637994 -2.1841170279 -0.3570159111
N 1.9260239861 -1.3009760631 0.0079691654
C 3.0119247065 -0.9688953569 -0.8200904115
O 3.2233013442 -1.4462835846 -1.9165844095
C 3.8094892138 0.0443603832 -0.0771997869
C 3.1979046356 0.3029717038 1.0911437530
C 1.9700326298 -0.5332184628 1.1843395242
O 1.1466477146 -0.5746682147 2.0756697632
C 3.6740204457 1.2759164966 2.1061175094
C 4.7569262331 2.1730321981 1.4865726623
C 5.7614537960 1.3582522445 0.6610679988
C 5.0822990148 0.6616633810 -0.5281824595
C -4.9997463347 1.9349901606 1.1515794199
H -4.3562970295 3.9282436663 -1.6204317463
H -5.8152026194 3.9391632022 -0.6031925623
H -4.2677991477 4.4039383244 0.0908956953
H -3.5517781421 1.8306622646 -2.0165631874
H -3.7329272332 -0.3383487796 0.2132489839
H -1.7549740586 0.0340954808 -2.1342736654
H -3.7417928532 -1.4814398745 -3.9425656427
H -3.6258847101 0.2486019968 -3.5868296218
H -3.7464701885 -3.1981020789 -2.0421038176
H -3.9004525018 -2.6313688393 -0.3659596095
H -5.2544860781 -2.4440607541 -1.4975083330
H 0.4246873060 -2.6239629639 0.5397741779
H 1.2533783746 -2.9493068690 -1.0312957329
H 4.0706076355 0.7271273284 2.9722782259
H 2.8311766634 1.8668661455 2.4835369159
H 4.2761836643 2.9152753780 0.8366926725
H 5.2752566156 2.7230719011 2.2775854313
H 6.2217852134 0.5975308286 1.3043184248
H 6.5657880487 2.0050128114 0.2981774553
H 4.8685106167 1.3812127223 -1.3313644997
H 5.7331567798 -0.1014033151 -0.9708511629
H -4.8152918846 0.8981476285 1.4355829899
H -6.0804154435 2.1169613048 1.2086017202
H -5.1552777137 -0.6091961181 -3.3234078394
H -4.5365976232 2.5854638653 1.9042270513
