24
CONF76
C 2.6782236670 0.7738831666 0.9106453794
C 1.3247871405 0.0838412232 1.0400751412
C 0.4908959143 0.1688534758 -0.2520349965
C -0.8463390989 -0.5653604593 -0.1032519936
C -1.7323630488 -0.3602628852 -1.3512063554
C -3.0810457918 -0.9888357817 -1.1250833066
O -4.1079500023 -0.3458373882 -1.2419028344
O -1.8575090067 1.0093054651 -1.6642357570
O -0.6199594423 -1.9784804344 -0.0154705842
O 1.2194329479 -0.3521198094 -1.3638686428
O 0.5901698794 0.6409579192 2.1357517026
O 2.5264847586 2.1956731008 0.7720698492
H 3.2396890367 0.6175421400 1.8370114677
H 3.2456570571 0.3484068202 0.0754491848
H 1.5032066774 -0.9725960492 1.2831068387
H 0.2849788219 1.2218107303 -0.4757301725
H -1.3675811501 -0.1876190655 0.7847051614
H -1.2519952509 -0.9091728739 -2.1810863629
H -3.0888000647 -2.0562124658 -0.8433916942
H -2.8113449818 1.2018238595 -1.6622162909
H -0.5578741867 -2.2225631993 0.9161380564
H 1.2618747121 -1.3127087716 -1.2423570638
H 0.6533314921 1.6032386715 2.0402290259
H 2.3040294224 2.3864323150 -0.1476527573
