50
CONF21
C 4.8893113735 0.9294651307 2.1958766373
C 3.7032025001 0.0822639598 1.8439585503
O 3.0235944749 -0.5467458483 2.6074233304
O 3.4729194734 0.1355587385 0.4819781046
C 2.3027607145 -0.4731763318 0.0302242561
C 2.3651510368 -1.5079575690 -0.9035846517
C 1.2090439465 -2.0536815111 -1.4621344699
C -0.0559230635 -1.5996265616 -1.0605003357
C -0.0797412343 -0.6162274179 -0.0990476356
C 1.0540259988 -0.0165011604 0.4086897806
O 0.7581521103 1.0367275719 1.2272973399
C -0.6402806227 1.3747998660 0.9347892076
C -1.2802718311 0.0309681924 0.5259819134
C -1.7395316529 -0.7815895766 1.7510100432
C -2.1420298204 -2.1935721267 1.3382891092
N -3.0985801891 -2.1694500929 0.2283214987
C -2.6210000068 -1.4238891275 -0.9472414007
C -1.3725835287 -2.0143685591 -1.6670542409
C -2.4106286440 0.0454523347 -0.5052244073
C -2.1087926392 0.9787977980 -1.6315952621
C -1.3195861478 2.0401176440 -1.4867407329
C -0.6931724410 2.4609355177 -0.1949431533
O 0.6376314100 2.9191743742 -0.5334552982
C 1.2541891570 3.6701113495 0.4168495689
O 0.7072043838 4.0649529426 1.4185693996
C 2.6833428633 3.9195372317 0.0315645157
C -3.5701083997 -3.5086288981 -0.0903796648
H 4.5577518620 1.9708842351 2.2706538309
H 5.6597702763 0.8759017701 1.4244953546
H 5.2810269408 0.6174753618 3.1633538674
H 3.3442494847 -1.8606911654 -1.2105063218
H 1.2983649936 -2.8269757447 -2.2193027636
H -1.0414332108 1.7857354683 1.8625036984
H -2.5941850636 -0.2702263975 2.2120057901
H -0.9296044225 -0.8297366833 2.4873409293
H -1.2354399435 -2.7811454043 1.0938312960
H -2.6231740048 -2.6981279434 2.1850480909
H -3.4476263477 -1.4390467484 -1.6712144579
H -1.3869820616 -1.6773067174 -2.7128242974
H -1.4599009743 -3.1064073384 -1.7074986630
H -3.3504578101 0.3503763302 -0.0208750389
H -2.5752557548 0.7836334996 -2.5956708998
H -1.1380922380 2.7144425268 -2.3198019698
H -1.2430303216 3.3219343346 0.2089473249
H 2.7405213235 4.3287187653 -0.9803703730
H 3.2154390061 2.9624848993 0.0265137248
H 3.1407769618 4.6029200500 0.7457335739
H -2.7664990602 -4.2204934449 -0.3599946351
H -4.2802892686 -3.4648510870 -0.9235738682
H -4.0942292971 -3.9229459133 0.7781476215
