54
CONF290
C -3.2057793040 -3.4172486785 -1.1370423657
C -2.5468762627 -3.4118763500 0.2447431397
C -3.5715545564 -3.6204707175 1.3601431134
C -1.7049103562 -2.1412131097 0.4928288180
C -0.5376006124 -2.0839160139 -0.5038694399
O 0.2977328802 -2.9901087952 -0.5279190332
N -0.4959582510 -1.0153855158 -1.3233108991
C 0.6225869852 -0.7853099651 -2.2238428788
C 0.2504731145 0.2899066481 -3.2723892382
C 0.2316686980 1.6836704080 -2.6917590115
O 1.0088348974 2.5700046412 -2.9733632197
O -0.7581155508 1.8221307698 -1.7847007071
C -0.7998057873 3.0908072903 -1.0824544420
C 1.9013711136 -0.3991006038 -1.4966349020
C 3.1298250765 -0.6251508389 -2.1191066506
C 4.3203631762 -0.2260382617 -1.5219671323
C 4.2654989154 0.4077405011 -0.2861796838
C 3.0590479400 0.6429857079 0.3592781782
C 1.8776743233 0.2357594287 -0.2551905712
Cl 5.7662659484 0.9169306226 0.4837426317
N -2.5339072187 -0.9466934250 0.5079875880
C -2.2414009824 0.1150279438 1.3083691370
O -1.1895856715 0.2538191625 1.9181301589
O -3.2655628421 1.0019377196 1.3094787295
C -3.1305996579 2.1636066568 2.1969063095
C -4.0919643938 3.2021083398 1.6559111821
C -3.4498436503 1.7494762106 3.6219867110
H -2.4690425396 -3.2836458395 -1.9360638103
H -3.7125019719 -4.3728208340 -1.3018109213
H -3.9628275105 -2.6304499999 -1.2353320525
H -1.8235716183 -4.2340040013 0.2791186105
H -4.0799680159 -4.5801780587 1.2263779501
H -3.0906734401 -3.6202791152 2.3437279302
H -1.2273309806 -2.2360620702 1.4763796353
H -1.1684729443 -0.2742775949 -1.1851741610
H 0.8091551481 -1.7158182340 -2.7720750167
H 0.9982306175 0.2772168833 -4.0661555756
H -0.7287262982 0.0511678727 -3.7017434305
H -0.9801459181 3.9043892202 -1.7884108425
H 0.1425392529 3.2542336977 -0.5542611449
H -1.6253353404 3.0009184862 -0.3786146863
H 3.1628532690 -1.1245812927 -3.0837834692
H 5.2725124301 -0.4088912282 -2.0069215987
H 3.0368870568 1.1324473812 1.3264200325
H 0.9340160777 0.4103551819 0.2534904970
H -2.0964218342 2.5159295904 2.1237877252
H -5.1214410972 2.8334420959 1.7043985825
H -3.8569645733 3.4560928637 0.6187121366
H -4.0211210578 4.1106076443 2.2605978897
H -3.3543434349 2.6159040318 4.2835650450
H -2.7635408084 0.9734298976 3.9692981356
H -4.4771425595 1.3763058229 3.6856175603
H -4.3361719805 -2.8361330187 1.3542827640
H -3.4559638099 -0.9792741240 0.0994811052
