47
CONF284
C -3.2380646035 2.3765295700 1.8379529002
C -3.9582971796 1.0425540001 1.6582052834
C -4.9834741656 1.0899936018 0.5251703694
C -5.7181291581 -0.2199415722 0.3139050719
O -4.7801699080 -1.2766298034 -0.0738706311
C -4.4912386307 -1.3824705538 -1.3725135125
O -5.0076814116 -0.7443160263 -2.2670612446
C -3.4549548455 -2.4750647461 -1.6425642031
C -4.1575374357 -3.8062264350 -1.8607177896
O -2.5494395015 -2.6574234871 -0.5495016198
C -1.7671884967 -1.5964067847 -0.1815901694
C -1.6448175653 -0.4134790377 -0.9149237395
C -0.8322884877 0.6111469691 -0.4333216565
C -0.1554242948 0.4437940383 0.7622419189
C -0.2632253050 -0.7313641833 1.4961594841
C -1.0713782955 -1.7536396712 1.0212478059
O 0.5984584116 1.5060387246 1.2764769209
C 1.9193119090 1.5753250293 0.9541745237
N 2.5324871689 2.6227760370 1.4948698554
C 3.8335946588 2.7843047813 1.2413110592
C 4.5604824226 1.9093841411 0.4428616254
C 3.9011708927 0.8129061610 -0.1175007279
C 2.5556024470 0.6327814570 0.1347492757
C 6.0177617187 2.1035434041 0.1873280433
F 6.7664939455 1.1027336370 0.7287436251
F 6.4867069448 3.2639395920 0.6964900110
F 6.3036115564 2.1066488373 -1.1424447309
H -2.7094858615 2.6583087118 0.9204248493
H -2.5002504067 2.3245774255 2.6448263292
H -3.9466770709 3.1774153696 2.0772853775
H -4.4663403612 0.7629934134 2.5905528291
H -3.2246286508 0.2556509656 1.4495878899
H -4.4965712815 1.3872966037 -0.4128027906
H -5.7418302282 1.8544430424 0.7416034155
H -6.1580619203 -0.5867130310 1.2445908672
H -6.4913211154 -0.1379904414 -0.4535302995
H -2.9093221501 -2.1855445197 -2.5491130568
H -3.4175620016 -4.5726516348 -2.1034694452
H -4.7006478543 -4.1017545824 -0.9590696659
H -4.8613147013 -3.7195397027 -2.6920856969
H -2.1707208096 -0.2641978875 -1.8500210483
H -0.7316321284 1.5392326945 -0.9863577729
H -1.1855539673 -2.6765529719 1.5797251445
H 4.3100960625 3.6490682192 1.6953472976
H 4.4354530498 0.1074824047 -0.7463045631
H 2.0157568993 -0.2056799986 -0.2863546326
H 0.2755531613 -0.8362857862 2.4321788884
