39
CONF141
C 3.2164038096 -0.0292659312 -3.5865868741
C 2.7748651835 0.8102184175 -2.3894081474
C 3.2932925412 0.2457634829 -1.0677029780
C 2.8977900905 1.0783871306 0.1519387648
N 1.4476930390 1.1481645372 0.3541015571
C 0.7813442222 0.1565833102 0.9604393483
O 1.2966254021 -0.8630439622 1.4208051340
N -0.6291257561 0.3572923158 1.0616429077
C -1.3587331888 1.5577799529 1.0645275674
C -0.9874367422 2.8931976666 1.1634658450
C -2.0177146424 3.8342906197 1.1812474803
C -3.3629526904 3.4516659287 1.1215390391
C -3.7276033738 2.1098088129 1.0567650712
C -2.7111462826 1.1584864537 1.0341844965
N -2.8213788465 -0.2266213381 1.0254052967
C -1.5920733612 -0.6667952036 1.0475142078
N -1.1718135784 -1.9727763404 1.0585885234
C -1.9566710900 -3.0837416634 0.8139287832
O -3.1285455256 -3.0906810061 0.5028896840
O -1.1882782199 -4.1818122171 0.9753782452
C -1.8652783500 -5.4387592284 0.7314812962
H 4.3092423007 -0.0719268459 -3.6516441013
H 2.8383193080 0.3860871841 -4.5258327127
H 2.8464580811 -1.0568306172 -3.4991725756
H 1.6787195757 0.8589232407 -2.3637432621
H 3.1321598207 1.8420818451 -2.5060595008
H 2.9345891343 -0.7826725180 -0.9343335194
H 4.3897129696 0.1990686280 -1.0935402856
H 3.2516552103 2.1085263008 0.0405208083
H 3.3428946476 0.6631911090 1.0601984238
H 0.9292906086 1.8400009320 -0.1667101983
H 0.0443716796 3.2141462226 1.2438759150
H -1.7629674564 4.8866242998 1.2508487058
H -4.1340594446 4.2150646375 1.1383906719
H -4.7685186758 1.8040419116 1.0340951248
H -0.1844067743 -2.1116798565 1.2604556147
H -2.2256575685 -5.4794165645 -0.2989817859
H -2.7002833770 -5.5584422446 1.4256146089
H -1.1107808805 -6.2049308946 0.9038732171
