40
CONF6
C -4.1397073853 -3.2650843697 -1.0266276101
C -3.3653596683 -2.0337019803 -0.6509280664
C -2.3314244237 -1.5645013623 -1.4685151329
C -1.6257500882 -0.4154326149 -1.1474060264
C -1.9288602332 0.3002243238 0.0180719788
C -2.9638303936 -0.1604291874 0.8373320117
C -3.6693516937 -1.3098918000 0.5035276098
C -1.2210757980 1.5304748115 0.3700599031
C -1.7371218542 2.7474798162 0.7741047371
C -0.6224453701 3.5979302843 0.8721842538
N 0.5136398729 2.9831222246 0.5681696481
N 0.1417575202 1.7197228718 0.2685173612
C 1.1579719479 0.7690887705 -0.0064014672
C 1.0786213794 -0.5172232153 0.5265520477
C 2.0788649885 -1.4363324872 0.2423616409
C 3.1534368284 -1.0496144184 -0.5521192577
C 3.2434538342 0.2371729020 -1.0748204478
C 2.2383079642 1.1530797458 -0.8003913068
S 4.4611347025 -2.2382161293 -0.9045173742
O 3.8986097138 -3.5755519651 -0.7119982212
O 5.1199854385 -1.8103787317 -2.1389620984
N 5.6270350285 -2.0565902697 0.3166798588
C -0.6307479265 5.0377140092 1.2690709831
F 0.5903810884 5.5904193502 1.2356861188
F -1.4373262315 5.7618745786 0.4509096849
F -1.1234017968 5.1914255689 2.5251763995
H -3.4768156844 -4.0520388020 -1.3978576875
H -4.7000845964 -3.6588753265 -0.1754610080
H -4.8576779517 -3.0411543236 -1.8241545278
H -2.0811398117 -2.1057544274 -2.3766829565
H -0.8384111323 -0.0649305584 -1.8069721288
H -3.2016757765 0.3786271263 1.7491546806
H -4.4654092356 -1.6552056925 1.1569724966
H -2.7782410403 2.9906606586 0.9157605318
H 0.2397390781 -0.7969654989 1.1522651785
H 2.0241979516 -2.4488934095 0.6263890114
H 4.0774997867 0.5062437686 -1.7135380664
H 2.2763423489 2.1606139273 -1.1966384426
H 5.2401568134 -2.2728937312 1.2307343199
H 6.0347220227 -1.1262149344 0.3010166021
