42
CONF2
C 4.6853025923 -3.1694744227 -0.5616907914
C 3.7794862034 -2.1230596541 -0.0005858928
N 2.5836363430 -2.5301888079 0.4503710691
C 1.8010024138 -1.5457954431 0.9053520801
N 2.1390033401 -0.2500245893 0.9657666108
C 3.3491188685 0.0243055039 0.4773328953
N 4.2168941050 -0.8587198527 -0.0173950553
O 3.7678962847 1.2887459686 0.4709890001
C 2.8863781301 2.2842835090 1.0329630046
N 0.5558467325 -1.9343109069 1.3427156996
C -0.5760455722 -1.1833548229 1.7281220749
O -1.6267588451 -1.7439961900 1.9633064911
N -0.3594594881 0.1702897519 1.7990988866
S -1.5985670002 1.3253981467 1.9898620368
O -2.1482760189 1.2249427820 3.3379383038
O -0.9519922554 2.5599853916 1.5305875771
C -2.8882875410 0.8415509016 0.8449739879
C -4.1643151157 0.6681579514 1.3641958499
C -5.2324865521 0.4184803987 0.5118663837
C -5.0074131407 0.3466665311 -0.8567912430
C -3.7284868745 0.4978706435 -1.3846592101
C -2.6458449851 0.7311409287 -0.5346124589
O -1.3564196221 0.8354382700 -0.9476214874
C -1.1023040037 0.8843559256 -2.3509022154
C 0.3903411035 0.8843889349 -2.5564550927
Cl 1.0995137145 -0.7646675578 -2.2727615478
H 4.4277329228 -3.3287652020 -1.6155536486
H 4.5443864733 -4.1174672730 -0.0401308979
H 5.7241344070 -2.8424587319 -0.5120731669
H 1.9438919705 2.3363120711 0.4795208935
H 3.4301118118 3.2236434388 0.9398359371
H 2.6768929625 2.0681107762 2.0841168099
H 0.3663798389 -2.9236528821 1.2618181315
H 0.5369188822 0.5225339276 1.4418928048
H -4.3014305954 0.7355157530 2.4368590916
H -6.2290610920 0.2850295023 0.9162111561
H -5.8346991894 0.1625391926 -1.5345685316
H -3.5878660819 0.4261331338 -2.4552839488
H -1.5225450673 1.8130729979 -2.7680699806
H -1.5505603337 0.0244900628 -2.8634421507
H 0.6264124088 1.1569482261 -3.5870647433
H 0.8815392729 1.5756065249 -1.8679825013
