30
CONF1
C -4.9917492956 0.1940900285 -0.2949039599
C -4.2316095791 1.2704846229 -0.7648633873
C -2.8496804377 1.2498382084 -0.6813817999
C -2.1625743103 0.1544291996 -0.1205099686
C -2.9391346687 -0.9824585994 0.2386578151
C -4.3443088969 -0.9284971621 0.1806328116
C -2.2877044362 -2.2150139230 0.5561498792
C -0.9474898028 -2.3496772058 0.4319696197
C -0.1041525506 -1.2270980523 0.1365219449
C 1.2817870741 -1.3532013029 0.0497433770
C 2.1480949476 -0.2549451169 -0.0926401558
C 3.5556180283 -0.3798876038 -0.2312337969
C 4.3605804048 0.7271558117 -0.2948453621
C 3.7983815621 2.0186053942 -0.2174622740
C 2.4430506888 2.1797107927 -0.0860182817
C 1.5691930084 1.0609433349 -0.0324652063
C 0.1622398949 1.1805160315 0.0578490809
C -0.7053573849 0.0859110218 0.0083501864
Cl -0.4513308081 2.8043420247 0.3685085434
Cl 1.9981784893 -2.9569881739 0.1580578152
H -6.0754260956 0.2248937654 -0.3432428074
H -4.7228749466 2.1288798402 -1.2117409099
H -2.3026359496 2.0819625574 -1.0976481664
H -4.9087279739 -1.8049095611 0.4859077606
H -2.9007610050 -3.0681012856 0.8313093371
H -0.4871623608 -3.3149435617 0.5964764535
H 3.9934057357 -1.3684606809 -0.2865675256
H 5.4335175128 0.6094292334 -0.4052748727
H 4.4404720381 2.8916563438 -0.2703181605
H 2.0286820030 3.1783214266 -0.0436838311
