58
CONF23
C 5.4636614866 -2.5020957783 -1.1601716801
C 6.1753834578 -1.1461139975 -1.1653348734
C 6.5835452613 -0.7510528226 -2.5869209576
C 5.3444878137 -0.0522001239 -0.4721926201
C 4.0427939350 0.3426276617 -1.1721132990
C 3.2201224064 1.3281375487 -0.3438015778
C 1.9131170676 1.7398394402 -1.0182625530
C 1.0250668899 2.5860739205 -0.1094888751
C -0.3523968227 2.8650326561 -0.7123671177
C -1.3724582059 3.3360630388 0.3027061110
O -1.5827310365 2.3753961026 1.4054833840
P -2.0954124613 0.8904964141 1.2257026505
O -2.5721937017 0.2973543442 2.4929458659
O -0.9454069386 0.0309835457 0.4758629486
C 0.1417723255 -0.5889375634 1.0857893371
C 0.7907997048 -1.5461700051 0.3131827503
C 1.9232407075 -2.1731183689 0.8209333920
C 2.3989979194 -1.8491684975 2.0901369561
C 1.7318417168 -0.8928508388 2.8507581687
C 0.5979535060 -0.2510035567 2.3555855001
O -3.1482929661 1.0328088075 0.0191515804
C -3.7470846717 -0.1089837238 -0.5432180701
C -4.8044908525 -0.7222019344 0.1136841863
C -5.4139342590 -1.8202152393 -0.4897330104
C -4.9682521615 -2.2828619231 -1.7258579683
C -3.9067655935 -1.6464098485 -2.3663405234
C -3.2847156855 -0.5499177468 -1.7750805909
H 4.5566902595 -2.4787446169 -1.7746545431
H 6.1155300818 -3.2844551363 -1.5637921603
H 5.1737904732 -2.7911457285 -0.1436126043
H 7.0958575168 -1.2573441088 -0.5745010393
H 5.7118540268 -0.7056497737 -3.2491699845
H 7.2810099836 -1.4829679459 -3.0083612379
H 7.0704342587 0.2305826646 -2.6022553219
H 5.1049398903 -0.3925543237 0.5458934996
H 5.9686847071 0.8454073420 -0.3598745050
H 3.4301729965 -0.5494565043 -1.3581526209
H 4.2609123469 0.7854679440 -2.1527597253
H 2.9856583818 0.8653494537 0.6260022876
H 3.8217707675 2.2220264682 -0.1259727095
H 2.1247863143 2.2806757829 -1.9513195970
H 1.3615855957 0.8324613363 -1.3020097721
H 1.5222987605 3.5352076986 0.1305267177
H 0.9036474469 2.0544445226 0.8416630408
H -0.2867852457 3.6499438457 -1.4770942401
H -0.7302035140 1.9709624404 -1.2226269261
H -2.3456979512 3.5284782992 -0.1565914769
H -1.0327969701 4.2353251815 0.8220102990
H 2.4350980133 -2.9162015066 0.2178276008
H 3.2834753412 -2.3393471169 2.4832608880
H 2.0944080680 -0.6324293954 3.8400409716
H 0.0896504159 0.4986494398 2.9519947703
H -5.1403391904 -0.3435659114 1.0727557063
H -6.2426947068 -2.3108389636 0.0104077039
H -3.5582122334 -2.0022717831 -3.3305455763
H -2.4560715751 -0.0396287043 -2.2540489917
H 0.4081436793 -1.7808401736 -0.6744976809
H -5.4493377352 -3.1368736889 -2.1911073313
