57
CONF97
C -1.5648439152 -1.0468887779 -2.7681025151
C -1.5318798466 -0.1044595498 -1.5700988430
C -2.6365196516 0.9656612621 -1.7527337106
C -2.6864187112 2.0415551562 -0.7035386835
C -3.4606491772 1.8819751363 0.4504088631
C -3.4899789884 2.8692648989 1.4314284663
C -2.7467209715 4.0373400782 1.2699359518
C -1.9837181842 4.2135350770 0.1176992878
C -1.9562500466 3.2228053754 -0.8605097151
C -1.6531082897 -0.8044217023 -0.2270847027
C -2.3794795282 -1.9916598352 -0.1072266137
C -2.5368235656 -2.6054242819 1.1340141786
C -1.9689535755 -2.0422674680 2.2732168618
C -1.2495793297 -0.8544074627 2.1623934795
C -1.0986712235 -0.2379680395 0.9247700677
O -0.2624507441 0.6726132860 -1.5772424725
P 1.1642128694 0.1000963973 -1.9594949404
O 1.5242199317 -0.0503130414 -3.3856583855
O 1.2314318984 -1.2537317804 -1.0819031716
C 2.0721527397 -2.3309433275 -1.3694514832
C 1.5149160958 -3.5960621447 -1.2319123885
C 2.3166281053 -4.7119785754 -1.4543787208
C 3.6546511130 -4.5577194216 -1.8126155256
C 4.1932892629 -3.2797243656 -1.9422365732
C 3.4060696301 -2.1522999252 -1.7173012999
O 2.1553528521 1.1563388130 -1.2545453931
C 2.0169957374 1.4838180740 0.1064999833
C 2.5579203307 0.6460601943 1.0720212162
C 2.4187589549 0.9982783048 2.4126486042
C 1.7537190517 2.1700623488 2.7682324799
C 1.2346289759 3.0032625089 1.7788332469
C 1.3665846598 2.6641568945 0.4348982913
H -0.8641573531 -1.8782539084 -2.6524903840
H -1.3229250401 -0.4895091029 -3.6761196970
H -2.5692709782 -1.4593692858 -2.8858013658
H -3.5845745399 0.4176730593 -1.7714218523
H -2.4903985891 1.4132669854 -2.7418372224
H -4.0420554262 0.9730744312 0.5807595345
H -4.0956093981 2.7279900536 2.3216193229
H -2.7686198799 4.8086323191 2.0337281432
H -1.4069774227 5.1235105817 -0.0195275449
H -1.3609396115 3.3646806008 -1.7580761938
H -2.8290963676 -2.4523298054 -0.9796635787
H -3.1008056360 -3.5304013573 1.2054365419
H -2.0861639802 -2.5240935698 3.2388479678
H -0.8046618874 -0.4009583136 3.0432318438
H -0.5421745765 0.6893584087 0.8538258542
H 0.4704453428 -3.6927831067 -0.9536849339
H 1.8897155372 -5.7042861701 -1.3494783269
H 4.2756396177 -5.4299205559 -1.9878676918
H 5.2356587015 -3.1517291566 -2.2161393922
H 3.8265751032 -1.1562645387 -1.8080545712
H 3.0705408208 -0.2637717383 0.7791265249
H 2.8307089331 0.3499463142 3.1793541209
H 1.6443820282 2.4358756208 3.8145606679
H 0.7180155488 3.9187020613 2.0495100922
H 0.9573150020 3.2897017142 -0.3500374963
