52
CONF127
C -4.4690655369 -2.0806158793 2.5495659565
C -4.3180044357 -0.9267044745 1.6007009765
C -3.2755167178 -0.7469723184 0.7731259603
C -2.1454337704 -1.6782027444 0.6021249575
C -0.6846531274 -1.3036877431 0.9613464113
C -1.1256192347 -1.5394431770 -0.4883946369
C -1.1697995521 -0.3816076400 -1.4573171419
C -0.5991220911 -2.8174769098 -1.1057616208
C -0.3428248489 0.0369911811 1.4467072128
O -0.9601458733 1.0700025224 1.2662186770
O 0.8248013097 -0.0154990982 2.1546041294
C 1.3356889087 1.2341921558 2.6691573029
C 2.3323566188 1.8665284935 1.7318944632
C 2.2178458036 1.7249966415 0.3505303402
C 3.1393613864 2.3549911681 -0.4815396034
C 4.1630202446 3.1411478319 0.0373361428
C 4.2628719582 3.2861761921 1.4175444636
C 3.3623267875 2.6470107087 2.2643307152
O 3.0340340832 2.3012518958 -1.8597714424
C 2.6284331646 1.1291738124 -2.4739107092
C 1.8430198594 1.2637891005 -3.6151940729
C 1.4777523805 0.1256556853 -4.3286813957
C 1.8852581554 -1.1361507692 -3.9018431161
C 2.6705830799 -1.2536394125 -2.7561581813
C 3.0509520723 -0.1249981130 -2.0360591062
C -5.4479895425 0.0634645091 1.6406204581
H -3.6128002508 -2.7568501283 2.5525638759
H -4.6079955476 -1.7056367578 3.5713747358
H -5.3693497903 -2.6603166118 2.3083228988
H -3.2733535378 0.1476132303 0.1574307939
H -2.3523897433 -2.7069989383 0.8836435946
H -0.0875172307 -2.0977960506 1.3965563069
H -1.4919887702 0.5507231551 -0.9941932673
H -1.8534042772 -0.6181932985 -2.2806690701
H -0.1731142786 -0.2228781153 -1.8849802284
H 0.4166139070 -2.6672805348 -1.4881988641
H -0.5811568506 -3.6360850278 -0.3806585852
H -1.2363774768 -3.1156456209 -1.9463241925
H 0.4991165708 1.9150735760 2.8593206088
H 1.8157302368 0.9854068565 3.6184437838
H 1.4240500625 1.1301471785 -0.0866416012
H 4.8639287351 3.6221759687 -0.6363658854
H 5.0623578661 3.8902102982 1.8348017013
H 3.4594298964 2.7502463033 3.3411064430
H 1.5316898723 2.2534548601 -3.9328270748
H 0.8648789149 0.2291262284 -5.2186835842
H 1.5930930337 -2.0219778428 -4.4560836492
H 3.0003230196 -2.2318792813 -2.4201471934
H 3.6710819019 -0.2150707947 -1.1506452096
H -5.2960740323 0.8828425896 0.9331911410
H -5.5555090548 0.4866748233 2.6475917691
H -6.4013923800 -0.4274588795 1.4061581225
