47
CONF22
C 4.8349609103 -1.8066427036 0.9222544115
C 4.4139207000 -0.7988296394 -0.0710313475
C 3.2131432759 -0.2087018920 -0.3743694697
C 3.5196467103 0.6913499339 -1.4448193066
N 4.7962783764 0.6386637459 -1.7606881179
O 5.3668635493 -0.2964410628 -0.8751867488
C 2.6221109744 1.5670662296 -2.2129872279
C 1.3907845296 1.0834634779 -2.6727239276
C 0.5523686899 1.9077055708 -3.4142318041
C 0.9337736962 3.2170325913 -3.7027399095
C 2.1597250027 3.7001656346 -3.2504308718
C 3.0034049769 2.8808785639 -2.5074294749
C 1.9527256233 -0.4677754873 0.3431792595
O 1.6943303226 -1.5691212333 0.8372567949
N 1.1025199953 0.5885482660 0.4556251178
C -0.1999033686 0.4489775354 1.0227422221
C -1.2653632240 -0.4996290503 0.3681749873
N -1.3658160911 -1.1983681538 1.6547289614
C -0.4116935717 -0.4134844246 2.2910972981
O -0.0024752770 -0.4068561568 3.4284852593
C -2.6765135194 -1.5842927170 2.1239158549
C -3.6620589617 -0.4542328440 1.6425693980
S -2.9609598110 0.1078061246 -0.0082332350
C -5.0930231634 -0.9351004612 1.4297643584
C -3.6250777892 0.6958210078 2.6495633121
C -3.0911042007 -2.9709340252 1.6558843717
O -3.8081778159 -3.7010026895 2.3046882165
O -2.5964736135 -3.2785366180 0.4473880885
H 4.7575665709 -2.8115890781 0.4923937179
H 4.1819870590 -1.7651298229 1.7951498886
H 5.8719726272 -1.6353523417 1.2194188796
H 1.0977626263 0.0597514472 -2.4600815918
H -0.3984519542 1.5249714066 -3.7710971528
H 0.2755556097 3.8595934003 -4.2788186028
H 2.4580189715 4.7201554709 -3.4707786900
H 3.9527062343 3.2574558322 -2.1410846639
H 1.3602647084 1.4809282831 0.0601245183
H -0.6253892955 1.4418646855 1.1934482950
H -0.8921272078 -1.1062020833 -0.4606787983
H -2.6788694983 -1.6102449503 3.2179373812
H -5.7161309594 -0.1040028765 1.0879914481
H -5.5015376533 -1.2959642968 2.3793864378
H -5.1534389535 -1.7376275000 0.6900764445
H -2.6047819337 1.0395999758 2.8410311414
H -4.2034575020 1.5420163935 2.2703727670
H -4.0651651973 0.3666749589 3.5979218756
H -2.9144018342 -4.1644282578 0.1982654669
