51
CONF200
C -0.0789755433 2.9400168834 0.1492199681
C -1.3131294212 2.0887393375 0.2108500518
C -1.9868757214 1.9115392266 1.3570788514
C -3.2326158079 1.1192572216 1.4870061455
C -3.2008645372 -0.4249285597 1.6890394200
C -3.6849197432 0.5203190046 2.7807879861
C -2.8793335747 0.7269436907 4.0433027695
C -5.1795255036 0.4728249378 3.0278429290
C -1.8905713805 -1.0899882038 1.6771868656
O -0.8895676382 -0.7693802019 2.2907831318
O -1.9182663433 -2.1392545698 0.8099205332
C -0.6354498467 -2.7978564761 0.5541795686
C 0.1882135987 -2.0228361047 -0.4135137473
C 0.1557183916 -2.1546049138 -1.7686456408
O 1.0154522996 -1.2696940841 -2.3537844552
C 1.6144275561 -0.5551212032 -1.3412983879
C 1.1399440702 -0.9822609250 -0.1409544517
C 2.6209735426 0.4578629585 -1.7522176226
C 3.8049311741 -0.1625175606 -2.4682682263
C 4.6925084947 -0.9873156358 -1.7709999134
C 5.7719238938 -1.5759932010 -2.4218358951
C 5.9760394657 -1.3510611741 -3.7832545924
C 5.0951304628 -0.5329177533 -4.4850558577
C 4.0153160750 0.0575596156 -3.8295796059
C -1.7042129250 1.4386757526 -1.0835739235
H 0.7791915795 2.3409846238 -0.1825641810
H 0.1593595095 3.3831967930 1.1196129666
H -0.1986194576 3.7467589495 -0.5851899462
H -1.6103853953 2.3945316693 2.2569428568
H -4.0322175479 1.4022513733 0.8039991340
H -3.9720555329 -0.9656468542 1.1506069868
H -3.1844382900 1.6681363786 4.5148321977
H -3.0823194238 -0.0844544038 4.7507583202
H -1.8069102976 0.7545490262 3.8581830873
H -5.4302932132 -0.3461271856 3.7110847249
H -5.5129408302 1.4114624416 3.4846875623
H -5.7354367325 0.3283867941 2.0968119151
H -0.1119009594 -2.9410437035 1.5022059386
H -0.9188000076 -3.7657279932 0.1376774193
H -0.3937856138 -2.8005512754 -2.4370486575
H 1.4218167865 -0.6006261924 0.8285461220
H 2.9566184748 0.9699505039 -0.8445449324
H 2.1541971193 1.2097029180 -2.4002190277
H 4.5326962982 -1.1677593950 -0.7108090045
H 6.4563805878 -2.2106562898 -1.8670000914
H 6.8177241449 -1.8106431476 -4.2919090871
H 5.2466005445 -0.3523375870 -5.5450085373
H 3.3292792113 0.6956987425 -4.3801569950
H -2.5758145085 0.7888753795 -0.9828006288
H -0.8673535276 0.8367949579 -1.4625797811
H -1.9168629515 2.1962850278 -1.8486276657
