45
CONF33
C 1.4826736395 -3.7109667020 -1.4600961125
C 2.0656630654 -2.3085713622 -1.3695673039
C 1.0438048256 -1.3704411959 -0.7108356102
O 0.9740817362 -1.2251445495 0.5066024373
N 0.1964670829 -0.7571248575 -1.5728463999
C -0.8630532445 0.0874157360 -1.1160113547
C -2.0197087710 -0.4772147057 -0.2191901224
N -1.6662678350 0.5287989534 0.7883466960
C -0.6111804851 1.0618592115 0.0611295544
O 0.1422712020 1.9807826963 0.2842058885
C -2.7372020021 1.2044709784 1.4800877937
C -3.8898279012 1.3854139177 0.4224270960
S -3.7826590781 -0.1579225204 -0.6450325008
C -5.2852607534 1.4597060130 1.0326836124
C -3.6040339838 2.6316577497 -0.4150289969
C -3.1753298265 0.3915013205 2.6890413712
O -3.1135580251 -0.8155080378 2.7637590249
O -3.6585484924 1.1862347595 3.6571599804
O 3.2389099121 -2.4030737295 -0.5626354577
C 4.0356572865 -1.2952682311 -0.4335922446
C 5.1383115265 -1.4509769086 0.4128581916
C 6.0159256096 -0.3932163997 0.6072894047
C 5.8068481567 0.8293095035 -0.0336163413
C 4.7080244927 0.9754099495 -0.8731355771
C 3.8158003853 -0.0777293729 -1.0816292942
H 2.2148683534 -4.3841255393 -1.9126642754
H 1.2249720639 -4.0762977948 -0.4620454034
H 0.5823778572 -3.7020725764 -2.0797143939
H 2.3267486992 -1.9432749382 -2.3722786493
H 0.3086672770 -0.8972794535 -2.5667262014
H -1.2709190088 0.6458093064 -1.9630736603
H -1.8925623401 -1.5147839588 0.0980613659
H -2.3991333947 2.1912403418 1.8118240426
H -5.5274036962 0.5689884161 1.6183820043
H -6.0301978973 1.5625859221 0.2387346151
H -5.3557075106 2.3410106412 1.6781551137
H -2.5981361872 2.6169283010 -0.8433908688
H -4.3221964653 2.7036205231 -1.2357756841
H -3.7004791290 3.5240478782 0.2140465743
H -3.9718446768 0.6280252627 4.3911127509
H 5.2904251848 -2.4052226621 0.9071188453
H 6.8688670522 -0.5246473438 1.2661721205
H 6.4928732208 1.6552344967 0.1215991769
H 4.5304413653 1.9196323147 -1.3788740513
H 2.9705309210 0.0710528578 -1.7430379662
