82
CONF31
C -4.7290883289 3.1177171236 -2.5312018691
C -4.0363675955 2.8039922352 -1.2339480990
C -3.4235849759 3.7568537217 -0.5254903946
C -4.1745849418 1.3602129967 -0.8060521127
C -5.5858482291 1.1257735887 -0.1442430062
C -5.3055076162 0.4429034805 1.2117727167
C -3.9701309037 -0.2775879087 0.9923111256
C -3.1793609973 0.8143892327 0.2335613450
C -1.8159320753 0.3083340766 -0.2366090881
C -1.0374644328 1.3042676211 -1.0989719686
C 0.3201851467 0.7549609613 -1.5534968604
C 1.1601897961 0.1657616581 -0.4075492723
C 2.6149334314 -0.2492022453 -0.8396866226
C 3.3293066773 1.0190163453 -1.3621255180
C 4.8412445261 0.8539875783 -1.4950230201
C 5.4740136691 0.4394097215 -0.1806386145
C 4.8951403766 -0.8814707963 0.3840316177
C 3.3452146112 -0.7020953205 0.4630078342
C 2.6106761759 -1.8802783605 1.1067538740
C 1.1996876273 -1.4741541411 1.5343328707
C 0.3394389220 -0.8968216343 0.3907736765
C -0.9529881912 -0.1641646499 0.9796730574
C -1.7586688257 -1.1166789749 1.9080528839
C -3.1827551355 -0.6403416596 2.2501993477
C -0.5735522495 1.0515326488 1.8597440426
C -0.0701610777 -2.0898335641 -0.5042621119
C 5.3506313989 -2.0954763818 -0.4373667198
C 5.4449507198 -1.0554640054 1.8139910685
O 6.8945263190 0.3804431907 -0.4126928498
C 2.6281490797 -1.3014832723 -1.9683671532
C -4.2178315437 -1.5279675357 0.1227895075
O -5.0925840035 -2.4798463927 0.7541919634
H -4.6951440356 4.1842164731 -2.7674094341
H -4.2628970663 2.5595700373 -3.3532838474
H -5.7783890119 2.7983823021 -2.4952007687
H -3.4141189130 4.7855341020 -0.8758643924
H -2.9113820590 3.5516410334 0.4088610372
H -4.1079421776 0.7473438451 -1.7162655072
H -6.1201144650 2.0716210031 -0.0155085317
H -6.2085316610 0.4910437644 -0.7820244710
H -5.1789296581 1.1971298277 1.9985255792
H -6.1110871060 -0.2308160077 1.5185244322
H -3.0171784179 1.6111189562 0.9715506585
H -2.0022844855 -0.5675589046 -0.8688471586
H -1.6343242691 1.5597786966 -1.9830721628
H -0.8995271276 2.2448042021 -0.5553066014
H 0.8720693920 1.5632597893 -2.0435785710
H 0.1462244291 -0.0034316538 -2.3251173118
H 1.3433670172 0.9826260976 0.3023326381
H 3.1261025835 1.8501954248 -0.6712751453
H 2.9204265992 1.3069905420 -2.3364440869
H 5.0946516539 0.1187832023 -2.2682479191
H 5.2872658344 1.8037500827 -1.8130319374
H 5.2639409872 1.2259646396 0.5656135532
H 3.2147747884 0.1493927359 1.1546188873
H 3.1462675727 -2.2237935222 1.9966269739
H 2.5818004922 -2.7369780984 0.4247092195
H 1.3086532826 -0.7378503785 2.3379735524
H 0.6859567336 -2.3404064512 1.9696597348
H -1.8281350663 -2.1165386250 1.4707858604
H -1.2007717140 -1.2412337783 2.8436555058
H -3.6910420123 -1.4192271540 2.8348325268
H -3.1479245127 0.2439207752 2.8987200967
H 0.1707243215 0.7755619810 2.6100238513
H -1.4460066623 1.4159999005 2.4076126078
H -0.1784860738 1.8976282344 1.2976937694
H -0.8835214040 -2.6619450813 -0.0514217668
H 0.7645437855 -2.7810994175 -0.6260642462
H -0.3917238532 -1.7985045698 -1.5051313500
H 5.1685822278 -1.9835888154 -1.5067451439
H 6.4242183198 -2.2554618386 -0.2983758197
H 4.8324759134 -2.9982912542 -0.0990354439
H 5.1750203611 -2.0280694751 2.2331608850
H 5.0663141025 -0.2735420261 2.4825698086
H 6.5401101635 -1.0132068413 1.8205340858
H 7.3365594379 0.2687964735 0.4371158067
H 1.7832936566 -1.1522078771 -2.6452771032
H 3.5329746044 -1.2186996811 -2.5738087153
H 2.5813587412 -2.3276958699 -1.6014230703
H -4.7164506782 -1.2517960467 -0.8106259044
H -3.2766073989 -2.0203550251 -0.1449216408
H -4.6070369330 -2.8894450033 1.4801455368
