45
CONF130
C -6.4325555884 -0.3671827013 -2.0861845541
O -5.6741172590 0.3137820004 -1.0657927369
N -4.3663986935 -0.1177445838 -1.1025945209
C -3.6228068017 0.4422377001 -0.1987585044
C -4.0245870261 1.4079011865 0.7884422569
C -5.1572153613 2.1580139499 1.0129977577
C -4.9312722774 2.8931196937 2.2060370304
C -3.6891126798 2.5443140090 2.6457913381
O -3.1198980511 1.6469136389 1.8028091104
C -2.1704467409 0.0406180855 -0.2840518803
O -1.2630387763 0.8642402230 -0.1890476011
N -1.9481513793 -1.2785438988 -0.5004443964
C -0.6312678635 -1.7866813498 -0.7262870028
C 0.4429900754 -1.7048041933 0.4030111728
N 1.2938785025 -0.9683610943 -0.5277204946
C 0.3732081765 -0.9517090171 -1.5638812543
O 0.4129363643 -0.5135677186 -2.6886523767
C 2.6750679718 -0.8190764637 -0.4384599615
C 3.3872894231 -1.4846674933 0.4930861979
C 2.7956566499 -2.4903287246 1.4374601398
S 1.2349338922 -3.2851020972 0.8806380769
C 4.8516669821 -1.2195009163 0.7182442379
O 5.0830131857 0.2051921703 0.7301506313
C 6.2719472135 0.6298068504 0.2064694470
O 7.1588506030 -0.1191967160 -0.1758285942
N 6.3207817345 1.9766202069 0.1935994463
C 3.2949762929 0.1465341869 -1.3970765144
O 4.2940496799 -0.0844824427 -2.0444531158
O 2.6037457316 1.2955570884 -1.4555889676
H -6.0265129543 -0.1397198652 -3.0762647472
H -6.4248229987 -1.4468046727 -1.9089383739
H -7.4469172972 0.0236938169 -1.9949407121
H -6.0370261622 2.1829311568 0.3926387730
H -5.6060954969 3.5908634542 2.6790088033
H -3.0945748435 2.8305973881 3.5000597772
H -2.7367954633 -1.9025372498 -0.5892737999
H -0.7038059530 -2.7978519453 -1.1379695394
H 0.1614818966 -1.1189083959 1.2825955071
H 3.5071654197 -3.3131232853 1.5759520234
H 2.6467343150 -2.0314221875 2.4241368703
H 5.1543314385 -1.6269611821 1.6892132089
H 5.4668441188 -1.6868479580 -0.0573185999
H 7.1292226728 2.4282294637 -0.1984060711
H 5.5246894641 2.5300876527 0.4642571238
H 3.0219571435 1.8728406386 -2.1186648227
