42
CONF189
C -5.6592457756 1.4484944908 3.5368817764
C -5.2261268013 1.5957490993 2.0803113999
C -4.0183927442 0.7353394171 1.7570798146
O -4.2941279670 -0.6620523811 1.8469722102
C -4.5734590167 -1.1039190197 0.5101847597
C -3.6133908711 -0.2567224441 -0.3165244167
O -3.5941897017 0.9863697737 0.4043435452
C -2.2319050856 -0.8783184684 -0.3922899173
O -1.3948088744 0.0297351614 -1.1201504043
C -0.0864605997 -0.3154042616 -1.2966239217
C 0.6955455343 0.6149313228 -1.9940146659
C 2.0362454994 0.3584531804 -2.2324684920
C 2.6003587261 -0.8280639088 -1.7687700445
C 1.8372741100 -1.7543659235 -1.0780377834
C 0.4843637497 -1.5057695253 -0.8405735461
O 3.9294095964 -1.1311049025 -2.0598141817
C 4.9178526484 -0.4339679609 -1.3966949341
C 6.2115596586 -0.5883333365 -1.8971988800
C 7.2695032999 0.0553814064 -1.2664330809
C 7.0468023431 0.8540082643 -0.1440791740
C 5.7508403800 0.9980604495 0.3437457121
C 4.6776441656 0.3573809915 -0.2740262628
H -5.9519102999 0.4174564987 3.7565415162
H -6.5124908804 2.0966413857 3.7548574838
H -4.8451185733 1.7228465786 4.2167121310
H -4.9564649649 2.6365424909 1.8651581314
H -6.0392630434 1.3209759132 1.3974862824
H -3.1882875026 0.9396996487 2.4494883614
H -4.3777952907 -2.1775303445 0.4593393355
H -5.6155096625 -0.9010139063 0.2305696567
H -3.9900190758 -0.0537819302 -1.3244547336
H -2.2928871410 -1.8411042108 -0.9189848706
H -1.8302312280 -1.0411737426 0.6172008943
H 0.2344179388 1.5314143303 -2.3476436021
H 2.6483215279 1.0728261820 -2.7741506796
H 2.2952171313 -2.6733203427 -0.7265326969
H -0.1002295654 -2.2429062853 -0.3043856156
H 6.3713364372 -1.2107159959 -2.7717622515
H 8.2748132591 -0.0659633507 -1.6582314544
H 7.8751810305 1.3570026678 0.3435219041
H 5.5635720452 1.6133205481 1.2185910853
H 3.6720567903 0.4709543337 0.1148596833
