49
CONF28
C -3.5233003745 -2.4065962858 -0.6191502236
C -3.9427837852 -1.3577275660 0.3892421576
C -3.0589807693 -0.1169129868 0.6305399455
C -3.2203895880 -1.2261825829 1.6971273217
C -3.9722493306 -0.8143412269 2.9480231417
C -2.0494271340 -2.1285734502 2.0232613360
C -1.7955699633 0.1137905688 -0.0659873134
O -0.9890734642 -0.6905562543 -0.4854366356
O -1.5931395349 1.4751112801 -0.2054739795
C -0.3336112415 1.8258819149 -0.8206154756
C -0.5002791518 3.2003051355 -1.2947224661
N -0.5927995644 4.2867901288 -1.6749681473
C 0.8260312075 1.7275394753 0.1511825345
C 1.9667000831 1.0263035740 -0.2255868219
C 3.0297602906 0.9379102516 0.6711368200
C 2.9517657600 1.5239519483 1.9318213748
C 1.7990351983 2.2138479656 2.2936057097
C 0.7347193524 2.3304077901 1.4055367389
O 4.1664407540 0.2088188337 0.3959718618
C 4.6109324167 0.1223603246 -0.9168702416
C 4.9943645803 -1.1321131857 -1.3763545184
C 5.5217766095 -1.2507250463 -2.6600718959
C 5.6553791707 -0.1280757179 -3.4736776280
C 5.2670330660 1.1225789578 -2.9948526406
C 4.7466907223 1.2581111712 -1.7114664380
C -5.4322712309 -1.0797369447 0.3132541254
H -4.0426269740 -3.3450309701 -0.3930349572
H -2.4524228334 -2.5958881212 -0.6326872293
H -3.8230153085 -2.0936810980 -1.6252915446
H -3.6023517048 0.7971812834 0.8457198701
H -4.7530810698 -0.0773854965 2.7571051476
H -4.4359901528 -1.6950139726 3.4077097278
H -3.2741677819 -0.3849988359 3.6745079902
H -2.4249022884 -3.0482411903 2.4865476605
H -1.3921918664 -1.6342739765 2.7471437464
H -1.4511996036 -2.3967718695 1.1549748802
H -0.1492416825 1.1828429485 -1.6890625715
H 2.0210294393 0.5440297630 -1.1959340361
H 3.7906081062 1.4315170335 2.6134210033
H 1.7384373659 2.6740598598 3.2743966790
H -0.1599856368 2.8772776458 1.6848391035
H 4.8788467677 -1.9958407412 -0.7300237449
H 5.8231775150 -2.2277517962 -3.0244703994
H 6.0627820960 -0.2252006169 -4.4745395696
H 5.3776065307 2.0033819408 -3.6195808740
H 4.4512194258 2.2297548968 -1.3290530150
H -5.9925522779 -1.9686192850 0.6259079384
H -5.7446417503 -0.2410352554 0.9364288730
H -5.7120893463 -0.8524792034 -0.7208238419
