54
CONF89
C 3.1431294281 -1.5409710933 2.4191668874
C 3.0426953988 -0.0319820596 2.6338048165
C 2.7629552183 0.6705234031 1.3294988989
C 2.2977314681 -0.0489191650 0.2206243801
C 2.0929595879 0.5786691219 -1.0105695539
C 2.3228239012 1.9401956836 -1.1513155680
C 2.7531139702 2.6455553643 -0.0395501893
C 2.9834850579 2.0437117014 1.1815261380
F 2.9603865470 3.9900029028 -0.1574206799
O 2.0324440180 -1.3928850290 0.2636361996
C 1.9668164644 -1.9988903206 1.5760721696
C 1.9267148782 -3.5148677035 1.3512315528
C 0.8972282231 -3.9904054259 0.3153632211
N -0.4723244616 -3.9170598241 0.8488056874
C -1.2027388962 -2.6670287573 0.6121709105
C -1.4680656935 -2.3136142502 -0.8538544134
C -2.1515684839 -0.9481509142 -0.9831717998
C -2.3750216810 -0.5108662265 -2.4194548970
C -3.0571680837 0.8551871369 -2.4340913189
C -2.3503505207 1.8088408063 -1.5066231416
C -1.5069493745 1.3201661887 -0.5002150924
O -1.2784933125 -0.0154979046 -0.3021751434
C -0.8195032090 2.1903949758 0.3489035989
C -0.9684958957 3.5645551261 0.2157461920
C -1.8146855994 4.0345608494 -0.7756837967
C -2.4981375540 3.1933191848 -1.6322655366
F -1.9727116167 5.3831202109 -0.9177053608
O -2.2515320033 -3.3237241433 -1.4990090047
O 1.6739947850 -4.1549106551 2.6032653058
H 3.1336457620 -2.0717119637 3.3746743713
H 4.0731181577 -1.7978333566 1.8957268652
H 2.2374947052 0.1855658784 3.3480104248
H 3.9652375314 0.3635249293 3.0714945844
H 1.7366039045 -0.0113185987 -1.8488584304
H 2.1551349612 2.4472550671 -2.0951573557
H 3.3423011505 2.6338481757 2.0196842996
H 1.0342878963 -1.6763382572 2.0636261899
H 2.9224495803 -3.8316676500 1.0119774979
H 1.0425043065 -3.4448052862 -0.6256625900
H 1.1139980667 -5.0454111941 0.1158806098
H -0.6685616484 -1.8364227036 1.0758086406
H -2.1737395710 -2.7428575598 1.1235924600
H -0.5266421602 -2.2716447769 -1.4152341931
H -1.4020120014 -0.4610334237 -2.9253061063
H -2.9859669063 -1.2562342137 -2.9342791326
H -3.0743621372 1.2712829810 -3.4465801338
H -4.1039948568 0.7470467084 -2.1203246727
H -0.1548240894 1.7763376150 1.1006562594
H -0.4387057470 4.2552657412 0.8627756166
H -3.1394277793 3.6077477368 -2.4045583050
H 0.7018645686 -4.2288874985 2.6351501076
H -3.1143955921 -0.9703345178 -0.4437297765
H -3.0678152874 -3.4355130776 -0.9911188413
H -1.0145267661 -4.6867639692 0.4751050117
