41
CONF142
C 5.0435974305 -0.4245874958 -0.4469607192
C 3.5298266340 -0.4421425233 -0.4120138177
O 2.9974361456 0.8648459218 -0.0593528831
C 2.9294851578 1.1413738091 1.2682279498
O 3.2549456847 0.3670738367 2.1586845890
N 2.4593455786 2.3978606142 1.4696006662
C 2.0821481332 2.8555384555 2.7989834578
C 0.8116481695 2.2071799545 3.3394786640
O -0.3098271528 2.4791216192 2.4801400000
C -0.5920849299 1.6375968597 1.4362125634
C -0.1814836315 0.3038853464 1.3430263755
C -0.5610490250 -0.4588824126 0.2418700435
C -1.3531688845 0.0997448821 -0.7512438235
C -1.7783957429 1.4192300730 -0.6607664244
C -1.3925659553 2.1879907433 0.4294669818
O -1.6754575272 -0.6406327456 -1.8872601069
C -2.6827998373 -1.5769593966 -1.7898167325
C -2.8522664004 -2.4040595193 -2.9015043105
C -3.8595503423 -3.3610206325 -2.8942194667
C -4.6971523267 -3.5018262725 -1.7871972259
C -4.5163641365 -2.6696677669 -0.6862688860
C -3.5121411516 -1.7024792563 -0.6760124097
H 5.4105629244 -1.4039865375 -0.7701193811
H 5.4541456742 -0.2121272709 0.5436768530
H 5.4055439183 0.3289131774 -1.1524228999
H 3.1489144651 -1.1828609555 0.2961743376
H 3.1095111458 -0.6406344033 -1.4006738080
H 2.0839069347 2.8866677731 0.6711054954
H 1.9442745326 3.9390921045 2.7438577051
H 2.8979236589 2.6528990141 3.5021039261
H 0.9482515464 1.1351337174 3.4975591112
H 0.5607296062 2.6638710124 4.3012581002
H 0.4396546246 -0.1559025951 2.1011773819
H -0.2397829666 -1.4924888911 0.1575637062
H -2.3980799793 1.8408578074 -1.4455692891
H -1.7038476740 3.2240301934 0.5137378306
H -2.1935896158 -2.2849968597 -3.7556522424
H -3.9883667446 -4.0030415381 -3.7602707032
H -5.4810713025 -4.2517127728 -1.7849419176
H -5.1627439847 -2.7661184822 0.1808402210
H -3.3800616587 -1.0567784659 0.1846795817
