47
CONF30
C -0.4746886677 4.7257714303 1.0034981759
O -1.3038168389 3.5616922180 1.1808105198
C -0.6666546937 2.4539460352 1.5550861780
C -1.2467780633 1.2358890060 1.4683070324
C -2.5706801663 1.0371665501 0.8399712804
C -3.6418415341 0.4755986579 1.5414239091
C -4.8852788468 0.2998271244 0.9482839088
C -5.0850550360 0.6819084575 -0.3751795070
C -4.0361542005 1.2308622492 -1.1025579309
C -2.7989162973 1.3968158582 -0.4966345151
O -1.8112270668 2.0215829593 -1.2537327314
C -0.6030940692 1.4225531951 -1.3921702202
C -0.4203356894 0.0506901295 -1.2573825814
C 0.9009162007 -0.3657510881 -1.3249527934
N 1.9246071758 0.4386063133 -1.5840930876
C 1.5978859307 1.7192032687 -1.7693111041
N 0.3898784498 2.2690308778 -1.6725029827
O 1.1348676986 -1.6957183630 -1.1267174537
C 2.4162047660 -2.1015845282 -0.7981877040
C 3.0581389467 -1.6178983012 0.3332058918
C 4.3020213214 -2.1341202624 0.6736773274
C 4.8986472632 -3.1286067755 -0.1015093001
C 4.2501887870 -3.6144993312 -1.2250284151
C 2.9965371797 -3.0995470526 -1.5885023057
C 2.3201520650 -3.5833327650 -2.7414821580
N 1.7876358468 -3.9920134322 -3.6848619179
C -0.4257116872 0.1000999271 1.9200072689
O 0.7223388999 0.1693056218 2.3245383885
O -1.0943126762 -1.0731411296 1.8054287807
C -0.3451557653 -2.2438110237 2.1883807217
H 0.1402156278 4.6022434094 0.1067464871
H 0.1549643561 4.8868070258 1.8861585034
H -1.1566434772 5.5661777973 0.8763924411
H 0.3471773253 2.5533153384 1.9436996676
H -3.4842094834 0.1844214835 2.5743216975
H -5.6997567310 -0.1306011562 1.5209365427
H -6.0539452188 0.5497893904 -0.8448567621
H -4.1574284467 1.5338800362 -2.1366552511
H -1.2259534865 -0.6374559594 -1.0377422057
H 2.4180492895 2.3926066480 -2.0159570377
H 2.5778287555 -0.8544472378 0.9369233237
H 4.8067746689 -1.7591609076 1.5577437182
H 5.8684416436 -3.5272045958 0.1745553211
H 4.6958280731 -4.3896039056 -1.8379469832
H -0.0100868891 -2.1615544245 3.2255598208
H 0.5232745947 -2.3706763970 1.5369150263
H -1.0348501574 -3.0790624724 2.0681914232
