43
CONF4
C -4.5772653523 -1.9018632212 0.5778647279
C -3.2635095114 -1.8038721823 -0.2181356615
C -3.6272111351 -1.5208496470 -1.6861678473
C -2.5475269284 -3.1620949259 -0.1399403503
C -2.3546312565 -0.6451518780 0.3298411041
C -0.9382704653 -0.6994078682 -0.3051904718
C -0.2414891404 0.6544775418 -0.5261950780
C 1.1290571018 0.4405638159 -1.1116688801
C 1.2966305601 0.2444652185 -2.4855852238
C 2.5516837350 -0.0032391224 -3.0334929235
C 3.6508605183 -0.0553268306 -2.1850268740
C 3.5235566892 0.1346913629 -0.8151751197
C 2.2576379143 0.3807626349 -0.2901602230
Cl 5.2487675600 -0.3630636228 -2.8665743159
C -2.2590348383 -0.7517390434 1.8713139469
N -1.3439073889 0.2216665527 2.4522208363
C -0.1029290163 0.0414787542 2.9410943172
N 0.4243925738 1.2073023521 3.3040525689
C -0.5636901248 2.0908355885 3.0005321906
N -1.6580851797 1.5419811626 2.4817030436
O -3.0295034486 0.5761457530 -0.0078529205
H -5.2586578949 -2.5843634238 0.0597170813
H -5.0677795938 -0.9271860216 0.6567885428
H -2.7443711523 -1.3694130991 -2.3144526121
H -4.2628978045 -0.6368298054 -1.7717129108
H -4.1763347295 -2.3792534545 -2.0867292825
H -2.2318391185 -3.4081220377 0.8788769985
H -3.2419765644 -3.9444320382 -0.4631383395
H -1.6712837615 -3.2089936220 -0.7923229316
H -0.9992828799 -1.1833483677 -1.2836365340
H -0.2934588871 -1.3409911236 0.3084138797
H -0.1450444068 1.2204982345 0.4043880562
H -0.8458885262 1.2566369933 -1.2117402747
H 0.4327887184 0.2895396205 -3.1436376453
H 2.6722461328 -0.1485364047 -4.1012115034
H 4.3937625558 0.0957570303 -0.1694898457
H -1.8963986142 -1.7388779695 2.1662194716
H -3.2411363045 -0.5817488874 2.3167750186
H 0.3604815109 -0.9336416997 3.0173907638
H -0.4859950211 3.1578982543 3.1664734561
H -2.6608804846 1.2861148516 0.5404030193
H 2.1500443541 0.5338766954 0.7805894691
H -4.4213022648 -2.3024355745 1.5844163129
