27
CONF182
C 3.2315910090 -1.1209918172 -0.0403792915
C 4.3940158695 -0.8599814974 0.9231818088
C 4.8505486357 0.5864507424 0.9921401016
O 5.2168786102 1.0138785607 -0.3311700805
C 1.9809519192 -0.3173779142 0.3279119332
C 0.8093899422 -0.6563444928 -0.5584674353
C -0.5018161958 0.0918570562 -0.1697611362
C -1.6600643159 0.0165757685 -1.2191036644
C -3.0697984475 0.3756094386 -0.6450152183
F -3.0208309765 1.5263519318 0.0417695067
F -3.5219941547 -0.5939394322 0.1588512431
F -3.9315606935 0.5184387374 -1.6627591401
F -1.7454175204 -1.2314278494 -1.7358928441
F -1.3977923147 0.8863707062 -2.2217820510
F -0.2151719404 1.4051764969 0.0230141387
F -0.9485301907 -0.4204785954 1.0080600999
F 0.5337832971 -1.9994821045 -0.5176040181
F 1.0769905768 -0.3473266427 -1.8718711335
H 3.5374163893 -0.8741344238 -1.0615103380
H 2.9979566184 -2.1901032595 -0.0197714890
H 4.1114643714 -1.1712937334 1.9367212353
H 5.2427975108 -1.4852350952 0.6213349724
H 5.7111563656 0.6628187183 1.6720225368
H 4.0529449001 1.2299064693 1.3919565129
H 5.4990430914 1.9344622380 -0.2741158086
H 2.1630533024 0.7565935908 0.2329333706
H 1.6846745444 -0.5151370520 1.3649141279
