51
CONF82
C 0.7280806555 -3.1865722209 1.2936287868
N -0.5032472976 -3.3662136947 0.5376674031
C -1.6780232453 -3.4146889907 1.4075265625
C -2.9067030033 -3.8548067898 0.6169709732
C -3.1365123814 -2.9350733770 -0.5818307101
C -1.8607504214 -2.8310653001 -1.4207681017
C -0.6513142175 -2.4127428840 -0.5724750645
C -0.7182795461 -0.9269656889 -0.1480928245
C -0.2571625021 0.0029545946 -1.2718736237
N -0.1277727665 1.3875534467 -0.8184822703
C -0.4744489065 2.4349317896 -1.6977235201
C -0.5298798492 2.2626031945 -3.0851487524
C -0.9299936357 3.3072364055 -3.9137628566
C -1.2400413564 4.5526597340 -3.3811003158
C -1.1385118900 4.7529385228 -2.0074863080
C -0.7762031539 3.7022816120 -1.1721292700
S -0.7549524789 3.9210383976 0.5917142262
C 0.6299685166 2.8681887007 0.9494512510
C 0.7827447578 1.6794969089 0.2158493682
C 1.8360454862 0.8239041164 0.5390986563
C 2.6940489305 1.1105068460 1.6074996375
C 2.5322946741 2.2921938217 2.3299896570
C 1.5144954691 3.1738644523 1.9738053422
S 3.9433579962 -0.1084540886 1.9410356718
C 4.8918271401 0.6387684766 3.3043856304
H 0.7519745253 -2.2807953764 1.9292524356
H 1.5799309280 -3.1342573494 0.6057211585
H 0.8796073688 -4.0505697238 1.9504102924
H -1.8742676156 -2.4396063456 1.9005690864
H -1.4733467621 -4.1338962301 2.2101726142
H -2.7447205012 -4.8814250359 0.2651508369
H -3.7844822180 -3.8629353713 1.2732544061
H -3.4388438178 -1.9418552357 -0.2259412417
H -3.9608285416 -3.3074095827 -1.2002788494
H -1.6432896866 -3.8093703025 -1.8657316854
H -1.9997472163 -2.1217088234 -2.2455335046
H 0.2531547437 -2.5350150323 -1.1888782716
H -0.0886388797 -0.7730825171 0.7313313762
H -1.7317598197 -0.6360256010 0.1445192261
H 0.6791244390 -0.3701377115 -1.7231206401
H -1.0087855815 -0.0009280849 -2.0645054220
H -0.2523727067 1.3127373721 -3.5266469394
H -0.9797913824 3.1439249075 -4.9852503206
H -1.5440702128 5.3692859640 -4.0265788952
H -1.3554154478 5.7236827022 -1.5733564305
H 1.9914136144 -0.0855809997 -0.0306167019
H 3.1828552719 2.5447530309 3.1570124255
H 1.3918808824 4.1028431389 2.5215863586
H 4.2736877118 0.7694325231 4.1965088138
H 5.6930999459 -0.0684234395 3.5303327024
H 5.3345627939 1.5918251388 3.0028679970
