41
CONF134
C -3.7240608276 -0.3744232746 3.3450926899
C -3.9931944051 0.6714023272 2.2618244972
N -3.6317216129 0.2406246644 0.9113988213
C -4.6711165965 -0.3721016810 0.0957122647
C -4.6423038825 -1.9008983699 0.1286752606
O -5.5589027416 -2.3355282619 -0.8740927635
C -2.3308040852 0.2801368868 0.4754978317
C -1.9702983410 -0.1677564117 -0.8195782812
C -0.6648012532 -0.0887587397 -1.2544689624
C 0.3511567127 0.4266561330 -0.4361768938
C 0.0072032215 0.8639901491 0.8568025437
C -1.2914082954 0.7889326444 1.3021402598
N 1.6273732078 0.4496288984 -0.9837739481
N 2.5333919770 0.9298479856 -0.2393475425
C 3.8138941161 0.9319073306 -0.8212863388
C 4.1204558286 0.4246044557 -2.0969655982
C 5.4185222464 0.4749519196 -2.5661684410
C 6.4120707407 1.0332964384 -1.7612979752
C 6.1345205138 1.5419615237 -0.4967326927
C 4.8318522312 1.4866957954 -0.0320472352
N 7.7922234869 1.0843723861 -2.2635608598
O 8.0092687323 0.6269440799 -3.3817152333
O 8.6449724943 1.5869739084 -1.5377423240
H -4.3411399198 -1.2639806003 3.1924457821
H -3.9612959994 0.0365580885 4.3314803116
H -2.6756509287 -0.6849760418 3.3450730335
H -3.4666658380 1.6042489620 2.4915995683
H -5.0584403425 0.9222438861 2.2481415550
H -4.5860798104 -0.0422892792 -0.9463337255
H -5.6444391836 -0.0223385176 0.4512950209
H -3.6208916844 -2.2563424938 -0.0733851452
H -4.9379990786 -2.2604549645 1.1255041191
H -5.6064523129 -3.2965108832 -0.8516973674
H -2.7136844600 -0.5783847697 -1.4900884641
H -0.3976340165 -0.4293434689 -2.2497157539
H 0.7839527801 1.2565823747 1.5026230691
H -1.5079184860 1.1235122467 2.3083109020
H 3.3287228615 -0.0033744571 -2.6991905346
H 5.6819266122 0.0907853869 -3.5437676995
H 6.9335041678 1.9673262176 0.0969976559
H 4.5718931762 1.8704360505 0.9485180960
