41
CONF1
C -4.1597728238 -2.8589752957 3.0333957429
C -3.4257339819 -1.9951056247 2.0593509701
C -3.9075551049 -0.7474827311 1.6669005818
C -3.1548949022 -0.0049976648 0.7625788790
N -1.9983668037 -0.4875039804 0.2783623484
C -1.6284785965 -1.7026890453 0.6977429035
N -2.2753025592 -2.4825865533 1.5677327471
N -0.4518886166 -2.2542992248 0.1971935401
C 0.4503872009 -1.7882809621 -0.7510037676
O 1.4307492265 -2.4511223993 -1.0623643266
N 0.1509222611 -0.5557492475 -1.2883546906
S 1.2014212754 0.2648222252 -2.3317648456
O 0.6166153012 1.6107270415 -2.4215850942
O 1.3853201474 -0.5363530011 -3.5442609574
C 2.7955490819 0.3834490765 -1.5049897619
C 3.8054631008 -0.4664668710 -1.9438267491
C 5.0890711180 -0.3230397325 -1.4288095570
C 5.3604557161 0.6817152960 -0.5054830119
C 4.3495747597 1.5397034753 -0.0862975090
C 3.0483409141 1.3918858185 -0.5674598872
C 2.0200061810 2.3415467314 -0.0390437392
O 2.1350800847 3.5471123126 -0.0856783685
O 1.0165433872 1.6889919600 0.5601914007
C -0.0379481170 2.5250251360 1.1044220675
C -3.5764299686 1.3537321150 0.3058600315
H -5.0691165289 -2.3732329341 3.3901800722
H -4.4218778056 -3.8112618991 2.5607503235
H -3.5137278293 -3.0894269231 3.8865419581
H -4.8438146610 -0.3637904706 2.0549692942
H -0.2249352110 -3.1727318917 0.5553407298
H -0.6389341071 -0.0335738026 -0.8694159146
H 3.5867933441 -1.2229787045 -2.6870017417
H 5.8768734803 -0.9892876288 -1.7630602883
H 6.3640734128 0.8038829879 -0.1122168307
H 4.5578061595 2.3285271506 0.6289524474
H -0.5578316030 3.0354691510 0.2897183210
H 0.3823820251 3.2553460586 1.7988276429
H -0.7062362714 1.8381450049 1.6209991700
H -3.1578115606 1.5772303776 -0.6775153483
H -3.2075336383 2.1093200919 1.0096595981
H -4.6652373869 1.4343040855 0.2776201340
