41
CONF6
C -5.4173197466 2.0241951260 0.1090303528
C -4.2244833394 1.1224774315 0.1829202497
C -4.0098736391 0.1001233009 -0.7439996245
C -2.8823671889 -0.6986001788 -0.5844306535
N -2.0358673367 -0.4888911682 0.4318961302
C -2.3075224435 0.5328802445 1.2464272420
N -3.3660724418 1.3509272580 1.1826121949
N -1.4216889807 0.8182311837 2.2747615710
C -0.1550677528 0.2988620339 2.5807937051
O 0.5437512589 0.8464858392 3.4120741984
N 0.1794065830 -0.8521811488 1.8940437197
S 1.7682436200 -1.4658467204 1.9118080827
O 1.7492599437 -2.5125304751 0.8854242498
O 2.1542453152 -1.7519378695 3.2877189111
C 2.7925500344 -0.1089483056 1.3140760190
C 3.5220504838 0.6117963687 2.2504899352
C 4.3985010542 1.6000416725 1.8148142432
C 4.5551211020 1.8411734488 0.4544833635
C 3.8278963811 1.1073152130 -0.4769594598
C 2.9219985995 0.1338183762 -0.0571011640
C 2.0689000153 -0.5428647637 -1.0837960287
O 0.8602638586 -0.4759232319 -1.1191708675
O 2.8244887973 -1.1657105901 -2.0026932184
C 2.0775842167 -1.8527713382 -3.0318883002
C -2.5336688595 -1.8189327125 -1.5102350741
H -5.9852606094 1.9639948633 1.0423137411
H -5.0909470380 3.0630319489 0.0001519621
H -6.0693729748 1.7636170394 -0.7265432289
H -4.7018048284 -0.0684946054 -1.5605770489
H -1.6534332651 1.6370629466 2.8188823971
H -0.3934247806 -1.0735326276 1.0630111411
H 3.3962677931 0.3881718728 3.3028620225
H 4.9650230841 2.1723582275 2.5413400755
H 5.2492189586 2.6018822512 0.1128602991
H 3.9501439688 1.2912163948 -1.5389453388
H 1.4590599511 -1.1452478974 -3.5903008560
H 1.4419486324 -2.6171894011 -2.5776196404
H 2.8274015869 -2.3075844640 -3.6780284166
H -2.5309650195 -2.7667813801 -0.9619645256
H -1.5184336400 -1.6660407877 -1.8905069988
H -3.2357512694 -1.8896538781 -2.3428768367
