31
CONF5
F 0.7125828365 -2.8525607381 0.8231059206
C 1.3355086389 -1.6878542748 0.5792448355
F 1.5517110644 -1.0465494971 1.7498814208
C 0.4485204351 -0.8072510644 -0.3553260163
F 1.2172519871 0.1654058448 -0.9024015387
F -0.0452998724 -1.5895816530 -1.3373064291
C -0.7477897504 -0.1203594418 0.3946241610
F -0.2692110902 0.9335270229 1.0954236236
F -1.2911921115 -1.0120786203 1.2531371904
C -1.8740306296 0.3886690870 -0.5725414690
F -1.2993426411 0.9549831805 -1.6580358065
F -2.6165519822 -0.6696222952 -0.9670320938
C -2.8211009373 1.4474122996 0.0875513824
F -3.1279511390 1.0553115367 1.3459202377
F -2.1824753831 2.6360290733 0.1355048245
C -4.1666399531 1.6661415255 -0.6789465906
F -3.9311251190 1.8903171941 -1.9793644691
F -4.7855971424 2.7353428657 -0.1598340624
F -4.9709436174 0.6060830559 -0.5540185008
S 3.0457950266 -2.1258904301 -0.1657639140
O 2.8294275378 -2.3433585872 -1.5948909318
O 3.5547827250 -3.1436791149 0.7523247057
N 3.8900716020 -0.7134769075 0.0468304542
C 4.9356889327 -0.6029312670 1.0805816839
C 6.2855797195 -1.1532139939 0.6412354105
H 4.0705718381 -0.2595393046 -0.8417847435
H 5.0059022522 0.4605006121 1.3366564180
H 4.5736390921 -1.1249969378 1.9700187114
H 7.0253006752 -1.0092993992 1.4348735036
H 6.6479544342 -0.6384907114 -0.2545154840
H 6.2135992368 -2.2223729134 0.4258843884
