82
CONF57
C -5.5992999681 -0.3076817212 -3.4179477287
C -4.7362892071 -0.7477651178 -2.2649945143
C -4.5424870984 -2.0465107102 -2.0100256016
C -4.1096759212 0.3806806150 -1.4829291802
C -5.1179296904 1.4349426421 -0.9727814526
C -4.3037999230 2.2104325531 0.0625548928
C -3.5124800738 1.1266458222 0.8260820552
C -3.2745774947 -0.0006267932 -0.2373055019
C -1.7840504047 -0.2702740112 -0.5359469477
C -1.1093109680 0.8753254957 -1.3390729315
C 0.2858864123 1.2433581655 -0.8409163885
C 1.1302460936 -0.0164857730 -0.6584796934
C 2.6790834252 0.3162568615 -0.5488238106
C 2.9659947096 1.6045051402 0.2561637703
C 4.4652903595 1.9025600789 0.3956170523
C 5.2545649919 0.7609690805 1.0332092050
C 5.0070033572 -0.5924869831 0.3169027483
C 3.4753664009 -0.8635158897 0.0957964002
C 2.8187940944 -1.3725851659 1.4154649337
C 1.3809840094 -0.9260988593 1.6717354211
C 0.5093280718 -0.9735875500 0.4160223091
C -1.0112846122 -0.6213433001 0.7649196139
C -1.1761308848 0.5499754836 1.7969412969
C -2.1907120772 1.6421067029 1.4071711455
C -1.6564258556 -1.8745085557 1.3993186847
C 0.5863118231 -2.4049311554 -0.1651420771
C 5.7998015961 -0.5670382186 -1.0102134511
C 5.6438484728 -1.7409092790 1.1226863082
O 5.0094979086 0.7198042007 2.4579430381
C 3.0968156630 0.5491985035 -2.0212112358
C -4.4091284543 0.5569221289 1.9448783019
O -4.8190552972 1.5266850687 2.9202969066
H -6.4883130487 0.2244574636 -3.0595111412
H -5.9268555869 -1.1575247651 -4.0218102236
H -5.0535794555 0.3934891149 -4.0616207714
H -3.9152108237 -2.3963344985 -1.1965852450
H -5.0122071144 -2.8064820123 -2.6289921605
H -3.4600006072 0.9102424391 -2.1953281685
H -5.5022214216 2.0734172700 -1.7736808912
H -5.9776371061 0.9379896955 -0.5053349025
H -3.6052797223 2.8803922845 -0.4548095265
H -4.9182413452 2.8216392981 0.7311118561
H -3.6999774695 -0.9254444522 0.1682698767
H -1.7581657546 -1.1689265485 -1.1652362664
H -1.0224898511 0.5667467123 -2.3890321766
H -1.7363460077 1.7724644361 -1.3436957391
H 0.2300034709 1.8076197385 0.0942023768
H 0.7470090877 1.9175627200 -1.5707341320
H 1.0416983472 -0.5605151877 -1.6106166012
H 2.5066419142 1.5427327508 1.2505871996
H 2.4942723303 2.4632279153 -0.2329947039
H 4.8956989542 2.1301768691 -0.5840511433
H 4.6084599740 2.8029657353 1.0051776634
H 6.3291188892 0.9772430254 0.9551070379
H 3.4326152123 -1.6882255448 -0.6289630815
H 2.8660910266 -2.4671216288 1.4151456525
H 3.4093319318 -1.0587221057 2.2763289147
H 1.3940431396 0.0878908746 2.0773135014
H 0.9537226920 -1.5591212208 2.4595810329
H -1.4620965880 0.1213779834 2.7655646603
H -0.2263164377 1.0573655409 1.9784150298
H -2.3864046589 2.2700412232 2.2867295322
H -1.7322731561 2.3171971619 0.6794342853
H -2.6225222578 -1.6377211339 1.8454898850
H -1.0271757905 -2.2706337096 2.2023804143
H -1.8197365532 -2.6703900938 0.6672447387
H -0.1377602693 -2.5452383084 -0.9745186091
H 0.4082073691 -3.1728812011 0.5927862006
H 1.5757388452 -2.5866686253 -0.5902135315
H 5.5248371613 -1.4253077158 -1.6322090244
H 6.8712810040 -0.6386544763 -0.7938092912
H 5.6493900079 0.3352168239 -1.5998176522
H 5.5185114891 -2.6866868991 0.5818789736
H 5.2270563510 -1.8586555914 2.1221981730
H 6.7185306794 -1.5574582630 1.2331481656
H 4.0777326048 0.9200093527 2.6085491620
H 3.2459174980 -0.4057230316 -2.5361752837
H 4.0047914495 1.1395292063 -2.1329302629
H 2.3076518972 1.0914862907 -2.5507808276
H -5.3356991822 0.1687511802 1.5073725006
H -3.9064861638 -0.2800701514 2.4463678117
H -4.0615382233 1.7192548749 3.4851539688
