47
CONF151
C -2.9922664980 -0.5556557454 2.5510406569
C -2.4463226478 -0.7402107752 1.1531198273
C -3.3715957804 -1.1321221311 0.0240741356
C -2.8789401749 0.3107171128 0.1271644618
C -1.9252206360 0.7964982940 -0.8797920014
O -1.2804437061 0.1309036494 -1.6611334822
O -1.8224502314 2.1614131805 -0.8070512988
C -0.7776340412 2.7308601841 -1.6467340227
C -1.1510113689 4.1305279864 -1.8389794839
N -1.4129343254 5.2427850326 -2.0028980735
C 0.5730028813 2.5856356558 -0.9847551399
C 1.5020766021 1.6947937235 -1.5187399794
C 2.7077292531 1.4851954800 -0.8662966352
C 2.9703040697 2.1778982488 0.3142515826
C 2.0607849132 3.0700031626 0.8540012421
C 0.8529733486 3.2727656563 0.1969301957
F 4.1430099702 1.9590561075 0.9392940853
O 3.6504393899 0.6394474728 -1.4050889735
C 3.8339667711 -0.5933084232 -0.7920547558
C 2.9514133603 -1.1075828748 0.1533139678
C 3.2026096892 -2.3688944467 0.6910557185
C 4.3131768032 -3.1056867742 0.2902833825
C 5.1830346081 -2.5724787746 -0.6609681557
C 4.9505800138 -1.3151262139 -1.2060804724
C -4.7957452875 -1.4029379074 0.2327103356
C -5.4933890239 -2.3604155213 -0.3792458008
Cl -4.8215539638 -3.4661217811 -1.5458877004
Cl -7.1911820237 -2.6172686035 -0.0684630169
C -1.0387217466 -1.2905346159 1.1196833455
H -3.9722703614 -0.0746435436 2.5618829700
H -2.3045917785 0.0649732322 3.1346241239
H -3.0766758309 -1.5283312171 3.0480810617
H -2.8896129078 -1.6976755002 -0.7673828871
H -3.5763324424 1.0543219942 0.4977879976
H -0.7801337283 2.2341662593 -2.6234362076
H 1.2933787920 1.1413164373 -2.4278980942
H 2.3046148193 3.5936888579 1.7717366521
H 0.1280373728 3.9656484477 0.6125536261
H 2.0792594271 -0.5432465427 0.4648456733
H 2.5155714383 -2.7734430495 1.4279753910
H 4.5006531664 -4.0867726733 0.7134411942
H 6.0529389851 -3.1371552802 -0.9815350171
H 5.6188735812 -0.8862636571 -1.9453144780
H -5.3431035517 -0.7833379073 0.9366270598
H -1.0109397948 -2.2374172334 1.6691202044
H -0.3489334942 -0.5941988408 1.6107261026
H -0.6864236090 -1.4717860203 0.1030407900
