73
CONF1075
C 0.8014948092 2.2671716431 -0.1461496141
C -0.6400263605 2.0913728806 0.2793724583
O -1.3766231209 1.6627973649 -0.8911276964
C -2.7474836687 1.3840985689 -0.6519785093
O -2.9521198124 0.4028101577 0.3441683279
C -3.1062796555 -0.9602813536 -0.0638393011
C -3.8616257433 -1.6465913426 1.0648563480
O -5.1917469107 -1.1342293711 1.0693319860
C -3.8526441704 -3.1611493499 0.9089598676
O -4.4827863007 -3.6864753724 2.0814378552
C -2.4109718956 -3.6547110151 0.7795853888
C -2.2894988372 -5.1528420551 0.5694714130
O -3.0481981229 -5.6196408777 -0.5472599235
O -1.8333566678 -3.0293106578 -0.3825843491
C -1.7401022591 -1.6225084768 -0.2683178575
O -1.2349234525 -1.1652835571 -1.5039429086
C 0.1129696685 -1.1055514443 -1.6904061943
C 0.5072327635 -0.4347824983 -2.8490747170
C 1.8587994045 -0.2652986424 -3.0987948852
O 2.2424013216 0.3868584748 -4.2088050246
C 2.8365346820 -0.7635275284 -2.1917008529
C 4.2426627041 -0.6301511017 -2.4614402998
O 4.6802819136 -0.0602614022 -3.4817799077
C 5.1758634039 -1.2649913103 -1.4640636307
C 4.5612493071 -1.3042640114 -0.0756797086
O 3.2578988237 -1.9818251844 -0.1495566689
C 2.3857295479 -1.4542845150 -1.0422698586
C 1.0359010980 -1.6467898495 -0.7900376195
C 4.3714636435 0.0353316584 0.6015110570
C 4.7687365935 1.2481096734 0.0381080266
C 4.5440329232 2.4545503448 0.6968245042
C 3.9055903882 2.4574798567 1.9354855879
O 3.6338063878 3.6053954107 2.6204843185
C 3.5092780316 1.2516555283 2.5204769733
C 3.7456471665 0.0594009759 1.8549181367
C -3.4540408683 2.6561819516 -0.1740399020
O -3.4749752233 3.6354089001 -1.2184810531
C -2.7518685789 3.2003170091 1.0716607110
O -3.3414637917 4.4293364270 1.5069890315
C -1.2583733956 3.3841941682 0.8114377627
O -0.5727993543 3.7374495677 2.0149742256
H 0.8738625164 3.0046821994 -0.9526024561
H 1.3971907027 2.6135748560 0.7010169041
H 1.2160899017 1.3174011639 -0.4949718138
H -0.7145559989 1.3161687700 1.0560218194
H -3.1509086643 1.0575505037 -1.6184683947
H -3.6837855393 -1.0256700528 -0.9974279386
H -3.3546568855 -1.4009929473 2.0143507252
H -5.6696158107 -1.6183275151 1.7571155337
H -4.4110675049 -3.4411238899 0.0057140690
H -4.9001354737 -4.5262232392 1.8540016308
H -1.8401664596 -3.3791648767 1.6824783011
H -2.6773959944 -5.6681571129 1.4530876942
H -1.2259347948 -5.4079523361 0.4612855837
H -2.6879265735 -5.2003739108 -1.3395267220
H -1.0757900367 -1.3347476162 0.5627291592
H -0.2360888157 -0.0205509744 -3.5195684514
H 3.2399778013 0.3809166694 -4.1986662764
H 5.3558968455 -2.2954419564 -1.7994919000
H 6.1396170500 -0.7500128866 -1.4658527400
H 5.1420253861 -1.9674088239 0.5710011052
H 0.7418515207 -2.1964003027 0.0939977510
H 5.2674728358 1.2777615630 -0.9248781310
H 4.8551326086 3.3918044696 0.2433205587
H 3.9500095488 4.3661952841 2.1136838057
H 3.0184567487 1.2644038844 3.4883910127
H 3.4317996171 -0.8743889166 2.3126161390
H -4.5004967630 2.4314312109 0.0547311437
H -2.5902521066 3.6707852682 -1.6109958483
H -2.8800618283 2.4897745910 1.8966696853
H -3.4086225127 4.9941370795 0.7219646044
H -1.1162936172 4.1757195548 0.0544928175
H -1.0612929735 4.4756339349 2.4050582165
