38
CONF3
C 3.3010880525 0.6502196491 -2.1212014798
N 2.1781034674 -0.1496662918 -1.6306303030
C 2.2592010554 -1.5057279037 -2.1746343034
C 0.9129600576 0.5002730174 -1.9925240773
C -0.3214349392 -0.1609850868 -1.3821512459
C -0.2211318697 -0.3376254503 0.1419863308
C -1.4348146499 -1.0475917176 0.7137033380
C -2.7338884871 -0.5789830154 0.4906893763
C -3.8377213798 -1.2336685539 1.0279064060
C -3.6320627647 -2.3717766058 1.7985363064
Cl -5.0261045976 -3.2099893469 2.4826457829
C -2.3580895145 -2.8660046656 2.0412171893
C -1.2675831117 -2.1943479944 1.4934440557
C 0.0102601487 0.9831591226 0.8559292419
C 1.0278298404 1.1044015887 1.8049267833
C 1.2082843594 2.3190135132 2.4551264303
C 0.3656617288 3.3797913025 2.1393373570
C -0.6211499186 3.1703914115 1.1821664231
N -0.8024597095 2.0046097913 0.5489589341
H 3.2598499354 1.6544913646 -1.6859283111
H 4.2463272352 0.1832324162 -1.8249628837
H 3.2989365183 0.7518280258 -3.2240958380
H 2.1578008283 -1.5230974767 -3.2775473675
H 1.4757321231 -2.1399896770 -1.7491582902
H 3.2270641567 -1.9455454704 -1.9132566911
H 0.7864843945 0.5377444238 -3.0938772380
H 0.9675038333 1.5390226819 -1.6424299800
H -0.5052531165 -1.1435708075 -1.8313152749
H -1.1872842965 0.4623840268 -1.6263971216
H 0.6499711339 -0.9649252653 0.3519842542
H -2.8931766169 0.3127740345 -0.1053395138
H -4.8410470128 -0.8634079468 0.8487897223
H -2.2148457553 -3.7566945492 2.6426882422
H -0.2674236515 -2.5760597406 1.6789829393
H 1.6670670836 0.2546294525 2.0231810985
H 1.9947282726 2.4362320148 3.1943581867
H 0.4688334971 4.3473377988 2.6185840006
H -1.2982168437 3.9781222736 0.9078426284
