44
CONF24
C 0.1462875923 -2.7159638505 -0.1759188193
C -1.0305274910 -1.7427956406 -0.3427544399
C -2.3344392683 -2.4720651045 -0.0095613771
C -1.0534967018 -1.2047051506 -1.7898505792
C -0.0005079281 -0.0805842568 -1.8457100111
C 0.2809079252 0.3199049104 -0.3752558168
C 0.3240555657 1.8397676705 -0.1526128083
C 1.4874774859 2.4698137331 -0.8747105398
C 1.3016794320 3.2044468601 -2.0476071300
C 2.3799742444 3.7592735432 -2.7338503768
C 3.6585471672 3.5711786970 -2.2278879377
Cl 5.0348179678 4.2714370710 -3.0824351550
C 3.8827179146 2.8497615268 -1.0608485960
C 2.7908069899 2.3041686997 -0.3944123483
C -0.7947223949 -0.4276063539 0.4609064285
O -2.0449089023 0.2793173671 0.4417155286
C -0.3090394873 -0.5753405133 1.9126802627
N -1.2351198098 -1.2909216831 2.7840878453
C -2.4373626002 -0.8963160016 3.2444954621
N -2.9907107749 -1.8585392550 3.9775856301
C -2.0532380059 -2.8448917466 3.9293544352
N -0.9704985258 -2.5484002566 3.2209515837
H 1.1060918487 -2.2605427612 -0.4384145246
H 0.2118118896 -3.0970898380 0.8469503343
H -0.0078219869 -3.5709701691 -0.8421781762
H -2.4759600967 -3.2866083245 -0.7291289732
H -3.1951285494 -1.8034893828 -0.0795288860
H -2.3142628016 -2.9173678308 0.9895293917
H -2.0479188570 -0.8024968333 -2.0073597346
H -0.8576867175 -2.0078552239 -2.5075303569
H -0.3709194723 0.7763992973 -2.4169160291
H 0.9208839352 -0.4118475943 -2.3337039629
H 1.2565236324 -0.0783512917 -0.0728566989
H 0.4117123226 2.0616748291 0.9189004588
H -0.6058004545 2.2922037956 -0.5151138928
H 0.2980440967 3.3517255284 -2.4360549934
H 2.2234358670 4.3289466557 -3.6430260835
H 4.8884683829 2.7195762781 -0.6771551206
H 2.9590347686 1.7411082321 0.5198560826
H -1.9034719888 1.1602309393 0.8133981993
H -0.1551131340 0.4227905205 2.3381096681
H 0.6428936617 -1.1074342509 1.9515272283
H -2.8555826397 0.0777092390 3.0328619302
H -2.1619343028 -3.7992525778 4.4294729990
