74
CONF74
C -0.5307030932 -0.5823889948 0.8515586747
C 0.2565138511 -1.5336720172 1.7399762556
O -0.4775875821 -1.4968069061 3.0145429167
C -1.1955400475 -0.3477264893 3.1140202714
O -1.8198262486 -0.0810365315 4.1149849456
C -0.9998921452 0.4597445059 1.8542407188
C -2.1446209808 1.3115714284 1.2979562446
C -3.4696185082 0.5627040648 1.2033845834
C -4.3446172028 0.5907349684 2.2910404037
C -5.5399044053 -0.1225011880 2.2317252035
O -6.4797904869 -0.1784692209 3.2243078499
C -6.1936746690 0.5172759519 4.4454779603
C -5.8779667216 -0.8636425741 1.0930835262
O -7.0491117905 -1.5644997342 1.0207880240
C -5.0054370641 -0.8759677183 -0.0003791026
O -5.4207987724 -1.6123744782 -1.0717946159
C -4.5513317705 -1.6527962784 -2.2106598103
C -3.8082884040 -0.1600106318 0.0574050254
C -1.7039503146 1.8466768301 -0.0593424884
C -2.4176522580 2.9535845835 -0.5650870203
C -2.0785962381 3.4237896850 -1.8086000033
C -1.0753603692 2.8287259107 -2.5693346416
O -0.9834431676 3.4542459524 -3.7872236100
C -1.7948281352 4.6412566811 -3.6628148415
O -2.6519606619 4.4476369625 -2.5161745526
C -0.3735366510 1.7445612077 -2.1101265273
C -0.6922039767 1.2489051682 -0.8251198831
C 0.1540491252 0.0972119548 -0.3156038858
O 1.4391679556 0.6369559317 0.1177175751
C 2.5467384094 0.1561089479 -0.5712470334
O 2.8301637715 -1.1737186697 -0.1143731462
C 3.9655903725 -1.6897186322 -0.8086592814
C 4.2168536297 -3.1309607201 -0.3984537800
O 5.4306534278 -3.5664485209 -1.0293779361
C 6.5409867288 -2.7574818295 -0.6592765011
C 7.7685760533 -3.2935587698 -1.3446061824
O 6.3457752962 -1.4048532375 -1.0782209551
C 5.1891766400 -0.8571778855 -0.4382498408
C 5.0043447169 0.5849757225 -0.8753306838
O 6.0732155468 1.4167070376 -0.4256202208
C 3.7088532146 1.1115912349 -0.2710643260
O 3.4412098698 2.3909222302 -0.8377405498
H -1.4081396698 -1.1118958621 0.4595933829
H 0.2657474433 -2.5708453528 1.4035241723
H 1.2738140266 -1.1828013280 1.9281567796
H -0.1558212754 1.1325351592 2.0801401357
H -2.2975002477 2.1645752866 1.9685198802
H -4.0826960368 1.1586560368 3.1743610157
H -5.2779780229 0.1306214105 4.9071873587
H -6.0938163876 1.5936785957 4.2660798608
H -7.0455692938 0.3295230074 5.0991073005
H -7.5176136055 -1.4394482887 1.8598661353
H -5.0506140492 -2.2918032271 -2.9395280254
H -4.4095591021 -0.6511980907 -2.6337768374
H -3.5776598632 -2.0829542476 -1.9473201646
H -3.1446559193 -0.1429727453 -0.7978346285
H -3.2155264429 3.4071169413 0.0141889034
H -1.1440017637 5.5073750232 -3.4834072389
H -2.4084094109 4.7574303855 -4.5580324752
H 0.3966557668 1.2750650006 -2.7131965514
H 0.3369474615 -0.6170037864 -1.1269782392
H 2.3633001555 0.1249487799 -1.6610450757
H 3.8051509003 -1.6426208347 -1.8983336926
H 3.4204035451 -3.7955631206 -0.7417855501
H 4.3046355807 -3.1991187760 0.6974112845
H 6.6341284116 -2.7674526241 0.4419008608
H 7.9453397800 -4.3246276284 -1.0306956301
H 8.6361759374 -2.6871969140 -1.0752096181
H 7.6311124688 -3.2652949987 -2.4291817423
H 5.3220552711 -0.8908763224 0.6572664715
H 4.9248360588 0.6200149622 -1.9745275192
H 6.8848680260 1.0846522659 -0.8314497503
H 3.8237932763 1.1782476903 0.8226681739
H 2.6289693114 2.7191587344 -0.4279249239
