49
CONF14
C -5.7082830482 0.3506029792 -2.1573452395
C -4.3141194279 -0.2785163663 -2.0792857976
C -3.4171660964 0.2726499372 -3.1917670255
C -3.6894111947 -0.0183844494 -0.7073413266
C -4.3913994291 -0.6508154837 0.5285977761
C -4.1551127131 -2.1724435663 0.2765649337
C -2.7383971824 -2.2124301593 -0.3673023759
C -2.3261081182 -0.7086689141 -0.4054985173
C -2.1429767311 -0.2963249086 1.0361872285
C -3.4197863406 -0.2596245270 1.6128409068
C -3.5957204125 0.0310789299 2.9563539142
C -2.4551786792 0.2981769401 3.7202554502
C -1.1774765229 0.2536508605 3.1688198932
C -1.0067860353 -0.0592619663 1.8084622844
N 0.2532642464 -0.1813879536 1.1919599608
C 1.4551985846 0.3298885958 1.6056875860
O 1.5966576480 1.0328835123 2.6090176120
C 2.6039972904 -0.0187491739 0.7539630569
C 2.7388166909 -1.0123545938 -0.2107699886
N 3.9991635122 -0.9311944243 -0.6799777136
N 4.7106397781 0.0475182511 -0.0949699689
C 3.8744866437 0.6047847112 0.7800043889
C 4.3230454812 1.7341346014 1.6460384935
F 4.8399351454 1.2402322364 2.8350452150
F 5.3491855080 2.4234926001 1.0432946288
C 4.6239804301 -1.7756801722 -1.6898822934
H -6.1489397490 0.1925114968 -3.1471812592
H -5.6497680299 1.4317360593 -1.9821514692
H -6.3877847775 -0.0773197518 -1.4139559147
H -4.4201777682 -1.3593926829 -2.2332972834
H -3.8770248176 0.1145494231 -4.1728452703
H -3.2629465293 1.3507324942 -3.0611275850
H -2.4359050238 -0.2118035987 -3.1985781929
H -3.5947337259 1.0678712568 -0.5697828072
H -5.4314436482 -0.3771115124 0.7116289600
H -4.9145842526 -2.5693866361 -0.4037125608
H -4.2119869490 -2.7399918462 1.2089579905
H -2.7700520316 -2.6256885093 -1.3800001042
H -4.5845790133 0.0590150204 3.4042126213
H -2.5577390230 0.5448784241 4.7728194914
H 2.0533720006 -1.7646410015 -0.5750397968
H 3.5250467683 2.4359243121 1.8972575255
H 5.0129775894 -1.1505350524 -2.4968063726
H 3.8706382106 -2.4588799206 -2.0828917986
H 5.4416205414 -2.3449323276 -1.2405855455
H -2.0259614955 -2.8040755780 0.2137759358
H -1.5059671898 -0.4798424824 -1.0887189747
H 0.2387733598 -0.6110623528 0.2789142150
H -0.3144311821 0.4580147960 3.7860855969
