44
CONF38
C -4.0518043783 0.8643678620 1.4478146940
C -3.2873869409 -0.4414011874 1.4106943016
C -3.4673111529 -1.2047170157 0.1123555474
O -1.8666412201 -0.0696860440 1.5627832418
C -1.0311091966 -1.0046442060 2.0277769121
O -1.3556176045 -2.1179695906 2.3842558926
C 0.3923129998 -0.4614455774 2.1176063746
C 1.3595621250 -1.4561176217 2.7432992583
N 0.8513976295 0.0328329729 0.7989380869
C 0.3084973845 -0.5210602349 -0.3956668290
C -0.3332442388 0.3217856949 -1.3052252703
C -0.8634307944 -0.2048163937 -2.4722751831
C -0.7894661854 -1.5746623094 -2.7085488265
C -0.1860957294 -2.4215916705 -1.7969504727
C 0.3732746867 -1.8929337954 -0.6392882035
F -1.3165023976 -2.0849494515 -3.8367716389
Cl -1.6638575675 0.8314885154 -3.6241613036
C 1.7015486732 1.1170535778 0.8034393639
O 1.9538191569 1.7363154444 1.8374789978
C 2.3617893918 1.4943255297 -0.4839535772
C 3.0041207828 0.5456047382 -1.2844078167
C 3.6859244792 0.9492762994 -2.4273626220
C 3.7123145153 2.2952642589 -2.7875071144
C 3.0763399741 3.2428133878 -1.9870582662
C 2.4167253525 2.8467069836 -0.8289201956
H -3.7526360630 1.5076292744 0.6141036746
H -5.1221825177 0.6580312113 1.3584539853
H -3.8776105352 1.3948342910 2.3877056527
H -3.5470752696 -1.0704140801 2.2675023514
H -4.5158902551 -1.5005782939 0.0111616337
H -3.2015976476 -0.5713091010 -0.7394620338
H -2.8505100527 -2.1069369983 0.0918874748
H 0.3346778628 0.4270385587 2.7589374219
H 1.3989113656 -2.3932486939 2.1845380558
H 1.0444352936 -1.6812104090 3.7652580440
H 2.3590755563 -1.0156542847 2.7755557700
H -0.4270326268 1.3815790327 -1.0998417536
H -0.1431368898 -3.4843698666 -2.0084511208
H 0.8738501265 -2.5525731472 0.0586464566
H 2.9817819106 -0.5034706103 -1.0077356227
H 4.1952765527 0.2112207220 -3.0387565186
H 4.2337267732 2.6062897325 -3.6872614547
H 3.0992937786 4.2922320752 -2.2630598809
H 1.9314811730 3.5790704151 -0.1916588784
