47
CONF98
C -2.9571591522 -4.0211872055 -0.5998552057
C -3.2749034098 -2.5226249835 -0.5067061618
C -4.1142394711 -2.1160937382 -1.7203300345
C -1.9576028535 -1.7401991580 -0.3329657688
C -1.2389297219 -2.1108138129 0.9992586534
C -0.7478966949 -0.7931514408 1.6242714194
C -0.7651153735 0.2102778268 0.4707333583
C -0.7018649294 1.6764454836 0.9178389420
C 0.5883201919 1.9830638849 1.6339628445
C 0.6316878083 2.1051101723 3.0245370283
C 1.8283162907 2.3508825415 3.6939760356
C 2.9935698279 2.4756230679 2.9498945636
Cl 4.5176568177 2.7907196279 3.7822227234
C 2.9898549603 2.3632716293 1.5645999596
C 1.7826845142 2.1168099865 0.9186949734
C -2.0294666831 -0.1935237239 -0.3261111834
O -3.2282831660 0.1745765025 0.3744282022
C -2.1038039489 0.4862601115 -1.7144095067
N -0.9340594764 0.2954252182 -2.5629106847
C 0.1119593615 1.1257808293 -2.7460373317
N 0.9874697359 0.5905651291 -3.5894790226
C 0.4065550894 -0.6012725156 -3.9023693297
N -0.7593953051 -0.8246971246 -3.3085525970
H -2.3967360291 -4.3806734442 0.2678735597
H -3.8802028060 -4.6059368815 -0.6714170831
H -3.5257565212 -2.1763034531 -2.6435903166
H -4.9653180649 -2.7979407578 -1.8261479433
H -4.5141554341 -1.1040455707 -1.6233582591
H -1.3030343205 -2.0086273375 -1.1709740019
H -1.9236238050 -2.6318316204 1.6759291393
H -0.4032109457 -2.7901354482 0.8065275971
H 0.2417375671 -0.8791245739 2.0813142931
H -1.4411197647 -0.4528704756 2.4023862498
H 0.0988446849 0.0058946084 -0.1783753056
H -0.7985892873 2.3445494566 0.0531736180
H -0.2840619470 2.0067995953 3.6006723856
H 1.8494452060 2.4452236369 4.7739446606
H 3.9091403648 2.4696163322 0.9995275540
H 1.7750688397 2.0299514943 -0.1644068142
H -2.2140168169 1.5665665117 -1.5708287645
H -2.9757765810 0.1310016976 -2.2618638725
H 0.1842759268 2.0913364488 -2.2622505303
H 0.8433970602 -1.3188545222 -4.5856260180
H -2.3588467253 -4.2247837354 -1.4968209601
H -3.8772278864 -2.3540913002 0.3960479591
H -1.5389251115 1.8880609557 1.5933835513
H -3.2412278923 1.1347867379 0.4871318919
