37
CONF3
C 3.2119413975 -1.5642801300 2.6842692462
C 3.8454128189 -1.2919013052 1.3366696414
C 5.1059915438 -0.4529548489 1.4185523036
O 2.8287659477 -0.5475165054 0.5668009094
C 2.8717734455 -0.6428675193 -0.7688035685
O 3.7067566183 -1.2645758064 -1.3956264521
C 1.7234748763 0.0867148518 -1.3822349528
C 1.8103755637 0.7727698144 -2.6008802262
C 0.6960758541 1.3831101330 -3.1610750883
C -0.5129088966 1.2918803710 -2.4954755773
C -0.6627570719 0.6239117871 -1.2796415499
C 0.4825762954 0.0369056293 -0.7432058831
C -1.9497638294 0.5419417027 -0.5876824557
N -3.0680111966 0.1766232399 -1.2322350576
N -4.0476428029 0.1945071984 -0.3279748083
C -3.6000601241 0.5560245679 0.9053243118
C -2.2381825485 0.7923103037 0.7697678649
Br -1.0228067961 1.4145474108 2.0628962247
C -4.5208664570 0.6492009636 2.0729945635
F -5.4410027134 1.6363661277 1.9150756987
F -3.8578521595 0.8977801523 3.2131535543
F -5.2202516394 -0.5009295040 2.2499166574
C -5.3931603466 -0.2271889417 -0.7129586828
F -1.5745731569 1.9048945702 -3.0478289163
Cl 3.3285795145 0.9646514467 -3.4455043697
H 3.9114184897 -2.1350256606 3.3016567394
H 2.9817545934 -0.6258297258 3.1982063694
H 2.2926613095 -2.1455243579 2.5730515680
H 4.0369037482 -2.2256323958 0.7996390913
H 4.8986077148 0.4939890368 1.9266960214
H 5.5073387794 -0.2462203605 0.4233586124
H 5.8639541508 -0.9955034016 1.9914110623
H 0.7608068721 1.9372843804 -4.0898260432
H 0.4036777507 -0.5081653352 0.1896073896
H -6.1329997837 0.4455870069 -0.2759690329
H -5.5771642605 -1.2515895693 -0.3786411247
H -5.4488439087 -0.1752957241 -1.7997890438
