73
CONF48
C -2.9515538249 0.9435856054 -2.6254622688
C -2.6877094430 0.4440698174 -1.1965798649
C -3.8964248419 0.7310933557 -0.3482574480
C -4.6889001888 -0.1865716038 0.2061937448
C -5.9006848367 0.1043661524 1.0439746848
C -5.7646446147 -0.5628565790 2.4201491612
C -7.2270820767 -0.2948137513 0.3401001099
C -7.2957195168 -1.7769364461 -0.0374564676
C -7.4790189719 0.5784828036 -0.8897615236
C -1.4426495246 1.0777471766 -0.5449750022
C -1.2304365904 0.5532009701 0.9071156359
C 0.2968486382 0.5122721697 1.1586340654
C 0.8760553570 1.2707674481 -0.0317694294
C -0.0589513497 0.8786090274 -1.2228008910
C 0.2633344977 1.8234412003 -2.3892036076
C 1.7505699134 1.7802589314 -2.7641081707
C 2.6723992306 2.0471415385 -1.5583264972
C 2.3258152688 1.1613984208 -0.3896630215
C 3.1819370096 0.3353477679 0.2522156817
C 4.5896801828 0.1730221560 -0.0240984351
C 5.4267153482 -0.7218356659 0.5540389238
C 6.9031701696 -0.7220519091 0.2348874719
C 7.7681736524 -0.6973521940 1.4934617510
C 7.3738066455 -1.8276532447 2.4422591965
C 5.8810862737 -1.7763097814 2.7906528356
C 5.0215324199 -1.7359074889 1.5484533350
C 4.0090759548 -2.5913737725 1.3551933525
O 7.5832242587 0.5950502025 2.1039402393
C 0.1481570815 -0.5869038004 -1.6258035742
H -3.9105569870 0.5593378225 -2.9881428772
H -2.1743478171 0.6149297621 -3.3193214693
H -2.9927845770 2.0389167446 -2.6524003950
H -2.5473321949 -0.6453080502 -1.2246624371
H -4.1304462943 1.7902513468 -0.2056705476
H -4.4432682947 -1.2416745587 0.0648217734
H -5.9488074828 1.1917009759 1.1976115522
H -5.6237582558 -1.6446962410 2.3259254426
H -4.8986213498 -0.1619723749 2.9566285246
H -6.6588248548 -0.3873706679 3.0286044310
H -8.0268311686 -0.0934447274 1.0677759650
H -7.1194124014 -2.4307635675 0.8221053210
H -6.5546920154 -2.0193165810 -0.8074822468
H -8.2840969408 -2.0177069328 -0.4428925304
H -7.4731799836 1.6426667115 -0.6288248698
H -6.7028496621 0.4137510819 -1.6460201703
H -8.4483430288 0.3430457523 -1.3420564229
H -1.6147228885 2.1644932254 -0.5037322630
H -1.6717398571 -0.4440053587 1.0136895466
H -1.7442948104 1.1968047154 1.6270844647
H 0.5830459492 0.9632621967 2.1138619702
H 0.6537577202 -0.5228550184 1.1692976718
H 0.6741399539 2.3437758106 0.1330573092
H -0.3341574932 1.5823463409 -3.2737819302
H -0.0031167081 2.8472824798 -2.0892918463
H 1.9543126224 2.5240512527 -3.5430526750
H 1.9982146666 0.8020954158 -3.1933446679
H 2.5304046180 3.0929966799 -1.2454736619
H 3.7162432962 1.9409325992 -1.8628116923
H 2.7876047235 -0.2632535297 1.0692485828
H 5.0409254556 0.8590183554 -0.7386389768
H 7.1572386278 0.1263123071 -0.4091285587
H 7.1594911297 -1.6413165463 -0.3113263422
H 8.8230278642 -0.8146413531 1.2026308442
H 7.6115828134 -2.7832046505 1.9572386472
H 7.9769896428 -1.7706193576 3.3567517952
H 5.6912725771 -0.8655361825 3.3744228670
H 5.6031764018 -2.6318085174 3.4140265765
H 3.7598432555 -3.3389939543 2.1038310362
H 3.4168228481 -2.5716147382 0.4450288103
H 8.1190165267 0.6162824772 2.9071275394
H -0.1793060392 -1.2724434654 -0.8382951055
H 1.2021904519 -0.7985686903 -1.8274310577
H -0.4216165792 -0.8224277028 -2.5309455251
