48
CONF29
C -3.5413327206 2.4730406599 0.7204432159
Si -1.8134323388 1.8195082570 0.7070813221
O -0.9800483093 2.6172775202 1.8918059662
O -1.7747678812 0.2128176506 1.0473432989
Si -2.0046940757 -1.2078366108 0.2302489302
C -3.3110324270 -0.9836516268 -1.0774674399
C -2.4598001320 -2.4930895906 1.4955471466
O -0.6131724318 -1.6102854061 -0.5498352557
Si 0.9048441127 -2.2349733643 -0.4118372594
C 1.0577455028 -3.2835749367 1.1210215064
C 1.2654911906 -3.1907379989 -1.9649208271
O 1.9852429502 -0.9882160174 -0.3471063117
Si 2.3077968877 0.3736204760 0.5223389927
C 1.8920304640 0.1256968228 2.3208519854
C 4.0944561609 0.8033266287 0.2391360219
O 1.3734773488 1.6229454727 -0.0198151361
Si 0.4402524283 2.1403118432 -1.2799991606
C 0.8800182145 3.9143469831 -1.6224172180
C 0.6177017390 1.0571229859 -2.7799937032
O -1.1363233604 2.0758952455 -0.7693347828
H -4.1372972387 1.9924897936 -0.0620337874
H -3.5513629571 3.5531183299 0.5422741064
H -4.0235655314 2.2776151160 1.6835870883
H -0.0330007953 2.4346983943 1.9357592555
H -3.0092972986 -0.2124608341 -1.7954918804
H -3.4687760526 -1.9170212008 -1.6287753710
H -4.2665201417 -0.6838718172 -0.6338334444
H -2.5201704338 -3.4876012645 1.0408470513
H -1.7221439060 -2.5299993698 2.3039140525
H -3.4353889429 -2.2598937738 1.9363413122
H 0.3703527656 -4.1354866592 1.0795116622
H 0.8337825281 -2.7078426954 2.0248165153
H 2.0780787444 -3.6731146189 1.2102440058
H 1.1602300305 -2.5480185103 -2.8459985505
H 0.5731474006 -4.0327810856 -2.0717623350
H 2.2861513202 -3.5877353851 -1.9516918819
H 2.0919398812 1.0397648526 2.8917777336
H 0.8319650324 -0.1264864585 2.4423511078
H 2.4882224546 -0.6837441743 2.7554728761
H 4.7529129373 0.0086249466 0.6058948307
H 4.2890830319 0.9423836672 -0.8303329110
H 4.3579696299 1.7317146108 0.7570296119
H 1.9169306434 4.0000415708 -1.9653813000
H 0.7681569980 4.5188510805 -0.7153780127
H 0.2293458210 4.3353850497 -2.3964144244
H 1.6617398856 1.0077312507 -3.1081686160
H 0.2727010143 0.0409114223 -2.5671857030
H 0.0203601581 1.4591829643 -3.6060242917
