57
CONF1
C 3.0935079590 0.1912712400 -3.5167427410
C 2.4981358139 -0.4640591977 -2.2749962167
C 0.9785122007 -0.7775477984 -2.3972286790
C 0.3499028172 -0.0121120553 -1.2335839343
C -1.0957669274 -0.3043083241 -0.8218571944
C -1.4261091596 -1.7661325950 -0.4991275359
C -2.8958697496 -1.9371789594 -0.1005170662
C -3.2444950268 -1.0105925609 1.0194624072
C -3.7874017426 -1.4528983686 2.1702542973
C -4.1783656309 -0.5637004155 3.2598411432
O -4.6957292691 -1.0046619225 4.3010818428
C -3.9460066709 0.8599407557 3.0572151994
C -3.3424760964 1.3182645379 1.9489948305
C -2.9820317268 0.4557727244 0.7790474574
C -1.4868001377 0.6557539320 0.3237329008
C -0.4589668989 0.6254638490 1.4768468307
C 0.9829567695 0.8901149479 0.9985785683
C 1.4138022146 -0.0642794124 -0.1135578773
C 2.6547558671 0.3952466319 -0.9805363282
C 3.9898447910 0.1693347707 -0.2847214672
O 4.5919703635 -0.8935689593 -0.3187534588
C 4.5824309144 1.3223332792 0.4963907012
O 5.7228559230 0.9173389658 1.2272255478
O 2.5023125651 1.7989846917 -1.2159124212
C 1.6955175745 -1.4525655916 0.4810615205
O -0.7751784302 1.5707037515 2.4984994203
F -1.4170892633 1.9840312582 -0.1945648247
C -3.9381282525 0.9337114616 -0.3606429273
H 2.5395826660 1.0933299751 -3.8004332032
H 4.1482918106 0.4553293462 -3.3717060747
H 3.0394905870 -0.5023235241 -4.3609645980
H 3.0452419641 -1.3917226308 -2.0874943671
H 0.8043707337 -1.8553280617 -2.3232087805
H 0.5754636183 -0.4450016689 -3.3593246509
H 0.3387585094 1.0392949906 -1.5398326459
H -1.7189624603 -0.0202112586 -1.6807704814
H -1.2132052108 -2.3797891073 -1.3794408452
H -0.8075930359 -2.1519534867 0.3121420457
H -3.0948358550 -2.9705744110 0.1960555175
H -3.5349378705 -1.7187345528 -0.9665798516
H -3.9847882495 -2.5128613118 2.3122936941
H -4.2523189638 1.5332932160 3.8527392186
H -3.1834992473 2.3843541981 1.8165431483
H -0.5367957847 -0.3541548532 1.9619303982
H 1.0310698194 1.9250762035 0.6444178726
H 1.6330856320 0.8024763347 1.8766287278
H 3.8138941830 1.7333177552 1.1670007906
H 4.8361285793 2.1235791892 -0.2146875769
H 5.9014959833 0.0017444042 0.9500519286
H 3.0993511693 2.0558948949 -1.9309003287
H 2.5827607659 -1.4125135268 1.1188042549
H 0.8759322040 -1.7818112433 1.1182701130
H 1.8614486239 -2.2193741890 -0.2793814560
H -0.6529003678 2.4543157098 2.1230703724
H -4.9667750305 0.6975468220 -0.0759869676
H -3.8479770753 2.0124651070 -0.4967840831
H -3.7178691922 0.4403605281 -1.3079425953
