46
CONF27
C 1.4073203960 1.5321079361 -1.6463409712
C -0.1115888754 1.4701353141 -1.5033562376
C -0.6986334582 2.8356083397 -1.1443478264
C -2.1996538795 2.8283806463 -0.9240730064
O -2.5629127774 1.9999518765 0.2220894327
C -2.4391884644 2.5810937988 1.4231674433
O -2.0985923776 3.7250478865 1.6222716277
C -2.8587644847 1.6516749518 2.5637419304
C -4.3244040343 1.8953548966 2.8932313613
O -2.7323498736 0.2669016636 2.2516641685
C -1.4838894916 -0.2300841165 2.0139937045
C -1.4423950611 -1.5781332539 1.6421111637
C -0.2311233514 -2.1892159643 1.3684726991
C 0.9419451154 -1.4449923530 1.4531036459
C 0.9175594260 -0.1149840894 1.8311346901
C -0.2995234964 0.5014510031 2.1207299978
O 2.1804394101 -2.0500669695 1.2310592405
C 2.4752540174 -2.4706896333 -0.0270360652
C 3.6512740529 -3.2213250426 -0.1688725478
C 4.0760510780 -3.6871273160 -1.3915363298
C 3.3074483632 -3.4045758826 -2.5317433792
C 2.1311846380 -2.6571891268 -2.4087418073
C 1.7195205700 -2.1955152961 -1.1668537976
C 3.7277397880 -3.8773795810 -3.8049423426
N 4.0691813949 -4.2608951815 -4.8434604824
F 4.3766495011 -3.4860327623 0.9293838190
H 1.8734201594 1.8310389504 -0.7011052413
H 1.8296288338 0.5644824456 -1.9319064504
H 1.7017907107 2.2631173852 -2.4071525883
H -0.5630413631 1.1170076315 -2.4401848027
H -0.3840546157 0.7444696643 -0.7271759354
H -0.2114571259 3.2354947184 -0.2469330071
H -0.4898803263 3.5501436052 -1.9521747418
H -2.5828629581 3.8388691587 -0.7574313684
H -2.7267681084 2.3637325843 -1.7617746839
H -2.2320369619 1.9103831456 3.4278994100
H -4.9497732083 1.6353502245 2.0352333453
H -4.6165005420 1.2774937598 3.7454831215
H -4.4752274863 2.9475980279 3.1448045127
H -2.3739744057 -2.1290306358 1.5781230150
H -0.1885631727 -3.2359085808 1.0858036936
H 1.8480630746 0.4372674422 1.9021087584
H -0.2996035112 1.5453497249 2.4114087971
H 4.9906773133 -4.2642154353 -1.4572576364
H 1.5419730081 -2.4375873590 -3.2913833538
H 0.8096428513 -1.6145583396 -1.0742122675
