20
CONF22
C -1.0731405726 -0.1929831964 -0.4010324436
C -2.3666230034 0.2479376249 0.2524423761
I -2.8221678184 -0.7503082072 2.1539984068
C 0.1815487724 0.3422163837 0.2570709774
C 1.4475405995 0.1526111161 -0.6256858545
C 2.8535525474 0.4181635659 0.0174454280
C 3.0993785626 1.7948882340 0.7078531572
F 2.7255487533 2.8038790500 -0.0896176813
F 2.4307224106 1.8731920582 1.8643223333
F 4.4095762375 1.9157818205 0.9683993739
F 3.7563221096 0.3109053392 -0.9901920208
F 3.1134322395 -0.5469856571 0.9279571619
F 1.4813946233 -1.1406767180 -1.0458258931
F 1.3325354246 0.9499938068 -1.7166253125
F 0.0632199994 1.6860705063 0.5024894926
F 0.4258692852 -0.2648796712 1.4594201300
H -1.0909535151 0.1974557543 -1.4274179770
H -0.9995888528 -1.2810234324 -0.4677561766
H -2.3912103847 1.3109337200 0.4838137718
H -3.2117306762 -0.0196619894 -0.3776297886
