46
CONF2
C -1.1705681286 2.9016319840 -2.9898970051
C -1.2624894087 2.2327149493 -1.6298295140
C -2.2674831062 1.0721366969 -1.6266282887
O -2.2744279116 0.1021955495 -2.3401698694
N -3.1338671301 1.3758468287 -0.5889118823
C -2.8700343893 2.6349262602 -0.0154876487
O -3.4873223293 3.1531806921 0.8699073259
O -1.8277323349 3.1880111080 -0.6799389661
N -4.1011547558 0.5203826360 -0.1056367239
C -3.7550157665 -0.2181278977 1.0552984926
C -2.4286253038 -0.5080612226 1.3737646932
C -2.1479204247 -1.2885789268 2.4906658014
C -3.1711135050 -1.7877683779 3.2888347841
C -4.4928484678 -1.4974782598 2.9595277355
C -4.7887620088 -0.7167561431 1.8510392087
C 0.0667464748 1.7201164377 -1.1027241310
C 0.7579287888 0.7431367950 -1.8250509423
C 1.9607777272 0.2320703265 -1.3596711455
C 2.4776333253 0.6952948594 -0.1502670203
C 1.8012026681 1.6674646892 0.5790798340
C 0.5998109522 2.1773516713 0.1025382882
O 3.6906246325 0.2812258990 0.3498458885
C 4.1296785975 -1.0055615662 0.0847121794
C 5.4623312270 -1.1580849455 -0.2784645129
C 5.9691722216 -2.4384294532 -0.4776025287
C 5.1500546077 -3.5528316375 -0.3225756567
C 3.8169534732 -3.3827413546 0.0440006014
C 3.2988040880 -2.1100267662 0.2552501771
H -2.1521164285 3.2691746630 -3.3010312493
H -0.4662651317 3.7349518977 -2.9392562545
H -0.8173430517 2.1773419369 -3.7264078012
H -4.9876960746 1.0040449262 -0.0216436951
H -1.6148586943 -0.1347963576 0.7609434665
H -1.1127433753 -1.5047558365 2.7347036151
H -2.9431658659 -2.3939846435 4.1584511781
H -5.3034311243 -1.8756683706 3.5740475009
H -5.8216441904 -0.4916031488 1.6004406858
H 0.3453755181 0.3609962504 -2.7524962193
H 2.4925594225 -0.5229019755 -1.9274032046
H 2.2248256199 2.0161954561 1.5143101941
H 0.0763156522 2.9322125884 0.6768251869
H 6.0825061216 -0.2763342918 -0.3958880529
H 7.0094632378 -2.5623685998 -0.7605532157
H 5.5477342141 -4.5490088954 -0.4831132647
H 3.1743471651 -4.2472456582 0.1760887864
H 2.2637809873 -1.9694904712 0.5479734939
