37
CONF410
C -4.0836827244 -0.0909970378 -1.9575381100
C -2.7788907982 -0.4376324931 -2.6438977430
O -1.7560866740 -0.8654636188 -1.6965962400
P -1.1078146802 0.2301185992 -0.7362347661
O -0.9541458701 1.5995396226 -1.2770934528
O -1.9434156191 0.0932526469 0.6115859421
C -2.1197221767 1.2450593095 1.5042143549
C -2.1503900510 0.7255516031 2.9198649269
O 0.2893305594 -0.5554884624 -0.4623285823
P 1.4555344760 -0.0951686073 0.5900820749
O 0.9770685723 0.8417488477 1.6232507122
O 1.9908052101 -1.4773689059 1.1475809067
C 2.4637038375 -2.5306051475 0.2532558079
C 2.8152734828 -3.7221767474 1.1111190733
O 2.6405171302 0.3785386216 -0.3641233319
C 2.5304551506 1.6795029052 -1.0385544184
C 3.0935223327 2.7781940292 -0.1656605540
H -4.8470143351 0.1142743691 -2.7150436418
H -3.9767707132 0.8018292970 -1.3348257234
H -4.4249712548 -0.9189097478 -1.3305171698
H -2.8953772032 -1.2958686259 -3.3099424455
H -2.3898104143 0.4107533985 -3.2170240125
H -3.0635168740 1.7234841676 1.2200027339
H -1.2982390016 1.9484904144 1.3544382749
H -2.9485072578 -0.0104681482 3.0510221664
H -1.1894885317 0.2709249952 3.1708099606
H -2.3305598098 1.5593556145 3.6059720665
H 3.3332965904 -2.1534724014 -0.2948810997
H 1.6657748196 -2.7676961245 -0.4592832988
H 1.9384381224 -4.0764064104 1.6589024933
H 3.1810398175 -4.5340846979 0.4752842325
H 3.5969995668 -3.4631350086 1.8296307814
H 3.1074494315 1.5541296211 -1.9582997369
H 1.4829292654 1.8653301013 -1.3022916356
H 3.0497891795 3.7276137581 -0.7093219173
H 2.5105468437 2.8742839371 0.7532169696
H 4.1359303947 2.5729660192 0.0932248044
