60
CONF43
C -3.4680653798 -2.7833873083 0.2795602698
C -3.3633010210 -1.8639264255 1.4485559332
C -2.3318479812 -0.9857555435 1.7771296200
N -2.6657513029 -0.4045885342 2.9713654318
N -3.8448834414 -0.8533790675 3.4229199315
C -4.2718831151 -1.7483686895 2.5194601453
C -5.5512023583 -2.4895134379 2.7042192416
C -1.9925902714 0.6760165882 3.6755995268
C -1.1185062577 -0.6960118558 1.0359807385
C 0.1515685816 -0.7892808038 1.5114037303
C 0.3148143172 -1.3005753049 2.8275518123
N 0.4931086757 -1.7316387492 3.8895308750
C 1.3880137635 -0.3986359278 0.8003347805
C 2.4110534467 0.2477820610 1.5083214795
C 3.5730147366 0.6438039584 0.8652441479
C 3.7752823606 0.4023307786 -0.5017571542
C 2.7599033118 -0.2676303349 -1.1901553024
C 1.5866472859 -0.6659137269 -0.5560591574
C 5.0715313379 0.8598615852 -1.1701730860
C 6.2660228799 0.1658270013 -0.4871233150
C 5.1069908155 0.5233506825 -2.6654245082
C 5.2098483021 2.3869147534 -1.0133184983
O -1.3033289482 -0.3590385556 -0.2949030382
C -1.9387532960 0.8522143344 -0.5378322209
O -2.1581849286 1.6344193826 0.3514262938
C -2.2905184522 1.0050342328 -2.0041046633
C -2.7841740934 2.4341464088 -2.2409629860
C -1.0620075509 0.7132169370 -2.8816004533
C -3.4127180588 -0.0049270178 -2.3176450531
H -4.2975817329 -2.4973915749 -0.3771330770
H -2.5524840519 -2.7812020962 -0.3160726375
H -3.6572213834 -3.8098475400 0.6120917069
H -6.2247011673 -2.3257985617 1.8561091500
H -5.3724701851 -3.5684560413 2.7728283441
H -6.0528993747 -2.1624868390 3.6172748150
H -1.2408258445 1.1131863313 3.0179358888
H -2.7282902489 1.4396403297 3.9370391423
H -1.5114049041 0.3010884350 4.5839590421
H 2.2870333813 0.4557513666 2.5672797999
H 4.3357814690 1.1529223976 1.4454431417
H 2.8721581893 -0.4989319144 -2.2427792623
H 0.8341954655 -1.2031727806 -1.1192269435
H 6.1861247174 -0.9221758635 -0.5824145032
H 6.3230003248 0.4137617368 0.5767729809
H 7.2005058481 0.4864589240 -0.9603763425
H 5.0487040879 -0.5562195473 -2.8387730901
H 4.2891322909 1.0087158881 -3.2083237021
H 6.0504591663 0.8799207263 -3.0901891831
H 4.3648393118 2.9016532526 -1.4826957570
H 6.1325003475 2.7263588774 -1.4964654013
H 5.2503930425 2.6829596279 0.0388549735
H -2.0072680852 3.1636594275 -1.9946306558
H -3.0470796761 2.5491808953 -3.2964384626
H -3.6677976718 2.6528987553 -1.6358703772
H -1.3303316978 0.8922032924 -3.9272640218
H -0.2262529925 1.3709771456 -2.6221149547
H -0.7359536106 -0.3243949052 -2.7821963267
H -3.7262352540 0.1314572469 -3.3573083605
H -4.2805620203 0.1579600862 -1.6702360300
H -3.0655500939 -1.0330251978 -2.1897476377
