41
CONF71
C 6.4428824921 -0.4249731522 2.8422779858
C 5.1166991768 -0.9544667959 2.3382305541
O 4.0161628474 -0.1034870494 2.7636373646
C 3.7895908300 1.0015846602 2.0047153463
O 4.3865654798 1.2670980936 0.9696969728
N 2.8243637101 1.7732624578 2.5654717682
C 2.2575662217 2.9037455938 1.8468913038
C 1.2301236147 2.4991153625 0.8061803094
O 0.1297682961 1.9018563459 1.5096003924
C -0.9087655189 1.4107692205 0.7729905104
C -0.9912840394 1.4851977404 -0.6209378566
C -2.1046059729 0.9576527777 -1.2725023454
C -3.1181288819 0.3588103665 -0.5387414151
C -3.0425818089 0.2810213168 0.8476697721
C -1.9400375068 0.8102790574 1.5033304197
O -4.2654127184 -0.1113251331 -1.1740320710
C -4.1647953749 -1.2486023799 -1.9477217863
C -5.2517789730 -1.5172441760 -2.7806044657
C -5.2425877707 -2.6624249419 -3.5677935530
C -4.1573028116 -3.5382888101 -3.5335296298
C -3.0807227991 -3.2573388489 -2.6969159843
C -3.0736195060 -2.1151719187 -1.8980177873
H 6.6643961975 0.5530023570 2.4068379600
H 7.2415560676 -1.1176837260 2.5582494791
H 6.4350639771 -0.3367244127 3.9325377287
H 4.8835416561 -1.9270612470 2.7775276956
H 5.1012659532 -1.0389761807 1.2484374330
H 2.3065882871 1.3864841304 3.3397360844
H 3.0632907942 3.4472558502 1.3450695417
H 1.7978216114 3.5756380750 2.5780079147
H 0.8899803077 3.3857489026 0.2537388158
H 1.6612611335 1.7776941004 0.0995820884
H -0.2112171023 1.9538251988 -1.2078279190
H -2.1814988909 1.0129103982 -2.3539048729
H -3.8461580966 -0.1899817638 1.4043320291
H -1.8623947891 0.7634818706 2.5846062654
H -6.0885052828 -0.8265134052 -2.7992549187
H -6.0892072176 -2.8685712429 -4.2154953770
H -4.1527430452 -4.4297113723 -4.1518364298
H -2.2318191638 -3.9331741623 -2.6569384136
H -2.2333203571 -1.9047130674 -1.2461423900
