45
CONF375
C 2.2709565658 -2.8737000098 0.9562868480
C 2.2848687675 -1.4340209020 1.4688909958
C 3.0983862034 -0.4670835024 0.6064253803
C 2.6799205184 -0.4283946055 -0.8704785422
N 1.2498156008 -0.2582351578 -1.0984678829
C 0.5570747856 0.8899937813 -0.8734984064
C -0.8541349956 0.9017404320 -1.0113864464
C -1.5735270402 2.0835761677 -0.8737287343
C -0.9492259909 3.2836046570 -0.5610042752
C 0.4359838565 3.2774562692 -0.3904204025
C 1.1787621601 2.1071885207 -0.5445971818
C 1.0877369621 4.5661840194 -0.0476223140
O 0.4954250537 5.6202108001 0.0827361890
O 2.4242140453 4.4548388739 0.1103447102
S -3.3557310992 2.0996083435 -1.1681916461
O -3.8336537234 3.4265126499 -0.7565052551
O -3.6066102183 1.6169961950 -2.5334941043
N -4.0903198076 0.9989668440 -0.1388727318
O -1.5058082538 -0.2558311775 -1.3820592486
C -1.5639358117 -1.2997422391 -0.4555321730
C -1.8024625738 -2.5657685115 -0.9814839180
C -1.9117889205 -3.6446440177 -0.1107039121
C -1.7811856430 -3.4595337837 1.2651399450
C -1.5469063654 -2.1834991482 1.7695495815
C -1.4385734606 -1.0896353063 0.9132845705
H 3.2891248875 -3.2461979208 0.7947229405
H 1.7788003553 -3.5369618124 1.6745479412
H 1.7269147352 -2.9624795486 0.0092789947
H 2.6947718122 -1.4124682925 2.4857270240
H 1.2545131436 -1.0668747305 1.5449739972
H 4.1597654649 -0.7475238798 0.6283328539
H 3.0335461491 0.5373359297 1.0413480013
H 2.9554982346 -1.3683218813 -1.3572450003
H 3.2319696121 0.3650919418 -1.3908340340
H 0.7179493605 -1.0900880131 -1.2931562010
H -1.5178407348 4.1969822317 -0.4498041774
H 2.2532297542 2.1425279873 -0.4291964568
H 2.7705879508 5.3360788203 0.3285297510
H -3.8501278023 0.0384162231 -0.3730968274
H -3.8893053231 1.2009208712 0.8385169696
H -1.8974413868 -2.6898954330 -2.0551188708
H -2.0955757227 -4.6357656082 -0.5129445356
H -1.8626439529 -4.3054087652 1.9393859698
H -1.4447862594 -2.0292792907 2.8391137159
H -1.2582306077 -0.0928778305 1.3031679037
