56
CONF11
C 1.1569643665 -1.8251589696 0.2829504960
C 0.4928633659 -2.4980373772 1.4730791559
N 1.3715140364 -2.4471519494 2.6481937392
C 1.6986712206 -1.0545759863 2.9567663430
C 2.3556639271 -0.3824783272 1.7592485839
N 1.4593736168 -0.4356889796 0.6098057018
C 1.9356718141 0.3308246189 -0.5365008842
C 1.7476658920 1.8399491398 -0.3370368701
C 0.3728132789 2.1566550478 0.2610408205
N -0.7065032396 1.5082494580 -0.4861787673
C -1.6351424400 0.6961791795 0.1879808207
C -1.9740565373 0.9201445881 1.5275538777
C -2.8508448886 0.0706580180 2.1932750988
C -3.4498622874 -0.9912941411 1.5258114337
C -3.1721585031 -1.1898538851 0.1770783791
C -2.2624147729 -0.3669149700 -0.4787428009
S -1.8242670656 -0.7192285061 -2.1669062178
C -1.4945284901 0.9340509105 -2.7179766404
C -0.9168972184 1.8538860933 -1.8254119749
C -0.5487450005 3.1108329031 -2.3190794388
C -0.7382052668 3.4234414615 -3.6605881403
C -1.3316013324 2.5153386916 -4.5330979157
C -1.7236886619 1.2753237537 -4.0475722549
C -0.3439714344 4.7716854343 -4.1872175285
F 0.3833731218 5.4862631344 -3.2979362764
F -1.4302606180 5.5224377588 -4.5050286053
F 0.3961110453 4.6717121520 -5.3197108257
C 0.7804747326 -3.1324654017 3.8024017303
C 0.9170855322 -4.6441470205 3.6541991125
O 2.2713725694 -5.0080728450 3.4217292756
H 2.0674713057 -2.3923557086 0.0006750741
H 0.4667333903 -1.8418571937 -0.5684039719
H 0.2838504973 -3.5437146377 1.2231688434
H -0.4728038240 -1.9941637568 1.6775218578
H 2.3867719530 -1.0356963929 3.8101061373
H 0.7904498364 -0.4803181668 3.2330305080
H 2.5683569169 0.6631411820 2.0132807841
H 3.3250023857 -0.8780241585 1.5451436452
H 1.3428247537 0.0198497528 -1.4048663232
H 2.9952982986 0.1186440795 -0.7795950393
H 2.5052803138 2.2547438463 0.3386259228
H 1.8921259249 2.3382708857 -1.3018223381
H 0.3497380562 1.7379446376 1.2662100087
H 0.2213290327 3.2419392492 0.3522316509
H -1.5522849602 1.7670754908 2.0557687626
H -3.0787108641 0.2577445928 3.2374434507
H -4.1404953414 -1.6503147201 2.0400134572
H -3.6454919372 -1.9987306625 -0.3705090513
H -0.1073717679 3.8463114060 -1.6602463506
H -1.4826213761 2.7707439264 -5.5756879514
H -2.1857672478 0.5501153721 -4.7092409929
H -0.2819916656 -2.8556119439 3.9515285107
H 1.3355694031 -2.8241965144 4.6968475619
H 0.5965045063 -5.1307134931 4.5821196100
H 0.2661807837 -5.0193607598 2.8473263808
H 2.6175805719 -4.3140301963 2.8391002470
