44
CONF11
C -0.6469622720 2.1443059240 2.7173595032
C -1.4422796457 0.8676194286 2.4842903156
N -1.7607802540 0.6587014375 1.0503787824
C -2.9522696188 1.1330413535 0.6245329268
C -3.4078196451 1.0702244018 -0.6618725711
C -2.5889636846 0.4724980165 -1.6800386075
O -2.9428903524 0.3742281450 -2.8752567343
C -1.2853606966 -0.0175718184 -1.2287523308
C -0.4401075420 -0.6060267267 -2.1741783856
C 0.7789848863 -1.0962127975 -1.7974860435
C 1.2675026530 -0.9994314292 -0.4764452420
C 0.4030708817 -0.3884330840 0.4436736564
C -0.8810775780 0.0831371756 0.1270243923
F 0.9024414057 -0.2289526791 1.6943837808
N 2.5215288070 -1.4185475898 -0.0655396486
C 2.6259717816 -2.4572897024 0.9680248824
C 3.9314704506 -2.2832872621 1.7288112209
N 5.0424651956 -2.3384924683 0.7766250484
C 4.9528540561 -1.2572004843 -0.2118171599
C 3.6514006431 -1.4354411760 -0.9967436439
C 6.1527265055 -1.3112839432 -1.1459449689
F 1.5379765304 -1.7289156007 -2.7174417884
C -4.7626669088 1.6365368048 -0.9395101345
O -5.4463118770 2.1403028627 -0.0727304791
O -5.1636952987 1.5406659188 -2.2095788571
H -0.4458030759 2.2609047836 3.7862468175
H 0.3098003816 2.1225405057 2.1913309565
H -1.2133120685 3.0165237034 2.3775493994
H -2.4053844237 0.9237482785 2.9980594986
H -0.9260430072 -0.0105644304 2.8678692611
H -3.5882989996 1.5885700289 1.3777644202
H -0.7900751776 -0.7005279622 -3.1957465024
H 2.6102230221 -3.4540982204 0.4948301968
H 1.7780200571 -2.3875164977 1.6514807348
H 4.0381671360 -3.0993778416 2.4526144134
H 3.8862442441 -1.3276771332 2.2849882265
H 5.9250337161 -2.2685899403 1.2718769861
H 4.9098298719 -0.2627571143 0.2761745626
H 3.7072008054 -2.3810290979 -1.5595255846
H 3.5414927738 -0.6112939004 -1.7068573339
H 7.0851968830 -1.1794794220 -0.5873935953
H 6.0984222982 -0.5165899996 -1.8960519153
H 6.1958260304 -2.2778260625 -1.6572948246
H -4.4331113878 1.0908629521 -2.7254065060
