60
CONF9
C 0.5492780567 1.2075236255 -0.8759640875
C 1.4415572492 1.7927272649 -1.9758309690
C 2.8177171116 1.9997322078 -1.2847328869
C 2.6880334745 1.4025972422 0.1344355695
O 2.3436065032 2.4815279833 1.0167776380
C 3.9602244376 0.7536408979 0.6461073004
O 4.7323276245 0.1561376350 -0.0864593740
C 4.2083676034 0.8732227507 2.1420474229
O 5.3110072112 0.0882692033 2.6081099073
S 5.1443168139 -1.5547367704 2.5065196894
O 6.0172066554 -1.8619359392 1.1949492985
O 3.7288458617 -1.8318170639 2.2558136702
O 5.8533665713 -2.1229268035 3.6275642091
C 1.5149544175 0.3526049514 -0.0326371108
C 2.0425215030 -0.8706863151 -0.8002603478
C 0.7997900258 -0.0677090430 1.2515554770
C -0.5411489451 -0.7855045111 0.9845122595
O -0.3419521454 -2.1090312142 0.4783380603
C -1.4489252378 -0.0006731856 0.0191888050
C -0.7344237458 0.4773062863 -1.2650250545
C -1.6502187290 1.4321371908 -2.0357709734
C -3.0286651471 0.8273785214 -2.3043177699
C -3.6740590068 0.2988090897 -1.0582751675
C -4.9409577713 0.6315918416 -0.7413492497
C -5.7073241407 -0.0031945774 0.3344542710
O -6.8486024018 0.3407820148 0.6053876089
C -5.0217313736 -1.1617868721 1.0258866792
C -3.5170832489 -0.9313768195 1.1248755078
C -2.8436501740 -0.6760219716 -0.2375289773
C -2.7669243206 -1.9926174708 -1.0496736730
H 0.2374229504 2.0460679867 -0.2336014075
H 1.0459973142 2.7296739465 -2.3747572216
H 1.5276504686 1.0916743692 -2.8133566752
H 3.6269550175 1.5069483236 -1.8263887852
H 3.0779001785 3.0557494830 -1.1833431331
H 1.7536139419 2.1549297268 1.7066871705
H 3.2934848877 0.6321523508 2.6975271745
H 4.4748217720 1.9102686722 2.3707385965
H 5.7168640229 -1.2041481150 0.5141080010
H 2.6911167208 -0.5838964533 -1.6295333326
H 2.6242176382 -1.5165337266 -0.1368052218
H 1.2160747074 -1.4637999598 -1.1885462887
H 1.4297767585 -0.7196691860 1.8714253499
H 0.5404632803 0.8101085780 1.8637346477
H -1.0579687840 -0.8494160302 1.9545777837
H 0.3044646921 -2.5506339532 1.0423281341
H -1.6892256325 0.9240382380 0.5726369188
H -0.4950145518 -0.3820676279 -1.9049057954
H -1.1831975424 1.7194965163 -2.9841971238
H -1.7714941855 2.3523786961 -1.4464195431
H -3.6866326671 1.5577968821 -2.7847390344
H -2.9157938953 -0.0092929858 -3.0093038646
H -5.4895692720 1.3501287498 -1.3463719232
H -5.4771363761 -1.3035173114 2.0096620809
H -5.2391706536 -2.0653186029 0.4395573795
H -3.0406820667 -1.7892566882 1.6109575692
H -3.3481024177 -0.0562410508 1.7678128207
H -2.3889492911 -2.8070244730 -0.4330200379
H -2.1040417508 -1.8982281834 -1.9120630583
H -3.7613000181 -2.2564115153 -1.4230980136
