38
CONF19
C -1.0404900649 -0.3093837624 -2.7162613265
C -0.9028035687 0.0457677316 -1.2307489900
C -2.2800624269 0.2486293609 -0.6246878905
C -2.5430134986 1.2985144064 0.4199271825
C -3.0625683032 1.4834505309 -0.9830604387
C -0.1049657479 -1.0214716544 -0.4278967444
C 1.2909545504 -1.3654954819 -1.0364464329
N 2.2674157376 -0.2914983133 -1.0252190813
C 3.2911915571 -0.1120120327 -0.1660364230
N 3.9272871032 1.0218539245 -0.4361127346
C 3.2248478955 1.5114667135 -1.4960950693
N 2.2099272297 0.7518839312 -1.8906909070
C 0.0791081719 -0.6155952341 1.0261468251
C -0.2360297410 -1.4946454544 2.0639866001
C -0.0295471756 -1.1432293115 3.3960600291
C 0.5097473849 0.1016871757 3.6847385796
C 0.8418964384 0.9984766312 2.6778691199
C 0.6226095562 0.6310287076 1.3549721049
Cl 0.7791974444 0.5575284349 5.3666935603
O -0.8113743320 -2.2687124399 -0.4290539292
H -1.6136897694 0.4764615062 -3.2158150247
H -1.5918774980 -1.2458474796 -2.8627392593
H -0.0748972245 -0.3877214967 -3.2211141408
H -0.3561053782 0.9934553704 -1.1631052121
H -2.8646802427 -0.6637467954 -0.5345600959
H -1.7098619596 1.9219094412 0.7265050233
H -3.2540219616 1.0678614683 1.2071748485
H -2.5633200528 2.2236126445 -1.6023451539
H -4.1290529041 1.3842908596 -1.1577686412
H 1.7075579893 -2.1823086604 -0.4415334135
H 1.1697839306 -1.7135354200 -2.0660106644
H 3.5281121040 -0.8227304671 0.6151863191
H 3.4662370138 2.4414192175 -1.9957193177
H -0.6538363736 -2.4677776771 1.8395694351
H -0.2853347079 -1.8331160241 4.1924361172
H 1.2605953368 1.9697065697 2.9160331096
H 0.8726051129 1.3510002061 0.5826871604
H -0.9415418266 -2.5411768305 -1.3469653248
