56
CONF102
C 0.6025227001 5.1055415053 2.8217062491
C 0.2770061169 3.6952451076 2.3871958638
O 1.4616083540 2.8981638582 2.5810377412
C 1.3972616508 1.5797546229 2.2316684632
C 2.5734874215 0.8420338211 2.3830859726
C 2.6025892617 -0.5074629806 2.0514333229
C 1.4690033953 -1.1686372847 1.5654897178
C 0.3041137354 -0.4094943907 1.4255095923
C 0.2514645062 0.9447515000 1.7451358498
C 1.4655366007 -2.6524882228 1.1937651005
C 0.4316488865 -3.4011639130 2.0566927250
C 2.8338184464 -3.3154308583 1.3911015522
C 1.0380939306 -2.8152973051 -0.2710774507
O 1.9532523428 -2.1142122400 -1.1147935103
C 1.6414191023 -2.2576930015 -2.4952010666
C 0.3806798218 -1.5325877821 -2.9142729972
C 0.0460563595 -0.3088918696 -2.3320125535
C -1.0915033819 0.3600790772 -2.7618604538
C -1.9074321894 -0.1487257583 -3.7649942086
C -1.5687984046 -1.3690432830 -4.3428976947
C -0.4379218639 -2.0604105982 -3.9145132273
O -1.3936787048 1.6071847788 -2.2188823704
C -2.1067683235 1.6461350749 -1.0405705708
C -2.2829797448 2.9117793893 -0.4792433002
C -2.9887150278 3.0392348294 0.7106052609
C -3.5196772685 1.9153968448 1.3449807539
C -3.3421430648 0.6606706684 0.7689280335
C -2.6390215778 0.5138137399 -0.4257348808
H 0.8884910729 5.1314665258 3.8770835759
H -0.2783727646 5.7397306587 2.6860352349
H 1.4207906593 5.5170910847 2.2239732029
H -0.0133551378 3.6625084058 1.3285901036
H -0.5476307275 3.2778270224 2.9814570902
H 3.4626748151 1.3391751139 2.7586331744
H 3.5368336413 -1.0426165617 2.1770628988
H -0.6031276932 -0.8703762025 1.0463575710
H -0.6794497557 1.4826172707 1.6087003989
H -0.5748901666 -2.9931810138 1.9250765492
H 0.4100262464 -4.4639207167 1.7907407837
H 0.6987431244 -3.3166333199 3.1146067931
H 3.1412145341 -3.2765465500 2.4409401936
H 3.6082395621 -2.8408711563 0.7830509152
H 2.7695095237 -4.3684042968 1.0982933930
H 0.0171513808 -2.4308422764 -0.4166347221
H 1.0379305053 -3.8859788567 -0.5359140967
H 1.5597764661 -3.3218432253 -2.7664342505
H 2.4990321392 -1.8388616918 -3.0355726332
H 0.6580514505 0.1145463169 -1.5411696959
H -2.7890956382 0.4026411023 -4.0746420873
H -2.1961709778 -1.7863154754 -5.1242606174
H -0.1870896420 -3.0182043657 -4.3619262823
H -1.8583828528 3.7766393821 -0.9785220448
H -3.1167717554 4.0242904196 1.1491070351
H -4.0645002290 2.0184695131 2.2773805530
H -3.7499301711 -0.2224247961 1.2515025617
H -2.5006202989 -0.4682267415 -0.8638977959
