63
CONF118
C 8.3023668156 0.3815206151 -3.1981251838
C 6.9633802402 -0.1507408734 -3.6986690779
N 5.9468126830 -0.1522737187 -2.6404453134
C 5.1580701260 1.0607033795 -2.4192482631
C 4.8377017558 1.2131035746 -0.9529588225
N 4.1227308141 0.0143668239 -0.4695590253
C 4.5457170569 -1.2153483190 -0.9078599971
O 4.0562069420 -2.2886881885 -0.5738069755
C 5.7420553161 -1.2505225876 -1.8956488314
O 6.3892713464 -2.2938149184 -1.9819661892
C 3.1103729985 0.2374149562 0.5242658820
O 2.8788954339 1.3786831705 0.9124445191
N 2.4642618069 -0.8498769285 0.9831193833
C 1.3867694229 -0.6845437195 1.9378695036
C 0.8008438062 -2.0289597387 2.3162507768
C 0.6565138076 -2.3712696423 3.6610724330
C 0.0874601805 -3.5918059610 4.0163967715
C -0.3380406109 -4.4776113401 3.0296255787
C -0.1968376820 -4.1377906246 1.6851213862
C 0.3654813935 -2.9162576953 1.3275397806
C 0.2630279341 0.1830879688 1.3270455029
O 0.0024203554 0.1777922589 0.1281254687
N -0.4473848247 0.8992678030 2.2301242188
C -1.5682598411 1.6949558979 1.8370989896
C -2.8201381888 1.0432056743 1.1683258899
N -2.6525853282 1.9802978215 0.0435836503
C -1.4926446838 2.5499829728 0.5496632594
O -0.7631124465 3.4149672640 0.1234179917
C -3.8316876358 2.6045462641 -0.5259393769
C -5.0537171273 1.8232973250 0.0851402990
S -4.4966500980 1.3802106362 1.8214488118
C -5.2865400312 0.5535716789 -0.7357619829
C -6.3310141286 2.6493518064 0.1667755905
C -3.8857642476 4.0889061973 -0.1775328071
O -4.4545294124 4.7879770764 -1.1731751467
O -3.5010984788 4.5729619839 0.8627748350
H 8.6923073622 -0.2528811083 -2.3972175549
H 8.2030354516 1.4032911046 -2.8190515685
H 9.0252923109 0.3898931418 -4.0190719957
H 6.5783914348 0.4689950444 -4.5153822420
H 7.0676389485 -1.1751722046 -4.0645501958
H 4.2408739199 1.0363602673 -3.0237640285
H 5.7538242004 1.9211528907 -2.7358700431
H 5.7533104424 1.3562237872 -0.3662700471
H 4.1869909542 2.0732314745 -0.8013466839
H 2.7005815651 -1.7607534299 0.6037737147
H 1.7620179544 -0.1880245243 2.8404788277
H 0.9943639766 -1.6824431892 4.4299946066
H -0.0172052758 -3.8519902366 5.0650134036
H -0.7778681521 -5.4305817966 3.3063895751
H -0.5293889436 -4.8237488446 0.9124001128
H 0.4606476184 -2.6507564649 0.2785094749
H -1.8676097448 2.3408264616 2.6671266013
H -2.6892422348 -0.0068388711 0.8926160943
H -3.8738143500 2.4965046952 -1.6151473300
H -4.3800044790 -0.0520547616 -0.8210180004
H -5.6113358480 0.8297367577 -1.7452459828
H -6.0687965083 -0.0505278446 -0.2699539627
H -7.1349832593 2.0386466429 0.5862837604
H -6.6309333487 2.9599604017 -0.8390061643
H -6.2094428560 3.5387967802 0.7912151087
H -0.1839112166 0.8825592731 3.2045002854
H -4.5304162455 5.7179561987 -0.8953846682
