27
CONF22
C -3.0081662847 -0.0443359219 -0.3798023544
C -4.2630307318 -0.1433310190 0.4792406053
O -5.3611678351 -0.0763674791 -0.4310097325
C -1.7498395334 -0.1654536997 0.4469274600
C -0.4532321388 0.0543353274 -0.3908307534
C 0.8819775599 -0.3458205261 0.3255670215
C 2.1549443635 0.2864985724 -0.3408189105
C 3.4835111881 -0.4492761884 0.0435884881
C 4.7757538850 0.3854868234 -0.2399206082
F 4.7461740536 0.8846127218 -1.4838680407
F 5.8421218630 -0.4174584258 -0.1220822686
F 4.9007561363 1.3895859445 0.6338997927
F 3.5713734981 -1.5922693717 -0.6692671956
F 3.4729873083 -0.7474059645 1.3634410676
F 2.0230505551 0.2378946824 -1.6862291324
F 2.2493779380 1.5798317874 0.0449868961
F 0.8380278799 0.0538659798 1.6148417560
F 1.0021863265 -1.6935440334 0.2852774705
F -0.5525994479 -0.6803394524 -1.5277033144
F -0.3947935602 1.3682583408 -0.7317251049
F -1.6644118752 -1.4063650205 1.0237192285
F -1.7535367498 0.7527654576 1.4611134302
H -3.0142955417 -0.8403891484 -1.1288082420
H -2.9943065552 0.9160232875 -0.9051944171
H -4.2635368752 -1.0921008973 1.0348833209
H -4.2922995290 0.6841867163 1.2009999349
H -6.1770263151 -0.1095120852 0.0787737082
