60
CONF25
C -1.4310403093 1.9557463758 -1.1312567778
Si -1.3145849049 1.9905223805 0.7298185732
C -2.3260543169 3.3668899859 1.4733650388
O 0.2499226211 2.1657624110 1.2212711304
Si 1.6745301077 2.7435784708 0.6245269167
C 2.9854583753 2.3957816743 1.8999629691
C 1.5065683450 4.5571747717 0.2361451916
O 2.0351592623 1.9807333335 -0.7940201026
Si 2.4084053185 0.4685265339 -1.3376879679
C 2.1301138764 0.4621008102 -3.1770158308
C 4.1721929936 0.0623146464 -0.8857516783
O 1.3712152505 -0.6067149455 -0.6426779982
Si 1.2901294929 -1.9799328713 0.2655645008
C 1.4406998620 -1.5533060133 2.0711853700
C 2.5816186601 -3.2062999475 -0.2839907327
O -0.1939867802 -2.6534662855 0.0230495841
Si -1.5162610419 -2.5494505263 -0.9560962564
C -1.0228466810 -2.1389047892 -2.7036872263
C -2.4163494445 -4.1743888445 -0.8257938613
O -2.5039637880 -1.3368000169 -0.4255869790
Si -2.9115964784 -0.6300354207 1.0092529827
C -2.8504463284 -1.8712789220 2.3963086684
C -4.6001553958 0.1244856352 0.7864377727
O -1.8168826484 0.5522746647 1.3644080575
H -1.0542411165 2.8883294070 -1.5662529828
H -0.8448721833 1.1251074755 -1.5377888556
H -2.4719542134 1.8283047202 -1.4498092736
H -3.3841645212 3.2627909854 1.2087314962
H -1.9797017044 4.3422172196 1.1133178897
H -2.2446434461 3.3579186108 2.5659891137
H 3.0360064709 1.3246297844 2.1238071781
H 2.7703854286 2.9280993917 2.8329168814
H 3.9704162552 2.7154847900 1.5428959961
H 2.4486013442 4.9657667898 -0.1453910125
H 0.7333759023 4.7212976697 -0.5231553602
H 1.2276592767 5.1216553895 1.1324988883
H 2.7975860696 1.1736052456 -3.6753027214
H 1.0971404986 0.7398650297 -3.4138832954
H 2.3199856602 -0.5333328636 -3.5932867587
H 4.4933655915 -0.8724667409 -1.3575274651
H 4.8427916097 0.8599864133 -1.2241514965
H 4.2912765593 -0.0442445107 0.1983176543
H 0.6908962129 -0.8051777423 2.3510471860
H 2.4327469031 -1.1461031876 2.2956275295
H 1.2894223244 -2.4416175322 2.6944591984
H 3.5925553772 -2.8573381872 -0.0497426197
H 2.4297846987 -4.1668881335 0.2207093289
H 2.5192921825 -3.3758824072 -1.3650375868
H -0.3305461722 -2.8891847774 -3.1013597282
H -1.9016008218 -2.1049393575 -3.3570324812
H -0.5280848916 -1.1629425641 -2.7417595501
H -1.7974971032 -4.9945945822 -1.2058246612
H -3.3465944749 -4.1532924593 -1.4036948688
H -2.6682495035 -4.3936697028 0.2177797931
H -1.8473592896 -2.3014141526 2.4907978416
H -3.1103837903 -1.3978795677 3.3494466113
H -3.5572089144 -2.6891945179 2.2189878155
H -4.9181672653 0.6448773843 1.6964263964
H -5.3448738836 -0.6447636172 0.5548619896
H -4.5949909171 0.8496781864 -0.0353488218
