44
CONF17
C -3.9624909272 -1.2124029252 1.0727066680
C -3.7745051538 0.2375225161 1.5162151706
C -3.2581751310 1.1331144394 0.3378451272
N -1.8294116873 0.8737948307 0.2515509641
C -1.1140824572 0.7904811638 1.5314219116
S -2.3888969411 0.3659485760 2.7880203531
C -0.2275477981 -0.3406408890 0.9035165271
C -1.0771173593 -0.1019866632 -0.3627259593
O -1.1416743669 -0.6041257372 -1.4682084197
N 1.2001523257 -0.2244059764 0.8362965113
C 1.7975832872 0.7313325332 0.0786583519
O 1.1306684879 1.6172074099 -0.4626171413
C 3.2984216783 0.5936168758 -0.0843801375
C 3.6176652775 -0.4305541610 -1.1738447093
C 2.7239613989 -0.7022522005 -2.2105447719
C 3.0624682018 -1.6234952974 -3.1975269469
C 4.2927376512 -2.2705920615 -3.1610555151
C 5.1885122954 -1.9938132916 -2.1316733347
C 4.8539926186 -1.0790892401 -1.1403925489
C 4.0512203899 1.9049295085 -0.4160635112
O 5.2150909460 2.0180810124 -0.1287993406
O 3.3694025504 2.8436407472 -1.0732782969
C -4.1120592072 0.9423615302 -0.9288794513
O -5.2404682127 1.3715877433 -0.9165081730
O -3.6204907593 0.3025694354 -1.9872767430
C -5.0475201857 0.7908932500 2.1446283768
H -4.8049096303 -1.2842713776 0.3746765704
H -3.0728066291 -1.6142770070 0.5782822240
H -4.1785141831 -1.8443584220 1.9372909946
H -3.3946247062 2.1825979522 0.6232492858
H -0.5729117444 1.6984387852 1.8110370580
H -0.4914422805 -1.3086541958 1.3379227497
H 1.7654074104 -0.9822283949 1.1859279044
H 3.7383962675 0.2433763773 0.8551577449
H 1.7601811684 -0.2037796231 -2.2563721831
H 2.3584393943 -1.8318329851 -3.9963665083
H 4.5545141645 -2.9870425650 -3.9326675364
H 6.1526725413 -2.4906859017 -2.0994302038
H 5.5582287214 -0.8459829988 -0.3480429533
H 2.4151433326 2.5834248296 -1.0881788608
H -2.6894706140 -0.0206039386 -1.8840575649
H -5.3283573578 0.1971284660 3.0195330407
H -5.8612260163 0.7453722122 1.4161615184
H -4.9161560674 1.8296566477 2.4572692459
