29
CONF36
C -1.2486424541 -1.0088651325 -2.6731828926
C 0.1218778843 -0.4204712508 -2.4505926920
O 0.0122993358 0.5489689880 -1.3541140469
P 1.2165584486 0.8823245722 -0.3601995944
S 3.0012595242 0.3260088605 -0.8088932118
O 1.0644070099 2.4380617433 -0.0777189251
C -0.2418804332 3.0510881140 0.2019613705
C 0.0135606216 4.4970577620 0.5481471720
O 0.6399104992 0.3366898491 1.1128819878
C 0.3946525154 -0.9633507151 1.3769930811
N 0.4357324675 -1.8524526351 0.4005120050
C 0.1869843121 -3.1238290568 0.6458367822
C -0.1269331514 -3.5919270168 1.9213548061
C -0.1765944287 -2.6656024468 2.9602733814
C 0.0861893640 -1.3333526835 2.6939654958
Cl 0.0284931080 -0.1475515747 3.9611013121
Cl -0.4549246299 -5.2654617317 2.2441503675
Cl 0.2603547840 -4.2108243209 -0.7173638487
H -1.2019757494 -1.7167802259 -3.5064997093
H -1.5854079895 -1.5460557402 -1.7823546775
H -1.9773123357 -0.2316174516 -2.9193899792
H 0.4843421027 0.1267063548 -3.3260115334
H 0.8512781507 -1.1853318180 -2.1753485308
H -0.7087463396 2.5122953921 1.0328094844
H -0.8636624966 2.9481914236 -0.6923313507
H -0.9412098508 4.9910971227 0.7522879808
H 0.6444230532 4.5778157549 1.4369736473
H 0.5021258587 5.0138878682 -0.2818461341
H -0.4171588901 -2.9867203012 3.9667007513
