19
CONF20
C -2.0037303380 0.7541816114 -1.0906594212
C -1.8244077221 0.0667435266 0.2302573234
C -2.7740963158 0.0147267518 1.1700403178
C -0.5199529515 -0.5997029724 0.5295149028
O -0.2542342309 -1.1827224756 1.5645049894
O 0.3280172151 -0.4803527818 -0.5132105573
C 1.6704427380 -1.0178406394 -0.3754268786
C 2.6556762551 0.1143918629 -0.2371387562
O 2.4273252760 0.7626775543 1.0184726380
H -1.2624227913 1.5487296705 -1.2237601782
H -1.8698959897 0.0526263561 -1.9202086636
H -3.0027109889 1.1903414139 -1.1563051282
H -2.5996996996 -0.4938192501 2.1120335148
H -3.7408004937 0.4813108001 1.0098396115
H 1.8694387996 -1.5746357539 -1.2947271040
H 1.7109587518 -1.6889251012 0.4854525256
H 3.6679822029 -0.3139167017 -0.2887288247
H 2.5338117682 0.8193974102 -1.0712413714
H 2.9882994251 1.5467884273 1.0512909543
