47
CONF57
C -7.8769680310 0.7683312542 0.5645463041
O -6.9739474545 -0.1791089412 -0.0740094224
P -5.5656917664 -0.5221612041 0.5980588793
S -5.5483506461 -0.8789164017 2.5086251419
O -5.0210752598 -1.6676020937 -0.3732559182
C -5.4650799550 -3.0445232735 -0.2002393443
O -4.6764981842 0.7408883909 0.1050714238
C -3.4446597523 1.0562596043 0.6864570146
C -2.3561831396 0.2032396216 0.5463586154
C -1.1335648928 0.5703671648 1.0950398707
C -1.0004727096 1.7971193701 1.7508717636
C -2.1029771750 2.6468671306 1.8727051651
C -3.3355299597 2.2690104850 1.3503921278
S 0.5309476781 2.3050351002 2.5240854128
C 1.7701559419 1.6106406305 1.4368369732
C 2.8163296062 0.8760481820 1.9964177083
C 3.8290356544 0.3731727399 1.1838588425
C 3.7626585563 0.5912442618 -0.1850603244
C 2.7268894527 1.3196485265 -0.7586609876
C 1.7361011004 1.8454430870 0.0587993159
O 4.7684132619 0.1188233111 -1.0287439852
P 4.9837633762 -1.4768343148 -1.2993033434
S 3.3577332531 -2.5300537276 -1.3758743931
O 5.9924981562 -1.9968459724 -0.1813650034
C 7.2673997870 -1.3158003937 0.0452705669
O 5.9197856375 -1.4062244604 -2.5907181804
C 5.3708344113 -0.9538868624 -3.8617468010
H -8.7551237989 0.8136504217 -0.0786142041
H -7.4038960952 1.7520028179 0.6287686756
H -8.1507998332 0.4096945170 1.5597262025
H -6.5429923260 -3.1148905867 -0.3674859307
H -4.9281486029 -3.6199922870 -0.9534299063
H -5.2084230766 -3.3957359425 0.8022303785
H -2.4640236700 -0.7402027184 0.0220480588
H -0.2849384357 -0.0987343752 1.0023273309
H -2.0026206161 3.6046627516 2.3730558234
H -4.2015572480 2.9159873235 1.4399656540
H 2.8420663380 0.6901331095 3.0649285998
H 4.6490806319 -0.1947654907 1.6106735893
H 2.7097349805 1.4774001235 -1.8318027077
H 0.9301213159 2.4264706426 -0.3770955852
H 7.6868090958 -1.7778473603 0.9380556239
H 7.9261385508 -1.4711591581 -0.8112299970
H 7.0993141075 -0.2493199129 0.2154141736
H 4.5556473789 -1.6134927197 -4.1702879747
H 5.0182976726 0.0767923428 -3.7714687342
H 6.1937655932 -1.0108345178 -4.5731504858
