44
CONF22
C -4.4336588445 -0.9287524804 1.4484822997
C -3.0017122536 -1.0051349106 0.9818979858
C -2.6096617833 -2.2826518105 0.2626147382
O -1.5218945171 -1.8604863276 -0.5799955392
C -1.6831810733 -0.4618131545 -0.8358092251
O -2.7886205870 -0.0292443909 -0.0687597156
C -2.0382576577 -0.1838083761 -2.3119167504
N -3.1902939661 -0.9558574210 -2.7341737542
C -4.4971417778 -0.6779896146 -2.5527002038
N -5.2462997952 -1.6822030460 -2.9924080189
C -4.3166675365 -2.5754516695 -3.4369041338
N -3.0570215833 -2.1825597558 -3.3001920225
C -0.4060711490 0.2822115607 -0.4467777560
C -0.5004515979 1.4010743431 0.3859456973
C 0.6136645641 2.1217608101 0.7884306362
C 1.8698007668 1.7299155747 0.3394404221
C 2.0110971204 0.6365438662 -0.5104388076
C 0.8744506595 -0.0671668752 -0.8887233668
Cl 1.1416584454 -1.4308170858 -1.9750602187
O 2.9387810121 2.5119055163 0.7136457007
C 4.1933969167 1.9341397921 0.8313210341
C 5.2637222132 2.6141220074 0.2632735504
C 6.5544405961 2.1199537107 0.4251630155
C 6.7410201318 0.9480395471 1.1476082459
C 5.6738471521 0.2639711059 1.7198870775
C 4.3870740066 0.7658820106 1.5637502331
Cl 8.3708001200 0.3125375107 1.3475381654
H -4.6100239582 -1.6909297423 2.2133679545
H -5.1155139430 -1.1041947098 0.6106198702
H -4.6459472032 0.0506032160 1.8851879719
H -2.3005431266 -0.8013938662 1.8050044429
H -2.2401365699 -3.0648864661 0.9297097189
H -3.4431323865 -2.6653374791 -0.3446826581
H -2.2683853369 0.8808197269 -2.4116731446
H -1.1998759195 -0.4309904630 -2.9635052423
H -4.8423712477 0.2488068399 -2.1147585694
H -4.5696401797 -3.5317320806 -3.8776502213
H -1.4819399158 1.6976156402 0.7365426820
H 0.5190680972 2.9806950478 1.4434214129
H 2.9860201938 0.3394636207 -0.8779283958
H 5.0868029935 3.5247462223 -0.2987164288
H 7.3985938506 2.6401864237 -0.0126951254
H 5.8407185023 -0.6433609906 2.2890317549
H 3.5434855775 0.2517688451 2.0120623071
