47
CONF165
C -2.2446317023 4.6399596226 1.9106595265
C -2.9347676171 3.7865795519 0.8710732500
C -3.8855504207 2.7285001695 1.3211004463
C -2.4850146054 2.3148711865 0.8552492106
C -2.3827659588 1.5415277041 -0.3849949094
O -3.1862600890 1.4868473685 -1.2936263988
O -1.2099698992 0.8283869936 -0.4016762001
C -0.9959283174 0.0193820441 -1.5861287597
C -1.9324321361 -1.1121768525 -1.5797724622
N -2.6435903746 -2.0222971257 -1.5779269503
C 0.4375766079 -0.4508154285 -1.5728317992
C 1.3126551027 -0.0061310112 -2.5609732216
C 2.6409021555 -0.4257848688 -2.5344476448
C 3.0972522422 -1.2788005824 -1.5369373635
C 2.2042166989 -1.7198638486 -0.5587383803
C 0.8751501832 -1.3140190643 -0.5695133772
O 2.5956631135 -2.5150197464 0.4964774352
C 3.5964386314 -3.4569941009 0.2921345090
C 4.5909121337 -3.5485169804 1.2587214716
C 5.5681265228 -4.5332280259 1.1322350711
C 5.5514548480 -5.4081151989 0.0482892181
C 4.5444030789 -5.3018312886 -0.9103610376
C 3.5565162350 -4.3287601785 -0.7931090871
C -4.2571586699 2.5358194612 2.7374769559
C -4.6355808407 1.3575248364 3.2289539869
Cl -5.1201393909 1.1271226328 4.8856380146
Cl -4.6775432521 -0.0901378381 2.2627814091
C -3.2149689024 4.5026127133 -0.4290944497
H -1.3144051479 5.0467982783 1.5017927473
H -2.0031225759 4.0744046353 2.8144385190
H -2.8898667472 5.4803987691 2.1902139008
H -4.6536645588 2.4591612004 0.5972120108
H -1.7705495788 2.0448498438 1.6251356714
H -1.1967436126 0.6153149924 -2.4826907166
H 0.9607821852 0.6619426651 -3.3400098621
H 3.3321052134 -0.0781803136 -3.2951286631
H 4.1333084229 -1.5983427306 -1.5141585923
H 0.2011387125 -1.6725799086 0.2023661461
H 4.5907037219 -2.8558614452 2.0938379821
H 6.3477459906 -4.6098939311 1.8836166933
H 6.3169065537 -6.1709716834 -0.0483330412
H 4.5196035974 -5.9862596706 -1.7525702240
H 2.7648009364 -4.2462967558 -1.5307576471
H -4.2486922496 3.3847535310 3.4155883031
H -2.2791804237 4.8394377841 -0.8877996957
H -3.8299294872 5.3857554974 -0.2255615755
H -3.7459057206 3.8689273933 -1.1408045979
