30
CONF45
O 6.0941208324 -0.7385881316 -0.2779506118
S 4.9935824452 -0.1599653281 0.7578570224
O 4.9587278698 -0.9683883868 1.9700745074
O 5.1712965650 1.2833673385 0.7636828390
C 3.3984629687 -0.5309279590 -0.2473821854
F 3.6436885725 -0.2455719653 -1.5324915694
F 3.1382997063 -1.8434299208 -0.1148873410
C 2.1981990624 0.3213165773 0.2755435114
F 2.2460581590 0.3352158161 1.6267458710
F 2.3398416414 1.5806365764 -0.1893008010
C 0.8031395870 -0.2395271848 -0.1769350347
F 0.5017502707 -1.3085562159 0.5925570093
F 0.8972938710 -0.6333398017 -1.4667912648
C -0.3514048627 0.8192598001 -0.0571939109
F -0.1902791749 1.5067909133 1.0950422819
F -0.2620638997 1.6723650783 -1.1002012924
C -1.7803997014 0.1646823530 -0.0493013036
F -2.0056230971 -0.3471751556 1.1796195113
F -1.8101136272 -0.8356781364 -0.9621778151
C -2.9226448817 1.1744204206 -0.4014349921
F -2.6908570458 2.3321872290 0.2637572350
F -2.8944230406 1.4187902279 -1.7283805842
C -4.3869039939 0.7440071898 -0.0201086654
F -4.5093525850 0.7327113890 1.3237279652
F -5.1959084767 1.7068469249 -0.5219887681
C -4.9039979404 -0.6239180135 -0.5634261803
F -4.2781347514 -1.6399116017 0.0447208912
F -6.2152042232 -0.7179272403 -0.3124692526
F -4.7065081918 -0.7134261118 -1.8845972700
H 6.2346719730 -1.6937576091 -0.1239401330
