52
CONF352
C 2.3185331747 -1.3906842738 -2.3937268229
C 1.9937742068 0.0244731392 -1.9724680935
C 2.9259605356 1.0673857987 -2.5937692986
C 2.6603800040 2.4610157272 -2.0125670715
C 2.7351099106 2.4248264885 -0.4828146380
C 1.9063112280 1.2737372283 0.0954540980
O 2.1184737632 0.0495878163 -0.5191902654
O 0.5200824353 1.7397514896 -0.0137481990
C -0.4836414812 0.8093386751 -0.0022259878
C -0.7207554094 -0.0466093626 1.0400785997
O -1.6869352892 -1.0044175210 0.9499683904
C -2.4821980080 -1.1100832187 -0.1543552272
C -3.4160294052 -2.1309232804 -0.1522216599
C -4.2469997849 -2.2446799792 -1.2671551788
C -4.1528437381 -1.3690219939 -2.3567506232
C -3.2083846619 -0.3547255919 -2.3348801252
C -2.3473164123 -0.1999943360 -1.2142070621
C -1.3232820440 0.8044183535 -1.1761863340
O -1.1386417954 1.6217054910 -2.1232563144
O -3.1033226056 0.4805862701 -3.3814374159
O -5.1544150272 -3.2502729609 -1.2439175621
C -0.0274456404 -0.0859934726 2.3205832860
C 0.3836036075 1.1055362737 2.9404656133
C 1.0277060941 1.0780862640 4.1662081013
C 1.2753681793 -0.1575724388 4.7963924868
C 0.8589271918 -1.3369618323 4.1842189748
C 0.2061443045 -1.3088205506 2.9595091786
O 1.9161091211 -0.1202732314 5.9919497606
O 1.4420326018 2.1975073603 4.8224657023
O 4.1100430108 2.2278743633 -0.1535896598
O 1.4293332594 2.9925221479 -2.5013686299
O 2.7709422269 1.0903670864 -4.0110513793
H 2.2234860245 -1.4835246462 -3.4778134828
H 3.3429847415 -1.6476165722 -2.1053288384
H 1.6284074636 -2.0949261365 -1.9203222574
H 0.9574667719 0.2639462252 -2.2485878261
H 3.9639685653 0.7831687761 -2.3844217160
H 3.4388185766 3.1442385695 -2.3707500430
H 2.3554961723 3.3727836948 -0.0769032260
H 2.1486250136 1.1165411564 1.1536349358
H -3.5007257695 -2.8135659029 0.6841855264
H -4.8061912090 -1.4780065623 -3.2168537667
H 0.1825910960 2.0635500768 2.4700981525
H 1.0556087674 -2.2848973397 4.6777321464
H -0.1052849896 -2.2361734566 2.4934673344
H 2.0226801692 -1.0211017289 6.3281095975
H 1.2242490217 2.9773428071 4.2938341834
H 4.2074820177 2.3120039810 0.8036302773
H 0.6696322773 2.5077523261 -2.1229925342
H 1.9951256662 1.6466486607 -4.1838196672
H -5.6786217050 -3.2395083178 -2.0567649519
H -2.3559500138 1.1034509684 -3.1613311001
