34
CONF49
C -2.9146169352 -2.8000767265 -1.6406729989
C -3.6633729925 -1.9218449563 -0.6665600985
O -2.7354005741 -1.2125404882 0.2142847247
P -2.1285943236 0.2159162407 -0.1366901745
S -2.6970601757 1.1158374746 -1.7413001404
O -2.2825385360 0.9633988849 1.2671033149
C -2.2002350539 2.4173036794 1.3670859236
C -0.7715593689 2.9076393000 1.2793435459
O -0.4809458084 -0.0708811020 -0.0093257916
N -0.0289628868 -0.9249432756 -1.0081398790
C 1.2611016424 -1.0334965626 -1.0159935571
C 1.7147565812 -1.9032119349 -2.0652863781
N 2.1290965355 -2.6042733218 -2.8871222160
C 2.2922434077 -0.4034385147 -0.1694368568
C 2.0678740995 -0.0637140387 1.1730914137
C 3.0858763800 0.5158648131 1.9184630072
C 4.3266301164 0.7754053821 1.3429297249
C 4.5580043339 0.4328266862 0.0141387102
C 3.5537193985 -0.1639622232 -0.7342813459
H -2.2562518789 -3.4946449705 -1.1123324137
H -3.6347022483 -3.3791870201 -2.2281286775
H -2.3109814324 -2.1969862202 -2.3229794492
H -4.2909026607 -1.1879309467 -1.1820333030
H -4.2818589891 -2.5053551674 0.0200344011
H -2.6427436233 2.6353000453 2.3419404075
H -2.8263111396 2.8546898576 0.5819703942
H -0.7510762798 3.9888920343 1.4496119134
H -0.3459529280 2.7089028203 0.2919511307
H -0.1452680678 2.4243414759 2.0343963709
H 1.1123617708 -0.2689702528 1.6344196814
H 2.9076940707 0.7642391602 2.9596163796
H 5.1139919281 1.2348628786 1.9315126674
H 5.5248168811 0.6230811788 -0.4395116620
H 3.7411685458 -0.4430435018 -1.7661871518
