28
CONF3
Cl 1.0403034561 -0.5534022459 3.7462100041
C -0.2596554069 -0.0287076029 2.6027340142
Cl -0.4812162826 1.7674215483 2.6697052068
C -0.0249690600 -0.5775163182 1.1908735478
C -1.2405211479 -0.2575962596 0.3328103235
C -1.2627215252 0.8504274669 -0.5144363954
C -2.3937357516 1.1538984256 -1.2607892506
C -3.5133218750 0.3361200433 -1.1557210426
Cl -4.9416541895 0.7096245840 -2.0985009568
C -3.5182760776 -0.7760560976 -0.3236017413
C -2.3765979869 -1.0632633921 0.4161178802
C 1.2842877932 -0.2497046511 0.4954540743
C 1.5975470464 -1.0123264588 -0.6346595163
C 2.7543799016 -0.7873600870 -1.3662915326
C 3.6186682181 0.2222172701 -0.9577916467
Cl 5.0848114845 0.5213688583 -1.8706080933
C 3.3389048306 0.9925172033 0.1608374567
C 2.1715266831 0.7531743867 0.8821853044
H -1.1890553109 -0.4399493632 2.9992121533
H -0.0265014929 -1.6657593866 1.3504709143
H -0.3840191367 1.4815892513 -0.5959352416
H -2.4084525022 2.0146385940 -1.9189559396
H -4.3958929318 -1.4085767831 -0.2611075651
H -2.3735096574 -1.9384830597 1.0613578869
H 0.9150075438 -1.7942197630 -0.9570948356
H 2.9852221406 -1.3863307765 -2.2393021280
H 4.0241287859 1.7726613480 0.4709580803
H 1.9753131511 1.3635934653 1.7534545387
