41
CONF18
C 3.9662928967 0.4258062207 0.6414576651
C 2.9297181225 1.5008054504 0.5867541455
N 1.6484590245 1.1378069810 0.7792544108
C 0.7663796810 2.1450019288 0.7320690473
N 1.0637948509 3.4304910015 0.4889820890
C 2.3630700461 3.6523913614 0.2979814734
N 3.3450845486 2.7404816014 0.3429216851
O 2.7814354454 4.8882026279 0.0391067018
C 1.7831660402 5.9280857049 -0.0211219787
N -0.5673930136 1.8933516187 0.9438703562
C -1.2700265987 0.7106214691 1.2651139386
O -2.4782762159 0.7503363469 1.3861297247
N -0.4908876517 -0.4052018304 1.4181005570
S -1.1578818241 -1.9676107163 1.6440059467
O -1.9283662332 -1.9596789829 2.8817085822
O -0.0061233114 -2.8537356684 1.4607648876
C -2.3167155411 -2.2086865399 0.2823190754
C -3.6667940304 -2.0682956227 0.5853034239
C -4.6188738749 -2.3812887051 -0.3774074836
C -4.2200457234 -2.8624926900 -1.6198470447
C -2.8698339121 -3.0135221524 -1.9098460545
C -1.8966668402 -2.6667810586 -0.9718697669
C -0.4735635528 -2.8285714046 -1.4010811074
O -0.0432280762 -3.8206326727 -1.9370428615
O 0.2346455237 -1.6985314553 -1.2003692618
C 1.6363870996 -1.8026259826 -1.5326456580
H 4.3534970028 0.2425586848 -0.3670728230
H 3.5512927221 -0.4997441015 1.0412746885
H 4.8115103728 0.7591511735 1.2479273003
H 1.0588906645 5.7200956589 -0.8126989021
H 2.3417331111 6.8374921551 -0.2401119050
H 1.2618991116 6.0162711195 0.9353624552
H -1.1731383793 2.6995015043 0.8767249373
H 0.4959075753 -0.3495259206 1.1445794431
H -3.9546741602 -1.7223600853 1.5700561737
H -5.6719741107 -2.2630655203 -0.1465702360
H -4.9619733623 -3.1267847204 -2.3659852900
H -2.5460355767 -3.3998328916 -2.8702482365
H 2.1159441994 -2.5339867703 -0.8760376682
H 2.0433234094 -0.8053972766 -1.3678647621
H 1.7600400593 -2.1094595543 -2.5739475627
