38
CONF6
C 1.0245699610 2.5895842243 -2.3173433918
C 1.6316885275 1.2716860667 -1.9722860977
N 1.5034477771 0.8714785453 -0.6942008283
C 2.0115378086 -0.3297517553 -0.4235568502
N 2.6674829983 -1.1159507057 -1.2937947854
C 2.7606518915 -0.5907506958 -2.5131601550
N 2.2516133693 0.5816168911 -2.9253240543
O 3.4069032976 -1.2629051839 -3.4642144980
C 3.9829793901 -2.5335569626 -3.1006774122
N 1.8657800168 -0.8568578130 0.8400719644
C 1.1025338644 -0.4219371390 1.9453023833
O 0.9323575231 -1.1705492683 2.8861211716
N 0.6237592065 0.8658356769 1.8474265806
S -0.5624656543 1.4479717769 2.9275143329
O -1.0046812004 2.7061686281 2.3347134163
O -0.0370156494 1.3852911983 4.2858692089
C -1.8811010657 0.2300521382 2.8387133125
C -2.6839239808 -0.0367265041 1.7442594618
S -3.9020087817 -1.2020062754 2.1746026312
C -3.3079848019 -1.3115968616 3.7865730712
C -2.2315450438 -0.4939740623 3.9993026788
C -2.5853014182 0.4645590881 0.3688905503
O -1.6387005001 1.0680395399 -0.0878061496
O -3.6881233450 0.1402358707 -0.3450054193
C -3.6570276155 0.5573039160 -1.7261421322
H -0.0148131356 2.6104538106 -1.9758645528
H 1.5509696071 3.3852689904 -1.7794359241
H 1.0854587983 2.7717986543 -3.3895470918
H 4.7217587146 -2.4085811903 -2.3048670750
H 4.4579480300 -2.8953168181 -4.0122166093
H 3.2064457904 -3.2275607908 -2.7688901401
H 2.2291693515 -1.7918961919 0.9616939885
H 0.6328394031 1.2951960198 0.9095592008
H -3.7789708626 -1.9799362057 4.4947982518
H -1.6928777364 -0.4052579242 4.9324929545
H -3.5769252418 1.6454169631 -1.7894504110
H -4.5986868375 0.2137514187 -2.1526218181
H -2.8077437629 0.1009383511 -2.2414997473
