45
CONF121
C 5.7113933070 -3.3826448613 -2.3243430811
C 5.0723026340 -2.2038695108 -2.3877866820
C 3.6417042352 -1.9960771024 -2.2311100458
C 3.1049741677 -0.7434158427 -2.2851397192
N 1.7781413383 -0.5114764500 -1.9639319584
C 0.8179185058 -1.4776812052 -1.4369311566
C -0.3246850202 -0.5472006857 -1.9521296112
C 0.8207704575 0.4026947020 -2.3930721326
O 0.9006664287 1.4655976123 -2.9562627469
N -1.3233917401 -0.0628850303 -1.0547638441
C -0.9953087621 0.7126545485 0.0074340355
O 0.1622486924 1.0469684378 0.2497771739
C -2.1469935326 1.1452013156 0.8822688132
N -3.2429625797 0.4805309720 0.7112570864
O -4.3155165340 1.0346192780 1.4047401577
C -5.2613759600 0.0269157956 1.7567413152
C -4.9863381323 -0.5842887627 3.1256769460
O -5.6437889832 -1.5309314486 3.5108964405
O -4.0428071878 -0.0352331667 3.8805518755
C -1.9223668784 2.1981302470 1.8696563216
C -1.1141373272 3.2818368485 1.6883714499
S -1.1067163240 4.2704576234 3.1154541970
C -2.1951857211 3.1031160796 3.8869804988
N -2.5252773380 2.0995770063 3.1146808890
N -2.6682351924 3.3013303607 5.1402138838
S 1.0140193588 -3.0827627411 -2.2840491682
C 2.8068309473 -3.2061371221 -1.8889416129
C 3.8734745154 0.5143459093 -2.5516032529
O 3.8446849274 1.4714504725 -1.8091863250
O 4.5700555199 0.4659340491 -3.6987141130
H 5.2073064996 -4.3298461201 -2.1653323398
H 6.7902176665 -3.4167246268 -2.4307398784
H 5.6738339434 -1.3131622632 -2.5411124588
H 0.8790381204 -1.5897748341 -0.3504767876
H -0.8124238041 -0.9665773777 -2.8372861014
H -2.2936440640 -0.2935281078 -1.2149489125
H -6.2389079994 0.5183614647 1.7990654587
H -5.2893138802 -0.7703014740 1.0071261629
H -3.5734277105 0.7674448187 3.4781568325
H -0.5309675392 3.5482820863 0.8194720822
H -2.1499244955 3.9062191126 5.7583109166
H -3.1073490107 2.5058558253 5.5821126324
H 2.9251749946 -3.4617114579 -0.8289717053
H 3.1554720334 -4.0635193362 -2.4704896729
H 5.0608189105 1.3022255277 -3.7907611536
