35
CONF18
C 0.0176970945 2.7263426510 0.6421734649
C -0.4094022861 1.4384344282 1.2725449636
C -0.6379409339 1.2773738943 2.6086431265
S -1.1129863112 -0.3446988843 3.0029923336
C -0.9959897281 -0.8494559205 1.3477758591
C -0.6223799444 0.2123771385 0.5552998265
N -0.4617228690 0.0782157225 -0.8525671426
C 0.8840643924 -0.1237181176 -1.4647289677
C 1.3300142645 1.1022046899 -2.2616020882
C 1.9133286652 -0.4983435597 -0.4166898013
O 1.6484997123 -1.8114404383 0.0495031592
C 2.3596621249 -2.1074831450 1.2403437968
C -1.5316060742 -0.0306659294 -1.7050703925
O -1.4032831102 -0.2829933726 -2.8961133845
C -2.9241451219 0.1839063786 -1.1239780198
Cl -3.2265623252 1.9545987855 -0.8298742506
C -1.3101188131 -2.2461493253 0.9353031277
H -0.4126658869 2.8308650398 -0.3568885143
H 1.1086485548 2.7797472580 0.5468281430
H -0.3034288662 3.5772518961 1.2474501176
H -0.5700487265 2.0257917901 3.3861223488
H 0.7775867483 -0.9687113736 -2.1549148667
H 1.5981978398 1.9322335788 -1.6024023211
H 2.2027168972 0.8495380395 -2.8713831914
H 0.5310124241 1.4241762574 -2.9316344265
H 2.9138492807 -0.4493582326 -0.8780231567
H 1.8954581096 0.2209062312 0.4197829698
H 2.1303532054 -3.1423629134 1.5056049842
H 2.0471060497 -1.4443336135 2.0625715141
H 3.4471030950 -2.0099585962 1.0969443486
H -3.0839886929 -0.3237470440 -0.1725535633
H -3.6433054220 -0.1426934719 -1.8734658152
H -2.3706046154 -2.4845568620 1.0814338221
H -1.0590638244 -2.3813696701 -0.1185529898
H -0.7260549118 -2.9719230076 1.5091254942
