41
CONF31
C 0.0930757347 -3.4865785411 -0.0913937722
C -0.2580250713 -2.0789527055 0.2327597354
C -1.4963093289 -1.4969324445 0.2857853489
C -1.3201407007 -0.0949423819 0.5518524297
C 0.0627414042 0.1517445815 0.6410847339
N 0.7186965560 -1.0800158033 0.4279050271
C 2.0973877558 -1.3232964298 0.5018590850
O 2.5360279952 -2.3834915205 0.9241568962
C 2.9938232772 -0.2592380198 -0.0140214131
C 2.6679698056 0.4721395627 -1.1603465864
C 3.5643267597 1.3951223719 -1.6817482330
C 4.7777015896 1.5900100689 -1.0294415884
C 5.1257557875 0.8734864986 0.1117783425
C 4.2306518645 -0.0646241111 0.6064718740
Cl 5.9074918151 2.7692262662 -1.6701228991
C 0.5474429363 1.4072677801 1.0012582708
C -0.3715976226 2.4268154889 1.1987776876
C -1.7550837515 2.2022527706 1.0632079142
C -2.2453070949 0.9381362474 0.7486559357
O -2.5402276645 3.3006161684 1.2775204086
C -3.9564870662 3.1248910981 1.1667480186
C -2.8059357666 -2.1793727913 0.0772456127
C -3.3691970702 -2.1443605539 -1.3297038315
O -4.2461640092 -2.8850729333 -1.7223290237
O -2.8188817186 -1.1848782414 -2.0987423177
H 0.8688846058 -3.5335321991 -0.8616358164
H -0.7931290104 -4.0009783691 -0.4680871961
H 0.4695790400 -4.0279779332 0.7809218953
H 1.7166852857 0.3130010824 -1.6572873955
H 3.3243507692 1.9541608844 -2.5786216797
H 6.0783623816 1.0433779737 0.5997818401
H 4.4843561347 -0.6434333871 1.4881976757
H 1.6038056652 1.6072539450 1.1288248441
H -0.0322555017 3.4209564034 1.4693677249
H -3.3066339400 0.7389057595 0.6657831440
H -4.3228142394 2.4010139431 1.9048385680
H -4.2346712802 2.7950403374 0.1583687374
H -4.3938486689 4.1037185076 1.3657317775
H -3.5758365979 -1.7155390277 0.7093089050
H -2.7736622952 -3.2303978423 0.3747227643
H -3.2529090769 -1.2155219904 -2.9687929578
