47
CONF65
C -1.6127882146 3.0860685842 1.0244147346
O -2.1735221270 1.7523491787 1.0963998906
C -2.0712763650 1.0341206177 -0.0221167705
C -2.4434023566 -0.2671714558 -0.0645361215
C -2.3084568067 -1.0361410988 -1.3068718441
O -2.7266396071 -2.1734992715 -1.4552419809
O -1.6617746425 -0.3600067604 -2.2865738586
C -1.5205550938 -1.0649458993 -3.5396654040
C -2.9820360848 -0.9727458968 1.1195615870
C -4.2115526070 -0.6322347066 1.6878693632
C -4.7146659985 -1.3308518974 2.7822260250
C -3.9919463547 -2.3892234697 3.3267874499
C -2.7557620755 -2.7384739375 2.7882905038
C -2.2700388403 -2.0232771316 1.7068935780
O -1.0537718300 -2.4257726117 1.1430187814
C -0.0379209084 -1.5276384304 1.1361722998
C 0.9294237242 -1.6679849491 0.1499279070
C 1.9338971137 -0.7132391449 0.1883903717
O 2.8926313080 -0.7894757708 -0.7793645860
C 3.8383251696 0.2222522837 -0.8622236472
C 5.1531530345 -0.0726961779 -0.5512030280
C 6.1289810419 0.9068744974 -0.7171797637
C 5.7905741091 2.1730610144 -1.1907468705
C 4.4726170497 2.4676961493 -1.5079908164
C 3.4813666130 1.4887674095 -1.3486527793
C 2.1311784680 1.7748984502 -1.6794342622
N 1.0313323486 2.0209329832 -1.9488646006
N 2.0111144384 0.2523478131 1.0999062854
C 1.0280737528 0.2586600108 2.0048982512
N -0.0005310040 -0.5823694676 2.0776390448
H -1.8136536489 3.5481941261 1.9901408994
H -0.5339516892 3.0248559348 0.8513444479
H -2.0960113442 3.6551461610 0.2246955232
H -1.6677904230 1.5396394800 -0.8969348206
H -0.9441513754 -1.9824737573 -3.3966057386
H -2.5021715950 -1.3084066918 -3.9542899303
H -0.9876133691 -0.3780595675 -4.1966384801
H -4.7809968010 0.1810062057 1.2488550568
H -5.6758496212 -1.0540983455 3.2028241255
H -4.3831488651 -2.9415755190 4.1749192901
H -2.1645213188 -3.5486059509 3.2015938345
H 0.8777450671 -2.4344321287 -0.6126696584
H 5.3997454271 -1.0620509227 -0.1822013773
H 7.1604699970 0.6768518818 -0.4722397528
H 6.5551234843 2.9315027619 -1.3162084043
H 4.1934027805 3.4463511403 -1.8819124961
H 1.0773459448 1.0358731924 2.7663967205
