110
CONF130
C -3.6753579463 -0.2638955373 1.3885300966
N -4.7090932274 0.1428480968 2.3653534288
C -4.4107898662 1.5371474629 2.7644590678
C -3.5498783862 2.1000417496 1.6172334285
C -3.5374801296 0.9993305638 0.5270120981
C -2.3002243284 1.0301429472 -0.3266425216
C -0.9753743430 0.8879559511 0.0431880695
C 0.0480252519 0.9703581039 -0.9065627479
C -0.3232457402 1.2299817432 -2.2459735773
O 0.7129172929 1.2912148042 -3.1276675029
C 0.4302498028 1.6115044848 -4.4954373002
C -1.6540333702 1.4029754044 -2.6342605227
C -2.6408417633 1.2763510928 -1.6538250549
N -4.0100284484 1.3466342951 -1.8294818104
C -4.5458851524 2.3077809496 -2.7882747494
C -4.6939291394 1.1839790833 -0.5312467224
C -5.7333274977 0.0122140086 -0.5431544371
O -6.6112040843 0.1302237639 0.5704837887
C -5.0283600891 -1.3494380312 -0.5416900004
O -5.9975699372 -2.3946748021 -0.6438519963
C -4.0491508101 -1.5739139379 0.6723898073
C -2.7896319902 -2.2696296983 0.0767904568
C -1.6925007224 -2.6693818124 1.0603475779
C -4.6506203402 -2.5182805484 1.6904682651
C -4.9721244875 -2.1890438012 2.9411318999
C -4.8595672620 -0.7951108203 3.4698544102
C -6.5984120344 0.1049311348 -1.8212805706
N -7.7668237127 0.7534904941 -1.6538966407
O -6.2229840043 -0.3427617570 -2.9059315013
C 1.5250768158 0.7526098355 -0.5501124800
C 1.7472384826 0.8539639778 0.9948852850
C 3.2253331935 0.6521062760 1.3171522646
C 3.5409813061 -0.7388864158 1.8821513413
N 4.9553025934 -1.0394057561 1.7207399895
C 5.7922024239 -0.0171092661 2.3535748229
C 5.4410881396 1.4657340456 2.1041772633
O 5.8859302896 1.7615933148 0.7582567366
C 6.1646342161 2.3790476091 3.1043962425
C 7.6882858029 2.2649672874 3.1040010774
C 3.9162391389 1.6845881864 2.1990997025
C 5.3061106227 -1.5347446982 0.3830942674
C 4.6689806234 -0.9214449948 -0.9071124843
C 3.2259407668 -1.2900145028 -1.1557382070
C 2.0028162119 -0.6221437329 -1.0399125230
N 0.9879996203 -1.5173538141 -1.3502622291
C 1.4989437505 -2.7379991947 -1.6838828141
C 0.8549682446 -3.9103794260 -2.0790370381
C 1.6548362655 -5.0087626007 -2.3679188396
C 3.0578979777 -4.9309938238 -2.2711459899
C 3.6901130439 -3.7584530637 -1.8788087855
C 2.9082476154 -2.6315560462 -1.5735278866
C 2.2973626128 1.9561198110 -1.1328408700
O 2.0123500609 3.1028921970 -0.8457139471
O 3.3218947785 1.6312999257 -1.9234112741
C 4.0802257575 2.7458168068 -2.4541286778
H -2.7183241821 -0.4176035990 1.9160036526
H -3.8573711558 1.5591902098 3.7142151874
H -5.3483435566 2.0860511027 2.9072215161
H -2.5235431153 2.2590946734 1.9605369705
H -3.9214167745 3.0494563441 1.2249002818
H -0.7366687065 0.7143631310 1.0859280170
H -0.2031685192 0.8438674741 -4.9543689520
H -0.0547222162 2.5909342608 -4.5758801301
H 1.3988488007 1.6364615911 -4.9957340284
H -1.9143025045 1.6030200267 -3.6651675994
H -4.2261778452 3.3350433923 -2.5505323559
H -4.2140765931 2.0595766090 -3.8006064526
H -5.6356696215 2.2703309617 -2.7815310535
H -5.2698658318 2.0909338686 -0.2984536602
H -6.0008237128 0.1444660381 1.3882244100
H -4.4477682240 -1.4056654078 -1.4669530177
H -6.5904403788 -2.2920842989 0.1155766705
H -3.1550351788 -3.1668580070 -0.4400731977
H -2.3731583074 -1.6134239522 -0.6967552481
H -0.9509297750 -3.2949246168 0.5527034709
H -2.0962243533 -3.2409539063 1.9023685341
H -1.1607773410 -1.8017086453 1.4629489459
H -4.7555916728 -3.5520024553 1.3694196088
H -5.3307637220 -2.9475339304 3.6324818674
H -4.0054896779 -0.7271970691 4.1730690043
H -5.7575977818 -0.5320554482 4.0448290205
H -8.4002021834 0.8460187327 -2.4328811180
H -8.0617153964 1.0248646595 -0.7291552220
H 1.1427884797 0.0859400963 1.4891431675
H 1.3817111145 1.8313676290 1.3264260797
H 3.7598443108 0.7212376300 0.3741835240
H 2.9505140024 -1.5138279140 1.3810027065
H 3.2790907268 -0.7596310089 2.9534932962
H 5.7246022013 -0.1659940143 3.4433101054
H 6.8347513966 -0.1876267473 2.0656036430
H 5.6495221134 2.6805459396 0.5715854954
H 5.8719393645 3.4126204605 2.8712451694
H 5.7741332670 2.1666695416 4.1074835147
H 8.0922980342 2.4133445624 2.0981344624
H 8.0215387167 1.2867044251 3.4635876263
H 8.1267021601 3.0237663736 3.7593926998
H 3.6881878274 2.7096963080 1.8739620876
H 3.5941906716 1.5909972532 3.2453130990
H 6.3945592276 -1.4551524698 0.2813715645
H 5.0622871083 -2.6078068608 0.3618911717
H 5.2492577359 -1.3648873201 -1.7291436159
H 4.8567757562 0.1487065080 -0.9575625336
H 0.0122488594 -1.2648778030 -1.3666457669
H -0.2272005791 -3.9588443792 -2.1570703833
H 1.1916114689 -5.9408891442 -2.6764481428
H 3.6540206505 -5.8068501014 -2.5090749060
H 4.7734519343 -3.7193037047 -1.8136984352
H 3.4414749653 3.3586158124 -3.0953296179
H 4.4803473200 3.3541611107 -1.6393270240
H 4.8869172369 2.2951897476 -3.0312033986
