45
CONF23
C -3.6553377324 2.3537882386 -1.2100224501
C -4.4694045799 1.1275378087 -0.9151365847
C -3.9743837184 -0.0327397484 -0.4587064792
C -2.5658200315 -0.3364831354 -0.1614630364
C -2.0282428127 -1.7417409560 -0.4573276667
C -2.1329928677 -1.2237554316 0.9789169860
C -0.8857293856 -0.8422863077 1.7467850686
C -3.1720806582 -1.9044799723 1.8428560151
C -0.7516135395 -1.9902908416 -1.1490248100
O -0.4480543691 -3.0411251097 -1.6645901896
O 0.0619101105 -0.8850408375 -1.1618213968
C 1.4106869486 -1.0835077905 -1.6212712235
N 2.2979106457 -0.4835844624 -0.6653053843
C 2.6797993564 -1.0874220127 0.5228797430
O 2.4372083183 -2.2197867182 0.8654701093
C 3.4480187656 -0.0259699109 1.2986852464
N 3.4746882404 1.1034088281 0.3839599672
C 2.6790293850 0.8787552418 -0.7187802535
O 2.3738758780 1.6618047619 -1.5901581401
C 3.7237152441 2.4658827382 0.8374989451
C 2.7785164627 2.8894966323 1.8661662590
C 1.9909578563 3.1909258121 2.7248451018
C -5.9408438760 1.2836920289 -1.1783279721
H -3.7718896353 2.6418409823 -2.2622553047
H -2.5903487205 2.2312448136 -1.0112395195
H -4.0166969296 3.2012961214 -0.6141304358
H -4.6807792105 -0.8446405974 -0.2965471279
H -1.8484024940 0.4437237595 -0.3899509710
H -2.7650980243 -2.4953484740 -0.7161859896
H -0.3463960583 -1.7345874857 2.0847601672
H -0.2043352970 -0.2361039229 1.1482029644
H -1.1715564349 -0.2615602774 2.6310400927
H -3.5477086066 -1.2080078699 2.6010578951
H -2.7258126704 -2.7612815806 2.3587679944
H -4.0249785523 -2.2681807378 1.2669202104
H 1.6173808358 -2.1534320522 -1.7023093551
H 1.5319433994 -0.5697808047 -2.5776820802
H 2.9058734365 0.2054317502 2.2271292185
H 4.4493621544 -0.3909680796 1.5562057602
H 4.7498497352 2.5422821201 1.2185948372
H 3.6442902414 3.1153764393 -0.0412527042
H 1.2904708228 3.4774728257 3.4721538801
H -6.4949929967 0.3688576355 -0.9544747583
H -6.1216883943 1.5482086472 -2.2280004371
H -6.3607630684 2.0981969039 -0.5743671927
