52
CONF117
C 1.2587525353 -2.3623190833 -1.9214414558
C 1.5148836928 -0.9082369502 -1.5974568857
C 2.6134154482 -0.2800134959 -2.4571876564
C 2.9361516959 1.1412039908 -1.9824768071
C 3.2538517492 1.1528702580 -0.4821427277
C 2.1957383612 0.3971617031 0.3208511568
O 1.8989086998 -0.8648520490 -0.1918869504
O 1.0216494831 1.2641799557 0.3438762561
C 0.0712782531 0.8794589947 1.2612415341
C -1.1328923366 0.3902404170 0.8407028591
O -2.0720926910 -0.0434252499 1.7248914249
C -1.8415020160 0.0011130922 3.0712676744
C -2.8441053655 -0.4945066019 3.8883246414
C -2.6391707544 -0.4324095695 5.2677036124
C -1.4711338145 0.1073441813 5.8201683420
C -0.4839840510 0.5949148691 4.9806697083
C -0.6503570805 0.5483965348 3.5682448588
C 0.3673298454 1.0293787876 2.6703715087
O 1.4470092302 1.5318282518 3.0799223763
O 0.6418631568 1.1107941018 5.5030098938
O -3.5631768031 -0.8889189274 6.1465112441
C -1.5655926567 0.2595656394 -0.5469628662
C -2.1253559351 -0.9509195325 -0.9811487527
C -2.4712974490 -1.1127706480 -2.3120841404
C -2.2843117312 -0.0572502574 -3.2243885840
C -1.7654289219 1.1547299098 -2.7814098599
C -1.4037528670 1.3149635038 -1.4498587828
O -2.6108146099 -0.2014164056 -4.5337495852
O -2.9883573179 -2.2597803151 -2.8396218900
O 4.4780318566 0.4650763595 -0.2229062093
O 1.8680838704 2.0397804006 -2.3134862628
O 2.2237441053 -0.2632566644 -3.8296500512
H 0.4705189930 -2.7594178325 -1.2752885741
H 0.9355737740 -2.4582247984 -2.9605767493
H 2.1692250011 -2.9534040967 -1.7773982964
H 0.5893140458 -0.3317926723 -1.7276164873
H 3.5189668860 -0.8935394988 -2.3873929922
H 3.8107390126 1.5091344182 -2.5326874512
H 3.2934413683 2.1899592294 -0.1214132081
H 2.5424018790 0.2329118600 1.3445129775
H -3.7521901474 -0.9059313860 3.4614507012
H -1.3423792233 0.1413395641 6.8959820553
H 1.1999945135 1.3914555620 4.7225764791
H -4.3289869616 -1.2394805413 5.6697408262
H -2.2543612693 -1.7776310031 -0.2884282398
H -1.6491396024 1.9662991403 -3.4921137293
H -1.0191520905 2.2686808905 -1.1050534000
H -2.9573681797 -1.0950658346 -4.6781626290
H -3.0652027239 -2.9407994272 -2.1572529880
H 5.1957238071 0.9859047783 -0.6059822905
H 1.1632514097 1.9312666172 -1.6569156955
H 1.6022633227 0.4754091313 -3.9238999289
