61
CONF314
C -3.5632406412 4.6951579748 0.7308870000
C -2.9141413630 3.4886321061 0.0555366461
C -3.4208455515 2.1626816188 0.6238311840
C -2.7377448713 0.9394061941 0.0270008225
C -3.2303253503 -0.3915864440 0.6067023368
C -2.7495985380 -1.4347189295 -0.4288300543
N -2.5368839120 -0.6751052254 -1.6744023197
C -2.9877140788 0.7094525127 -1.4616986951
C -3.0774687485 -1.3097824255 -2.8697456823
C -1.4656621673 -2.0910766054 0.0774181522
O -1.4888730748 -2.8563296187 1.0623678258
N -0.3491887944 -1.7109461113 -0.5477593988
C 1.0010641652 -2.1058918172 -0.1888410379
C 1.7048969923 -1.0356682528 0.6664363758
C 1.3772475448 -1.0796948967 2.1602044619
C 2.0684471561 0.0887283083 2.8856266956
C 1.7547534272 1.4256861825 2.1845761409
C 2.0051233847 1.3532665820 0.6714745678
O 1.3744763713 0.2384074135 0.0818506574
S 3.8438565869 1.4413902577 0.3317010495
C 3.7958550068 1.2367658185 -1.4853962413
O 0.3956065689 1.8064241483 2.4126465808
O 3.4673980723 -0.1408402811 3.0325684830
O -0.0167204106 -0.9553297853 2.4565356566
C 1.7855028632 -2.4158007865 -1.4848516982
C 1.1389863896 -3.5347906095 -2.2872561048
O 3.1492511120 -2.7266919408 -1.1772090074
H -4.6514331435 4.6734257725 0.6040806528
H -3.3529699723 4.6993031411 1.8062715288
H -3.1942325146 5.6362773246 0.3112258221
H -3.1091204548 3.5243077693 -1.0238393657
H -1.8233300845 3.5372226440 0.1766734380
H -4.5057000210 2.0835215381 0.4622011144
H -3.2652781224 2.1565460303 1.7116904736
H -1.6518011728 1.0195901180 0.1884165061
H -4.3259600575 -0.3890509810 0.6385452209
H -2.4331485710 1.3916387285 -2.1159504321
H -4.0680252531 0.8283616011 -1.6762477441
H -2.8189986518 -0.7126507216 -3.7506323947
H -4.1770847775 -1.4138587569 -2.8322739391
H -2.6396955561 -2.3060003335 -2.9962333569
H -2.8596737198 -0.5947698514 1.6146569768
H 0.9416115031 -3.0289276123 0.4038416691
H 2.7859640340 -1.2120660285 0.5692783185
H 1.7771755477 -2.0216891465 2.5646943015
H 1.6632664704 0.1427647685 3.9016002404
H 2.3822230661 2.2124705134 2.6183068526
H 1.5557881586 2.2254912697 0.1865333824
H 3.4521168422 0.2355139988 -1.7496976039
H 3.1409769319 1.9919344515 -1.9280353103
H 4.8164299794 1.3797647388 -1.8470479648
H -0.1464375082 1.0092257347 2.2793142600
H 3.8888227597 -0.0948994150 2.1576840004
H -0.4903742952 -1.7408945258 2.1136155686
H 1.8302226239 -1.5000512864 -2.0885788799
H 1.0770448965 -4.4472367583 -1.6817194751
H 0.1284754372 -3.2653442820 -2.6052202672
H 1.7378076638 -3.7431760306 -3.1778482663
H -3.4902034218 -2.2386270611 -0.5475875504
H -0.5033020460 -1.0370960810 -1.2958052496
H 3.1661779948 -3.6000928579 -0.7613796607
