63
CONF49
C 1.7533242212 0.5890296573 1.4592904606
C 1.4007966236 -0.8938361557 1.3875772900
N 0.8589046897 -1.2278370779 0.0690349206
C 1.8683838791 -0.9901529663 -0.9649024669
C 2.2460018079 0.4874069259 -1.0100219577
C 2.7574045548 0.9361241185 0.3592468915
N 3.1140711812 2.3578317987 0.3704934679
C 4.3876679168 2.8744851859 0.5841704626
C 5.6068311298 2.2619738471 0.8371284971
C 6.7220524751 3.0880533351 1.0085918741
C 6.6182667744 4.4782296471 0.9288282442
C 5.3914435842 5.0974715403 0.6735756030
C 4.2875683927 4.2781318181 0.5040069134
N 2.9602621544 4.5626095930 0.2435749143
C 2.2124765129 3.3981367054 0.1544534141
O 1.0068593084 3.3141919388 -0.0695592315
C 0.3401399634 -2.5976851874 0.0353382241
C -0.5034013185 -2.8927062290 -1.2095167268
C -1.5206785352 -1.7963245825 -1.5354441142
C -2.4296994310 -1.4070579080 -0.3531118831
C -3.2573515925 -0.1867124778 -0.7270275956
C -4.5599172079 -0.2770622239 -1.2211601281
C -5.2665766785 0.8622418967 -1.6032704280
C -4.6452631790 2.0917992771 -1.4805744881
C -3.3557308959 2.2307691504 -0.9949561685
C -2.6701561604 1.0795529311 -0.6205126438
F -5.3312376019 3.2099548846 -1.8433123750
C -3.2652202466 -2.5492307772 0.1870792098
C -3.5185410090 -2.6165491826 1.5609613843
C -4.3059058085 -3.6250222147 2.1088598947
C -4.8371832198 -4.5733506099 1.2519255845
C -4.6114897306 -4.5534037831 -0.1128419188
C -3.8197451266 -3.5334321936 -0.6364485720
F -5.6073339062 -5.5663922958 1.7727207810
H 2.1801490022 0.8263011548 2.4402241301
H 0.8454203161 1.1853165850 1.3244445903
H 0.6444275579 -1.1274297453 2.1460388831
H 2.2996608143 -1.5030366481 1.6206669790
H 2.7744365799 -1.6060403628 -0.7826472153
H 1.4661351235 -1.2867967968 -1.9384864747
H 1.3649339397 1.0776914817 -1.2823808158
H 3.0197921924 0.6529441915 -1.7680207074
H 3.6873222611 0.3938651594 0.5683937798
H 5.7031183188 1.1840061095 0.9017441067
H 7.6870776455 2.6337095874 1.2075761929
H 7.5029271115 5.0910544544 1.0665419998
H 5.3034792136 6.1768288062 0.6097446228
H 2.5536631376 5.4775272267 0.1305352351
H -0.2852849041 -2.7298618558 0.9277330613
H 1.1547802543 -3.3454339439 0.1100518911
H 0.1396640560 -3.0445868748 -2.0841430216
H -1.0150208964 -3.8477354189 -1.0393718696
H -0.9892913197 -0.8899536753 -1.8454276631
H -2.1343887581 -2.0992531743 -2.3925481784
H -1.7687279608 -1.0839227254 0.4592903187
H -5.0420094934 -1.2460188352 -1.3041962674
H -6.2805580721 0.7996449038 -1.9835925148
H -2.9060612921 3.2141269473 -0.9078085052
H -1.6567502521 1.1678672295 -0.2358172535
H -3.0914646840 -1.8630313672 2.2174670830
H -4.5018131202 -3.6800968547 3.1742991752
H -5.0434045540 -5.3191742235 -0.7481649905
H -3.6392323361 -3.5147122059 -1.7063430217
