38
CONF1
C -1.3172262349 3.2202495128 -1.1937269003
N -0.2957323182 2.2385599707 -0.8397993871
C -0.4837257832 1.3074332851 0.1073865598
C 0.4267907920 0.4447939385 0.6958643407
C -0.2887655383 -0.2758113544 1.7141378076
O 0.0929722072 -1.0879727277 2.5412710434
C -1.7675432814 0.1730374184 1.5851720803
O -1.7456737863 1.2125780081 0.5726461940
C -2.6716629954 -0.9599964253 1.2011065211
C -3.0673969405 -1.8580898212 2.1942835013
C -3.8459657992 -2.9613026709 1.8662058030
C -4.2397126580 -3.1742497468 0.5478199508
C -3.8439729387 -2.2808496785 -0.4424311164
C -3.0576117145 -1.1789844315 -0.1204202268
C 1.8449619145 0.3219688025 0.3888682464
C 2.3322121027 0.4919491466 -0.9136433522
C 3.6968068116 0.4049240849 -1.1783055411
C 4.6028175732 0.1141835571 -0.1647900306
C 4.1198059652 -0.0950478942 1.1250513580
C 2.7656011456 0.0088189086 1.4049003745
C 4.1526054812 0.5880866265 -2.5954544964
F 3.7910035841 -0.4583320105 -3.3817395918
F 3.5977884027 1.6964449525 -3.1595745512
F 5.4920558163 0.7183064107 -2.6999844525
H -0.9713994189 3.7737221423 -2.0682371693
H -2.2509040535 2.7139368122 -1.4474489602
H -1.5140810290 3.9248500494 -0.3764623957
H 0.6659954718 2.4522626480 -1.0546710855
H -2.0926081494 0.6413799250 2.5206214250
H -2.7509735607 -1.6974969886 3.2199333527
H -4.1478909790 -3.6558206218 2.6433962258
H -4.8522450996 -4.0331006143 0.2938254281
H -4.1462198271 -2.4416100936 -1.4723736109
H -2.7490558816 -0.4857247886 -0.8950893384
H 1.6449966587 0.6431834805 -1.7405759448
H 5.6624765416 0.0462611868 -0.3790054636
H 4.8139673578 -0.3350754346 1.9237336536
H 2.3975094627 -0.1574654586 2.4100987434
