44
CONF51
C -2.9617854490 -3.5993092611 -1.9445794304
S -3.2046105152 -1.8627005977 -2.3617467705
O -4.4455918957 -1.3717757632 -1.7237505965
O -3.0747739805 -1.7280729784 -3.8272929012
C -1.7657833252 -1.0161700887 -1.6175605028
C -1.6359240421 -0.8134394666 -0.2341439726
C -0.4543404448 -0.1831788917 0.1822547919
C 0.5178230624 0.2583256229 -0.7133716334
C 0.3209362790 0.0764474298 -2.0801202215
C -0.8099704221 -0.5845006514 -2.5319985949
C 1.7777603421 0.9498184915 -0.2779111986
O 2.0008351851 2.0894419789 -0.6325010791
C 2.7858779030 0.0886945237 0.4823708743
C 3.3503034143 0.7970607096 1.7274784980
O 3.0785625508 0.3702623601 2.8296877793
C 4.2839005443 1.9380674578 1.4603357808
C 5.4279774879 1.4631324853 0.5475610366
C 4.9045205453 0.8715547363 -0.7704937392
C 3.9266053261 -0.2372773919 -0.5174494297
O 3.9830844849 -1.3419451338 -1.0120313838
Cl -0.1704983484 0.1171888788 1.8837907989
C -2.6747681450 -1.1952093885 0.8023453464
O -3.2301807813 -0.0411895911 1.4424006378
C -4.0702610026 0.7270841639 0.6005273955
C -4.3786382992 2.0072783645 1.3430486298
F -5.0050742730 1.7824116147 2.5212946682
F -5.1903139580 2.7919810708 0.5955335559
F -3.2635275137 2.7222483915 1.6189949981
H -2.9747503091 -3.7217465536 -0.8598325464
H -3.7959806796 -4.1356876336 -2.4060479695
H -2.0072284101 -3.9169060171 -2.3697948139
H 1.0660581725 0.4350126389 -2.7823968762
H -0.9577252423 -0.7549753580 -3.5912310088
H 2.3218115463 -0.8515058790 0.7824437917
H 3.7251882492 2.7309272335 0.9474992600
H 4.6615186041 2.3179341208 2.4117697548
H 6.0306523312 0.7143070652 1.0734051163
H 6.0788702944 2.3112885221 0.3221030199
H 5.7156959615 0.4854962062 -1.3913387825
H 4.3798874455 1.6586072578 -1.3289527600
H -3.4725828040 -1.8026083785 0.3708543550
H -2.1939963853 -1.7640703065 1.6021314866
H -3.5830165157 1.0019649458 -0.3453261179
H -5.0165458765 0.2157335574 0.3805180556
