75
CONF3
C 7.3183607538 -1.1315815835 -2.0628457774
C 7.1607233226 0.3661435867 -1.7994755581
C 6.8639511486 1.1058529630 -3.1059956045
C 6.1033750830 0.6239923937 -0.6905908664
C 6.1337642698 2.0759443303 -0.1949345310
C 4.7134830902 0.2538234449 -1.1200988949
C 4.0237631141 -0.7963715848 -0.6781517026
C 2.6334522556 -1.1747992037 -1.1077855736
C 2.6843947377 -2.5267850430 -1.8351549583
C 1.7041576688 -1.1681343188 0.1223178956
C 1.7036691952 0.2209675330 0.8277707382
C 0.2877998924 0.4309676102 1.4172621743
C -0.3675692368 -0.9398824204 1.2776111525
C -1.8527240005 -1.1028145121 1.3804878129
C -2.2578579163 -2.5492478182 1.2582948438
C -1.6778134875 -3.2040793772 -0.0090039328
C -0.1663542556 -2.9813010758 -0.1476369434
C 0.1976940993 -1.4928962616 -0.0703392476
C -0.3811472638 -0.7204692141 -1.2635608346
C -2.6949124011 -0.0614830839 1.5493029731
C -4.1362698192 -0.1208774943 1.6205836138
C -4.9861366636 0.9194336270 1.7769380996
C -4.5697702504 2.3617749650 1.8443178420
C -5.1149749739 3.0950022477 0.6041419632
O -4.4841198117 2.5999968635 -0.5810371917
C -6.6391370960 2.9590623860 0.5360663141
C -7.0796786957 1.4932129803 0.5566935216
C -6.4835380492 0.7075904922 1.7477863725
C -7.1602229641 1.0835124708 3.0754076369
H 7.5806804905 -1.6717762828 -1.1467438209
H 6.3829466180 -1.5556259189 -2.4440124848
H 8.1030181325 -1.3185677991 -2.8032594911
H 8.1146805739 0.7450830797 -1.4040609485
H 5.9493458559 0.7234041675 -3.5720817334
H 6.7463478443 2.1832287819 -2.9563564738
H 7.6813204196 0.9592255552 -3.8192717662
H 6.3770561671 -0.0256759896 0.1527777547
H 5.7962234919 2.7707761720 -0.9708055992
H 5.4706859972 2.2000109226 0.6665440510
H 7.1463463130 2.3679608427 0.1038435180
H 4.2403574381 0.9203771665 -1.8444800038
H 4.4884916376 -1.4645045319 0.0523761236
H 2.2803299812 -0.4095357797 -1.8129275910
H 2.9211512448 -3.3372125905 -1.1361881736
H 3.4604529342 -2.5088259115 -2.6062888694
H 1.7349355334 -2.7639552346 -2.3203444178
H 2.0968814345 -1.9186899643 0.8266373554
H 2.4790183636 0.2609973866 1.5975787216
H 1.9531836327 1.0070915722 0.1071746126
H 0.3053376083 0.7759414734 2.4553548807
H -0.2592465825 1.1813691722 0.8373415216
H 0.0741542988 -1.5926307479 2.0520325832
H -1.8608008040 -3.0851207787 2.1343638262
H -3.3423931162 -2.6771466233 1.2773247755
H -2.1928413537 -2.8013675574 -0.8890612978
H -1.8907897397 -4.2791536734 0.0099824244
H 0.1762770374 -3.4272007910 -1.0862686874
H 0.3540455124 -3.5100506811 0.6643706982
H -1.4728363460 -0.6772217560 -1.2204935542
H -0.0968505715 -1.1950315065 -2.2086011976
H -0.0197555869 0.3113039356 -1.2905062044
H -2.2437883246 0.9225050238 1.6341398869
H -4.5931960391 -1.1053903933 1.5380018173
H -3.4856658818 2.4832063462 1.8866936360
H -4.9863752849 2.8365110369 2.7423177396
H -4.8417815672 4.1558002685 0.6548498159
H -4.4134726605 1.6394013787 -0.4881392742
H -7.0763725006 3.5036623268 1.3833560103
H -6.9984484904 3.4463022030 -0.3767953475
H -8.1743042524 1.4276540916 0.5815676447
H -6.7558305496 1.0139861542 -0.3755654675
H -6.6712148416 -0.3597047722 1.5748528457
H -6.7207901999 0.5214894269 3.9049954866
H -7.0633007970 2.1485210557 3.3047914942
H -8.2295731072 0.8520248562 3.0314943383
