60
CONF21
C -0.7167288542 1.3566291034 -2.3296776328
Si -1.3094806306 1.7917370703 -0.6206221868
C -2.0010069520 3.5235946397 -0.5366029841
O -0.0837375171 1.6230320217 0.4674439652
Si 1.3003395859 2.2824260927 1.0628190111
C 1.2066591326 2.2610562556 2.9208989363
C 1.5393478294 4.0065267679 0.3837860847
O 2.5837833855 1.3563074583 0.6221911554
Si 3.1693291452 0.4810295498 -0.6428888628
C 3.3678539437 1.5664097365 -2.1440178528
C 4.7860764133 -0.2612189730 -0.0849257951
O 2.1120979715 -0.7138061766 -1.0351554746
Si 1.3472706244 -1.9818634739 -0.3186461287
C 1.1641653658 -1.6837859166 1.5150593202
C 2.3067994611 -3.5361656938 -0.6943902302
O -0.1355891500 -2.0850683593 -1.0216499386
Si -1.6494376556 -2.6157911178 -0.6566886152
C -2.7149102447 -2.3120996291 -2.1546447052
C -1.5828752098 -4.4151329830 -0.1703557917
O -2.2282608376 -1.7877566491 0.6448476896
Si -2.9718241466 -0.3467517534 0.9343116074
C -2.4858161276 0.2211878590 2.6407056211
C -4.8142094099 -0.5651308559 0.7590540179
O -2.5092136469 0.7523663439 -0.2003258549
H -0.0073028820 2.1020155677 -2.7052882125
H -0.2206877985 0.3801517850 -2.3276615224
H -1.5564010424 1.3169495098 -3.0319865273
H -2.8962725452 3.6062715607 -1.1619776909
H -1.2788526432 4.2691117762 -0.8842167260
H -2.2860623124 3.7791361334 0.4899015238
H 2.1127721638 2.6863921672 3.3644476800
H 1.1054569320 1.2347092150 3.2891881751
H 0.3474817484 2.8359228488 3.2818784729
H 1.5480094639 4.0023386434 -0.7121699951
H 0.7450894036 4.6844029224 0.7132181668
H 2.4963097892 4.4196122631 0.7199433375
H 4.0160018164 2.4229276107 -1.9312001952
H 2.3973465126 1.9467595031 -2.4780276421
H 3.8056791741 1.0060165241 -2.9765428897
H 5.5130111217 0.5169393864 0.1696225137
H 4.6407846391 -0.8822847882 0.8057495369
H 5.2213451245 -0.8905481115 -0.8681664535
H 0.5314937804 -0.8062705842 1.6800042599
H 2.1319534205 -1.5028426587 1.9951013258
H 0.6899554640 -2.5362559430 2.0132962571
H 2.3896449657 -3.6793235178 -1.7769250806
H 3.3206248607 -3.4840600981 -0.2827067379
H 1.8167584009 -4.4204116430 -0.2729255096
H -2.3044896169 -2.8183356559 -3.0344068981
H -3.7352600150 -2.6778019254 -1.9985231122
H -2.7663572095 -1.2406304277 -2.3754186815
H -2.5847992790 -4.8049758319 0.0369881390
H -0.9825223273 -4.5499339613 0.7360833130
H -1.1383257528 -5.0238518259 -0.9646402340
H -2.9866801515 1.1608607129 2.8975066700
H -2.7586012734 -0.5251376145 3.3940136072
H -1.4061526684 0.3882378957 2.7016720603
H -5.0682768253 -0.8681537510 -0.2621969488
H -5.3454745314 0.3681263996 0.9725255800
H -5.1878321868 -1.3337944039 1.4433156707
