51
CONF1
O 4.6822019476 0.1441551373 -1.8836533495
C 3.7715726656 0.7100441544 -0.9190343457
C 2.6296744573 1.3154773837 -1.7373545230
C 1.6810857416 2.2272188781 -0.9502544707
C 0.6572459920 1.5033812371 -0.0862644514
C -0.5143164095 0.7629568433 -0.8212332539
N -1.4325401341 1.7037179514 -0.1270735896
C -0.4296544415 2.3925123081 0.5176621597
O -0.4512925174 3.3581988939 1.2587628405
C -2.8226765205 1.8093772803 -0.1699214050
C -3.4988966573 2.6888445537 0.6873607615
C -4.8841187141 2.7821374967 0.6301766542
C -5.5711575756 1.9911808851 -0.2759249216
F -6.9266154542 2.0817317093 -0.3268080220
C -4.9296497122 1.1121887013 -1.1308486550
C -3.5430678099 1.0237182053 -1.0774403139
C -0.7300166635 -0.6872977928 -0.5098588810
C -0.6213191569 -1.6484255163 -1.5161287121
C -0.7739874546 -3.0009220390 -1.2380246323
C -1.0454609554 -3.4073516267 0.0682831657
O -1.1748917149 -4.7478004479 0.2969601294
C -1.1736968622 -2.4581197174 1.0850377027
C -1.0132876210 -1.1105585447 0.7908678612
C 3.3326585228 -0.3353123656 0.0805624632
C 2.7978846040 -1.5501836003 -0.3596220860
C 2.3747345649 -2.5145383795 0.5460546895
C 2.4829993459 -2.2341170081 1.8981836358
F 2.0455096282 -3.1630580622 2.7895605363
C 3.0151681142 -1.0512899141 2.3788710076
C 3.4510840145 -0.1057735048 1.4518891825
H 5.3769416334 -0.3134146130 -1.3925749302
H 4.2720506069 1.5240989888 -0.3711918205
H 3.0967526207 1.9076362176 -2.5325224838
H 2.0685044727 0.5089265259 -2.2272099145
H 2.2622596852 2.9042058334 -0.3105699786
H 1.1377654595 2.8616940451 -1.6613005470
H 1.1241686804 0.8660326073 0.6693355715
H -0.5018715300 0.9322247759 -1.9048309676
H -2.9412386010 3.2948023863 1.3905319966
H -5.4253215691 3.4578786742 1.2834473642
H -5.5029110833 0.5100698784 -1.8271311958
H -3.0234020419 0.3408267100 -1.7403448345
H -0.4092685579 -1.3347292661 -2.5351193791
H -0.6831313936 -3.7471572257 -2.0207890030
H -1.3517699560 -4.8990373155 1.2351363521
H -1.3907871113 -2.7781600208 2.1009522691
H -1.1145829217 -0.3789860446 1.5883727720
H 2.7076455138 -1.7445787585 -1.4237498992
H 1.9493243044 -3.4562275051 0.2179646688
H 3.0898938952 -0.8790514531 3.4470990309
H 3.8738044900 0.8308521583 1.8054138565
