54
CONF5
C 1.1159549580 -1.0111663392 3.1656969726
C 1.4048221820 0.4839509695 3.0282270842
C 0.6008100534 1.1964834642 1.9660834792
O 0.1550851787 2.3208979303 2.0933639873
O 0.4847479738 0.4320132500 0.8669507633
C -0.2988362995 0.8317044401 -0.3139279801
C -1.7680240704 1.0440339751 0.1341350834
C -2.2627003838 0.0157415279 1.1229071491
C -2.5018898729 -1.3119731560 0.7482905900
C -2.9319660891 -2.2499204608 1.6828570282
C -3.1410457684 -1.8776216525 3.0096370660
C -2.9247462236 -0.5562996348 3.3904160893
C -2.4880247581 0.3789497896 2.4543316468
C -0.1439702327 -0.3481892294 -1.2722677092
C -1.0074600123 -0.4932409489 -2.3645177773
C -0.8477958023 -1.5362302601 -3.2719289644
C 0.1794354729 -2.4612452272 -3.1073602638
C 1.0465212132 -2.3256896316 -2.0279278517
C 0.8894825761 -1.2788524515 -1.1223984418
C 0.3083439620 2.1364013236 -0.9150114092
C -0.4371021996 2.6414670184 -2.1510176601
C 1.8006394977 1.9527588779 -1.2218492617
N 2.4580615143 3.1861747489 -1.6709896260
C 3.8104276934 2.8709274224 -2.1351402935
C 2.5300077726 4.1768932778 -0.5952150086
H 1.3951809897 -1.5559100962 2.2612258331
H 0.0520852442 -1.1854703127 3.3550446429
H 2.4624042208 0.6423625884 2.7757736752
H 1.2197823295 1.0136020080 3.9661403297
H -1.8480838291 2.0390901666 0.5775684370
H -2.4045905816 1.0368693361 -0.7532652076
H -2.3530738273 -1.6156589217 -0.2829321368
H -3.1104070548 -3.2749088492 1.3714918762
H -3.4777577640 -2.6097613538 3.7370374231
H -3.0939683119 -0.2501314414 4.4185131628
H -2.3187041297 1.4070119449 2.7606156893
H -1.8250602376 0.2013653667 -2.5178231953
H -1.5355846528 -1.6267202496 -4.1070381072
H 0.3007525984 -3.2786668501 -3.8111718440
H 1.8536246382 -3.0376639793 -1.8838646912
H 1.5774462036 -1.1917352529 -0.2910492905
H 0.1941347362 2.8812059404 -0.1245274175
H -1.5114308338 2.7410858489 -1.9732818911
H 1.9029142398 1.2128714123 -2.0261237190
H 2.3206430550 1.5409291080 -0.3343328070
H 3.7629012124 2.1500607815 -2.9580466456
H 4.4430602158 2.4392307984 -1.3345913718
H 4.2981711248 3.7809933838 -2.4998924950
H 1.5292270646 4.5030794240 -0.2978008914
H 3.0473391544 3.7843483197 0.3029235864
H 3.0777208297 5.0565911261 -0.9482007551
H 1.6850529984 -1.4222061560 4.0040721594
H -0.0478333469 3.6267277884 -2.4176880747
H -0.2833974268 1.9808314058 -3.0100359268
