40
CONF16
C 3.1963552157 -1.7145267487 2.1667929499
C 3.1478107820 -2.1385595518 0.7200551878
O 3.6274848952 -1.0077350902 -0.0769562349
C 3.3094522345 -1.0382692996 -1.3759619849
O 2.6834402456 -1.9115322189 -1.9285209078
C 3.8023399132 0.2231080919 -2.0803843933
C 2.6486005286 0.8874125754 -2.8316498183
C 1.6475548236 1.4245008891 -1.8418432215
C 0.5849805813 0.6253883604 -1.4154799213
C -0.3339687347 1.0679809749 -0.4707826841
C -0.1887103526 2.3497701190 0.0561903238
C 0.8397417240 3.1805974947 -0.3453455093
C 1.7522190132 2.7012603481 -1.2780451255
Cl 3.0703741017 3.7617386228 -1.7345825622
F -1.0483440509 2.7857525652 0.9870452249
N -1.3714846325 0.2253682882 -0.0272622023
C -1.1951417994 -1.0151304485 0.5547622446
O -0.1780005601 -1.6357224479 0.7963771093
N -2.5275608626 -1.3968345896 0.8219577956
C -3.3761810543 -0.3762864957 0.4040059746
N -2.7026087883 0.6070216196 -0.1070195859
C -4.8514581164 -0.4153229198 0.5211295016
C -2.8473214428 -2.6343269144 1.4364217263
F -3.6827630592 -3.3656654727 0.6383495166
F -3.5204892357 -2.4284534587 2.6093767510
Cl 5.1098371035 -0.2734115164 -3.2468274490
H 4.2096492917 -1.4358527083 2.4686970756
H 2.8616966944 -2.5444695953 2.7959589044
H 2.5263295653 -0.8678328076 2.3370382185
H 2.1330051474 -2.3794768269 0.3995141516
H 3.8040239253 -2.9896561009 0.5086859448
H 3.0454296244 1.6879234676 -3.4588458277
H 2.1795899136 0.1376776572 -3.4740961534
H 0.4785833354 -0.3758236206 -1.8204928998
H 0.9320418124 4.1710578405 0.0823704828
H -5.2526518230 0.5157529731 0.1198630513
H -5.1577260307 -0.5218517428 1.5661649809
H -5.2659420983 -1.2601005570 -0.0371311501
H -1.9256945272 -3.1944275417 1.6273060967
H 4.2676979612 0.9061065341 -1.3675315128
