29
CONF2
C 2.0080000544 1.6948824594 -0.0164973259
C 2.1612413645 0.2018116003 0.0269434178
C 1.3718768751 -0.6714530762 -0.6183627542
C 0.2011992843 -0.3902400586 -1.5143411699
C -1.0973345290 -1.0886220948 -1.0734145034
C -1.6855709559 -0.5891547975 0.2649846268
C -3.0127669991 -1.3000489727 0.5418299590
C -1.9294631566 0.9015553174 0.1946886266
C -1.4902653913 1.7927730873 1.0762687645
O -0.8321476012 -0.9376539202 1.3569131181
C 3.3080688136 -0.2781539217 0.8733926036
H 1.1256249390 2.0239804043 -0.5650690660
H 2.8944759279 2.1511445324 -0.4750729993
H 1.9397596801 2.0980728179 1.0014679565
H 1.6020712460 -1.7319678671 -0.4973825576
H 0.4461634348 -0.7544976544 -2.5220793762
H 0.0221028543 0.6847647175 -1.6077362913
H -0.9269910174 -2.1682670789 -0.9752918608
H -1.8536270350 -0.9509181919 -1.8564629728
H -3.7613758980 -1.0381172688 -0.2112739467
H -3.3850922164 -1.0031675450 1.5255474304
H -2.8622763973 -2.3837995417 0.5328548865
H -2.5301868529 1.2289644365 -0.6552377836
H -0.9035162413 1.4811460418 1.9350285616
H -1.7150953927 2.8492762520 0.9708587785
H 0.0657785755 -0.6539035570 1.1224401378
H 3.3858188266 -1.3680056488 0.8755933011
H 3.1967780597 0.0636514953 1.9102699930
H 4.2567482405 0.1359480280 0.5092427331
