24
CONF60
C -4.6302016282 -0.0874599866 -0.6387868065
C -3.4204362142 0.7065402450 -0.1729179078
C -2.1217579763 -0.0777791835 -0.4776307566
C -0.8555762637 0.4755765147 0.2466464388
C 0.5098029276 -0.0945692612 -0.2703701535
C 1.6865696375 0.0909330557 0.7463422660
C 3.1070627704 -0.0726299156 0.1124835915
F 3.4125949350 0.9771034894 -0.6572043628
F 3.1646265760 -1.1906876501 -0.6243354243
F 4.0123616929 -0.1571187080 1.0972890134
F 1.6243830982 1.3291503866 1.2914818558
F 1.5653638038 -0.8304906640 1.7254957232
F 0.8297460325 0.5425184236 -1.4211798415
F 0.3786791141 -1.4146801416 -0.5220177072
F -0.9810448997 0.2027226558 1.5699464446
F -0.8146831086 1.8325421435 0.1048225743
F -2.2734234508 -1.3691067989 -0.0545804418
F -1.8764215085 -0.0971653511 -1.8145610617
O -3.4518852122 1.9449273329 -0.8603900663
H -5.5231154076 0.5095731334 -0.4429055427
H -4.7125683802 -1.0377859941 -0.1103992585
H -4.5658731295 -0.2737839416 -1.7138910173
H -3.4587066716 0.8451164386 0.9194178301
H -2.7897985687 2.5370558662 -0.4879292565
