41
CONF8
C 0.0558440675 -1.9118004329 -1.8220170360
C -0.3371045918 -2.7245718531 -0.6068473026
O -0.0119732011 -2.0388612387 0.6319783281
C 1.2701046195 -2.1971392680 1.0604848387
O 2.1342264895 -2.8145633432 0.4646405765
N 1.4435217040 -1.5941635233 2.2716114254
C 2.7784389168 -1.4673391375 2.8347775610
C 3.6480474345 -0.4223098593 2.1440514293
O 3.1190401106 0.8987430126 2.3306649659
C 2.0876768922 1.3111953175 1.5238721827
C 1.1372523022 2.1416081906 2.1206469752
C 0.0654389785 2.6251276732 1.3797008548
C -0.0501143207 2.2793391176 0.0404667239
C 0.9089139083 1.4812322607 -0.5697391451
C 1.9817450426 0.9952754350 0.1668922135
O -1.1145802776 2.7748394742 -0.7013555536
C -2.1469850187 1.9075599320 -0.9875945783
C -2.2918411173 0.6592206388 -0.3836229717
C -3.3877372941 -0.1314355151 -0.7225447062
C -4.3269446737 0.3062352859 -1.6495044618
C -4.1665876883 1.5573964179 -2.2432000230
C -3.0820012112 2.3602025595 -1.9182862482
H 1.1372155244 -1.7567330740 -1.8467701573
H -0.4554868813 -0.9456647827 -1.8199088149
H -0.2359644215 -2.4521077550 -2.7286219777
H 0.1537321566 -3.7019319976 -0.6046427476
H -1.4205265929 -2.8616086614 -0.5569065166
H 0.7262876915 -0.9531625578 2.5721724616
H 3.2801711768 -2.4389656202 2.7631861460
H 2.6748230687 -1.2115336774 3.8942073746
H 4.6377317630 -0.4048626295 2.6107034542
H 3.7728887581 -0.6697026806 1.0855887594
H 1.2497423783 2.3925337900 3.1700232874
H -0.6893291316 3.2576311912 1.8345393617
H 0.8104523845 1.2417349970 -1.6230746419
H 2.7202433176 0.3719385834 -0.3232696160
H -1.5608464284 0.3048868479 0.3341224101
H -3.5040991927 -1.0995302268 -0.2448718731
H -5.1765651979 -0.3171276374 -1.9057230577
H -4.8920658253 1.9122517897 -2.9683797111
H -2.9427846302 3.3361630467 -2.3702917016
