47
CONF71
C -3.5330257077 0.2506149071 2.1536349190
C -2.4930878611 -0.4857139321 1.3393863018
C -2.8819571761 -1.7023783087 0.5339008453
C -2.6365009448 -0.3706967958 -0.1802309618
C -1.4510967955 -0.2532035189 -1.0408861344
O -0.4741189203 -0.9715957734 -1.0461896474
O -1.5812877793 0.8321047377 -1.8670837829
C -0.4142092645 1.1133818227 -2.6939818274
C -0.9292640403 1.7974494638 -3.8778019585
N -1.3072849293 2.3492920404 -4.8186635180
C 0.5899430751 1.9492972009 -1.9364488183
C 1.7375033897 1.3311973876 -1.4453349459
C 2.6356908017 2.0540451680 -0.6675620868
C 2.3723662049 3.4011368500 -0.4188589944
C 1.2448449930 4.0305225172 -0.9150146178
C 0.3411037163 3.2970718142 -1.6743909628
F 3.2510660003 4.1011618217 0.3265049692
O 3.8027824158 1.5334724707 -0.1745888545
C 3.8109888982 0.2010666081 0.2315255415
C 2.7854207801 -0.3257987858 1.0112992815
C 2.8790421224 -1.6468223293 1.4384583837
C 3.9863683649 -2.4235972336 1.1011176457
C 5.0076279458 -1.8723303272 0.3306421563
C 4.9239927973 -0.5547833606 -0.1134970968
C -4.2390745416 -2.2518255910 0.5405575678
C -4.5440096534 -3.5488483493 0.4864616278
Cl -3.3649424740 -4.8280906339 0.3942466127
Cl -6.1937300669 -4.1171399451 0.5038030307
C -1.1181956710 -0.4832198531 1.9670102601
H -4.4967845439 0.3216113909 1.6458484968
H -3.1843835545 1.2677583466 2.3596240080
H -3.6821207975 -0.2579163189 3.1125021017
H -2.0775448520 -2.4183837224 0.3970155415
H -3.5072089149 0.1798942605 -0.5195614716
H 0.0399245956 0.1677223156 -3.0108621328
H 1.9276993973 0.2832411362 -1.6478826225
H 1.0831952359 5.0802435538 -0.6956159937
H -0.5530647564 3.7776266942 -2.0582712643
H 1.9298687212 0.2858681565 1.2779562893
H 2.0828196045 -2.0654936168 2.0461178064
H 4.0529703537 -3.4522695786 1.4393016413
H 5.8739638609 -2.4697572875 0.0649836308
H 5.7066261853 -0.1104658482 -0.7192230994
H -5.0766795101 -1.5628606971 0.5903369224
H -0.3976559196 -1.0598181028 1.3852340697
H -1.1803545225 -0.9166993277 2.9707663982
H -0.7482259505 0.5439286743 2.0633448558
