49
CONF15
C -2.1128809838 -1.9329877308 -4.3527700207
C -2.6660854915 -1.5603862233 -2.9964786134
O -1.5446761011 -1.2144122648 -2.1593009859
C -1.7879471815 -0.8321132659 -0.8698005987
C -0.6450060540 -0.5052945443 -0.1247355193
C -0.8208869272 -0.0892266063 1.1894600463
C -2.0894516011 -0.0050024500 1.7574024111
C -3.2306951101 -0.3369260444 1.0210606629
C -3.0623329518 -0.7524907115 -0.3050308494
C -4.6136935351 -0.2388432853 1.6725393025
C -5.7449279912 -0.6410440726 0.7188638213
C -4.6619055289 -1.1709638487 2.8986810153
C -4.8588860147 1.2126706257 2.1274927561
C 0.7028859598 -0.6005499213 -0.7974932535
C 0.8986488639 0.4578112495 -1.9224199584
O 2.1114223287 1.1715822220 -1.5236610599
C 2.4979514849 0.6068175424 -0.3489628112
N 1.8180463365 -0.3557032022 0.1352654955
C 3.7090634675 1.1835242337 0.2548122382
C 3.8551420645 2.5590774382 0.4498165909
C 4.9767926967 3.1304723813 1.0213489350
C 6.0155434310 2.2928216213 1.4169480872
C 5.9276560675 0.9148473853 1.2458001731
C 4.7815477676 0.3925223498 0.6734029986
F 4.7098490412 -0.9394726174 0.4872758403
F 2.8336147789 3.3640220226 0.0927578657
H -2.9361616736 -2.2023774244 -5.0204309987
H -1.5696179372 -1.0924081193 -4.7939280782
H -1.4363627822 -2.7887150698 -4.2737299309
H -3.3451575064 -0.7003868400 -3.0668530256
H -3.2108321882 -2.4003707772 -2.5454142913
H 0.0538688832 0.1700887773 1.7767194776
H -2.1797925582 0.3239695817 2.7872912724
H -5.7826648474 0.0078418667 -0.1626729458
H -4.4857476460 -2.2099298061 2.6002688955
H -5.6466171091 -1.1101238343 3.3754069339
H -3.9074213983 -0.8952711193 3.6409214862
H -4.8269778997 1.8962123197 1.2722765821
H -5.8449628169 1.2937186999 2.5982149376
H -4.1083211019 1.5374833811 2.8536243165
H 0.8145746782 -1.6109330947 -1.2121467395
H 1.0769089635 0.0184908205 -2.9053464839
H 0.0826696987 1.1829844621 -1.9712617790
H 5.0230743117 4.2046940579 1.1564312006
H 6.9050542042 2.7200820511 1.8666401336
H 6.7296249424 0.2488526621 1.5418663075
H -6.7028786704 -0.5509233123 1.2407155585
H -5.6430256678 -1.6788940606 0.3843028822
H -3.9252653530 -1.0135744625 -0.9009372854
