54
CONF26
C -6.0337957394 1.8092686043 0.4269042466
C -4.5136535713 1.7211287402 0.3924515655
C -3.9468762719 1.0454665126 -0.9108406004
N -2.6698746727 0.4751443606 -0.5239785783
C -2.3371260447 0.3930996154 0.9094563965
S -3.9322739500 0.6006684111 1.7818817320
C -1.7640421781 -1.0354694073 0.6466790671
C -2.1103294746 -0.7564177184 -0.8353548407
O -2.0023582603 -1.3558655817 -1.8794248577
N -0.4229916078 -1.3660895342 1.0188901836
C 0.6399192835 -0.7137733637 0.4943912797
O 0.5312691009 0.1612649953 -0.3619044946
C 1.9987443981 -1.1073684390 1.0923830127
C 2.2466692340 -0.3342511282 2.3691997543
C 2.1366506256 1.0586063062 2.3969265976
C 2.3577859942 1.7541722444 3.5812999797
C 2.6895276714 1.0662538416 4.7477080891
C 2.7983553084 -0.3216225863 4.7243326796
C 2.5756032835 -1.0197095639 3.5393970584
C 3.0540094932 -0.8589909533 0.0262751906
O 3.8843553519 0.0130548525 0.0237720705
O 2.9154655663 -1.7886884083 -0.9568671524
C 3.7638401424 -1.6685448884 -2.0741222755
C 4.9491174785 -2.3865934590 -2.0916530176
C 5.7538168831 -2.3121877152 -3.2266493675
C 5.3657535426 -1.5303607088 -4.3129928232
C 4.1685251903 -0.8181050473 -4.2687863258
C 3.3541528546 -0.8829986421 -3.1405311318
C -4.8896642616 -0.0328215920 -1.4361283389
O -4.9354029278 -1.1720817491 -1.0305237215
O -5.6921289178 0.4644132240 -2.3908351614
C -3.8913325336 3.1107802032 0.5381115618
H -6.5072129108 0.8245723921 0.3800532853
H -6.3854654744 2.4126735867 -0.4159220927
H -6.3497628354 2.3020316039 1.3503016003
H -3.8396602549 1.8234104153 -1.6745404686
H -1.5916853653 1.1250906557 1.2329018584
H -2.4454834879 -1.8018352672 1.0261294955
H -0.2762255564 -2.0663866390 1.7311870578
H 1.9968745724 -2.1811267918 1.3082960256
H 1.8783578486 1.5980645872 1.4911129144
H 2.2701156707 2.8361142784 3.5938786839
H 2.8612469826 1.6109034418 5.6708135968
H 3.0554467159 -0.8644665774 5.6285435902
H 2.6594251587 -2.1026400197 3.5223321064
H 5.2306051322 -2.9891886247 -1.2344660071
H 6.6851179165 -2.8684396176 -3.2595009785
H 5.9955435284 -1.4771337367 -5.1950222537
H 3.8633382411 -0.2100453965 -5.1142913928
H 2.4170836023 -0.3388702048 -3.0834990717
H -6.3209335585 -0.2283404756 -2.6604315665
H -2.7989914711 3.0762131290 0.5058591773
H -4.2003461623 3.5577274551 1.4860402084
H -4.2390999397 3.7502893962 -0.2809590322
