39
CONF5
N 0.3362648549 -2.4735958668 1.5696832952
C 1.6182290800 -2.0402919637 1.4269794805
N 2.4264891706 -2.1602518335 2.4905276369
C 3.7030952526 -1.7692438861 2.3320372374
N 4.5364227819 -1.9519985838 3.4036090244
N 4.2496012726 -1.2528092349 1.2158011693
C 3.4089371367 -1.1487966704 0.1726061687
C 2.0816154350 -1.5268804133 0.1884933466
C 1.1851135153 -1.3950781271 -1.0096333753
C 0.0388649037 -0.4154231341 -0.8187005581
C -1.2434340973 -0.7578544357 -1.2474854227
C -2.2966746934 0.1500235327 -1.0852170420
O -3.5813016909 -0.0838631394 -1.4682486571
C -3.8648472191 -1.3459090277 -2.0891197611
C 0.2786315087 0.8217453751 -0.2204878090
C -0.7710727341 1.7289364461 -0.0582087750
O -0.6447718151 2.9597610733 0.5078006536
C 0.6615318326 3.3451003176 0.9589068640
C -2.0668813839 1.3936883224 -0.4814315777
O -3.1104368480 2.2641385937 -0.2711828310
C -3.3122919881 3.1729511881 -1.3742697414
H 0.0151688749 -2.6532311075 2.5092105584
H -0.3608619750 -2.1438697760 0.9189118741
H 5.3985541244 -1.4298286409 3.3976458555
H 4.0995623908 -2.0755532041 4.3035125789
H 3.8297631429 -0.7317925753 -0.7433152343
H 0.7675929740 -2.3732757139 -1.2815416712
H 1.7957810821 -1.0713743765 -1.8619589283
H -1.4099175541 -1.7255026215 -1.7062417120
H -3.2904737947 -1.4663714892 -3.0147068385
H -3.6488546064 -2.1765374985 -1.4073709379
H -4.9306158686 -1.3266975298 -2.3180610457
H 1.2802382767 1.0620728677 0.1150350722
H 0.5462522661 4.3493616144 1.3672456483
H 1.3748950449 3.3638262072 0.1270770806
H 1.0228130386 2.6675442301 1.7411649388
H -4.1554458515 3.8105992239 -1.1015074879
H -3.5485519599 2.6183174592 -2.2898475791
H -2.4189854833 3.7879644880 -1.5334507174
