43
CONF66
C -0.9013506583 -1.5485295372 2.4786627153
Si -1.6197452649 0.1092139107 2.0169894142
C -3.0933122951 0.5891083005 3.0498594891
O -0.5059427804 1.3170919301 2.2172739027
O -2.1140856448 0.0033465007 0.4406579420
Si -2.0818959605 0.8895612113 -0.9487406463
C -2.3573834494 2.6984365139 -0.6032246276
C -3.3757780629 0.1804249556 -2.0848970645
O -0.5925367601 0.7390877704 -1.6531154758
Si 0.5667360140 -0.4332623300 -1.7219987368
C -0.2121598076 -2.1154517045 -1.9058639464
C 1.6966563358 -0.0102135592 -3.1386009730
O 1.3812794577 -0.4304445054 -0.2887092287
Si 2.7600242471 -0.0802465605 0.5232812832
C 3.5455274516 -1.6451013931 1.1507484662
C 3.9165050300 0.9469114649 -0.5110552601
O 2.2213576675 0.8349037998 1.8215592131
H -0.5769629809 -1.5597607605 3.5248080434
H -0.0346789023 -1.7770598840 1.8479007595
H -1.6398075455 -2.3461274294 2.3413423488
H -3.4581711722 1.5809210852 2.7589371230
H -3.9126433182 -0.1250589432 2.9152179514
H -2.8372890906 0.6193622544 4.1143105649
H 0.4308238166 1.1001143251 2.0406815964
H -3.3177658630 2.8554846700 -0.1000498826
H -1.5647774672 3.0981704912 0.0377601635
H -2.3655316150 3.2721104099 -1.5366310078
H -3.3616292704 0.6873026102 -3.0558123877
H -4.3765920298 0.2968839307 -1.6547553655
H -3.2007604403 -0.8875025244 -2.2551516946
H -0.8770449485 -2.3295423025 -1.0616477947
H -0.7983132174 -2.1806955990 -2.8288503807
H 0.5587678711 -2.8934650239 -1.9364169416
H 2.5367246479 -0.7105578691 -3.1973750939
H 1.1456542925 -0.0610552981 -4.0843365712
H 2.1008522963 1.0019819637 -3.0343250509
H 2.8322329804 -2.2218052420 1.7497649668
H 3.8757323283 -2.2717937823 0.3148813084
H 4.4199510015 -1.4262832919 1.7736916991
H 4.2607526694 0.3926276096 -1.3904114590
H 3.4240912161 1.8634404622 -0.8538508945
H 4.7959134138 1.2317729218 0.0774936327
H 2.7065757021 0.7456986655 2.6499974081
