40
CONF11
C 3.9527773092 0.2330740734 1.3189265819
O 3.9705448349 -1.1990768644 1.5308996488
C 2.8044148530 -1.8506654791 1.4867068501
C 2.8186412940 -3.2255468087 1.6807752775
C 1.5755915349 -3.8530842140 1.6217784377
N 0.4316512285 -3.1991853426 1.3933087010
C 0.5516142009 -1.8817518162 1.2237654766
N 1.6756850493 -1.1641853582 1.2592038079
N -0.6513286966 -1.2244329764 0.9794405423
C -0.9256969166 0.1129596286 0.7401433443
O -2.0504312812 0.4817715002 0.4264515576
N 0.1409904648 0.9775127563 0.8934952132
S 0.0462323877 2.5745754154 0.3295123232
O -0.9606741836 3.3050108096 1.1025287802
O 1.4434937932 3.0168477042 0.3406971985
C -0.5138590248 2.4363242209 -1.3206103501
C 0.1378328095 1.8585697123 -2.4082814050
N -0.5951936187 1.8682158078 -3.5213929642
C -1.7593437412 2.4491339323 -3.1677697227
N -1.7638199831 2.8067706472 -1.8137417969
C -2.8519379451 3.3896023315 -1.2227819803
C -3.9572943281 3.6382481865 -1.9882301872
C -3.9822933764 3.3046039870 -3.3579063169
C -2.8900258204 2.7131635303 -3.9477893304
Cl 1.7079641649 1.1498171870 -2.3715003759
O 1.5508681470 -5.1777558437 1.8057121852
C 0.2661857975 -5.8431083365 1.7495694061
H 3.5530800630 0.4687330606 0.3286352092
H 4.9956306079 0.5395343668 1.3889085196
H 3.3589750981 0.7276373194 2.0925774634
H 3.7334263507 -3.7720510997 1.8657502982
H -1.4629093169 -1.8257071508 0.9153049412
H 1.0780592872 0.5515173979 0.9919131491
H -2.7727998479 3.6231078576 -0.1715998859
H -4.8160559820 4.0990213622 -1.5157695760
H -4.8687007907 3.5147240260 -3.9455697606
H -2.8704833642 2.4375914305 -4.9954235651
H -0.1927804589 -5.7074932566 0.7674066330
H 0.4898433619 -6.8949251461 1.9240850370
H -0.3978729619 -5.4590980665 2.5275757338
