56
CONF98
C 0.3358983736 -4.3307399446 0.3660289298
C -1.0681369824 -3.9685558842 -0.1173256799
C -1.2791604690 -4.2578929671 -1.6036783515
N -1.4464960163 -2.5852979406 0.2224983768
C -2.5859462695 -2.2600112023 0.9303612653
C -3.6100986183 -3.0724744775 1.4239997161
C -4.6596858691 -2.4553931672 2.0932624395
C -4.7025383016 -1.0593940732 2.2628515939
C -3.6893426758 -0.2512490123 1.7700491070
C -2.6089096608 -0.8479844413 1.1039291056
C -1.4421886457 -0.3291945919 0.4618588259
C -0.7468568699 -1.4155889844 -0.0595011138
C 0.5265026428 -1.3881681471 -0.7641907594
C 1.5394047367 -0.6077074320 -0.3701435072
C 2.8385578886 -0.4387470838 -1.0959326866
C 2.9787782078 0.9755114164 -1.6745217264
C 2.8485328518 2.0826137123 -0.6403406046
C 3.0163028897 3.4509644765 -1.2966926755
C 2.8423870513 4.5835256690 -0.3236227531
O 2.7357250553 4.4623853402 0.8831107267
O 2.8313035219 5.7804284179 -0.9389884037
O 3.8492126983 1.8620002349 0.3641054011
O 2.9827742632 -1.3336369288 -2.2055255268
C -1.1261638363 1.0948526840 0.2892252426
C -1.0466530358 1.9533707238 1.3938812700
C -0.7810155121 3.3114011514 1.2360799741
C -0.5993530192 3.7978870688 -0.0460581482
C -0.6755240663 2.9911917321 -1.1692356784
C -0.9416027116 1.6381694223 -0.9906144851
F -0.3354431694 5.1231099694 -0.2130179030
H 0.4652133067 -4.0630069477 1.4187253214
H 0.4747793432 -5.4109559677 0.2631129353
H 1.1121673154 -3.8322438221 -0.2185993920
H -1.7692433434 -4.5921016364 0.4440036394
H -1.1146170973 -5.3229027417 -1.7932027229
H -0.5823664996 -3.6934556912 -2.2294352445
H -2.3003441086 -4.0059639246 -1.9040982291
H -3.6076635168 -4.1486298446 1.2899424546
H -5.4665967959 -3.0657341482 2.4865940578
H -5.5430599579 -0.6124442190 2.7845867069
H -3.7273064289 0.8266440728 1.8974115479
H 0.6419661456 -1.9989048912 -1.6557763548
H 1.4380163945 -0.0294676807 0.5460742450
H 3.6584838103 -0.5996141909 -0.3790497238
H 3.9566937980 1.0510908259 -2.1659897096
H 2.2039788168 1.1119270026 -2.4388073804
H 1.8496401478 2.0445429933 -0.1807367474
H 4.0155509138 3.5400744892 -1.7434255501
H 2.2959598461 3.5825782276 -2.1126753815
H 2.7287217493 6.4705801809 -0.2609434316
H 3.7037509844 2.5396202012 1.0404491499
H 3.0235698276 -2.2326106195 -1.8545698511
H -1.1800827495 1.5505155638 2.3931057979
H -0.7084347217 3.9786420850 2.0881191209
H -0.5364157442 3.4169784353 -2.1573088667
H -1.0126254857 0.9894662373 -1.8576996664
