47
CONF253
C -6.8052252293 -0.7424890623 -1.6419808138
O -6.9519058104 0.2813571164 -0.6078440411
P -6.0182288131 0.2645343692 0.6847341860
S -6.4504080194 1.6929983053 1.9207818738
O -6.0319037154 -1.2358528078 1.2549106228
C -7.1882518711 -1.7036715263 2.0085195944
O -4.5420027216 0.2866407442 0.0128774801
C -3.3734346656 0.5860541670 0.7092770300
C -3.0727454738 -0.0036142504 1.9300101941
C -1.8600147974 0.3011704435 2.5434139235
C -0.9728147617 1.1938110398 1.9426458260
C -1.2972800938 1.7846334590 0.7177957975
C -2.4968409388 1.4738745010 0.0936053815
S 0.5392960504 1.6248186276 2.7954685816
C 1.7978930439 1.2189125908 1.5898613248
C 1.6494780694 0.1716164971 0.6773838259
C 2.6777709616 -0.1306681999 -0.2077533948
C 3.8561943087 0.6036843395 -0.1555953757
C 4.0254582218 1.6383505273 0.7532136350
C 2.9864920517 1.9541949929 1.6217399910
O 4.8857872055 0.3477961124 -1.0660782692
P 5.8206001522 -0.9830812726 -0.9396893769
S 6.2945009162 -1.4966646549 0.8692445959
O 6.9842080089 -0.5921140312 -1.9607301660
C 7.9260863178 0.4649723365 -1.6196702415
O 5.0644530653 -2.1484934711 -1.7207158576
C 4.6308364392 -1.9555536375 -3.1045404400
H -6.8914956034 -1.7386269632 -1.2017321269
H -5.8429364504 -0.6252783643 -2.1452020538
H -7.6221724397 -0.5664759778 -2.3406301193
H -6.9730750093 -2.7419241201 2.2586932763
H -7.3046874231 -1.1082902335 2.9174728613
H -8.0900501703 -1.6427384202 1.3929000132
H -3.7578987415 -0.7062788114 2.3905739006
H -1.6049026028 -0.1677602009 3.4877482189
H -0.6138358827 2.4869429360 0.2519066201
H -2.7660617674 1.9223159148 -0.8565579013
H 0.7333075499 -0.4082551396 0.6488126298
H 2.5646505476 -0.9360108816 -0.9259410178
H 4.9547600694 2.1977398256 0.7679602746
H 3.1030438702 2.7753398109 2.3219073580
H 8.4655974093 0.2016997113 -0.7061559000
H 8.6147806949 0.5267069685 -2.4614052571
H 7.3959128204 1.4124454644 -1.4934834958
H 4.0562428892 -1.0301821204 -3.1954233217
H 5.5012103950 -1.9349575959 -3.7630639126
H 3.9996108428 -2.8136288625 -3.3322199424
