45
CONF16
C -1.1199214726 -2.4257179460 1.3461448013
C -0.0024648539 -2.4094091955 2.3979116117
C 1.0908697473 -1.3615671455 2.1522947467
C 0.5764336101 0.0773949582 2.2003473158
C 1.6377233287 1.1385051518 1.9014179233
C 2.2430373609 1.0009914353 0.4992011618
C 2.8668221186 2.2899105026 -0.0417249863
C 1.8563606313 3.3688810916 -0.4020406217
O 1.0032832186 2.9123382869 -1.4889321792
C -0.2469028436 2.5021214331 -1.1677635673
O -0.6994670453 2.5013229587 -0.0448991612
C -1.0098814618 2.0779860831 -2.4024306070
C -2.0334079775 0.9824358689 -2.1053916625
C -1.3742526864 -0.3425530213 -1.7255338437
C -2.3826070366 -1.4321040938 -1.3638405632
C -1.7446752971 -2.8055354733 -1.1166206595
C -0.6425245451 -2.8228010949 -0.0510461483
H -1.6011819792 -1.4413291955 1.3127984272
H -1.8996918799 -3.1302730664 1.6653744667
H -0.4473560610 -2.2300525608 3.3859002903
H 0.4581001562 -3.4055700397 2.4423291314
H 1.8779522240 -1.4836950691 2.9090115485
H 1.5723249146 -1.5539174004 1.1858816585
H -0.2359670022 0.2170849935 1.4769465089
H 0.1388395259 0.2661440697 3.1900263869
H 1.1623011186 2.1205189650 2.0006362317
H 2.4403423685 1.0970801606 2.6508413290
H 3.0078857031 0.2162368158 0.4998542159
H 1.4684472831 0.6594477016 -0.2009849873
H 3.4672640516 2.0689172309 -0.9323016966
H 3.5519521341 2.7161929366 0.7043278158
H 1.2274486906 3.6512864143 0.4458306968
H 2.3611269244 4.2570231473 -0.7924124788
H -1.5118369862 2.9807675509 -2.7759862752
H -0.3013739138 1.7698467250 -3.1777075508
H -2.6661588675 0.8406412064 -2.9900036031
H -2.6855613936 1.3155034572 -1.2901526469
H -0.7398706416 -0.6882654072 -2.5550680630
H -0.7053982426 -0.1684300118 -0.8732708323
H -2.9519281641 -1.1138609224 -0.4811490960
H -3.1155743019 -1.5284787855 -2.1760997678
H -2.5311538682 -3.5180286454 -0.8341972150
H -1.3223174216 -3.1705216383 -2.0624273181
H -0.2112538979 -3.8319331158 -0.0035678910
H 0.1742145248 -2.1645352898 -0.3706620160
