47
CONF137
C -4.6073164898 -1.6176839254 0.6682031322
C -3.8384713323 -1.0434121999 -0.5261916670
C -4.1640466143 -1.8525855110 -1.7880881524
C -2.3099849434 -0.9522426682 -0.3502146406
C -1.5942716310 -2.2123454074 0.1794963215
C -0.2394744628 -1.7151177024 0.7463483853
C -0.2393152911 -0.1866368554 0.5529818271
C 0.6126013549 0.5845635486 1.5663739223
C 2.0770573696 0.2645364075 1.4095923773
C 2.7976728384 0.8101866704 0.3434730469
C 4.1377050048 0.4995900887 0.1479038434
C 4.7632122878 -0.3711618590 1.0331924016
Cl 6.4571396188 -0.7686642837 0.7965229000
C 4.0754378223 -0.9281996035 2.1025677796
C 2.7338806524 -0.6031837594 2.2815281058
C -1.7377417450 0.1735717108 0.5311309922
O -2.3242252396 0.0622312012 1.8366798498
C -2.0504186654 1.5984457988 0.0373885796
N -1.5447497297 1.9109909681 -1.2887913981
C -2.1611911442 1.7881051160 -2.4865223921
N -1.3426009810 2.1304538558 -3.4678657788
C -0.2058133967 2.4622586214 -2.7982308372
N -0.2750729936 2.3470172065 -1.4767106055
H -4.3761973085 -1.0934425206 1.5959569901
H -5.6836863898 -1.5398739469 0.4820931329
H -4.3812446450 -2.6800817447 0.8066856945
H -4.2100295843 -0.0203159585 -0.6908953849
H -3.8123300813 -2.8852069149 -1.6850578172
H -3.6902870415 -1.4252447809 -2.6787013488
H -1.8985748629 -0.7434448430 -1.3487168311
H -2.1842557313 -2.6729824618 0.9748514697
H -1.4662041857 -2.9588269474 -0.6088123957
H 0.6213106192 -2.1740848108 0.2536865248
H -0.1628576066 -1.9547272637 1.8123242081
H 0.1508654598 0.0461197837 -0.4450319669
H 0.3013356018 0.3334961800 2.5892950938
H 0.4713858721 1.6631628724 1.4208255068
H 2.2982814528 1.4905162011 -0.3416430705
H 4.6937845593 0.9289547771 -0.6774300732
H 4.5806168786 -1.6019997153 2.7847693388
H 2.1928285767 -1.0359384509 3.1183154428
H -1.6243879775 2.3317741484 0.7302358469
H -3.1355351108 1.7381588444 0.0314274781
H -3.1878118532 1.4595082924 -2.5859280852
H 0.6952132459 2.8052313248 -3.2896556676
H -5.2443004370 -1.8883483886 -1.9611131483
H -1.8197326013 0.6180074600 2.4429718958
