39
CONF7
C -2.5243797720 2.1974540874 -2.7991984590
C -1.7978096719 1.3691184760 -1.7846750300
O -1.7131270016 0.1505362221 -1.9169813065
C -1.2222306290 2.1093316858 -0.6089805786
C -0.6254560065 1.2874570704 0.5452111191
C -1.5806589030 0.3057868824 1.2167471473
C -1.0833442632 -0.5916746844 2.1693333514
C -1.9327363702 -1.4429182035 2.8665994451
C -3.3061280619 -1.4118889290 2.6306865084
C -3.8146788197 -0.5161010844 1.6961973284
C -2.9597739988 0.3356310527 0.9979105462
C 0.7459965846 0.7131838571 0.2319528155
C 0.9889733248 -0.5315767961 -0.3051913807
O 0.0336408480 -1.3524396963 -0.7330378185
C 2.3362142720 -1.0398204555 -0.4080291586
C 2.6428809389 -2.3242468550 -0.8855996963
C 3.9591882771 -2.7481309880 -0.9473490932
C 4.9919887159 -1.8938148021 -0.5431342698
C 4.7124565259 -0.6174669288 -0.0775547229
C 3.3852465603 -0.2033645292 -0.0128062977
O 3.1479941891 1.0628681717 0.4341700081
C 1.8571508380 1.5634383855 0.5777269513
O 1.7797606090 2.7080504371 0.9958966120
H -3.4744947969 2.5232957388 -2.3571581694
H -1.9593636146 3.1036755321 -3.0371355938
H -2.7251158431 1.6167008148 -3.6997332938
H -0.4446691114 2.7754057353 -1.0079321772
H -2.0002965122 2.7911572089 -0.2402683882
H -0.4141953526 2.0436008600 1.3119687947
H -0.0149245489 -0.6244192022 2.3632495957
H -1.5202868578 -2.1321202420 3.5972379318
H -3.9712339797 -2.0776962421 3.1715418830
H -4.8824966328 -0.4760880970 1.5036416173
H -3.3913921788 1.0247184947 0.2798115960
H -0.7702217758 -0.8145004839 -0.9865976688
H 1.8351278949 -2.9743831815 -1.2005513107
H 4.1909566164 -3.7426989139 -1.3127715349
H 6.0231599683 -2.2277146051 -0.5953369194
H 5.4982776449 0.0616539796 0.2344006777
