34
CONF96
C -3.6533051947 -2.4030496676 -2.3359715737
C -3.6215054536 -1.1405872043 -1.5089816844
O -2.2319539199 -0.9104104089 -1.1266691516
P -1.8318172856 0.4482722803 -0.3954500404
S -2.1618832568 2.1366571797 -1.2595895975
O -2.4484858892 0.2190691020 1.0642006623
C -2.5378407050 1.3099963813 2.0291272103
C -1.1831218066 1.6502879994 2.6118442580
O -0.1959940885 0.2279918417 -0.2531907280
N 0.1602637656 -0.9236192027 0.4670887100
C 1.4458011576 -1.0465821202 0.5693792786
C 1.7884705374 -2.2045021871 1.3513415536
N 2.1066158305 -3.1254880617 1.9748690373
C 2.5610246851 -0.2208528516 0.0693070175
C 2.4615185521 0.5957311683 -1.0686926905
C 3.5616878673 1.3296070244 -1.4907003338
C 4.7634824165 1.2758671216 -0.7905747301
C 4.8712554193 0.4650743755 0.3352352018
C 3.7841731417 -0.2863256628 0.7561348636
H -3.2726567967 -3.2513459320 -1.7615981314
H -4.6841161267 -2.6173238997 -2.6336129833
H -3.0471530545 -2.2879544219 -3.2379529661
H -3.9750879413 -0.2722339659 -2.0770800057
H -4.2173861846 -1.2393803834 -0.5945261919
H -3.2197818604 0.9275443501 2.7923193897
H -2.9958692845 2.1739275853 1.5350264986
H -0.7088735396 0.7602426199 3.0346240038
H -1.3076240582 2.3913405742 3.4077726317
H -0.5229175246 2.0771100631 1.8511401860
H 1.5387262360 0.6483559363 -1.6271344873
H 3.4753271326 1.9507334738 -2.3759832089
H 5.6150083603 1.8592065333 -1.1253921895
H 5.8056928608 0.4106783087 0.8834854288
H 3.8783258067 -0.9280372610 1.6261163743
