44
CONF7
C 4.4414324550 0.2759557618 0.3027544050
N 3.1801023580 -0.4219896965 0.5325297523
C 3.1786005434 -1.0182397683 1.8662475824
C 2.9451243359 -1.4396187797 -0.4953882001
C 1.4585569872 -1.8000081397 -0.6520265261
C 0.6800027737 -0.7292595847 -1.3462151682
C -0.3719359612 -0.0453698000 -0.8673093923
C -1.0379430204 0.9927199404 -1.6983556803
C -0.2098064797 1.9220692240 -2.3511276591
C -0.7240861428 2.9339962784 -3.1458159234
C -2.1023617896 3.0456049250 -3.2997486278
C -2.9318263860 2.1412215010 -2.6540784030
C -2.4342500710 1.1108850354 -1.8470042079
C -3.4764964101 0.1991464452 -1.2240740445
C -2.9965829977 -1.0844521300 -0.5377109122
C -2.1767004484 -0.7830284157 0.6824359066
C -2.6617997833 -0.9781307041 1.9744924027
C -1.8889892589 -0.6451890071 3.0837336354
C -0.6184979228 -0.1065933790 2.9057034198
C -0.1224685080 0.0904565141 1.6204531715
C -0.8918985752 -0.2517318691 0.5075445461
H 4.4186704396 0.7768572890 -0.6705142056
H 5.3202313196 -0.3993635713 0.3258523277
H 4.5853015266 1.0407466260 1.0734745193
H 3.2678453719 -0.2319756333 2.6241383987
H 2.2396677259 -1.5487099010 2.0492095893
H 4.0133041365 -1.7331022598 2.0099936369
H 3.5311234591 -2.3578168061 -0.2887241122
H 3.3062258414 -1.0466531493 -1.4542587196
H 1.4092415567 -2.7162984965 -1.2578943599
H 1.0125004829 -2.0392116599 0.3177677906
H 0.9894678233 -0.5189582917 -2.3707581174
H 0.8616410366 1.8491245214 -2.1941054927
H -0.0551849941 3.6392132344 -3.6286517610
H -2.5282211809 3.8324873781 -3.9140240941
H -4.0091388440 2.2244529465 -2.7782837095
H -4.1888053134 -0.0726677091 -2.0133578097
H -4.0482665149 0.7857385134 -0.4911215363
H -3.8741413929 -1.6779868825 -0.2609239013
H -2.4080159234 -1.6810224159 -1.2459914000
H -3.6542643088 -1.3996914389 2.1121836517
H -2.2800670821 -0.8040343498 4.0838100508
H -0.0140723735 0.1628298386 3.7664157137
H 0.8667826106 0.5075983900 1.4572014638
