41
CONF6
C 0.2374615095 -1.8556077995 -2.8435539415
C -0.1688631009 -1.1427465746 -1.6055296173
C -1.4288534014 -0.8080662762 -1.1828723264
C -1.3150649847 -0.1264717459 0.0764784303
C 0.0562517993 -0.0178861473 0.3749066770
N 0.7626147829 -0.6317199177 -0.6816396207
C 2.1531223330 -0.8369274932 -0.7686606807
O 2.6186786307 -1.8351790838 -1.2867634966
C 3.0255515494 0.2530460104 -0.2583968405
C 2.6762348052 1.6005603465 -0.3842019753
C 3.5601765828 2.5955631933 0.0089683812
C 4.7906599983 2.2288457736 0.5455330366
C 5.1618009265 0.8931661039 0.6748711059
C 4.2784885204 -0.0902826247 0.2555300074
Cl 5.9011836612 3.4764017339 1.0629491474
C 0.4861425296 0.5193385481 1.5862612262
C -0.4729230760 0.9992928820 2.4626075446
C -1.8442750942 0.9280891446 2.1571490896
C -2.2808487472 0.3545116862 0.9680868505
O -2.6725052783 1.4369882744 3.1179127784
C -4.0720513691 1.3675905994 2.8732195092
C -2.7150644838 -1.1156730273 -1.8899118749
C -3.1921025375 -2.4994274566 -1.5049951848
O -2.9926217658 -3.5091009782 -2.1347635921
O -3.8503051326 -2.4837580833 -0.3151806043
H 1.0327003219 -1.3259278521 -3.3765865176
H -0.6277692494 -1.9578415465 -3.5010686284
H 0.6155237360 -2.8566287579 -2.6201035833
H 1.7103404716 1.8738964569 -0.7952370232
H 3.3015990916 3.6424992002 -0.0960021901
H 6.1286289599 0.6347438386 1.0902427907
H 4.5496956425 -1.1383645372 0.3213029468
H 1.5328310680 0.5677668748 1.8577370938
H -0.1819197777 1.4300267810 3.4138518134
H -3.3322211845 0.2372178895 0.7393514047
H -4.4087421705 0.3272489325 2.7711622404
H -4.3479744032 1.9300000907 1.9710121747
H -4.5509147042 1.8200451825 3.7426480059
H -2.5862101578 -1.1042266955 -2.9737470437
H -3.4726639638 -0.3747938786 -1.6173863936
H -4.0657926395 -3.4062085587 -0.1045406114
