27
CONF25
C -3.7129101778 -0.4216918730 -0.9780669811
C -4.9765068922 0.4446159147 -0.9816777165
O -5.6138842860 0.5321548019 0.2944574456
C -2.5349348586 0.2333871886 -0.2972526441
C -1.2124507720 -0.5833520616 -0.4346786320
C -0.0399633283 -0.1224321300 0.4992572567
C 1.3683056264 -0.6260454729 0.0232240454
C 2.4591524826 -0.5716218082 1.1472213814
C 3.9273903745 -0.6468670555 0.6117149595
F 4.2719172174 0.4906553490 -0.0010410791
F 4.0598340572 -1.6668595307 -0.2479002951
F 4.7556142012 -0.8422901779 1.6465394990
F 2.2753959500 -1.6133569188 1.9864720078
F 2.3373039170 0.5836173010 1.8415033322
F 1.2629323717 -1.9074917144 -0.3980125346
F 1.7758724238 0.1436570492 -1.0123207127
F -0.0077229809 1.2281212733 0.5515338924
F -0.2670626533 -0.6030874474 1.7453414604
F -1.4794023870 -1.8830533957 -0.1510199732
F -0.7994426123 -0.5017414014 -1.7267406463
F -2.7640539760 0.4066453363 1.0490200388
F -2.3055476881 1.4783710007 -0.8211573120
H -3.9160747615 -1.3774738703 -0.4878881141
H -3.4227717975 -0.6256635431 -2.0152458113
H -4.7591031246 1.4413223100 -1.3852123927
H -5.6970169816 -0.0367575744 -1.6483651980
H -5.1166055397 1.1491437534 0.8446370813
