71
CONF220
C 6.3237516180 -3.2534097106 3.3067307628
C 6.8641526906 -2.4054139974 2.1918961822
C 6.0158294725 -1.7150663044 1.3107459129
C 6.5206385698 -0.8743802209 0.3038581843
C 7.9043188103 -0.7466749773 0.1780348364
C 8.7629307937 -1.4412982323 1.0248749665
C 8.2442791557 -2.2595309769 2.0217739118
C 5.5897958750 -0.1444440441 -0.6228727306
N 4.6068450607 -1.8281204441 1.4484282186
C 3.8941351220 -2.9680335185 1.2795958941
O 4.3823692259 -4.0625451576 0.9940209261
C 2.3971475057 -2.8120573945 1.5371252957
N 1.9203938394 -1.4449164029 1.3702208259
C 0.6994190608 -1.1764585238 2.1389672740
C 0.2873745925 0.2781287046 1.9730263160
N 0.0573674685 0.5920260272 0.5598675369
C 1.2781984013 0.3191838490 -0.2026270775
C 1.6837175834 -1.1362005647 -0.0467805211
C -0.3670575377 1.9828509712 0.3717249101
C -1.7492240985 2.2862477509 0.9555110734
C -2.8335111838 1.2725427539 0.5838981882
C -3.0398749246 1.1161587709 -0.9318363279
C -3.9695793753 -0.0288815571 -1.3003687938
C -3.7963651524 -0.6674328322 -2.5335613524
C -4.6363541963 -1.6974563073 -2.9443426221
C -5.6604462024 -2.0799824999 -2.0941778761
C -5.8708415226 -1.4816980458 -0.8656091972
C -5.0153768059 -0.4517420540 -0.4757922506
F -6.4873656671 -3.0898318978 -2.4812373499
C -3.5178049180 2.4117291886 -1.5689161995
C -2.7354885431 3.0711043849 -2.5187832793
C -3.1580411374 4.2643447347 -3.1039742378
C -4.3805215024 4.7811581605 -2.7173760291
C -5.1930295136 4.1601092352 -1.7823462983
C -4.7502594253 2.9704350375 -1.2138965339
F -4.8069977911 5.9457883855 -3.2786021392
H 7.0952195117 -3.4288845690 4.0600207077
H 5.4645188738 -2.7748218221 3.7873437965
H 5.9790596784 -4.2226430870 2.9314455576
H 8.3073738566 -0.1024153089 -0.5981761268
H 8.9145351027 -2.7853911800 2.6960506415
H 6.1547972079 0.4382798396 -1.3534440659
H 4.9296092131 0.5411786588 -0.0785654888
H 4.9444365528 -0.8465395966 -1.1620027658
H 1.8724672628 -3.5401742885 0.8957526666
H 2.2370529547 -3.1265980559 2.5774166627
H -0.1315387848 -1.8309583087 1.8128185883
H 0.8957067401 -1.3789864476 3.1977876366
H 1.0729169221 0.9321777154 2.4033058312
H -0.6342926913 0.4459544936 2.5397117272
H 1.0889705667 0.5305318896 -1.2618426084
H 2.1166374243 0.9664987001 0.1273351741
H 2.6030800799 -1.3235592593 -0.6134115757
H 0.8911672073 -1.7875018714 -0.4623874508
H -0.3763890241 2.1748544653 -0.7082767503
H 0.3684483998 2.6880911626 0.8078638023
H -1.6930812248 2.3527714775 2.0480488503
H -2.0395826450 3.2855119851 0.6067863547
H -2.5789997470 0.2902515968 0.9985852485
H -3.7720135997 1.5854934103 1.0558649828
H -2.0682193792 0.8800446089 -1.3796047295
H -2.9865819220 -0.3530762364 -3.1868426228
H -4.5008432382 -2.1976566345 -3.8973070762
H -6.6819295935 -1.8156371389 -0.2273386462
H -5.1762090859 0.0151133757 0.4898825472
H -1.7783201612 2.6482637136 -2.8107742462
H -2.5538801575 4.7807324202 -3.8422765273
H -6.1474626291 4.5993716525 -1.5122406721
H -5.3818745694 2.4698876640 -0.4856597820
H 9.8378109564 -1.3365547563 0.9129382682
H 4.0394956835 -0.9914806710 1.5612317714
