46
CONF88
C -4.6674084094 -0.8674364694 -0.6434916051
C -4.2782774038 0.2251841200 -1.6124510277
C -3.5794102908 1.4684182512 -1.1426582714
C -2.8312508342 0.4287612556 -2.0300317975
C -1.6855346965 -0.2702735633 -1.4257357683
O -1.6251339290 -0.7636472959 -0.3155083289
O -0.6272639951 -0.2472631422 -2.2796967206
C 0.6284099305 -0.7067557543 -1.7202360874
C 1.1559885042 0.2434225125 -0.6749377938
C 1.8860763476 -0.2664458579 0.3968834363
C 2.3967213190 0.6064738733 1.3549170495
C 2.1706784266 1.9772453364 1.2733528887
C 1.4295372565 2.4736755013 0.2055992204
C 0.9317775911 1.6185110293 -0.7735036715
O 3.0651610833 0.1546202020 2.4776509614
C 3.8888149455 -0.9558077471 2.3766493852
C 3.8394576927 -1.8741150404 3.4201710419
C 4.7062800871 -2.9641484827 3.4068529911
C 5.6063859153 -3.1368613222 2.3576002594
C 5.6431156560 -2.2058274949 1.3201833165
C 4.7890570667 -1.1069001520 1.3238410592
C -3.1751991402 1.6674176474 0.2538323883
C -2.5707782424 2.7658394559 0.7070454512
Cl -2.1255491018 2.9668325030 2.3818179506
Cl -2.1360938468 4.1185346403 -0.3007120177
C -5.2840491991 0.4172902082 -2.7295505443
H -3.9296018888 -1.0326499994 0.1399074084
H -5.6279781330 -0.6137467362 -0.1821077529
H -4.7940451732 -1.8081109439 -1.1896522630
H -3.8029675723 2.3788181305 -1.6913021993
H -2.6660018762 0.7519984488 -3.0520660742
H 1.2995514881 -0.7520018033 -2.5825527693
H 0.5088952993 -1.7121122553 -1.3072734717
H 2.0431098212 -1.3362840003 0.4944551131
H 2.5673027079 2.6323075240 2.0417165800
H 1.2463459453 3.5411796058 0.1336890398
H 0.3571309426 2.0173561918 -1.6030015622
H 3.1299257038 -1.7266584392 4.2277710976
H 4.6713523137 -3.6831249153 4.2193991357
H 6.2773463051 -3.9894819018 2.3484066941
H 6.3478017320 -2.3276559934 0.5033875567
H 4.8197819845 -0.3751069578 0.5233482183
H -3.3660882519 0.8850225028 0.9801237549
H -4.9822878432 1.2199965941 -3.4081271482
H -6.2631178428 0.6700679461 -2.3085889836
H -5.3879670934 -0.5065572226 -3.3083925272
