61
CONF9
C -2.1772747503 -1.3944035015 -3.2662497695
C -1.7446831347 -0.4724575570 -2.1308827035
C -1.9601304512 -0.9961708223 -0.7282347281
C -2.6415383150 -2.1881618262 -0.4853207331
C -2.8270466606 -2.6799338598 0.8098992967
C -2.3121785536 -1.9475791800 1.8772194390
C -1.6251446077 -0.7475212290 1.6796421570
C -1.4458082589 -0.2703506326 0.3687805223
C -0.6945793488 0.9708166293 0.1247673172
C -1.2216390812 2.2411134105 -0.3335355489
O -2.3825593623 2.5852159244 -0.6127734884
N -0.1307889929 3.1052130541 -0.3546621131
N 1.0240067250 2.4530926586 0.0587427052
C 0.6454826425 1.1634181231 0.2914961489
O 1.5741199001 0.2721577301 0.7423576931
C 1.9901206402 -0.7103004302 -0.1598404453
O 1.7328404063 -0.6339838614 -1.3321509830
C 2.7376204527 -1.8145777718 0.5551643742
C 1.6901332570 -2.6166833339 1.3566063664
C 3.7913874117 -1.2257370700 1.5070259797
C 3.4044381220 -2.7131574170 -0.4886691651
C 2.3186321749 2.8428775871 -0.5129604897
C 2.2958387610 3.0114346434 -2.0320759123
O 1.8404455838 4.2998506006 -2.4458198603
C 0.4290787608 4.4838872391 -2.3422983648
C -0.0964090546 4.4447018316 -0.9088117572
C -1.1459944949 0.0345692233 2.8779151611
C -2.0729909669 1.2153444880 3.1988216809
C -3.5863213079 -3.9580894126 1.0416499628
H -3.2539193839 -1.5916187702 -3.2439706979
H -1.9451980786 -0.9296502493 -4.2289065110
H -1.6559572300 -2.3567129787 -3.2238762171
H -0.6804010979 -0.2297260957 -2.2398296267
H -2.2689595314 0.4878035052 -2.2224049891
H -3.0332598360 -2.7632988152 -1.3185300306
H -2.4442707412 -2.3166999769 2.8920437373
H 2.1959304001 -3.4484422575 1.8567296286
H 0.9187476462 -3.0254647293 0.6954577593
H 1.2095104940 -1.9919202364 2.1142153589
H 4.3417715268 -2.0510528974 1.9685012893
H 3.3307070090 -0.6315435530 2.2992107970
H 4.5043709159 -0.5977751464 0.9632796866
H 2.6649395766 -3.1536491726 -1.1623628207
H 3.9330883854 -3.5217341516 0.0241723318
H 4.1276009341 -2.1504016689 -1.0865142601
H 3.0227814472 2.0550561241 -0.2315912819
H 2.6553039459 3.7731268606 -0.0430445702
H 3.3242414906 2.9311940357 -2.3962479214
H 1.6929664648 2.2148632437 -2.4958491887
H 0.2283515494 5.4746004282 -2.7611998046
H -0.0985116429 3.7275104151 -2.9447446140
H 0.4885942382 5.1044021437 -0.2582619250
H -1.1346057259 4.7911783145 -0.9022679552
H -0.1302767997 0.4074265444 2.7124048170
H -1.1005780332 -0.6373235785 3.7415846430
H -2.1232035628 1.9099393604 2.3542555163
H -1.7128545348 1.7653496894 4.0739650754
H -3.0879972557 0.8619437200 3.4075502909
H -3.3920329721 -4.6834175152 0.2461422876
H -3.3192270359 -4.4089535925 2.0010072243
H -4.6667107677 -3.7695940364 1.0532786573
