48
CONF39
C 4.4324483645 -1.5274466677 -3.6979051309
C 2.9462124097 -1.2522768215 -3.4872904565
C 2.6913955014 -0.2647602381 -2.3509478687
C 1.2062871711 0.1030547996 -2.2999260141
O 0.7513874911 0.9810724096 -3.0278930711
N 0.4579275600 -0.6385014242 -1.4439851964
C -0.9259452628 -0.3728607349 -1.2093565742
C -1.3471978837 0.1625521854 0.1981389099
N -2.0915533344 -1.0914686663 0.4039111449
C -1.8346430769 -1.5778810634 -0.8669578707
O -2.2388082757 -2.5561602788 -1.4494478241
C -3.3732148568 -1.0333814942 1.0805541680
C -3.5679419929 0.4545783556 1.5620464156
S -2.6417972613 1.4579995966 0.2735527160
C -5.0347253558 0.8653846791 1.5413187905
C -2.9482351934 0.6962869533 2.9390959185
C -3.4371640111 -2.0092486396 2.2478425085
O -2.4851093576 -2.5345149683 2.7752260047
O -4.7140453464 -2.2001832134 2.6252834917
O 3.1407967131 -0.8875326235 -1.1397780113
C 3.2536596887 -0.1131016971 -0.0091809629
C 3.7276437123 -0.7813818869 1.1233482094
C 3.8646950165 -0.0948691068 2.3221170626
C 3.5312030192 1.2577531721 2.4065083275
C 3.0594702987 1.9130249416 1.2745918590
C 2.9145938506 1.2393815530 0.0608643929
H 4.9704804118 -0.6008149413 -3.9237209219
H 4.8813543260 -1.9758765385 -2.8076971948
H 4.5759343180 -2.2166843929 -4.5347776959
H 2.5054775512 -0.8234222590 -4.3936617802
H 2.4051687047 -2.1808150602 -3.2689611151
H 0.9329497409 -1.3115261380 -0.8569190626
H -0.5288118306 0.3365878253 0.9028222827
H -4.1718381943 -1.2906616323 0.3737668119
H -5.4794211587 0.7074890512 0.5551029857
H -5.1313675957 1.9209796826 1.8108143557
H -5.5900219199 0.2774911968 2.2779855395
H -1.8964339981 0.3994392030 2.9758626603
H -3.0207523741 1.7568133269 3.1903539876
H -3.4932598575 0.1297723248 3.7035756542
H -4.7233723994 -2.8005656434 3.3910700485
H 3.9820921774 -1.8335127299 1.0449987748
H 4.2342996203 -0.6211683764 3.1968154012
H 3.6379916271 1.7917281407 3.3447381485
H 2.7934044561 2.9644011521 1.3247922097
H -1.3324308092 0.2225375318 -2.0311538449
H 3.2507756697 0.6619559528 -2.5335601891
H 2.5386457407 1.7778826968 -0.8010220858
