44
CONF3
C -1.5877768249 -1.4035045049 -2.8688778231
C -1.9899862976 -0.1548203815 -2.1000495772
N -2.0628531201 -0.4038502221 -0.6318758597
C -3.2654991450 -0.7507280159 -0.1459222635
C -3.5238245580 -1.0233282283 1.1753020400
C -2.4636383186 -0.9481291829 2.1360817798
O -2.6425407939 -1.1766884280 3.3650634780
C -1.1551116651 -0.5983979715 1.6105542972
C -0.0768300986 -0.5131019673 2.5003966765
C 1.1632436819 -0.1696115668 2.0441967743
C 1.4450471012 0.0668689717 0.6792276291
C 0.3472050230 -0.0478289389 -0.1897816101
C -0.9614049651 -0.3355974358 0.2276606753
F 0.6346099501 0.0838265972 -1.5041553577
N 2.6953983475 0.3519836592 0.1792152158
C 2.9203319928 1.5826652161 -0.5937153495
C 4.0001787475 1.3352468179 -1.6418858791
N 5.2448854324 0.8040434774 -1.0683857092
C 4.9910184590 -0.3880078076 -0.2423929036
C 3.9103142649 -0.1500448788 0.8246692120
C 6.2853327454 -0.8466143301 0.4142180090
F 2.1602612335 -0.0072837648 2.9420398448
C -4.9088624931 -1.3786571162 1.5644069948
O -5.8347302035 -1.4511205731 0.7712658036
O -5.0837307546 -1.6196552340 2.8667870611
H -0.6095336150 -1.7754903894 -2.5565520788
H -2.3283702372 -2.1957719150 -2.7236938796
H -1.5412448029 -1.1662026536 -3.9355672116
H -2.9915541219 0.1654223617 -2.3945592107
H -1.3181249107 0.6816656502 -2.2801278722
H -4.0724124644 -0.8016571876 -0.8693690922
H -0.2480164447 -0.6771204211 3.5578102290
H 3.2488843109 2.3815369284 0.0942736310
H 1.9894577689 1.9073851183 -1.0620255360
H 4.2206243917 2.2711100713 -2.1672940437
H 3.6236526955 0.6142011688 -2.3797475439
H 5.6548245510 1.5201543002 -0.4700870671
H 4.6237383759 -1.1738012722 -0.9192574576
H 3.6856633017 -1.0938586742 1.3289621835
H 6.6793372344 -0.0656583153 1.0752286015
H 7.0407698653 -1.0689402995 -0.3443479696
H 6.1181243151 -1.7463206437 1.0141522590
H -4.1775857726 -1.4950197190 3.3136009157
H 4.2963597343 0.5647268697 1.5714828033
