29
CONF15
C 2.3713170442 1.4650147345 -0.8146172230
C 2.6720221944 0.0870602338 -0.2958669114
C 1.8294983912 -0.6396063092 0.4490996559
C 0.4496447868 -0.2546501602 0.8938234068
C -0.6212952266 -0.8480358835 -0.0317089504
C -2.0661614633 -0.5050248636 0.3700958300
C -3.0488489225 -1.2383189200 -0.5529596956
C -2.3005192135 0.9832487113 0.2639692400
C -2.4952843676 1.8106670689 1.2856646044
O -2.2237569829 -0.9738272734 1.7153627392
C 4.0256239625 -0.4398469291 -0.6836186856
H 1.3685512215 1.8117357862 -0.5590870584
H 2.4701400230 1.4878825512 -1.9072842135
H 3.0949919823 2.1910252129 -0.4225561028
H 2.1567684189 -1.6366412620 0.7458911496
H 0.3318559748 0.8320422556 0.9340849350
H 0.2737593213 -0.6234275668 1.9095687204
H -0.5278294699 -1.9411597388 -0.0513315347
H -0.4524325101 -0.4939129807 -1.0560442390
H -2.8966658376 -2.3180010798 -0.4674797570
H -2.9026619571 -0.9431593458 -1.5968398559
H -4.0833562350 -1.0031541016 -0.2787246910
H -2.3052082764 1.3721688739 -0.7546649868
H -2.4705639608 1.4544500682 2.3112461947
H -2.6652890137 2.8701490773 1.1252032371
H -3.1379048950 -0.8061054254 1.9748618833
H 4.8206781912 0.2259392111 -0.3239711316
H 4.1288371035 -0.4882093612 -1.7752725287
H 4.2040882030 -1.4383025891 -0.2767417277
