45
CONF60
C 8.0752922757 0.2958344098 0.0043542981
C 6.9304272863 1.0936856561 -0.6174451653
C 5.5561282888 0.6150301182 -0.1491556257
C 4.4062165674 1.4060806986 -0.7747065355
C 3.0176436750 1.0342608155 -0.2426873551
C 2.5784853447 -0.3882413920 -0.5953957349
C 1.2102093810 -0.7711569051 -0.0247735389
C 0.0434205889 0.0371269365 -0.6188661353
C -1.2901440406 -0.3703416074 -0.0491079161
C -1.9794748567 -1.4471682221 -0.6222710222
N -3.1718538440 -1.7681216202 -0.0429834185
C -3.6776557305 -1.0917211832 1.0587030168
N -4.8601675258 -1.6448087025 1.3822356244
C -5.0041659910 -2.6234303207 0.4617551279
N -4.0217895642 -2.7603609013 -0.4324943777
N -3.0282704779 -0.0846525359 1.6355927915
C -1.8531551210 0.2583297899 1.0826769488
C -1.1673800652 1.4303832715 1.7351297047
C -1.6302529726 2.7597566138 1.1197288635
N -1.5780962819 -2.1986024886 -1.6599941904
H 8.0561402924 0.3741017630 1.0971539080
H 9.0499367801 0.6547994508 -0.3413063381
H 7.9968212579 -0.7660344273 -0.2544842331
H 6.9825718326 1.0223477650 -1.7121674445
H 7.0450679860 2.1577642742 -0.3713751901
H 5.4970128667 0.6970632432 0.9459135875
H 5.4553460804 -0.4521788310 -0.3854666078
H 4.4243402474 1.2720309376 -1.8657211634
H 4.5785636076 2.4753610037 -0.5926463309
H 2.2904717134 1.7519002440 -0.6420656888
H 3.0038499416 1.1531314025 0.8505382305
H 3.3177326483 -1.1031608919 -0.2158566732
H 2.5650283769 -0.5044449412 -1.6888109077
H 1.0266970087 -1.8383855803 -0.2016110843
H 1.2159187228 -0.6347075632 1.0649802351
H 0.1968433732 1.1033283274 -0.4429833504
H 0.0427799979 -0.0757515874 -1.7108343389
H -5.8664471819 -3.2792026886 0.4306173197
H -0.0806401829 1.3399328330 1.6558470377
H -1.3943528453 2.8066855488 0.0516768294
H -1.1385056458 3.6012332251 1.6163294696
H -0.7550947566 -1.9503829722 -2.1813852889
H -2.2113436424 -2.8751529141 -2.0566109434
H -1.4222934735 1.4154318235 2.7985878925
H -2.7121436454 2.8755887917 1.2337798835
