73
CONF373
C 0.4434177046 2.4946521161 -2.2100842243
C -0.6975334734 2.5915622938 -1.2220082275
O -1.9233578698 2.5257761655 -1.9948537394
C -3.1076080454 2.5322613133 -1.2141322870
O -3.1777264549 1.4407528509 -0.3150339201
C -3.5250193861 0.1870115836 -0.9127874304
C -4.9998555298 -0.1109157923 -0.6705657145
O -5.7635509094 0.8447799574 -1.4012840994
C -5.3553196515 -1.5394124241 -1.0793512840
O -6.7296799410 -1.8096962327 -0.7981105330
C -4.4185788515 -2.5275217098 -0.3818157779
C -4.6112469800 -3.9685645382 -0.8201210155
O -4.4484478096 -4.1414753466 -2.2270608720
O -3.0609992489 -2.1796781702 -0.7163553791
C -2.6847728319 -0.8988339422 -0.2462892395
O -1.3430368088 -0.6943594239 -0.6258139764
C -0.3548327961 -1.2821861321 0.1115935998
C -0.5986309746 -2.2266325870 1.1089037956
C 0.4881811888 -2.7451411478 1.8046953327
O 0.2641679449 -3.6761199956 2.7439069187
C 1.8168691714 -2.3301100414 1.5169371668
C 2.9446280963 -2.9601851929 2.1491655290
O 2.8216303181 -3.8468223792 3.0177124622
C 4.3024917523 -2.5217608441 1.6683724326
C 4.2662112360 -1.0738054155 1.1978800216
O 3.2415199661 -0.9176563191 0.1637821683
C 2.0065046943 -1.3643587424 0.4967904093
C 0.9355168921 -0.8467574608 -0.2080036063
C 5.5643699286 -0.5911761084 0.6253963283
C 6.0825389048 -1.1472003538 -0.5470965459
C 7.2962050839 -0.7138538377 -1.0641168819
C 8.0158648096 0.2826929742 -0.3984497472
O 9.2162893947 0.7456645615 -0.8529071983
C 7.5120855029 0.8453469532 0.7743549013
C 6.2899739927 0.4102885948 1.2720955800
C -3.1957584641 3.8082657801 -0.3760776105
O -3.3938015855 4.9437086518 -1.2257930520
C -1.9287351252 3.9719323162 0.4653161589
O -1.9460466891 5.1973739331 1.2019822805
C -0.6853931641 3.8895739271 -0.4170913950
O 0.5009071891 3.9021947394 0.3777265390
H 1.3993989573 2.5124836507 -1.6810794197
H 0.4132111497 3.3354812794 -2.9109174591
H -0.6726559309 1.7459193738 -0.5222490593
H -3.9264802706 2.4967273892 -1.9410069800
H -3.3037314479 0.1913076662 -1.9887194948
H -5.1927891632 -0.0027421930 0.4126888129
H -5.2443418294 -1.6468086844 -2.1639842914
H -6.8586914239 -1.7572721192 0.1600650637
H -4.5613304196 -2.4682948972 0.7122167584
H -5.6313665833 -4.2787148523 -0.5781699390
H -3.9102190595 -4.6029000831 -0.2591597217
H -3.5387950399 -3.8998504740 -2.4443844555
H -2.7871564358 -0.8380504908 0.8509862645
H -1.5892848069 -2.5989819740 1.3326193731
H 1.1640597204 -3.9486500125 3.0808666626
H 4.6018068343 -3.1813530869 0.8417501633
H 3.9710275799 -0.4291110172 2.0374422708
H 5.5301768205 -1.9215142904 -1.0713949159
H 7.6903550763 -1.1462336562 -1.9801813392
H 9.4537596939 0.2850238567 -1.6689853399
H 8.0772339668 1.6220640710 1.2789714404
H 5.8959743722 0.8583078953 2.1801735366
H -4.0738646548 3.7584531265 0.2752742336
H -2.7811734159 4.8689997357 -1.9717784396
H -1.8833102237 3.1655980431 1.2069440096
H -2.2025592571 5.8898144659 0.5741831052
H -0.6769997170 4.7422234514 -1.1190756025
H 0.4089200015 4.6391122721 0.9976613799
H 0.3737167481 1.5611395745 -2.7759860465
H 5.0338544727 -2.6409290723 2.4724859722
H -6.6936115804 0.6005895457 -1.2957021536
H 1.0892087396 -0.0980010150 -0.9747466259
