53
CONF37
C -4.1456740846 -3.0603169875 -1.9055772079
O -3.6763953676 -1.8988081958 -1.1640404605
C -3.6613932244 -0.7486897162 -1.8390461338
O -3.9769945071 -0.6093463274 -2.9978565881
C -3.2419758363 0.4144127762 -0.9184750331
C -4.4418793580 0.7704777703 -0.0043235669
C -4.0927150971 0.1003236503 1.3021489216
C -2.7416574566 -0.2771033635 1.3369053806
C -2.1446510240 0.0596462763 0.0600566159
N -0.8928422108 0.2510356465 -0.1599867596
N -0.5692461553 0.7430832448 -1.3904082663
C -1.5952052686 1.2310854601 -2.3553972905
O -2.8042664169 1.5265703479 -1.6892746702
C 0.7418648681 0.8106957284 -1.7804774651
O 1.0960272047 1.4374340402 -2.7686986885
N 1.6703922522 0.1309229354 -0.9431549087
C 2.9084534845 0.7978669472 -0.6829037178
C 4.1177158828 0.2164873715 -1.0592155878
C 5.3097733489 0.8844879464 -0.8106569806
C 5.2604742686 2.1328185907 -0.2080525565
C 4.0662566593 2.7389685629 0.1482766256
C 2.8785766356 2.0556264451 -0.0848097142
O 6.4669008155 2.8463932691 -0.0216465396
C 7.1007310530 2.6438489854 1.1547363530
F 8.2068263927 3.3960414683 1.1582364285
F 7.4643262318 1.3537864706 1.3417044984
F 6.3480544295 2.9905546176 2.2243563577
C 1.4489325906 -1.2034922421 -0.5968029839
O 0.6463184873 -1.9274383295 -1.1500785373
O 2.2500479346 -1.5658712611 0.4148469287
C 2.1778159717 -2.9685905132 0.7756006877
C -2.1825995945 -0.8543589827 2.4743611155
C -2.9950387343 -1.0706665007 3.5808099038
C -4.3393664820 -0.6997825181 3.5232389192
C -4.9130304402 -0.1097407704 2.3987252693
Cl -5.3519129238 -0.9911684583 4.9289841477
H -5.1738541803 -2.8972884214 -2.2351661906
H -3.4962560082 -3.2341497704 -2.7657571973
H -4.0891516996 -3.8884199383 -1.2015342950
H -4.4646709803 1.8601836580 0.1139646425
H -5.4039905048 0.4529446285 -0.4145066631
H -1.2353219577 2.1609272269 -2.7958004675
H -1.7387397821 0.4705357305 -3.1352228735
H 4.1270946817 -0.7524130168 -1.5465102501
H 6.2626331746 0.4540613223 -1.0969923535
H 4.0673708228 3.7217468696 0.6057786629
H 1.9287858822 2.4989875637 0.1965884389
H 2.4309273833 -3.5913525178 -0.0852862629
H 1.1745500145 -3.2115093946 1.1323973510
H 2.9108109017 -3.0936112936 1.5711728420
H -1.1370556156 -1.1436242027 2.4959064566
H -2.5968283440 -1.5302923215 4.4779089570
H -5.9589494879 0.1760797101 2.3909544207
