47
CONF18
C -0.7863446276 0.4124776028 3.3930423737
C -1.2907624795 -0.2018198886 2.1063889733
C -2.7739193501 -0.3253692566 1.8609313998
C -1.9775621358 0.7626885376 1.1359947966
C -1.7823789471 0.6265553715 -0.3151541954
O -1.8981184581 -0.3831465079 -0.9729281420
O -1.3989214454 1.8339831679 -0.8436549171
C -1.1202860193 1.8342892606 -2.2660949888
C -1.8193060888 2.9808335470 -2.8392566223
N -2.3675916644 3.8778523318 -3.3159572187
C 0.3759138118 1.8581066411 -2.5177193972
C 1.1701476595 0.9612086271 -1.8015229112
C 2.5391022885 0.9037024317 -2.0306122425
C 3.0966631447 1.7585802594 -2.9871578970
C 2.3202116775 2.6533989516 -3.6942575008
C 0.9480043267 2.7051415161 -3.4610678183
F 4.4217746937 1.7073147352 -3.2019262662
O 3.4115784790 0.1112566414 -1.3378607559
C 2.9661496234 -1.0560331526 -0.7370337086
C 2.1425337372 -1.9633955323 -1.3973323618
C 1.8043877509 -3.1517550370 -0.7588711007
C 2.2922543632 -3.4378022487 0.5136522438
C 3.1252930989 -2.5245927287 1.1530982046
C 3.4618733180 -1.3252801631 0.5335540693
C -3.7763092764 0.0733764241 2.8514133269
C -4.9342531900 -0.5522787521 3.0711978797
Cl -5.4533035768 -1.9658236049 2.2042245205
Cl -6.0646283284 -0.0053161380 4.2760148236
C -0.4003130694 -1.2990713390 1.5722349543
H 0.2460337597 0.7522380652 3.2610624911
H -0.7976315898 -0.3343907928 4.1943153614
H -1.3797054763 1.2696698999 3.7181535450
H -3.0491319673 -1.1512599417 1.2123609003
H -2.0823009866 1.7826809737 1.4893943454
H -1.5518166266 0.9175645509 -2.6921910395
H 0.7311894930 0.3005071097 -1.0631784175
H 2.7958285798 3.3037775206 -4.4195908997
H 0.3351603069 3.4094946853 -4.0123871218
H 1.7770984307 -1.7441954804 -2.3945290260
H 1.1611163382 -3.8620689920 -1.2679504068
H 2.0265330110 -4.3693461650 1.0014604711
H 3.5142288752 -2.7412800683 2.1427818775
H 4.1113362072 -0.6002196880 1.0115004336
H -3.5815552072 0.9463518229 3.4658693528
H -0.2916289275 -2.0812210212 2.3310744394
H 0.6019007599 -0.9125957086 1.3530963236
H -0.7985439999 -1.7547883510 0.6650479402
