21
CONF60
C -1.3734059656 -0.4089595957 0.8233604498
C -2.7441754856 -0.4939302459 0.1618195189
O -3.6461829215 -0.9151267237 1.1882384500
C -0.3159035709 0.0784856715 -0.1349882976
C 1.1127328832 0.0699527567 0.4741685879
C 2.2736511033 0.7653135814 -0.3187454345
C 2.5120027931 0.3407056949 -1.8001286420
F 1.5435289541 0.8113528073 -2.5941664001
F 3.6808279024 0.8546424550 -2.2115470648
F 2.5685978458 -0.9931610543 -1.9102668444
F 2.0801133010 2.1028260468 -0.3031969449
F 3.4138753655 0.4870259506 0.3623039535
F 1.0652623786 0.7068503693 1.6753861507
F 1.4689226082 -1.2204546308 0.6934051069
F -0.5847545103 1.3561547501 -0.5536519745
F -0.2782211310 -0.7122736513 -1.2566577683
H -1.0798040820 -1.3948658004 1.1975508088
H -1.4168057065 0.2792714126 1.6720756710
H -3.0323948685 0.4880174426 -0.2381975879
H -2.7225149971 -1.2167767033 -0.6644531085
H -4.5253516952 -0.9850503433 0.7998811549
