35
CONF5
C 4.2359215481 -1.6808639470 -0.5136078339
C 3.4991505528 -1.2970654744 0.7232220990
N 2.5760298602 -0.3240410456 0.5995786155
C 1.9133266249 -0.0211466094 1.7174377011
N 2.1048169248 -0.5886139871 2.9169550160
C 3.0479934644 -1.5268726724 2.9165951267
N 3.7770376739 -1.9302329705 1.8597337630
O 3.3416918085 -2.1650231122 4.0432246240
C 2.6050733010 -1.7999233523 5.2379304730
N 0.9351669100 0.9498154990 1.6854772720
C 0.4298642775 1.7039788866 0.6217614167
O -0.5376295306 2.4282165217 0.7852046451
N 1.1124276890 1.5660461385 -0.5680829028
S 0.4890180038 2.1616773933 -2.0326316244
O 0.3465486023 3.6150557909 -1.9357005183
O 1.3716418791 1.5825514441 -3.0506538549
C -1.1591719344 1.4559925803 -2.1572549993
C -2.2245195917 2.3488227723 -2.2610554120
C -3.5196710529 1.8680625182 -2.4007025734
C -3.7497754503 0.4960141509 -2.4270733617
C -2.6928503128 -0.4009664789 -2.3147550131
C -1.3945338578 0.0777849292 -2.1824285626
Cl -0.1017164937 -1.0895242505 -2.0306161680
H 5.0422479075 -2.3770407717 -0.2858024057
H 4.6318497660 -0.7874812619 -1.0048317333
H 3.5375031585 -2.1507504031 -1.2155009290
H 3.0119558212 -2.4394337526 6.0197782714
H 2.7688134827 -0.7467171922 5.4759819752
H 1.5390727697 -1.9917999654 5.0978041342
H -2.0269911426 3.4135781035 -2.2278195791
H -4.3449578532 2.5663408178 -2.4828476113
H -4.7590283211 0.1122263622 -2.5319339329
H -2.8684850416 -1.4705609002 -2.3292931667
H 1.8197126621 0.8102522110 -0.6140873816
H 0.4492797579 1.1066493913 2.5597836878
