44
CONF4
C -0.6504715183 2.1697934277 2.6919105672
C -1.4448421265 0.8871288782 2.4904411925
N -1.7668280691 0.6465832277 1.0620832605
C -2.9671209905 1.0948710079 0.6326902371
C -3.4168525462 1.0245651917 -0.6554456277
C -2.5782780023 0.4555396023 -1.6735170358
O -2.9222205039 0.3592235622 -2.8717565472
C -1.2668302055 -0.0100740895 -1.2179797472
C -0.4062866500 -0.5768121143 -2.1628567319
C 0.8178181106 -1.0507170819 -1.7815552236
C 1.2924707626 -0.9618719550 -0.4555215901
C 0.4124933560 -0.3748778730 0.4647223899
C -0.8735940450 0.0877727518 0.1412538098
F 0.8963076150 -0.2342531398 1.7232886277
N 2.5471772374 -1.3743431287 -0.0358019904
C 2.6442710386 -2.4459598889 0.9634820124
C 3.9461908072 -2.2937260975 1.7470711350
N 5.1315620982 -2.2191002481 0.8894359784
C 4.9852555342 -1.1886817699 -0.1469763516
C 3.6868668473 -1.3462994914 -0.9536963279
C 6.1950325022 -1.2125747757 -1.0696785288
F 1.5946295738 -1.6617298541 -2.7015401867
C -4.7843998083 1.5585100359 -0.9359254361
O -5.4832346698 2.0411954969 -0.0693836909
O -5.1757893758 1.4640651024 -2.2090419113
H -0.4462055081 2.3106971356 3.7572402204
H 0.3051963576 2.1377986192 2.1643235075
H -1.2189653136 3.0333298574 2.3340145216
H -2.4068512592 0.9546578973 3.0045822899
H -0.9267481720 0.0187040007 2.8931897611
H -3.6151563271 1.5362898938 1.3840028612
H -0.7486737333 -0.6684920332 -3.1872423459
H 2.6279764636 -3.4289252550 0.4557795471
H 1.7831544929 -2.4052072309 1.6347206401
H 4.0602694946 -3.1335980434 2.4420898544
H 3.8956908385 -1.3724440558 2.3424763362
H 5.2710430169 -3.1185524045 0.4332357850
H 4.9401496331 -0.2203674749 0.3733877269
H 3.7520682464 -2.2697898055 -1.5561596306
H 3.5692965510 -0.5022185638 -1.6403743583
H 6.2610138193 -2.1694092364 -1.6013259716
H 7.1127763133 -1.0794463096 -0.4918760521
H 6.1331271533 -0.4178504105 -1.8190424294
H -4.4318515317 1.0365940010 -2.7244474261
