45
CONF115
C 5.9291562834 -3.3889564005 1.0265197841
C 4.8128679591 -2.9736773152 1.6461529490
C 3.9712911888 -1.8599268800 1.2382339518
C 2.8426247629 -1.5407312212 1.9357527361
N 1.9352568557 -0.6116002264 1.4536528286
C 1.9573247084 0.0443969404 0.1495695208
C 1.0405625547 1.1577172926 0.7490009140
C 1.0687419668 0.3036130002 2.0426534213
O 0.6168063496 0.3971731845 3.1580225670
N -0.2108928220 1.4661562961 0.1383015809
C -1.2027822491 0.5493978206 0.0826065702
O -1.0617108086 -0.5898547989 0.5289020575
C -2.5132613487 0.9977307224 -0.5618224006
N -3.2715806265 -0.0332737294 -0.7681103850
O -4.4959984742 0.2733152547 -1.3211175827
C -5.1812164554 -0.9336047514 -1.6381637312
C -4.6134455035 -1.5903619347 -2.8808294752
O -3.7241884675 -1.1431380579 -3.5671421907
O -5.2581906037 -2.7443724227 -3.1207661605
C -2.8320796188 2.3972017854 -0.8761856219
C -4.0863363486 2.9203959876 -1.0768645125
S -3.9948487468 4.6276698447 -1.3744955333
C -2.2348023590 4.5255817756 -1.2224994127
N -1.7990674358 3.3208316844 -0.9695630447
N -1.4518097511 5.6282732630 -1.3072122630
S 3.6643170507 0.5321456448 -0.2736812028
C 4.3361520294 -1.1658168557 -0.0518512583
C 2.3765292148 -2.2207928582 3.1851141481
O 1.2580027555 -2.6737269830 3.3070484550
O 3.3138204950 -2.2515806657 4.1448722512
H 6.3412779873 -2.9075916200 0.1459752315
H 6.4645659684 -4.2528747721 1.4053690367
H 4.4819922139 -3.5331789675 2.5155185203
H 1.5052094857 -0.5607742273 -0.6415846166
H 1.5976173857 2.0862202732 0.9106197042
H -0.3954099048 2.3958476648 -0.2484624782
H -5.1542372927 -1.6363047559 -0.7980737352
H -6.2211283672 -0.6500902317 -1.8293021524
H -4.8977880349 -3.1421400692 -3.9324471306
H -5.0463644803 2.4334748083 -1.0475056908
H -1.8216603528 6.4435790705 -1.7708945692
H -0.4648628599 5.4630896560 -1.4456202270
H 4.0442979089 -1.7849814741 -0.9087089166
H 5.4208332634 -1.0373286332 -0.0994854869
H 2.9544160211 -2.7371315093 4.9093642488
