42
CONF3
C -5.4067835684 -0.0950950399 0.5822072074
N -3.9963766478 0.1036128322 0.9126525944
C -3.4289958909 1.1887849354 0.1089064729
C -1.9673348528 1.4332650050 0.4572698286
N -1.2021091058 0.1992407868 0.2652335208
C -1.7735458095 -0.9182014078 1.0357253289
C -3.2321585850 -1.1212214251 0.6659364929
C 0.1593928983 0.2852827596 0.0751309912
N 0.7215412139 1.4537958264 0.1263850906
C 2.0772447309 1.6674097287 -0.0778111410
C 3.0942935784 0.8357616463 0.4437391617
N 2.7395623690 -0.3786097628 1.0934081206
C 2.0842964750 -1.3121891304 0.2549493508
C 0.8371518303 -0.9835049275 -0.2965816734
C 0.2316453614 -1.8781656620 -1.1867444728
C 0.8187662985 -3.1017391874 -1.4822274091
C 2.0242654616 -3.4487192172 -0.8739958897
C 2.6618952067 -2.5535209446 -0.0231588276
C 4.4296479217 1.2218766185 0.3501977421
C 4.7986204943 2.4216105335 -0.2521108813
C 3.7941677455 3.2198209009 -0.7824932160
Cl 4.2295581829 4.7393092222 -1.5706904542
C 2.4567091875 2.8697287960 -0.6968948115
H -5.9669539805 0.8226794582 0.7895864883
H -5.8202067839 -0.9004745279 1.1983234082
H -5.5577766361 -0.3600917214 -0.4816473628
H -3.5100618076 0.9660524191 -0.9747460870
H -3.9939799148 2.1079444680 0.3027101087
H -1.8774566812 1.7829655093 1.4981504985
H -1.5586546078 2.2082040764 -0.1935105323
H -1.2110865987 -1.8324748167 0.8457079281
H -1.6981584202 -0.6860706316 2.1107332354
H -3.6441554350 -1.9297697649 1.2808697371
H -3.3003127905 -1.4328517632 -0.3966271634
H 3.5501642471 -0.7970652712 1.5342544397
H -0.7205855762 -1.6064314331 -1.6316801271
H 0.3344240036 -3.7848909543 -2.1717310489
H 2.4830742254 -4.4107656087 -1.0797533429
H 3.6190666658 -2.8060851810 0.4243760000
H 5.1991045228 0.5722895882 0.7585084462
H 5.8398083268 2.7149903269 -0.3125608633
H 1.6822918458 3.5233121317 -1.0819451272
