44
CONF14
C 5.5697496257 1.0236894514 -1.0272658515
C 4.1022555910 0.7959376410 -1.1670837599
N 3.2918249023 1.5647348373 -0.4219572339
C 1.9838550520 1.3537115390 -0.5999121124
N 1.4698510387 0.4531810667 -1.4534979728
C 2.3685392105 -0.2610709480 -2.1267717496
N 3.6976970917 -0.1388979372 -2.0330759241
O 1.9602538887 -1.1859219965 -2.9875730296
C 0.5303714915 -1.3755391528 -3.1509476600
N 1.1250773605 2.1372665311 0.1624971754
C 1.7352136814 3.1983384841 0.9887695960
C -0.2617007619 1.9366696124 0.3523234300
O -0.8772076462 2.5560363293 1.2062852219
N -0.8674996822 1.0242722021 -0.4845387742
S -2.4269883496 0.4316802250 -0.1590963839
O -3.3800633464 1.5410209372 -0.2433914620
O -2.5574883529 -0.7138003935 -1.0716577510
C -2.4211862784 -0.1774903204 1.5330205809
C -3.0910910569 0.5754194037 2.4900517138
C -3.2082844591 0.0816338256 3.7858174109
C -2.6793495767 -1.1638220867 4.1062479460
C -2.0255815296 -1.9195523737 3.1374450849
C -1.8750027342 -1.4304796326 1.8396247509
C -1.0578441145 -2.2278711566 0.8734950479
O -0.0552018139 -1.8082164530 0.3309089760
O -1.5341140325 -3.4680893665 0.7437316865
C -0.7620962975 -4.3469237874 -0.1216058402
H 5.8192700441 1.2968215484 -0.0003692246
H 6.1311409228 0.1432279619 -1.3413539881
H 5.8574036880 1.8628855566 -1.6726450266
H 0.0834028986 -1.6926442194 -2.2054708104
H 0.4383996050 -2.1607229724 -3.8998360636
H 0.0644611194 -0.4521935791 -3.5045363924
H 2.4557316779 3.7487191130 0.3853194294
H 2.2438914591 2.7686097056 1.8560875998
H 0.9416474958 3.8617330229 1.3225583310
H -3.5238600370 1.5305881613 2.2194389438
H -3.7236908314 0.6695700090 4.5374621162
H -2.7783843966 -1.5552404228 5.1131141587
H -1.6117824045 -2.8907063711 3.3868063270
H -0.7351379562 -3.9370551171 -1.1336274408
H 0.2523588064 -4.4540832237 0.2681093873
H -1.2889790951 -5.2992620125 -0.1029161149
H -0.2417057125 0.4272048721 -1.0539686408
