36
CONF49
C 0.0789138429 -1.4665363373 -4.8514486495
C 1.1383735411 -0.6495119735 -4.1465317417
O 0.6168184625 -0.1045949622 -2.8880609537
C 0.6694853215 -0.9040742912 -1.8197691888
O 1.1055980500 -2.0352450252 -1.8063652529
C 0.1349538828 -0.1544510460 -0.6033806744
S -0.2450702868 -1.4393255701 0.6842909993
P -1.2610957777 -0.2090019745 2.0808578895
S -2.5999967769 0.9966304449 1.3506391702
O -1.7451525177 -1.3300523856 3.1317371562
C -2.9006961241 -2.1646844996 2.8408467538
O -0.1735887317 0.5904015934 2.9444854343
C 0.8979202440 -0.1017202020 3.6486051185
C 1.1361192536 0.8770930547 -0.1385524510
C 0.8005129404 2.2306086907 -0.1798091980
C 1.7160277728 3.1911869150 0.2436802262
C 2.9712584419 2.8046658326 0.7049766860
C 3.3125665312 1.4527135005 0.7368735639
C 2.3997292251 0.4921177635 0.3174135554
H -0.1988479092 -2.3445579571 -4.2627856287
H -0.8136178648 -0.8634170172 -5.0392569558
H 0.4736314636 -1.8072498255 -5.8136994885
H 2.0330048907 -1.2362477639 -3.9247297443
H -3.0232732483 -2.8070063412 3.7124487947
H -2.7164957027 -2.7699982576 1.9492104841
H -3.7850041921 -1.5381126444 2.7005498687
H 1.5911370107 0.6787278742 3.9616343499
H 1.4019775457 -0.8030965498 2.9778640025
H 0.4903806618 -0.6251470958 4.5161830859
H -0.1807318916 2.5297707276 -0.5351981444
H 1.4441819590 4.2416959791 0.2166543799
H 3.6827398151 3.5530577383 1.0392956026
H 4.2914671451 1.1465231760 1.0922792982
H 1.4135273912 0.2383637632 -4.7183704822
H -0.8042982851 0.3359736917 -0.8767831982
H 2.6626845211 -0.5614387362 0.3545994958
