45
CONF54
C -3.7427714080 2.1740008480 -2.8512123456
C -3.5127793270 1.8229684738 -1.4166530996
C -3.3293535905 0.5799998601 -0.9567770067
C -3.1348203570 0.2788799591 0.4695906008
C -2.0709964464 -0.7366764330 0.9696174719
C -3.5678855375 -1.0061266357 1.1147812684
C -4.2397949693 -2.0879690005 0.3018807322
C -4.0865686488 -0.9122632013 2.5346268163
C -1.2149430393 -1.4564806450 0.0195536150
O -1.5076668585 -1.8619448335 -1.0888728319
O 0.0293316352 -1.6168521143 0.5677612178
C 1.0363623909 -2.2698526366 -0.2496915671
C 2.2562813205 -1.4021441223 -0.2575602570
C 2.2806737835 -0.2227263944 -0.9939933372
C 3.3895848815 0.6090512854 -1.0051434776
C 4.5374076933 0.3027027983 -0.2821404029
C 4.5088524794 -0.8732314321 0.4593588080
C 3.3983614278 -1.7041794083 0.4763864075
F 3.4415934983 -2.8241530600 1.2196454019
F 5.5855812468 -1.2230044680 1.1857258834
C 5.7457958562 1.2091493196 -0.2431315635
O 5.8390551562 1.9171789160 0.9913836806
C 4.8165040244 2.9070315286 1.1335037123
F 3.3395645842 1.7355302389 -1.7401367770
F 1.1955849784 0.1251736668 -1.7095671821
H -2.9707165778 2.8633930871 -3.2146194517
H -4.7031630123 2.6878649969 -2.9812908254
H -3.7379927300 1.2833063533 -3.4862107738
H -3.4996033043 2.6531119769 -0.7084242664
H -3.3346805552 -0.2499940612 -1.6579041857
H -3.1795792699 1.1550144107 1.1137596830
H -1.5613094879 -0.4442929065 1.8810422679
H -5.3132056309 -1.8764627608 0.2418205186
H -4.1149516431 -3.0564126194 0.7985439683
H -3.8438839109 -2.1705766777 -0.7091516952
H -3.5862727426 -0.1157928915 3.0928054914
H -3.9298844737 -1.8590224892 3.0634124722
H -5.1619803085 -0.7020880612 2.5239732771
H 1.2500086165 -3.2422259470 0.1963537585
H 0.6504446917 -2.4070002278 -1.2619885178
H 5.7121987578 1.9068567323 -1.0892601049
H 6.6542915081 0.6066474365 -0.3177039536
H 5.0074416504 3.4229210021 2.0764319258
H 4.8530445580 3.6288803716 0.3055002582
H 3.8168398945 2.4518094954 1.1706414857
