49
CONF64
C -3.1310297145 0.3224061278 4.6314444299
C -3.3676205017 -0.4310137676 3.3398527579
C -2.4104927414 -0.2231991441 2.1422595142
C -3.8689013745 0.2847663139 2.1221229570
C -4.7820682505 -0.4272263229 1.1418834884
C -4.1562674711 1.7707467696 2.1675004177
C -1.2579589783 0.6708757260 2.2026129064
O -1.1414932998 1.7454477295 2.7577220292
O -0.2063454425 0.1132338325 1.4977451320
C 0.9943242220 0.9187695698 1.4450830768
C 1.6257966449 0.9572176071 2.7709353793
N 2.1481178498 0.9749197176 3.8010107650
C 1.9142420350 0.3044892993 0.4177033999
C 2.4908913799 -0.9463351120 0.6443185074
C 3.3042374713 -1.5070267264 -0.3335723919
C 3.5511119426 -0.8361074537 -1.5286778064
C 2.9635457028 0.4093081748 -1.7402525359
C 2.1444372547 0.9870337502 -0.7720844712
O 3.2008482202 1.1672888614 -2.8654856768
C 3.4925401170 0.5218386499 -4.0615706110
C 2.6625486711 -0.4803479429 -4.5571281313
C 2.9550606205 -1.0441660738 -5.7952042050
C 4.0557065326 -0.6051569683 -6.5305710967
C 4.8683666214 0.4054691147 -6.0220896571
C 4.5927553666 0.9735142753 -4.7799933987
C -3.7700222846 -1.8695875158 3.6013635577
H -2.3904766424 -0.2088902259 5.2393013660
H -4.0670081752 0.3577286391 5.2008374116
H -2.7768281120 1.3405434598 4.4844119840
H -2.2321109477 -1.1130102584 1.5478887707
H -4.5167963592 -1.4742369711 0.9914361424
H -5.8173776137 -0.3814784802 1.4993969182
H -4.7400165773 0.0738671776 0.1689924687
H -4.0651219932 2.1975233816 1.1626566767
H -3.4933488224 2.3241837751 2.8289314632
H -5.1891755272 1.9221174238 2.5016997814
H 0.7379693382 1.9477355457 1.1703159838
H 2.3055834110 -1.4752387117 1.5739578344
H 3.7635128605 -2.4754997071 -0.1644989740
H 4.1963358070 -1.2730949222 -2.2826475791
H 1.6975791491 1.9582767307 -0.9588579606
H 1.8035095625 -0.8102587694 -3.9817738311
H 2.3125656018 -1.8250391723 -6.1898584273
H 4.2761636661 -1.0475139818 -7.4964870254
H 5.7258889041 0.7536748884 -6.5892265945
H 5.2166178502 1.7586784437 -4.3658822412
H -3.0367597059 -2.3432095791 4.2626861187
H -3.8401227004 -2.4693636269 2.6932395316
H -4.7429139585 -1.8946537367 4.1062208685
