42
CONF47
C 2.3855020922 2.0387639014 1.3658642022
C 1.9846353773 1.8251749609 -0.0933503989
C 2.8263574870 2.6841046975 -1.0391973696
C 2.1186270337 0.3697244221 -0.5048578887
O 1.2561222873 -0.4208672953 0.3515740463
C 1.1499097620 -1.7271989332 0.0328088691
O 1.7314144977 -2.2506076589 -0.8919781946
C 0.3017543062 -2.4611530381 1.0144743480
C 0.6697370654 -3.7765689736 1.3004926159
C 0.0071368365 -4.4963929987 2.2862458028
C -1.0258233216 -3.9010716577 3.0042684562
C -1.4087993077 -2.5961633438 2.7176178304
C -0.7644262534 -1.8753809616 1.7133280616
C -1.3113390777 -0.5224670172 1.3971011744
O -1.5558484875 0.3270493840 2.2229109662
O -1.5814512977 -0.4093393111 0.0809073860
C -2.1183064591 0.8705713179 -0.3369709393
C -2.3218838682 0.8277871903 -1.8414434689
C -1.0028082217 0.5939112363 -2.5773992425
C -2.9827055648 2.1334442699 -2.2889772992
H 1.7614942120 1.4472434955 2.0403580240
H 2.2837148487 3.0923700171 1.6434137633
H 3.4317214738 1.7489530253 1.5209778922
H 0.9288962886 2.1058569535 -0.2121476776
H 2.7232984954 3.7439136823 -0.7894688303
H 3.8883197697 2.4249872298 -0.9577420744
H 2.5248563004 2.5510957397 -2.0836580832
H 3.1499439725 0.0142439831 -0.3815252153
H 1.8261943048 0.2108099304 -1.5477613476
H 1.4944442748 -4.2123498940 0.7470456461
H 0.3053503946 -5.5168494244 2.5025573331
H -1.5392456920 -4.4548018191 3.7834252844
H -2.2225843703 -2.1246561133 3.2583702347
H -1.4108694535 1.6595094722 -0.0503536484
H -3.0584126066 1.0489355127 0.1970577553
H -3.0019471364 -0.0062277639 -2.0614288934
H -0.5298346934 -0.3397397674 -2.2612435884
H -0.3071339752 1.4188472111 -2.3790279865
H -1.1642557663 0.5454409139 -3.6586071165
H -3.9414283238 2.2960668255 -1.7859861839
H -3.1647114744 2.1220188990 -3.3674304539
H -2.3356153215 2.9910124883 -2.0702438865
