44
CONF40
C -4.0948502385 0.9887963921 1.1637075133
C -2.9140059544 0.0739556279 0.9571365224
C -3.2277220406 -1.4108547930 0.9286562832
O -2.1737256945 -1.9525389391 0.1121563059
C -1.6568363720 -0.9005692577 -0.7035450296
O -2.3871370618 0.2661596467 -0.3786114373
C -1.9034164479 -1.2529723146 -2.1845003852
N -3.3172547396 -1.4207491336 -2.4591344511
C -4.2351590273 -0.4649186957 -2.7073885119
N -5.4448326725 -1.0029058551 -2.8066000954
C -5.1996609295 -2.3278159322 -2.5951577752
N -3.9268804847 -2.6310282085 -2.3772967494
C -0.1585515487 -0.7415968698 -0.4344931087
C 0.5210644867 -1.7264182328 0.2900992625
C 1.8754966221 -1.6382010653 0.5740399530
C 2.5905467688 -0.5366746976 0.1183055292
C 1.9633439787 0.4576183616 -0.6263138197
C 0.6048216806 0.3383858191 -0.8927324816
Cl -0.0982865987 1.6396338572 -1.8551608020
O 3.9427556722 -0.5169721373 0.3751067144
C 4.5849602391 0.7022014096 0.5261260899
C 4.0777291173 1.6893203685 1.3670701868
C 4.7947872471 2.8663401419 1.5474595512
C 6.0098390596 3.0261800856 0.8897883024
C 6.5257992092 2.0397669026 0.0585775459
C 5.8005143988 0.8667847440 -0.1267781319
Cl 6.9188133371 4.5167046312 1.1204297542
H -3.7878078402 2.0358057493 1.0980660162
H -4.5203060610 0.8179319831 2.1571803157
H -4.8650560100 0.7921494145 0.4113617208
H -2.1177726354 0.2808620614 1.6881356987
H -3.1827285317 -1.8858556624 1.9119074105
H -4.2044396264 -1.5997093922 0.4599496541
H -1.5126235236 -0.4629329657 -2.8287079729
H -1.3899020903 -2.1892614419 -2.4127756415
H -3.9769210712 0.5801883020 -2.8134450869
H -5.9711005605 -3.0875920071 -2.6094026044
H -0.0426886030 -2.5762097973 0.6542357569
H 2.3793755193 -2.4092885910 1.1461330352
H 2.5210055540 1.3083381959 -0.9989516895
H 3.1335924314 1.5427229402 1.8809453168
H 4.4139851884 3.6430571069 2.2007384656
H 7.4752604394 2.1813405299 -0.4448087563
H 6.1759743929 0.0808219092 -0.7730307596
