41
CONF18
C 6.1710023530 -2.5476644572 -1.7235223862
C 5.1861627611 -1.8087614121 -2.6011363728
O 4.0289161490 -1.3585176485 -1.8240739721
C 3.0790757219 -2.2389918613 -1.5892036234
N 3.0758450205 -3.4642653933 -2.0462832183
C 2.0361925394 -4.2500554602 -1.7381290139
C 0.9479101152 -3.9125430111 -0.9810338641
C 0.9534116539 -2.5966413898 -0.4907610528
N 0.1093381915 -1.8962096476 0.2593114748
C 0.7274729682 -0.6965923913 0.3398818718
N 1.8935488769 -0.5433669065 -0.2719614646
N 2.0458059527 -1.7827312169 -0.8169932784
S 0.0694113662 0.6409307438 1.3583496325
O 0.6515434415 1.9013077774 0.9130255471
O 0.1636334245 0.1630119067 2.7378277981
N -1.6010218130 0.5984675853 0.9679284155
C -2.2087955574 1.6982153531 0.3448210047
C -3.2029150497 2.4598262055 1.0097352250
C -3.8085006754 3.5413170574 0.3618405427
C -3.4466438967 3.8892347502 -0.9282401114
C -2.4880618753 3.1410874834 -1.6007051333
C -1.8939846998 2.0544379056 -0.9763029794
Cl -0.7711459778 1.0898639024 -1.8977879618
C -3.6336683303 2.0933521861 2.3806093492
O -3.4199367105 1.0224748939 2.9250605422
O -4.3207200269 3.0822227407 2.9826912883
C -4.7892848518 2.7721787534 4.3138634680
F 2.1183473263 -5.4854747116 -2.2453765203
H 5.7459465560 -3.4843667096 -1.3562952054
H 6.4718583049 -1.9288967241 -0.8741627308
H 7.0633433937 -2.7847883705 -2.3109917510
H 5.6021841522 -0.8743671527 -2.9817017305
H 4.8311691621 -2.4224493677 -3.4327965010
H 0.1407661983 -4.5979025376 -0.7668661826
H -2.1128299366 0.3130536360 1.8094629636
H -4.5691056634 4.1044961177 0.8867132361
H -3.9170838626 4.7320488649 -1.4217047512
H -2.2089003318 3.3800975395 -2.6202763881
H -3.9442692091 2.5411251964 4.9667191309
H -5.3068292318 3.6694889485 4.6511436752
H -5.4691883523 1.9169869114 4.2873205300
