29
CONF26
C 2.7234413784 -1.9417922778 0.1627117072
N 1.8420252056 -2.0177363627 -0.9986716288
C 1.0142104548 -1.0412770246 -1.4115313785
O 0.3212887413 -1.0635151368 -2.4170797128
O 1.0446881047 0.0173166773 -0.5280602341
C 0.2041871763 1.0911823777 -0.8049538660
C 0.5920378135 2.0199438219 -1.7597283749
C -0.2060548970 3.1366922420 -1.9930259503
C -1.3817011592 3.3172809498 -1.2692604494
C -1.7556821064 2.3762272248 -0.3144304196
C -0.9717194983 1.2481362643 -0.0685787906
C -1.4125952022 0.2527909381 0.9665241585
O -1.5359746530 -1.0642064447 0.4097076218
C -1.0609972119 -2.0005999277 1.4022523328
C -0.7562906241 -1.1217157526 2.6153043618
O -0.4680016312 0.1529034072 2.0180849876
H 3.1833378998 -2.9216399356 0.3001686896
H 3.5139226890 -1.1959211314 0.0237232821
H 2.1589295154 -1.6905419707 1.0650508841
H 1.9201448148 -2.8070994936 -1.6194813899
H 1.5140229174 1.8617408155 -2.3096398237
H 0.0947486487 3.8643940037 -2.7398195811
H -2.0052060248 4.1872042978 -1.4465896271
H -2.6724230014 2.5094981915 0.2532094510
H -2.3929328238 0.5537850985 1.3776023895
H -0.1631133504 -2.4960343520 1.0159866170
H -1.8359076749 -2.7455339003 1.6081445258
H 0.1190027351 -1.4432004882 3.1822080670
H -1.6273890406 -1.0382813970 3.2801718599
