47
CONF100
C -3.9627478319 -2.3534881396 -0.7319172492
C -3.8162652284 -1.0496205932 0.0216732909
C -2.9716764737 -1.0286502450 1.2537717274
C -2.4209956734 -0.4301971628 -0.0538726513
C -2.1354992742 1.0083490333 -0.0406655856
O -2.7928703621 1.9042736918 0.4458826716
O -0.9140281566 1.2303940863 -0.6239717272
C -0.3961045246 2.5790366936 -0.5401129233
C -0.2750119614 2.9906889533 0.8665289877
N -0.1102726300 3.3276129534 1.9590862873
C 0.9641421442 2.5597725125 -1.1940233122
C 1.9144360281 1.6570175867 -0.7133374543
C 3.1629805618 1.5820727064 -1.3135316802
C 3.4416122785 2.4464211947 -2.3793321304
C 2.5147699871 3.3526980664 -2.8501231533
C 1.2536733190 3.4070661023 -2.2562966416
F 4.6606360953 2.3750275624 -2.9536531247
O 4.1654178160 0.7413038556 -0.9198788041
C 3.8253956486 -0.3295976369 -0.0879750048
C 4.3629349584 -0.3571250513 1.1905586566
C 4.0911756727 -1.4523763034 2.0089567285
C 3.2875331314 -2.4920462790 1.5484620077
C 2.7545854176 -2.4420753910 0.2608339805
C 3.0245539125 -1.3589899360 -0.5704761208
C -2.3108176100 -2.2301788348 1.8050360765
C -1.1133692339 -2.1891028418 2.3874238991
Cl -0.1893768848 -0.7208008805 2.5311855183
Cl -0.3340029434 -3.5932610384 3.0596161703
C -5.0457680465 -0.1718104554 -0.0227266913
H -4.2242095060 -2.1539526194 -1.7758516985
H -4.7655860833 -2.9519732749 -0.2874426426
H -3.0429619382 -2.9447689710 -0.7157529640
H -3.2349542822 -0.2634388104 1.9833803063
H -1.6693346459 -1.0309589817 -0.5543031613
H -1.0705235552 3.2784205203 -1.0462912449
H 1.6770751396 1.0027131628 0.1189559595
H 2.7781537369 3.9967203928 -3.6820020925
H 0.5088105661 4.1033653010 -2.6258305142
H 4.9826865956 0.4657500103 1.5306657946
H 4.5076752657 -1.4871454722 3.0105137084
H 3.0747483096 -3.3399722363 2.1909511694
H 2.1299222841 -3.2521328577 -0.1023497588
H 2.6218972574 -1.3073088222 -1.5770552888
H -2.8141726030 -3.1918755782 1.7526869210
H -5.2697565712 0.1167042326 -1.0552213781
H -4.9233744071 0.7329249313 0.5726042639
H -5.9011354135 -0.7354850148 0.3648510062
