47
CONF20
C 4.8980798686 -0.0231155498 1.6600294514
C 4.9657910543 -0.4082630007 0.1750699569
C 3.9605515879 0.3280993808 -0.6439704645
N 4.2782772239 1.4325872205 -1.3345680398
N 3.1434135017 1.8733882476 -1.8995958941
C 3.1779535866 3.0649982883 -2.7410659359
C 2.0776829638 1.0758831475 -1.6157768934
C 0.7037115987 1.4006761348 -2.0684147483
O 0.3269509869 2.5741455619 -2.1637562312
N -0.0697996532 0.3298702427 -2.3497083258
C -1.4959035738 0.4223997860 -2.6413603360
C -2.3357241340 -0.2106994795 -1.5557081067
C -3.3259465622 -1.1377442643 -1.8648154747
C -4.1147898190 -1.7057056330 -0.8626634169
C -3.9337816434 -1.3701962022 0.4808673500
C -2.9281427057 -0.4369666930 0.7807432336
C -2.1455682757 0.1324722768 -0.2137378742
C -4.7697785562 -1.9746104068 1.6109121461
C -3.8401733293 -2.7227374284 2.5862791309
C -5.8222300130 -2.9618711763 1.0931337769
C -5.4966632570 -0.8454648193 2.3662692965
C 2.5910954013 0.0670247894 -0.8011101247
Cl 1.7252127363 -1.2422939574 -0.0649346115
H 5.0952230687 1.0453690951 1.7891277181
H 3.9093611539 -0.2406080407 2.0753030370
H 5.6413654013 -0.5836629899 2.2344315842
H 5.9619468300 -0.1914921776 -0.2226461905
H 4.7963758670 -1.4851105662 0.0651938367
H 2.5651227556 2.9093169201 -3.6299797949
H 4.2169061653 3.2271661599 -3.0295872854
H 2.8023132092 3.9328026341 -2.1931237456
H -1.7326108277 1.4860689622 -2.7416942570
H -1.7039059933 -0.0602283502 -3.6024481507
H -3.4878082341 -1.4259734499 -2.9004617258
H -6.1631327722 -0.2972172419 1.6919387373
H -2.7511293902 -0.1456698829 1.8115243513
H -1.3730636312 0.8486104146 0.0554096317
H -3.3092898017 -3.5305997708 2.0713661565
H -4.4293596989 -3.1597921998 3.3999764998
H -3.0975634875 -2.0518107243 3.0282554565
H -6.3891891227 -3.3593732384 1.9407809347
H -6.5302156183 -2.4758727000 0.4136632217
H -5.3629363516 -3.8073633544 0.5703942149
H -6.0983145144 -1.2692379582 3.1778937461
H -4.7906129406 -0.1341931515 2.8045610488
H -4.8731951344 -2.4244776910 -1.1504744749
H 0.3274217524 -0.5944967280 -2.2637851911
