55
CONF159
C 5.0240020972 -3.9582677758 -1.1061737912
O 5.3027607846 -2.5524057665 -1.0331026715
C 4.2746836825 -1.7214160973 -0.7088892993
C 4.5895018956 -0.3589597144 -0.6455631026
C 3.6080966630 0.5623666714 -0.3175252089
C 2.2935806332 0.1586104536 -0.0524408235
C 1.9965064507 -1.2032644611 -0.1129844006
C 2.9699391836 -2.1445712069 -0.4373040697
C 1.2579689418 1.2107966130 0.2409913820
S 0.2893929920 0.7137532153 1.7469488577
C -1.1956275885 1.6873953663 1.5828230745
C -1.4829680657 2.6449540012 2.5588575408
C -2.6828918647 3.3466442756 2.5336382746
C -3.5939815651 3.1161185440 1.5062080838
C -3.3112274572 2.1807874244 0.5182464603
C -2.1248465549 1.4435700232 0.5535631507
N -1.8889197885 0.4626339233 -0.4477894165
C -2.9093179727 -0.5758596011 -0.6875017436
C -2.6606081324 -1.8324962744 0.1407101829
N -2.8046663436 -1.6177605848 1.5813652605
C -2.2201585903 -2.7420820494 2.3149841607
C -4.2057859657 -1.4467528299 1.9678598656
C -0.7293338180 0.3814930066 -1.1666793355
O -0.5233349639 -0.5093030169 -1.9874233153
C 0.2872642092 1.4985033314 -0.9275498530
O 1.0421849952 1.6240837573 -2.1482007782
C 1.6464822870 2.8201789143 -2.3705856237
C 2.4541588818 2.7742455483 -3.6292331204
O 1.5436152561 3.7710156149 -1.6244939360
H 4.6841860573 -4.3418293789 -0.1371860595
H 5.9677651793 -4.4316434806 -1.3776459070
H 4.2708546978 -4.1696134799 -1.8740092775
H 5.6069302793 -0.0413317287 -0.8500839896
H 3.8645895699 1.6176393137 -0.2691075323
H 0.9890533186 -1.5474398847 0.0977767136
H 2.7003345255 -3.1929299535 -0.4714941548
H 1.7679244781 2.1525789410 0.4633732818
H -0.7583306035 2.8270442097 3.3455569301
H -2.8970319164 4.0791185434 3.3048434945
H -4.5232507095 3.6746851485 1.4620443013
H -4.0145039032 2.0217171666 -0.2924938250
H -2.8836294779 -0.8372666331 -1.7477258216
H -3.8890080198 -0.1475523515 -0.4724947774
H -3.3463859387 -2.6234758821 -0.2261245505
H -1.6375509304 -2.1740496303 -0.0550356254
H -2.7204630516 -3.7034057657 2.0879741511
H -2.3024715260 -2.5621314976 3.3918981267
H -1.1591771066 -2.8385456639 2.0604118930
H -4.6379243788 -0.5630808062 1.4885500656
H -4.8261055561 -2.3243513685 1.7010996856
H -4.2678891021 -1.2996405494 3.0508189461
H -0.2263774090 2.4441359031 -0.7330570497
H 3.3459723662 2.1648412026 -3.4456160816
H 1.8893617366 2.3002413483 -4.4350746100
H 2.7566553294 3.7822762846 -3.9099545500
