33
CONF7
C -1.5744272581 1.1712199221 2.4328098035
C -1.9960253578 0.3668405613 1.2420300156
C -3.1788876824 -0.3684561261 1.2197804347
C -3.4822102227 -1.0797219825 0.0588614396
C -4.7256937101 -1.9047924064 -0.0691894612
N -2.6731890419 -1.0500166722 -1.0058676495
C -1.5630295059 -0.3113452832 -0.8758909174
N -0.7182503939 -0.3292333308 -1.9753548174
S 0.4205376478 0.9053919966 -2.3622568924
O 0.7997121494 0.5376453977 -3.7321340284
O -0.1394301012 2.2185184117 -2.0453402601
C 1.7899855654 0.5908257100 -1.2776919985
C 1.9380932409 1.3394009944 -0.1132578227
C 3.0245795131 1.1056731430 0.7106744157
C 3.9726049001 0.1217126493 0.3829470189
N 5.0865854493 -0.0719073271 1.1779139854
C 3.8048401838 -0.6193291542 -0.7995586606
C 2.7212326444 -0.3848053864 -1.6266286986
N -1.1708810224 0.3907981809 0.1889366838
H -2.2645627220 1.0493365939 3.2698461726
H -1.5259952946 2.2309250764 2.1617053503
H -0.5688562384 0.8726922865 2.7448197494
H -3.8424687987 -0.3884309122 2.0765162015
H -4.4626154143 -2.9400127044 -0.3065141851
H -5.3344769070 -1.5314927742 -0.8984777733
H -5.3191156379 -1.8853961641 0.8469606570
H -1.0814852929 -0.7899321487 -2.8014362128
H 1.1985901180 2.0904688617 0.1355897019
H 3.1521001850 1.6937369202 1.6150112043
H 5.0169029678 0.2428610256 2.1319719325
H 5.5566172994 -0.9575512313 1.0834106125
H 4.5397539835 -1.3711481357 -1.0720518153
H 2.5994643520 -0.9444758965 -2.5474123807
