35
CONF4
C -0.4189599343 -0.3757582215 -2.8982212232
C -0.2076057511 -0.7282440193 -1.4251531236
C 0.3670171541 0.4963329536 -0.6939047276
N 0.7391783600 0.1961424179 0.6968086491
C 1.9823167621 -0.5520181479 0.8249392306
C 3.2339671693 0.2704728904 0.5643777186
O 4.2951410651 -0.2105671277 0.2044763909
N 3.1067963826 1.6338118804 0.7911683808
C 1.9841250803 2.2757709075 1.2964925918
O 1.9954149419 3.4728872540 1.5275378718
C 0.7889862841 1.3741968125 1.5520723754
N -1.4323299057 -1.3130313488 -0.8430633427
C -1.2610271455 -2.0356715488 0.4090640682
C -1.3364995265 -1.2020992061 1.6733761084
O -0.8689369513 -1.5512324069 2.7465323004
N -2.1242290543 -0.0561551697 1.5838086182
C -2.7462068511 0.4165460536 0.4444853065
O -3.4052108757 1.4464908425 0.4657713080
C -2.6111905441 -0.4618108202 -0.7889804605
H 0.5470745318 -0.1714892454 -3.3681451723
H -1.0385460778 0.5185796688 -3.0210780190
H -0.8944911653 -1.2072428770 -3.4247320442
H 0.5307759064 -1.5390580252 -1.3883771478
H -0.3930218260 1.2880916303 -0.6780640524
H 1.2148573279 0.8918840280 -1.2831971615
H 2.0654199750 -0.9468470333 1.8490851627
H 2.0081320830 -1.4090431120 0.1480423774
H 3.9269981581 2.2076253375 0.6166370838
H 0.8453876061 1.0577110945 2.6055224608
H -0.1145025493 1.9788608634 1.4372963264
H -0.3099644327 -2.5741524921 0.4191689075
H -2.0635098076 -2.7877877108 0.5059727424
H -2.2148901717 0.5046997963 2.4260089147
H -3.5145556426 -1.0943906363 -0.7947565957
H -2.6759097762 0.1864944215 -1.6648775211
