70
CONF99
C -2.9960822905 -0.0860292247 -1.0723357866
C -4.4845384263 0.0676789481 -0.6944995874
C -5.0234341562 -1.2740697931 -0.3186751917
C -6.2619966005 -1.8655386110 -0.3328800251
N -6.1607509898 -3.1508677175 0.1927407398
C -4.8551539079 -3.4026942144 0.5459510027
C -4.2058605040 -4.5083151606 1.0997070554
C -2.8340763890 -4.3866473527 1.3079840609
C -2.1106878509 -3.2191009023 0.9779339038
C -2.7553122221 -2.1140427947 0.4303041882
C -4.1307854087 -2.2336079964 0.2291863849
C -2.1271405162 -0.7996228024 0.0065188083
C -0.7140859358 -1.0067909097 -0.5535807762
C -0.1020455707 0.3064160849 -1.0632076663
C -1.0694872780 0.9780993266 -2.0667192484
N -2.4092566990 1.1889080407 -1.5162338347
C -2.4364277383 2.2999329612 -0.5492125874
C -2.4249757017 3.6209433662 -1.2613383718
C -1.5673455532 4.6070679550 -1.0100772793
C 1.2234886967 0.0101546030 -1.7385177378
O 1.3076588581 -0.8576377370 -2.6103641997
N 2.3476698942 0.6716794484 -1.2988439230
C 3.6554091432 0.2663324528 -1.8622871948
C 4.1908259948 -1.0745405027 -1.3481449814
C 4.9361890946 -1.0320515024 -0.0156704339
N 4.1331437772 -0.5885970865 1.1351164966
C 4.9900769353 -0.4382874667 2.3165045104
C 3.0290053001 -1.5068851527 1.4281846027
C 2.2497234816 1.9149725196 -0.5669953429
O 1.5059952461 2.8186401649 -0.9491648194
N 3.0596054504 1.9613328221 0.4966150143
C 3.1131936126 3.1378777335 1.3560394419
C 1.9991642513 3.1412372901 2.4012152945
H -2.9703174354 -0.7410776372 -1.9590315505
H -4.5928271321 0.7458432239 0.1613212742
H -5.0228791291 0.5194097281 -1.5348126962
H -7.2195471630 -1.4916970557 -0.6682451421
H -6.9286677876 -3.7960043917 0.2798554691
H -4.7342825156 -5.4213989474 1.3546179959
H -2.2952937944 -5.2268469685 1.7361174749
H -1.0402186761 -3.2050652227 1.1582335701
H -2.0703574525 -0.1384142136 0.8867191851
H -0.0623609158 -1.4374188838 0.2142854441
H -0.7646022403 -1.7263244657 -1.3801180533
H 0.0492422860 0.9749258198 -0.2117795442
H -0.6603625280 1.9427440918 -2.3838007046
H -1.1521712340 0.3313727341 -2.9503167559
H -3.3663090457 2.2359815621 0.0255669036
H -1.6117190821 2.2707565920 0.1833756880
H -3.1974871551 3.7458831435 -2.0205107758
H -0.7770404229 4.4893985472 -0.2722796962
H -1.6221258726 5.5556806441 -1.5359147703
H 4.3673676602 1.0685894368 -1.6475676418
H 3.5329165573 0.2067802270 -2.9485358728
H 3.3827804012 -1.8115757349 -1.3335123314
H 4.9115264225 -1.4374643341 -2.0907862763
H 5.7798158780 -0.3352628099 -0.1078379120
H 5.3643735973 -2.0337314925 0.1813931871
H 5.7871454182 0.2822066161 2.1055424632
H 5.4548916508 -1.3943222727 2.6166155922
H 4.3952598082 -0.0650467847 3.1565964761
H 2.4659443644 -1.1323089039 2.2890842864
H 2.3472618784 -1.5657488736 0.5765315869
H 3.3887289585 -2.5251520983 1.6609757036
H 3.4913263142 1.0604123642 0.8029054993
H 4.0935114113 3.1465561552 1.8442691015
H 3.0440874777 4.0307536860 0.7262931685
H 2.0707034166 4.0348042312 3.0291560594
H 2.0710833004 2.2593809903 3.0456792578
H 1.0188952759 3.1374341959 1.9146625179
