75
CONF95
C 6.9199782334 0.8698717218 -3.0701086446
C 7.0667574956 -0.0597453888 -1.8636285934
C 8.5113911646 -0.0527542829 -1.3582727476
C 6.0571277311 0.2428370414 -0.7214521961
C 6.2011444320 1.6526065067 -0.1328374713
C 4.6403173075 0.0150870442 -1.1665653609
C 3.8878017046 -1.0270905581 -0.8184404507
C 2.4755160022 -1.2785007902 -1.2695902335
C 2.4411543467 -2.5547627126 -2.1234766259
C 1.5523114648 -1.3357888015 -0.0363240037
C 1.6407203252 -0.0292869807 0.8068883844
C 0.2436759843 0.2034194472 1.4324890008
C -0.4975797624 -1.1014705232 1.1555273138
C -1.9898500833 -1.1831716598 1.2534689956
C -2.4809803130 -2.5836031683 0.9928330256
C -1.9491845010 -3.1362248117 -0.3423917344
C -0.4278345395 -2.9918824662 -0.4747059197
C 0.0280803508 -1.5441170629 -0.2475944971
C -0.5047652242 -0.6189929365 -1.3495647784
C -2.7679145138 -0.1139082710 1.5234180475
C -4.2105556968 -0.0926827305 1.5952013984
C -4.9963089584 0.9800338628 1.8415611770
C -4.4936439296 2.3842596603 2.0258953466
C -4.9919485656 3.2492575240 0.8525183709
O -4.3905989371 2.8169221727 -0.3718169946
C -6.5211883146 3.2119364986 0.7787993224
C -7.0501759090 1.7785982545 0.6817271082
C -6.5035895376 0.8631155791 1.8020683271
C -7.1557314762 1.1722280402 3.1588737154
H 7.5988918417 0.5608867138 -3.8714517007
H 5.9033925720 0.8583707059 -3.4743163310
H 7.1727762820 1.9031833130 -2.8089580500
H 6.8330228805 -1.0805454846 -2.1972487875
H 8.6292223404 -0.6863973910 -0.4725640451
H 9.1906568491 -0.4254433154 -2.1319299262
H 8.8398999997 0.9588904462 -1.0972171892
H 6.2713296870 -0.4827418380 0.0761224407
H 7.2159473456 1.8412039811 0.2293226111
H 5.9560761543 2.4191107614 -0.8754643301
H 5.5135572410 1.7790308750 0.7087935819
H 4.2089296828 0.7764650095 -1.8199066223
H 4.3110815486 -1.7879748053 -0.1563970462
H 2.1671501194 -0.4296057824 -1.8956079216
H 1.4793940182 -2.6822001871 -2.6255235549
H 2.6225084923 -3.4424411532 -1.5066102323
H 3.2186122275 -2.5126676170 -2.8921082032
H 1.8976524577 -2.1777785437 0.5848225949
H 2.4213613208 -0.1141603261 1.5677976007
H 1.9337035295 0.8108133502 0.1681358170
H 0.2883858815 0.4322115526 2.5013937696
H -0.2584691996 1.0449007568 0.9440068370
H -0.0969190380 -1.8590861279 1.8527584411
H -2.1095368057 -3.2286572193 1.8041924184
H -3.5709895602 -2.6512567320 1.0131609904
H -2.4437376357 -2.6126378181 -1.1690908070
H -2.2277698248 -4.1925189381 -0.4332554878
H -0.1188023794 -3.3588517332 -1.4582240326
H 0.0631686857 -3.6334300434 0.2717547067
H -1.5910457313 -0.5091028335 -1.2895381585
H -0.2580586362 -1.0145396261 -2.3404009162
H -0.0752791805 0.3843166978 -1.2786121649
H -2.2587584850 0.8293859037 1.6960345027
H -4.7253213233 -1.0378958135 1.4326266153
H -3.4042526673 2.4375259374 2.0727204095
H -4.8816749281 2.8078425581 2.9614784329
H -4.6550966516 4.2837590714 0.9898702979
H -4.3777939427 1.8494633359 -0.3586277796
H -6.9258271004 3.7107340060 1.6693488574
H -6.8493911536 3.7926533251 -0.0900200413
H -8.1467889273 1.7784334672 0.7070687989
H -6.7572752850 1.3585890527 -0.2885709902
H -6.7565321869 -0.1731991589 1.5445152919
H -8.2370946923 1.0096042485 3.1026877223
H -6.7501731435 0.5213872384 3.9393271760
H -6.9942572980 2.2081800031 3.4700875909
