23
CONF5
C -1.4337360318 -2.7461973155 -0.9071399082
N -0.7226054775 -1.6780165493 -1.5969551078
C 0.1504188570 -0.8574105813 -1.0107046334
N 0.8688566690 0.1431478463 -1.5841271614
N 0.7402559785 0.4030958763 -2.8983225929
O 1.4237090597 1.3445643314 -3.3199538861
O -0.0173689650 -0.2438674316 -3.6607352775
N 0.3950080143 -1.0046465287 0.3106135205
C 1.2584118477 -0.0982113736 1.0708542219
C 0.6047059983 1.1974464616 1.4393639783
C 0.2424960372 1.6096229630 2.6896748521
N -0.3365951103 2.8546697121 2.7917400939
C -0.4145277854 3.3923512405 1.6176228760
S 0.2009734240 2.4481557333 0.2834798772
Cl -1.0965706711 4.9569790150 1.3320993846
H -2.1094065077 -2.3491077378 -0.1396652597
H -0.7350996264 -3.4520076178 -0.4426027360
H -2.0300786859 -3.2824504380 -1.6453341512
H -0.8557280982 -1.5239222011 -2.5887484107
H -0.2231739100 -1.5929884270 0.8476185880
H 2.1780577987 0.0718333267 0.5070080911
H 1.5214712889 -0.6116793707 1.9999241607
H 0.3905264832 1.0186388598 3.5872128866
