59
CONF70
C 4.0892396901 1.2051400436 4.2953634620
C 5.0571259240 2.3905054581 4.2442093770
C 4.3865853353 3.3136109001 3.2227486348
C 3.8132797411 2.3683799290 2.1337870421
C 3.7659753924 0.9606448223 2.8142791996
C 4.7026882310 2.3488610888 0.8902628295
C 4.1691609461 1.4433207860 -0.1862942417
O 4.8988326319 0.8079597376 -0.9350116952
N 2.7786874322 1.3707938719 -0.3241816715
C 1.8724774834 1.9990581428 0.5361198213
O 0.6673140713 1.8797701573 0.3585451534
C 2.4330418710 2.8215187533 1.6680298637
C 2.2332546039 0.5044213112 -1.3863240363
C 2.0091275887 -0.9180147511 -0.8788103587
C 1.5278707030 -1.8635916126 -1.9808785198
C 0.2525504846 -1.4022226159 -2.6923705207
N -0.8200483638 -1.0036794469 -1.7743641118
C -1.9186769499 -0.3767747290 -2.5171740295
C -3.0164431463 0.0867077534 -1.5643652716
N -3.5061010582 -1.0462961728 -0.7771569427
C -2.4190803071 -1.6884374341 -0.0369320032
C -1.3242910703 -2.1419553142 -0.9986611744
C -4.6297803817 -1.7365362525 -1.1383646424
N -5.4538898607 -1.1606345723 -2.0481439593
C -6.5708151562 -1.8243012200 -2.3402479504
C -6.9034117335 -3.0466045871 -1.7676189924
C -5.9867299139 -3.5524670645 -0.8533390828
N -4.8571828293 -2.9261740144 -0.5288801066
H 3.1811889721 1.4991169272 4.8367585727
H 4.5022590079 0.3199652001 4.7882716616
H 5.2110238722 2.8714103204 5.2149612561
H 6.0346991380 2.0572365835 3.8727525892
H 5.0591761422 4.0652457664 2.7974851734
H 3.5596326143 3.8464086114 3.7083305773
H 4.5341487758 0.3127915469 2.3749718745
H 2.8011423754 0.4625563725 2.6694016451
H 4.7642315750 3.3596585981 0.4615413461
H 5.7198070498 2.0210224528 1.1199401114
H 1.7004842496 2.7868121362 2.4799127500
H 2.4792905026 3.8628265139 1.3161975155
H 2.9448167365 0.5124871876 -2.2147981675
H 1.2935417853 0.9505702484 -1.7153840990
H 2.9484254333 -1.2987042237 -0.4606870584
H 1.2764385286 -0.8889999561 -0.0643565885
H 1.3878250975 -2.8632089735 -1.5546323261
H 2.3082585946 -1.9657457609 -2.7457024882
H -0.0855855846 -2.2032465418 -3.3794197400
H 0.4817037121 -0.5308968232 -3.3187299137
H -1.5251796125 0.4890059391 -3.0632918524
H -2.3585262585 -1.0741586872 -3.2596341131
H -3.8381025051 0.5387863744 -2.1176713773
H -2.6069497074 0.8286675251 -0.8667824851
H -2.8040875175 -2.5347661609 0.5294996694
H -0.5057326271 -2.5775420404 -0.4163295693
H -1.7281637344 -2.9352604472 -1.6612605374
H -7.2293694109 -1.3557479430 -3.0712146997
H -7.8147326016 -3.5730649109 -2.0215612238
H -6.1638688729 -4.5075840336 -0.3594488632
H -2.0063092439 -0.9503290008 0.6629228332
