57
CONF12
C 3.7329798753 -0.5825409798 -2.7970914461
C 3.0289423848 -0.6645089226 -1.4467171555
C 1.7171770611 -1.5024063095 -1.4709292815
C 0.6488394123 -0.5234015753 -0.9835967866
C -0.7333616294 -1.0357408727 -0.5722788260
C -0.7649011133 -2.1180391229 0.5136166414
C -2.1999285921 -2.5345334324 0.8565693852
C -3.0324069224 -1.3367941180 1.1989338162
C -3.7045803881 -1.2400303997 2.3594772894
C -4.5558499225 -0.0957788402 2.7039163865
O -5.1746754660 -0.0417642252 3.7639261024
C -4.6300691564 0.9766065830 1.7019439027
C -3.9275381681 0.9231658439 0.5604476749
C -3.0860162325 -0.2497472268 0.1519837829
C -1.6183662572 0.1862320354 -0.2196097883
C -0.9260633632 1.0811342535 0.8414152602
C 0.4650272289 1.5507955519 0.3820604415
C 1.3824144398 0.3808043334 0.0339253960
C 2.6362033302 0.7278633602 -0.8623186106
C 3.7774419173 1.3752493839 -0.0855179556
O 4.6231067512 0.7283648042 0.5091776083
C 3.8390463485 2.8884450860 -0.0421825787
O 4.8246935618 3.3400400919 0.8494246363
O 2.1911711632 1.6518207167 -1.8624448614
C 1.8622102163 -0.3085126373 1.3217010992
O -1.6362660884 2.2844571541 1.1106594160
F -1.7318367212 0.9698655584 -1.3882557420
C -3.7981592475 -0.8115793374 -1.1156566695
H 4.6220886334 0.0589733037 -2.7553414730
H 4.0698064750 -1.5768763781 -3.1038896168
H 3.0625908177 -0.2179897737 -3.5849924587
H 3.7322720305 -1.0982936449 -0.7306354151
H 1.8100757269 -2.3766637961 -0.8184669834
H 1.4941865190 -1.8725224627 -2.4774553490
H 0.4479627696 0.1439679337 -1.8285630947
H -1.1759162481 -1.4765277772 -1.4764511241
H -0.2009222499 -2.9905418799 0.1675143657
H -0.2803713302 -1.7767268041 1.4293847649
H -2.2051318077 -3.2409316097 1.6915904020
H -2.6439934185 -3.0540770892 -0.0032082137
H -3.6669621912 -2.0392175343 3.0954372451
H -5.2750062770 1.8183073349 1.9381152295
H -3.9875834601 1.7298703657 -0.1659924563
H -0.8439860714 0.4784837951 1.7591471782
H 0.3212588824 2.1982841764 -0.4866813354
H 0.8775104422 2.1594966175 1.1943021121
H 2.8460302988 3.2779983463 0.2303042880
H 4.0302217821 3.2537701670 -1.0649965460
H 5.3002231799 2.5442062291 1.1410546281
H 2.8163864303 1.6235627632 -2.5957439646
H 2.5587804444 0.3380968100 1.8608450314
H 1.0319681506 -0.4976349369 2.0014752988
H 2.3725335819 -1.2568779640 1.1387833440
H -2.3807674905 2.0852362215 1.6909306916
H -3.9004271637 -0.0266903595 -1.8665589130
H -3.2492383475 -1.6422484654 -1.5607542092
H -4.7928252191 -1.1652148541 -0.8317329553
