49
CONF126
C -1.2864322097 -0.7106521507 1.7995996397
C -1.5811047861 -1.5364034101 0.5658186178
C -1.7600539623 -0.8282098367 -0.8037381891
C -2.9374423916 -1.4946530837 -0.0733000040
C -3.4924934675 -2.7328951797 -0.7529023061
C -4.0435346599 -0.6495075026 0.5240685203
C -1.5857683091 0.6147714646 -0.9288016931
O -2.0173198991 1.5107409435 -0.2346967123
O -0.7721503033 0.8825447581 -2.0196906514
C -0.3592464557 2.2479752831 -2.1698569730
C -1.5113445653 3.1321811419 -2.3890573064
N -2.3839618238 3.8459757095 -2.6393759201
C 0.5556877151 2.7304483161 -1.0510954961
C 1.2752987237 1.7877213353 -0.3205602932
C 2.1586530740 2.2258348517 0.6626522680
C 2.3355581901 3.5853882355 0.9148957060
C 1.6125702293 4.5096238206 0.1730500847
C 0.7210851862 4.0923060593 -0.8130184761
O 2.8557952406 1.3652117018 1.4814431158
C 3.0669390223 0.0504225590 1.0884025136
C 3.6464952373 -0.2557340523 -0.1403081287
C 3.9046205370 -1.5879030630 -0.4490494307
C 3.6004767136 -2.5982357024 0.4626069957
C 3.0359922540 -2.2712292360 1.6929737109
C 2.7615206167 -0.9433165060 2.0110190958
C -0.7458863743 -2.8010031607 0.5291680645
H -1.5803027541 -1.2791496696 2.6894849157
H -1.8005084933 0.2484793678 1.8174140926
H -0.2095278442 -0.5187091562 1.8663134402
H -1.3610112917 -1.3846727201 -1.6453121970
H -2.7367580973 -3.2956158650 -1.3022242571
H -3.9429012473 -3.3973013718 -0.0064428206
H -4.2755790351 -2.4427044954 -1.4612574186
H -4.7578645473 -0.3688165804 -0.2574577313
H -3.6889992072 0.2631553350 0.9968770013
H -4.5818422611 -1.2453620201 1.2701854264
H 0.2049667211 2.2428903280 -3.1114984042
H 1.1428353756 0.7278384783 -0.5025221668
H 3.0265849509 3.8981012152 1.6902049851
H 1.7425238255 5.5694607489 0.3663111185
H 0.1602572645 4.8254106474 -1.3835850465
H 3.8920817900 0.5366518697 -0.8399146285
H 4.3561868563 -1.8343461531 -1.4048879927
H 3.8074141330 -3.6343158725 0.2157777106
H 2.7993892123 -3.0513848326 2.4097273880
H 2.3188267409 -0.6699055481 2.9630905256
H 0.3143807955 -2.5434187787 0.6291003397
H -1.0144868203 -3.4478880717 1.3728247262
H -0.8696185825 -3.3697991612 -0.3927862547
