34
CONF175
C -3.9710428511 -2.2256702899 -0.6536466664
C -2.4871298620 -2.0741991923 -0.4308466969
O -2.2290370900 -0.7674396553 0.1994568802
P -1.4388724168 0.3957499967 -0.5444196163
S -1.6963532032 0.6110684329 -2.4521072582
O -1.6833955133 1.6345308806 0.4213490221
C -3.0150059038 2.2643548898 0.4818659835
C -2.9269274093 3.3936993603 1.4761204818
O 0.1730192118 0.1150511648 -0.2813891057
N 0.4850041809 -0.1372900132 1.0648785789
C 1.7516165535 -0.3520345101 1.2244219696
C 2.0727489689 -0.5594866026 2.6099904728
N 2.3652179124 -0.7374009302 3.7147784426
C 2.8618705575 -0.3963275425 0.2580741217
C 2.7058908457 -0.9321926311 -1.0290524716
C 3.7930536451 -0.9724180449 -1.8920792358
C 5.0316129355 -0.4723821818 -1.4934445641
C 5.1912448632 0.0542053966 -0.2137381984
C 4.1168752106 0.0800225524 0.6653598817
H -4.3361631471 -1.4732062840 -1.3582513583
H -4.1707758746 -3.2184027987 -1.0690876968
H -4.5167762275 -2.1284479073 0.2889010451
H -2.0966044845 -2.8107933926 0.2751898978
H -1.9252041595 -2.1407714602 -1.3670940931
H -3.7384629899 1.5031323879 0.7905190595
H -3.2649864921 2.6214394769 -0.5222575939
H -3.9028270085 3.8839949650 1.5402083597
H -2.1869222979 4.1333532891 1.1592598722
H -2.6602823926 3.0200272921 2.4682718718
H 1.7526699640 -1.3360093999 -1.3434990640
H 3.6715789634 -1.3988986124 -2.8823449612
H 5.8735748811 -0.5010361351 -2.1775783808
H 6.1546300306 0.4390105663 0.1036513879
H 4.2461603930 0.4847676205 1.6644512021
