47
CONF31
C -4.5169632098 -4.8602706210 -0.5800443384
O -4.3224926833 -3.5688473477 0.0633376911
P -5.2884705634 -2.3460719344 -0.2923368249
S -5.6341907632 -1.9893216346 -2.1696882936
O -6.5473186138 -2.6587100306 0.6426308299
C -7.7361890490 -1.8235437896 0.5637455317
O -4.5791093910 -1.1495510030 0.5411257036
C -3.6157728626 -0.3184635911 -0.0400222574
C -3.9623515487 0.9975863835 -0.3059238184
C -2.9997800174 1.8607525972 -0.8180993266
C -1.7099334247 1.3934910394 -1.0836018603
C -1.3828833088 0.0601500459 -0.8231820927
C -2.3347812148 -0.7975299753 -0.2855486586
S -0.5532855627 2.5324099415 -1.8348832142
C 1.0171797993 2.0193275917 -1.1502777119
C 2.0961633148 1.8373873036 -2.0167613002
C 3.3512879954 1.5161722403 -1.5086273087
C 3.5038872959 1.3526519006 -0.1401898468
C 2.4363117089 1.5179773783 0.7369050045
C 1.1930020366 1.8691556269 0.2283892018
O 4.7557596479 0.9595954052 0.3312057209
P 5.6589337811 1.9138403399 1.3023802024
S 5.5547139991 3.8110188039 0.9326133796
O 7.0680166442 1.1736426857 1.1603725084
C 7.8046331905 1.2562544371 -0.0919619681
O 5.2443384169 1.5538811887 2.7990620571
C 5.2222812455 0.1634807480 3.2484069285
H -3.7225185840 -5.4995207580 -0.1964445641
H -4.4304654041 -4.7540086045 -1.6642597808
H -5.4943682327 -5.2700071416 -0.3119604477
H -7.4910041492 -0.7944827299 0.8408964339
H -8.1511776747 -1.8581566090 -0.4466690702
H -8.4400630581 -2.2480334848 1.2788639870
H -4.9695121524 1.3433665763 -0.0996980077
H -3.2551218833 2.8980124900 -1.0096103136
H -0.3857718035 -0.3118121058 -1.0326196893
H -2.0885366781 -1.8314758946 -0.0687987489
H 1.9593103589 1.9459727953 -3.0874628737
H 4.2025600741 1.3781318575 -2.1663853040
H 2.5792257499 1.3873241878 1.8045518303
H 0.3580975564 2.0183816706 0.9049877958
H 7.2197258297 0.8105596900 -0.9009238140
H 8.0387788304 2.2999125025 -0.3176336936
H 8.7206531086 0.6887980679 0.0682349063
H 6.2393747321 -0.2321531150 3.2802872265
H 4.7922061688 0.1895992611 4.2489232873
H 4.5956192527 -0.4368741794 2.5837409035
