65
CONF504
C -4.2140980595 2.7246589184 -2.5297402574
C -3.8787003733 1.3235802692 -3.0360636416
C -3.2582630374 0.4275964599 -1.9554403468
C -2.9727469910 -0.9845343385 -2.4866084696
C -1.9580385961 1.0311512508 -1.4709582765
O -1.0236718817 1.3144839166 -2.1986299563
O -1.9411964918 1.1906052398 -0.1335521473
C -0.7155994680 1.7258172212 0.4611261221
C -0.7708347511 3.2438355369 0.4649647823
C 0.5383114589 3.8224612237 1.0228379747
C 0.9927339445 3.0554029867 2.2286226388
C 0.4882657216 1.8712120877 2.6262795484
C -0.6316769322 1.1739800359 1.8746122656
C -0.4534815492 -0.3583249040 1.9385826190
C -0.4951949349 -0.7812414509 3.4215508824
C 0.5304112841 -0.0093994743 4.2064691708
C 0.9819254094 1.1945326596 3.8154727517
C -0.3668455856 -2.2922984271 3.6322082643
C 0.8245046678 -0.8202099638 1.2000988629
C 0.4957190379 -1.5388991779 -0.1098703453
C 1.7209557429 -1.8245722559 -0.9585278782
C 2.7024416793 -2.7972855803 -0.3397809922
C 3.7814540794 -3.1437071709 -1.3517905965
C 3.1321767775 -3.8254882033 -2.5412787020
C 1.8659833112 -3.1734923956 -3.0408129969
O 1.3944237116 -3.4316220865 -4.1324453138
O 1.1919992919 -2.3258060497 -2.2447009352
O 4.7516372413 -4.0599341064 -0.8321706359
C 1.6514835705 3.8802558656 -0.0391447339
H -3.3134665581 3.2537999458 -2.1971167203
H -4.6788619848 3.3254401580 -3.3171044186
H -4.9086166295 2.6791697568 -1.6838638951
H -4.7873126565 0.8279249935 -3.3974562244
H -3.1856776164 1.3815414165 -3.8840145773
H -3.9431417477 0.3635709574 -1.1030889928
H -3.9044806703 -1.4429489421 -2.8305577749
H -2.2743729694 -0.9406181889 -3.3281239953
H -2.5401522391 -1.6228904504 -1.7098202176
H 0.1294982114 1.3781594304 -0.1405113085
H -0.9462980994 3.6155142027 -0.5499106267
H -1.6164077660 3.5568196216 1.0897412662
H 0.3431792050 4.8578272442 1.3365457834
H 1.8001171591 3.4985736424 2.8119538256
H -1.5797249950 1.4134336749 2.3819369976
H -1.3221253358 -0.8146475976 1.4474365295
H -1.4916647529 -0.4950723146 3.7966629367
H 0.9135440385 -0.4594418402 5.1208129121
H 1.7409129448 1.7110743628 4.4003208198
H 0.6294343168 -2.6604751864 3.3685982139
H -0.5427755817 -2.5433166282 4.6832470894
H -1.1026743023 -2.8292621739 3.0244587444
H 1.4724034915 0.0419248292 0.9910379990
H 1.4134800368 -1.4810885478 1.8417143189
H -0.0225084975 -2.4832443757 0.1019919869
H -0.1876693525 -0.9251449487 -0.7075155722
H 2.2316703940 -0.8831469867 -1.2028130788
H 2.1845263601 -3.7104654919 -0.0172758451
H 3.1496824341 -2.3248345675 0.5412938834
H 4.2796545157 -2.2183077089 -1.6805260423
H 2.8431153487 -4.8435855778 -2.2432836394
H 3.8156323649 -3.9213795838 -3.3888827338
H 5.2396916664 -3.6056562539 -0.1329697506
H 1.8753167353 2.8816495760 -0.4290777128
H 2.5732156543 4.2864628069 0.3894517020
H 1.3487777105 4.5198816642 -0.8746017299
