45
CONF64
C -2.0827431151 -1.8789456056 1.1334256857
C -2.0160048778 -1.7067989640 -0.3492552101
C -1.9569479160 -0.5258326972 -0.9752040516
C -1.9061191445 -0.3986708615 -2.4392786944
C -0.8525233152 0.5033798615 -3.1540882207
C -2.3389319935 0.8297937424 -3.1899532904
C -2.9260910160 2.0219314667 -2.4673047217
C -2.9818583700 0.5951181426 -4.5434931379
C 0.2308782846 1.1638550873 -2.4105522775
O 1.4065687321 1.0247147939 -2.6990068030
O -0.1767090080 1.9240287693 -1.3628932563
C 0.8787253588 2.4770777070 -0.5294216961
C 1.3754543317 1.4370376394 0.4328406277
C 0.5482609062 0.9736127345 1.4531781324
C 0.9552283841 -0.0191585536 2.3290402879
C 2.2107565585 -0.6097512419 2.2255867165
C 3.0454111310 -0.1302319265 1.2237404424
C 2.6425104567 0.8700947555 0.3479164618
F 3.5161311338 1.2958835067 -0.5762791850
F 4.2833902160 -0.6371941710 1.0888213344
C 2.6604246971 -1.6628400871 3.1935383913
O 3.2103030146 -1.0009777413 4.3338601357
C 3.6629945804 -1.9475780098 5.3037455806
F 0.1170779525 -0.4080360017 3.3053385910
F -0.6764060136 1.5102433521 1.6021274696
H -2.1163285914 -0.9136828179 1.6461485358
H -1.2117817515 -2.4353198939 1.5030203437
H -2.9678142290 -2.4577765360 1.4241767345
H -2.0136154279 -2.6196831842 -0.9470024647
H -1.9517542566 0.3837617034 -0.3811115871
H -2.0421990847 -1.3412488034 -2.9658287610
H -0.4576033181 0.0596447367 -4.0622725715
H -4.0100975164 1.8852359374 -2.3854832004
H -2.7460208133 2.9338740444 -3.0468907853
H -2.5216768037 2.1724029848 -1.4686804942
H -4.0579271163 0.4286484705 -4.4226022633
H -2.5537784309 -0.2768398985 -5.0461263427
H -2.8419284767 1.4694338731 -5.1889391584
H 1.6912232795 2.8534987399 -1.1506800919
H 0.3996310620 3.2985958891 0.0045910643
H 3.4147870311 -2.3078059009 2.7223676045
H 1.8059046335 -2.2880946750 3.4893907749
H 2.8346713936 -2.5798857811 5.6542843854
H 4.4530194344 -2.5898414348 4.8888810522
H 4.0635088183 -1.3756734374 6.1429950183
