46
CONF133
C -3.8743780596 -0.0557669968 -1.6408464063
C -2.4975104563 0.0039924293 -2.2602265225
C -2.5046051267 0.3655612307 -3.7283187004
C -1.4576940658 -0.9619196727 -1.7303521861
C -0.4844015803 -1.6073815215 -2.6158206894
C -0.2264503099 -2.9147130983 -2.6499836239
Cl 0.9469508488 -3.6070818470 -3.7401096010
Cl -1.0081792869 -4.0878881189 -1.6256092611
C -1.3169725719 0.5291973639 -1.4439521754
C -1.5121681257 1.0118033183 -0.0628431511
O -2.0203208391 0.3968862674 0.8535390930
O -1.0572232252 2.2860673913 0.0531377033
C -1.1825592702 2.8886963375 1.3615295360
C -0.1628106956 2.3702483607 2.3428608517
C 0.9795042002 1.7064571765 1.9073664290
C 1.9016375581 1.2444370129 2.8430778541
O 3.0624659961 0.6006068332 2.4541239306
C 3.0070336899 -0.2702801714 1.3768490603
C 1.9618398500 -1.1801038382 1.2242238501
C 1.9965470201 -2.0740406358 0.1590444561
C 3.0632035675 -2.0678169034 -0.7391563846
C 4.1038951231 -1.1586016728 -0.5649818630
C 4.0799424293 -0.2519222852 0.4923553343
C 1.7252936171 1.4687651042 4.2037092046
C 0.5899528074 2.1549597047 4.6267370482
C -0.3589608996 2.5928431281 3.7082332763
H -3.8407545591 -0.3590287420 -0.5935206878
H -4.4872000435 -0.7766255470 -2.1924693369
H -4.3623479993 0.9233210955 -1.7071623189
H -3.0314392906 -0.4070643141 -4.2993751549
H -3.0339555438 1.3131811567 -3.8723649145
H -1.4990814097 0.4727473954 -4.1400669921
H -1.7904293112 -1.5445058769 -0.8764416299
H 0.0738285864 -0.9878817360 -3.3113843185
H -0.5728016222 1.0744613687 -2.0153695987
H -1.0336439296 3.9568731364 1.1786159385
H -2.1953039519 2.7320194491 1.7445324435
H 1.1493496910 1.5326116711 0.8505848325
H 1.1368127716 -1.1868778401 1.9288366891
H 1.1860728685 -2.7857822592 0.0384103554
H 3.0823608320 -2.7700933928 -1.5657478126
H 4.9396944926 -1.1475167409 -1.2576233186
H 4.8804040924 0.4656694675 0.6394017518
H 2.4626750767 1.1015607120 4.9092988105
H 0.4360960446 2.3292442639 5.6870041223
H -1.2543685665 3.1036238444 4.0502538868
