46
CONF38
C -4.0736281512 0.2730861222 -2.4018289194
C -3.6492144443 -0.5544124866 -1.2117239796
C -2.3731878871 -1.3331406460 -1.2442272058
C -2.4933498672 -0.0952558817 -0.3214901738
C -1.6703484742 1.0864066981 -0.6177789326
O -1.3324026557 1.4889166410 -1.7155108086
O -1.2893458046 1.6912156122 0.5393251244
C -0.3785227313 2.8086767024 0.3891689793
C 1.0080818892 2.3668599922 -0.0021240471
C 1.5226429584 1.1617272794 0.4749766147
C 2.8205044537 0.7913282124 0.1331114926
C 3.6105406342 1.5994702432 -0.6802057764
C 3.0848071466 2.7962657242 -1.1551080478
C 1.7899355534 3.1835115303 -0.8203293563
O 3.3711883436 -0.4184407810 0.5143173547
C 3.0478696251 -0.9687053110 1.7428953364
C 2.9337299916 -0.1946285323 2.8962397437
C 2.6777301713 -0.8261587955 4.1099543896
C 2.5473206460 -2.2125412547 4.1769630450
C 2.6815301052 -2.9724781047 3.0169144996
C 2.9304194921 -2.3548633295 1.7941618969
C -1.4751903500 -1.3191965412 -2.4118992756
C -0.2143775384 -1.7450904934 -2.3672829091
Cl 0.8274345034 -1.7716143869 -3.7646217826
Cl 0.5506547434 -2.2895691184 -0.9007974277
C -4.8074771692 -1.1815592832 -0.4644968097
H -4.5927170681 -0.3693238727 -3.1218328068
H -4.7740281894 1.0498664813 -2.0777318105
H -3.2360643665 0.7580014174 -2.9020874767
H -2.3582578305 -2.2588813526 -0.6728034986
H -2.5938206932 -0.3164406567 0.7353640121
H -0.3717105708 3.2749405905 1.3785525344
H -0.7778864297 3.5193755691 -0.3391665668
H 0.9151501648 0.5152006535 1.0988150789
H 4.6160243100 1.2816044749 -0.9347339148
H 3.6911906125 3.4294900162 -1.7950622827
H 1.3822243550 4.1151861498 -1.2010752155
H 3.0451948626 0.8831584888 2.8454100403
H 2.5885208826 -0.2266340295 5.0106322659
H 2.3484450479 -2.6965078515 5.1274190433
H 2.5888665159 -4.0532602073 3.0583383182
H 3.0441177251 -2.9337097296 0.8835405507
H -1.8441794640 -0.9637200402 -3.3687951933
H -4.4607460149 -1.7816028849 0.3813309747
H -5.3754573109 -1.8310532045 -1.1394816669
H -5.4822104047 -0.4054998291 -0.0882118296
