22
CONF1
C 3.9247994206 -0.0246626546 0.7833225668
C 2.9900706142 -0.0198531875 1.8130636355
C 1.6347364640 -0.0228064616 1.5093717075
C 1.1811431294 -0.0307060268 0.1899889466
C 2.1243212774 -0.0353949896 -0.8411869785
C 3.4756085518 -0.0322924423 -0.5312168301
Br 4.7523003672 -0.0387226656 -1.9555562459
C -0.2601725691 -0.0346835796 -0.1506129988
C -0.9778637831 1.1513788130 -0.3381461444
C -2.3264509980 1.1751320394 -0.6688351185
C -2.9752080726 -0.0427302060 -0.8190569838
C -2.3237151084 -1.2567586563 -0.6506517590
C -0.9752120120 -1.2250177645 -0.3203710197
Br -0.0814438224 -2.8947317386 -0.0763225896
Br -4.8296262797 -0.0482388771 -1.2697849602
Br -0.0878287937 2.8265382969 -0.1189016872
Br 0.3723936556 -0.0159356761 2.9435049051
H 4.9839209326 -0.0224261406 1.0122564246
H 3.3225228583 -0.0138769041 2.8443959655
H 1.7857292898 -0.0414764607 -1.8710025223
H -2.8504080575 2.1123977993 -0.8030199666
H -2.8455335391 -2.1971069169 -0.7708696303
