63
CONF12
C 1.8070213695 -1.8922422997 0.0848770870
C 0.5577296927 -2.5207874500 -0.5226602792
N 0.0379512895 -1.6951532910 -1.6190762835
C 1.0346885026 -1.6178293799 -2.6924452635
C 2.3093514372 -0.9408821951 -2.1960350684
C 2.8709398855 -1.7056028554 -0.9968656704
N 4.0894330941 -1.0914464799 -0.4706088343
C 4.2393598591 0.1623559695 0.1177103610
C 3.3474038161 1.1967479544 0.3759417678
C 3.8462641086 2.3466229221 0.9957329578
C 5.1926674303 2.4622165390 1.3459886634
C 6.0941579191 1.4268056458 1.0868633960
C 5.5986907215 0.2881934315 0.4736318216
N 6.2214689773 -0.8852713888 0.0911832549
C 5.3165343624 -1.7526939862 -0.4922066861
O 5.5457419367 -2.8753170237 -0.9382195157
C -1.2461383052 -2.2112740779 -2.1156642425
C -2.4106298930 -1.8433285539 -1.1962327294
C -2.6871678433 -0.3380033650 -1.1862632229
C -3.5023411600 0.1256583805 0.0323344161
C -2.7974300382 -0.0937687186 1.3625025702
C -3.5679407816 -0.2590718674 2.5182774555
C -2.9789531142 -0.4169425229 3.7690148209
C -1.5962094781 -0.4084573318 3.8435986115
C -0.7916438759 -0.2532279851 2.7293968209
C -1.4055208539 -0.0962524135 1.4880125775
F -1.0071931810 -0.5661906284 5.0602628863
C -3.9059196476 1.5825145676 -0.1262979607
C -2.9546969770 2.6036719457 -0.0332311641
C -3.3079350517 3.9366429425 -0.2182969140
C -4.6332226892 4.2301574331 -0.4948713754
C -5.6086738042 3.2549325863 -0.5931643629
C -5.2298544803 1.9261003488 -0.4066968337
F -4.9887440477 5.5319236821 -0.6733675671
H 2.1975903961 -2.5348194923 0.8817828611
H 1.5427266114 -0.9281929512 0.5319768340
H -0.2076298067 -2.6175987396 0.2536320608
H 0.7948263211 -3.5439131093 -0.8818605787
H 1.2814236971 -2.6262618525 -3.0853570058
H 0.6131340168 -1.0389705874 -3.5215986495
H 2.0792270935 0.0928283995 -1.9158914382
H 3.0541533149 -0.9146065264 -2.9991019726
H 3.1844763838 -2.6985889248 -1.3414816661
H 2.2995432138 1.1327149400 0.1109184014
H 3.1654609930 3.1649870760 1.2060208103
H 5.5477582287 3.3681383887 1.8260509124
H 7.1426397995 1.5063102352 1.3538025069
H 7.1972566161 -1.1094756565 0.2050094672
H -1.2057354862 -3.3083189466 -2.2583950718
H -1.4259632023 -1.7688139335 -3.1041558843
H -3.3070252445 -2.3809810168 -1.5285699838
H -2.2054929208 -2.1947101403 -0.1786102309
H -1.7397594594 0.2116422683 -1.2242142776
H -3.2392969808 -0.0601110587 -2.0922907620
H -4.4291746995 -0.4619189299 0.0593795914
H -4.6519539976 -0.2626989151 2.4393847690
H -3.5740557470 -0.5482756336 4.6663752710
H 0.2889032509 -0.2605404823 2.8294162206
H -0.7772843619 0.0095854439 0.6092391063
H -1.9209082447 2.3586657323 0.1925075588
H -2.5760144651 4.7341025842 -0.1469877431
H -6.6361543294 3.5283787291 -0.8081279412
H -5.9818567631 1.1456800853 -0.4819777499
