40
CONF24
C 5.8562111613 -1.5072223695 2.8094902485
O 5.1936718266 -0.7859749114 1.7490231580
C 3.9296384294 -1.1215512833 1.4606408783
C 3.2152107577 -2.1194644853 2.1156556138
C 1.9090323454 -2.3154563304 1.6657012991
N 1.3683067792 -1.6036617412 0.6744779037
C 2.1594399091 -0.6710826756 0.1288860635
N 3.4123179558 -0.3869042883 0.4623858783
N 1.6432184764 0.1117670763 -0.9014094736
C 0.3844036073 0.1431991644 -1.4798421514
O 0.0848349153 1.0070572864 -2.2942937477
N -0.4799058427 -0.8606976066 -1.0849410615
S -2.1407763849 -0.7494750443 -1.4147963830
O -2.3570257881 -0.8411611312 -2.8605742272
O -2.7264864012 -1.7518177819 -0.5199140639
C -2.6005760526 0.8516145030 -0.8845294639
C -2.5968506511 1.3672788129 0.4100549091
N -2.9520259474 2.6508665874 0.4615721939
C -3.1840668604 3.0006909168 -0.8195029306
N -2.9683337380 1.9266914012 -1.6918552156
C -3.1195858458 2.0530171320 -3.0463346810
C -3.5045168897 3.2638420128 -3.5515562058
C -3.7433801372 4.3629199822 -2.7012242960
C -3.5855552841 4.2348242854 -1.3413175048
Cl -2.1494201560 0.5000081189 1.8300793473
O 1.1864034407 -3.2628167677 2.2670752966
C -0.1728767586 -3.4673854060 1.8096461064
H 5.3262375962 -1.3679266600 3.7567495401
H 6.8532292042 -1.0737541301 2.8722599096
H 5.9249085927 -2.5715506793 2.5642600456
H 3.6117806839 -2.7201673967 2.9208831530
H 2.2683448438 0.8274542172 -1.2493821993
H -0.1870569162 -1.4318994985 -0.2734979527
H -2.9243530212 1.1762906925 -3.6455173695
H -3.6219889910 3.3589083512 -4.6240200561
H -4.0512894485 5.3122617080 -3.1246162292
H -3.7555606232 5.0552456160 -0.6543747690
H -0.1818642142 -3.7595464200 0.7560552123
H -0.5585694867 -4.2747936634 2.4304917448
H -0.7651240860 -2.5596271178 1.9548165843
