38
CONF3
C 1.8511114826 -2.5209059843 1.8429124806
C 0.4508372198 -1.9170356466 2.0152051528
C 0.4124751346 -0.4235964352 1.7929368357
C 0.1006128440 0.1479982579 0.5443049959
C 0.0439056174 1.5392567214 0.3666366642
C 0.3721519508 2.3509744770 1.4570216266
C 0.7140486992 1.8068140350 2.6855748716
C 0.7200028091 0.4273186338 2.8535982253
C -0.3876310986 2.1933664954 -0.9202606989
C -1.7839190657 2.8185040778 -0.8034186700
N -0.1888875985 -0.7416374340 -0.5483847967
C -1.5667884857 -1.2352508308 -0.6846989626
O -2.3929414315 -0.4038178977 -1.4633007903
C -2.1370291041 -0.4985690693 -2.8670659831
C 0.7840586365 -1.2629235377 -1.3718131432
O 0.5615361368 -2.1287473603 -2.2046246374
C 2.1890833762 -0.6885911681 -1.2240765594
Cl 2.4120531590 0.6378225644 -2.4488895051
H 2.5802475145 -2.0010465251 2.4719531347
H 1.8498186202 -3.5793772216 2.1191108664
H 2.1905662370 -2.4532038102 0.8055202803
H 0.1025428082 -2.1164273814 3.0346930512
H -0.2418551403 -2.4282488523 1.3405518442
H 0.3532106792 3.4297159536 1.3293681429
H 0.9658543750 2.4568750744 3.5174867604
H 0.9663923878 -0.0021647003 3.8209467544
H 0.3432641284 2.9675749023 -1.1811994785
H -0.3793932629 1.4675851865 -1.7335561207
H -2.0649722000 3.3001914208 -1.7452170864
H -2.5263584112 2.0490890238 -0.5773285622
H -1.8150842020 3.5747563190 -0.0128878521
H -2.0149276181 -1.2462468663 0.3128696712
H -1.5144694609 -2.2477521333 -1.1068299937
H -2.8659065038 0.1509675346 -3.3561945162
H -1.1229398178 -0.1652602360 -3.1203060339
H -2.2617770441 -1.5309753784 -3.2195603005
H 2.3974852712 -0.2542986011 -0.2464401716
H 2.9036221512 -1.4727339041 -1.4746372997
