26
CONF4
C -2.7578181209 -1.7743827252 1.4170568890
N -2.0428027610 -0.8999250447 0.4850660405
C -1.7252774972 0.4041724869 1.0663252660
C -1.1529362458 1.3132941867 -0.0321098020
O -2.0913877776 1.4133678201 -1.0979627972
C 0.2074442558 0.8151072397 -0.4947535971
C 0.3801743739 0.1655007994 -1.7134116290
C 1.6312646681 -0.3264015819 -2.0863492479
C 2.7245792557 -0.1717456302 -1.2470116144
O 3.9456610996 -0.6527846670 -1.6273448790
C 2.5580589288 0.4883134707 -0.0201088561
O 3.6918346533 0.6101223678 0.7465201993
C 1.3129387833 0.9737811725 0.3491631017
H -3.7400937660 -1.3435494931 1.6407911968
H -2.2283367149 -1.9240944820 2.3739131263
H -2.9169674390 -2.7529730990 0.9540642904
H -1.1743319105 -1.3475850478 0.2047817314
H -2.6564700694 0.8508053343 1.4382643931
H -1.0179113094 0.3483298042 1.9131731990
H -1.0348762195 2.3231043585 0.3820490920
H -2.5006819635 0.5340596592 -1.1564098910
H -0.4631704149 0.0545337722 -2.3851726754
H 1.7730982048 -0.8301303458 -3.0372034741
H 4.5858803530 -0.4441451473 -0.9330888503
H 3.4866047617 1.0897643015 1.5579513002
H 1.2055229883 1.4901416946 1.3018076045
