43
CONF18
C 3.2451433343 3.7804737099 -2.7956122326
O 3.4209986798 2.5690307737 -3.5387804718
C 3.1518243141 1.3951203233 -2.8983503811
C 2.7224035034 1.3145976196 -1.5752377046
C 2.4907291511 0.0273879249 -1.0912109893
C 2.6727286256 -1.1422471122 -1.8646254848
C 3.1095773260 -1.0286303076 -3.1884813075
C 3.3425543626 0.2378370045 -3.6900428100
N 2.3661437106 -2.2698776221 -1.1123777501
C 2.0002894594 -1.7821772086 0.0459217396
N 2.0698971292 -0.4212505386 0.1404123770
S 1.4671082989 -2.7476432186 1.4738185268
O 1.3992164705 -1.7280941385 2.6092592635
C -0.3055987256 -3.0581683901 0.8760477121
C -1.0518811061 -1.7842869229 0.6700709053
N -0.9476680527 -1.2513038361 -0.5575955989
C -1.5392801920 -0.0791067000 -0.7914661717
C -2.2787065997 0.6265509148 0.1555613246
C -2.9057211956 1.9512804669 -0.1544045237
C -2.4021244449 0.0350211797 1.4166213602
O -3.1122584594 0.7080554630 2.3834230978
C -4.4605589637 0.2198316175 2.5517686038
C -1.7757624059 -1.1818961625 1.7144232896
C -1.8939879636 -1.8007108024 3.0783851091
H 3.9088925626 3.8060759733 -1.9229588072
H 3.5070256160 4.5883809015 -3.4792330304
H 2.2037159460 3.8945993308 -2.4713307071
H 2.5696273324 2.1852317360 -0.9510645063
H 3.2584231731 -1.9091227931 -3.8047124796
H 3.6788405160 0.3741132123 -4.7125234617
H 1.8120553887 0.1211787026 0.9530591346
H -0.1784082415 -3.6142696482 -0.0567819677
H -0.7274750939 -3.7063174100 1.6473247447
H -1.4284426461 0.3295099340 -1.7958585051
H -2.5147903344 2.7307599069 0.5075041331
H -3.9902122302 1.9235892866 -0.0086254651
H -2.7021944798 2.2379580242 -1.1887672487
H -4.9135473004 0.8342031264 3.3312985486
H -5.0252658040 0.3263640278 1.6182478693
H -4.4617364132 -0.8311717119 2.8615393900
H -2.2366546933 -1.0620174657 3.8047657090
H -2.6130223506 -2.6289311839 3.0715492288
H -0.9318985055 -2.1899273946 3.4147668350
