39
CONF30
C -5.1515856389 2.3759954108 -0.8300864553
N -3.8967278384 1.6741806512 -1.0852090972
C -3.2938605869 0.7789343502 -0.2812661364
C -2.1288009248 0.3699684729 -0.9168172831
C -2.1289362110 1.1121604567 -2.1282306748
N -3.2035902764 1.9006196008 -2.2121758192
C -1.1577230010 1.1949785573 -3.2473309589
F 0.0962365847 1.5494757602 -2.7922371316
F -0.9930317506 -0.0468829914 -3.8546868128
C -1.2016983616 -0.6009911304 -0.3057548736
O -1.2693327752 -0.8703386486 0.8951072174
N -0.2795719122 -1.1664497299 -1.1426103733
C 0.6853259434 -2.1112793761 -0.7141941721
C 1.6017978416 -1.8074146878 0.3097311312
C 2.4915878886 -2.8033025607 0.7266454033
C 2.4809197535 -4.0334568290 0.0969674444
C 1.6195771765 -4.3360264886 -0.9427189584
C 0.7093153534 -3.3615343257 -1.3332192348
F 3.3658256038 -4.9764590959 0.5084933301
C 1.6855036607 -0.4671819673 0.9290758617
C 1.7190979147 -0.3427946316 2.3189675231
C 1.8198616890 0.9105353232 2.9102235984
C 1.8916809478 2.0571260266 2.1178676510
C 1.8718004126 1.9381084399 0.7309858018
C 1.7707390248 0.6862085249 0.1425836536
Cl 2.0162770498 3.6445869156 2.8333645821
Cl 1.8438213953 1.0184384468 4.6542337703
H -5.9535562845 1.6504633100 -0.6755112834
H -5.3746640398 2.9938358205 -1.6990755128
H -5.0488178756 3.0063635522 0.0566013257
H -3.7153008074 0.4831209996 0.6684073581
H -1.4675508457 1.9079001796 -4.0159277389
H 1.6482420707 -5.3095503750 -1.4189082490
H 1.6427176033 -1.2219787623 2.9492084080
H 1.9451092515 2.8294341902 0.1179407810
H 3.2152164399 -2.6034467062 1.5096514985
H -0.0076705564 -3.5753498457 -2.1196415564
H 1.7706409017 0.6075701326 -0.9380769264
H -0.4318722867 -1.0932651181 -2.1392484940
