48
CONF27
C -2.6496349569 2.1199480060 0.6701794608
C -3.7079921719 1.2807391901 -0.0591060987
C -3.7873117438 1.7296785540 -1.5252923894
C -5.0687839095 1.5156296229 0.6153314633
C -3.3932606467 -0.2319273177 0.0474962432
C -1.9468064976 -0.5953423296 -0.3843432165
N -1.8492553712 -1.9917913667 -0.7997539142
C -1.5676758986 -2.4960732402 -2.0190440867
N -1.6731824834 -3.8178162506 -2.0023161874
C -2.0425596315 -4.0730022317 -0.7141836245
N -2.1696544037 -2.9984977638 0.0527371799
O -1.1285401448 -0.3740378540 0.7461008073
C 0.2291809656 -0.2116914642 0.5902957024
C 0.9127052018 -0.2747896377 -0.6227449609
C 2.2912895119 -0.0774372373 -0.6373763696
C 3.0125741528 0.1791962934 0.5330740345
C 2.2987286428 0.2341996213 1.7405684944
C 0.9274082440 0.0407089285 1.7732625410
C 4.4750820950 0.3842201958 0.4994862121
C 5.0912205034 1.3119420884 1.3523503862
C 6.4685493263 1.5053715059 1.3191195579
C 7.2597896257 0.7780041982 0.4318656711
C 6.6600052924 -0.1463825919 -0.4213919870
C 5.2832139462 -0.3426401627 -0.3873540349
O -4.3365796904 -0.9308578490 -0.7602902928
H -1.6732072633 2.0733340144 0.1775493342
H -2.5261668085 1.7961278728 1.7086474307
H -2.9704828535 3.1668895052 0.6727874898
H -4.0398612555 2.7945886834 -1.5599511427
H -2.8330823815 1.6044710038 -2.0481728243
H -4.5567566080 1.1786307025 -2.0716431628
H -5.0329931881 1.2253072231 1.6713523194
H -5.3305833328 2.5774268892 0.5621666599
H -5.8581986035 0.9412343989 0.1234663542
H -3.4870608411 -0.5351691173 1.1005432524
H -1.6303808304 0.0013605189 -1.2467458371
H -1.2962401068 -1.8745259723 -2.8629735066
H -2.2194052490 -5.0699915762 -0.3302411310
H 0.4059925626 -0.4639048478 -1.5602829333
H 2.8070971226 -0.1069758081 -1.5920660014
H 2.8264332511 0.4098858663 2.6727440145
H 0.3811773421 0.0756020317 2.7103463874
H 4.4836671051 1.9028693888 2.0310123388
H 6.9241247765 2.2343593060 1.9825218796
H 8.3342171571 0.9301273492 0.4058424837
H 7.2678819726 -0.7250980766 -1.1103073580
H 4.8311849706 -1.0833469327 -1.0399690715
H -4.3958649007 -1.8384560372 -0.4352979642
