54
CONF3
C -1.8555451990 1.6285601860 0.0756468634
C -1.6867615466 0.1246442658 -0.1854774884
C -1.0531844174 -0.1080587861 -1.5507593942
C 0.3916306964 0.4199701134 -1.6163669439
C 1.2757943175 -0.0802471902 -0.4514887041
C 0.5957459885 0.0191643558 0.9396192334
C -0.8053305390 -0.5720675154 0.8709056085
C -1.6609972264 -0.5606884433 2.1430924566
C -3.1218725434 -0.6560695362 1.6261097971
C -3.0439499507 -0.6250803024 0.0813332367
C -4.2312243391 0.0621831917 -0.5734858343
O -4.8113740019 1.0142067048 -0.0724650597
C -4.6888325330 -0.4499470566 -1.9219186719
O -5.6861690983 0.3844381227 -2.4769291579
O -2.9089250778 -1.9434447927 -0.4677927411
C 1.4387844432 -0.6985793796 1.9936380318
C 2.8713305658 -0.1463470899 2.0442160852
C 3.4715754498 -0.1665067584 0.6755047553
C 4.5715103451 -0.9000541810 0.4066071217
C 5.1561702059 -0.9991729539 -0.9235148541
O 6.1634496168 -1.6939427140 -1.1461946123
C 4.5130851963 -0.2154128779 -1.9725110805
C 3.4063916284 0.5045154284 -1.7297809596
C 2.7222737033 0.5849905054 -0.4007363043
C 2.6507722485 2.0957069849 -0.0562666599
O 0.9358184476 0.0475468626 -2.8936588903
H -2.3361366516 1.8347911782 1.0347781608
H -2.4634043154 2.0849551786 -0.7110623935
H -0.8883249992 2.1349568086 0.0736038849
H -1.0269216812 -1.1836295580 -1.7606488525
H -1.6186269343 0.3787028785 -2.3543821831
H 0.3812072154 1.5147128933 -1.6342926506
H 1.4446773656 -1.1535779559 -0.6410701796
H 0.5105607770 1.0711607418 1.2364659093
H -0.7005953788 -1.6160200427 0.5441708467
H -1.4107930233 -1.3868282565 2.8130986636
H -1.5077023609 0.3701682398 2.7006829926
H -3.6211633396 -1.5764354789 1.9446761781
H -3.7284446684 0.1802380628 1.9801062614
H -3.8187393532 -0.5209975199 -2.5908596345
H -5.0636355435 -1.4763790273 -1.7891477133
H -5.8860256919 1.0450437549 -1.7906130652
H -3.5777228212 -2.5051208660 -0.0546836269
H 1.4718122916 -1.7710258342 1.7566028091
H 0.9744866176 -0.5942291737 2.9798873087
H 2.8400631152 0.8823275581 2.4255878175
H 3.4876417891 -0.7333846033 2.7311289095
H 5.0662729287 -1.4577031438 1.1989272643
H 4.9826968174 -0.2160399505 -2.9526918032
H 2.9859369710 1.1210678824 -2.5156765045
H 3.6649348559 2.5012632949 0.0099171390
H 2.1472511170 2.2827528460 0.8924864615
H 2.1202924266 2.6379318541 -0.8434592557
H 0.9602356972 -0.9190090005 -2.9277081948
