56
CONF7
C 1.3449271572 -0.0650923170 1.8930286377
C 1.9464164352 -1.3417587553 1.3260135419
N 3.2106994341 -1.0550571567 0.6374394343
C 2.9789541374 -0.0678082587 -0.4214111876
C 2.3749328464 1.2046023460 0.1533416100
N 1.1108254447 0.9008088281 0.8221647429
C 0.4181352618 2.0959929976 1.3038368663
C -0.1501921595 2.9484284408 0.1647329141
C -0.8538087418 2.0963238630 -0.8935529352
N -1.8544166507 1.2057715096 -0.2905700316
C -2.9810771745 1.7672759038 0.3325757997
C -3.4807803958 3.0195822047 -0.0493149052
C -4.5928322179 3.5654702023 0.5858373367
C -5.2511816211 2.8650779446 1.5914862339
C -4.7790114226 1.6102481545 1.9693918761
C -3.6425851816 1.0816759361 1.3649894136
S -2.9516082637 -0.4380418171 1.9829470346
C -2.2716864920 -1.0720504187 0.4712967068
C -1.7726982183 -0.1754966758 -0.4903266060
C -1.1785891062 -0.7144900325 -1.6400776864
C -1.0170264914 -2.0892870489 -1.7692218055
C -1.4997062509 -2.9706747189 -0.8034635953
C -2.1553367725 -2.4500848902 0.3039175157
C -0.3084234492 -2.6591102464 -2.9576238102
F 0.1375744824 -1.7151306919 -3.8163495862
F -1.1040397665 -3.4992300551 -3.6760006641
F 0.7769595511 -3.3969968482 -2.5895230136
C 3.8320772241 -2.2737326408 0.1048992118
C 4.5057126555 -3.0644016717 1.2183611208
O 5.4253974815 -2.2348508960 1.9395291088
H 0.3862601182 -0.3045880140 2.3694469876
H 2.0193059350 0.3422643910 2.6739506067
H 1.2194034316 -1.8107753889 0.6315678278
H 2.1274478360 -2.0451721276 2.1456272523
H 2.2980220765 -0.4700104845 -1.1996014970
H 3.9361106036 0.1665387755 -0.9009783103
H 3.0984537882 1.6757082627 0.8500064260
H 2.1981721852 1.9090138496 -0.6670297005
H 1.0698942420 2.7253265538 1.9410452674
H -0.4119252274 1.7541158842 1.9346115892
H -0.8326846897 3.6885171804 0.5969354587
H 0.6389647067 3.5150555336 -0.3426816369
H -1.2889116443 2.7234329961 -1.6812125653
H -0.1034343656 1.4643139417 -1.3650696652
H -2.9979595506 3.5760586669 -0.8434305873
H -4.9486694225 4.5437832057 0.2787745979
H -6.1226361808 3.2858047101 2.0815653048
H -5.2737895326 1.0491099320 2.7564084019
H -0.8261121206 -0.0604775063 -2.4262778321
H -1.3715933381 -4.0421494822 -0.9119111850
H -2.5488465585 -3.1149269995 1.0662501585
H 4.5972547999 -1.9713434271 -0.6202781800
H 3.1028916767 -2.9170282936 -0.4240631917
H 3.7604053062 -3.4948133219 1.9037576040
H 5.0759913608 -3.8923324943 0.7848302219
H 4.9803725377 -1.3733894392 2.0013031949
