40
CONF37
C -0.1161714717 -0.8872437075 2.5635467293
C -0.1561767670 -1.9458018518 1.4507423848
C -0.0740750873 -3.3403979313 2.0962601765
C -1.4324990344 -1.8959707805 0.6039351389
C -2.5656922831 -1.1849027402 1.0059328300
C -3.7251848198 -1.1949057990 0.2295129496
C -3.7688124473 -1.9155084873 -0.9586593761
C -2.6428482605 -2.6292716872 -1.3681489625
C -1.4885725120 -2.6185582673 -0.5944894097
N 1.0356159539 -1.8295242600 0.5811007629
C 1.4163088281 -0.7535404750 -0.1896168568
O 2.5801318788 -0.6483161724 -0.6042923401
N 0.4570621938 0.1686350880 -0.5014729496
C 0.7399449391 1.2467358254 -1.4257259329
C 1.3807697718 2.4656732713 -0.7923720089
C 1.6964669355 2.5224044586 0.5656450098
C 2.2899997573 3.6486645549 1.1279166987
C 2.5825627567 4.7532362826 0.3340715209
C 2.2800172780 4.7279257049 -1.0241858279
C 1.6889454343 3.5908817226 -1.5599360478
Cl 1.3145782967 3.5869969053 -3.2876907069
H -0.8994738943 -1.0671656159 3.3050154094
H -0.2357394341 0.1268881233 2.1726003852
H 0.8502299091 -0.9522165557 3.0711748488
H 0.8281084827 -3.4195037081 2.7131804748
H -0.9466897992 -3.4987471534 2.7345183666
H -0.0539760508 -4.1209847120 1.3307301239
H -2.5557113590 -0.6104512597 1.9251600521
H -4.5936072271 -0.6322962968 0.5583384696
H -4.6696774125 -1.9195932866 -1.5642205328
H -2.6633973523 -3.1926161488 -2.2961900242
H -0.6114230190 -3.1653361964 -0.9265444335
H 1.8358527016 -2.3658086512 0.8853836898
H -0.5068303563 -0.0094171394 -0.2641091513
H -0.2047777863 1.5416310594 -1.8955942888
H 1.3942247928 0.8817012102 -2.2264524992
H 1.4710515986 1.6619602644 1.1865977728
H 2.5247226705 3.6605311121 2.1873236953
H 3.0456319088 5.6360903640 0.7624591073
H 2.4991093915 5.5781236400 -1.6603996215
