22
CONF2
C -0.8439758059 -0.0436215281 -0.0039601893
C -1.5387328121 0.8134633291 0.8505928157
C -2.9358287314 0.8152705564 0.8900255498
C -3.6475121291 -0.0583608449 0.0573204069
C -2.9637968004 -0.9245481747 -0.8059757231
C -1.5664231750 -0.9080469765 -0.8277206634
Cl -0.6967288030 -1.9693680597 -1.8848970469
Cl -3.8391540829 -2.0012035843 -1.8316192634
Cl -5.3724609531 -0.0674566628 0.0951604960
Cl -3.7765750705 1.8826756439 1.9535766584
Cl -0.6345092517 1.8838108001 1.8690181513
C 0.6368212143 -0.0370489539 -0.0356785331
C 1.3672013851 -0.8736605651 0.8095145171
C 2.7646751843 -0.8774677767 0.7881551115
C 3.4403625646 -0.0267914552 -0.0966272349
C 2.7206441156 0.8188685198 -0.9510229136
C 1.3236224358 0.8048235416 -0.9115121704
Cl 0.4094147941 1.8402980177 -1.9567358746
Cl 3.5513731062 1.8668380963 -2.0413973511
Cl 5.1653228011 -0.0204032059 -0.1342352156
Cl 3.6500470728 -1.9192650785 1.8408680669
Cl 0.5074366875 -1.9158793239 1.8934492172
