46
CONF198
C 6.4338038130 4.0307078923 1.5998612962
C 5.7973602844 2.7919262218 1.0177258154
O 4.3923890577 2.8181618570 1.4117000334
C 3.6113252855 1.8148303124 1.0128495275
N 4.1212106131 0.8363529482 0.2774585515
C 3.2284111871 -0.1222973397 -0.0644112371
N 1.9269760450 -0.1186828431 0.2969955639
C 1.5585609506 0.9303298557 1.0351167187
N 2.3387982699 1.9369363880 1.4323456046
N 0.2385900049 1.0228644200 1.4452864335
C -0.8477523821 0.1785425071 1.2246727074
O -1.9633802050 0.4812528846 1.6191843450
N -0.5562473178 -0.9872776936 0.5503119918
S -1.7554965085 -2.0773171114 0.0578296492
O -1.0199705916 -3.0209516275 -0.7946891748
O -2.4934656993 -2.5649811781 1.2258807882
C -2.8511656193 -1.0801943521 -0.9558165222
C -2.2695014566 -0.3571014729 -1.9946496934
C -3.0735847556 0.4308337826 -2.8068027768
C -4.4461462354 0.4902067217 -2.5754173130
C -5.0169549152 -0.2410433438 -1.5406132068
C -4.2240606509 -1.0422804875 -0.7154987784
C -4.9259566814 -1.8716599848 0.3219427630
O -5.2897506292 -3.0107028790 0.1246276672
O -5.1770430986 -1.1600410755 1.4223257539
C -5.8739133918 -1.8740574124 2.4796935983
N 3.6642091420 -1.1419942769 -0.8112475137
C 2.8117090543 -2.2371577822 -1.2526803795
H 6.3578258840 4.0339707155 2.6906928970
H 7.4928289111 4.0489306125 1.3271431299
H 5.9604311285 4.9351570572 1.2079512932
H 5.8531948809 2.7757525584 -0.0749138001
H 6.2514457184 1.8753608009 1.4062614570
H 0.0084181782 1.8535668407 1.9755509851
H 0.4012592549 -1.0911323792 0.1690701764
H -1.1974593608 -0.4019284496 -2.1592096333
H -2.6274264538 0.9998493611 -3.6150172715
H -5.0771482205 1.1096334945 -3.2038513283
H -6.0872738186 -0.1984779421 -1.3656692935
H -5.9733218977 -1.1555997375 3.2914870255
H -5.2809843797 -2.7362470300 2.7930455309
H -6.8543604902 -2.2006370827 2.1263313966
H 4.6368458670 -1.1304764062 -1.0751292159
H 3.4170966502 -2.9182932228 -1.8515065031
H 2.3990052170 -2.7858516618 -0.3990566121
H 1.9806690656 -1.8687828352 -1.8642197504
