33
CONF8
C -3.7579520815 2.6295531156 0.1814342274
C -4.0651072249 1.2551659013 -0.4046542122
C -4.6078748203 0.2528565237 0.6061893180
S -3.4361371724 -0.1532697310 1.9834069722
C -2.0309149473 -0.7743038480 1.0639118115
C -2.1545087198 -1.9357492918 0.2768550588
C -1.0774699180 -2.4473850028 -0.4373964809
C 0.1501425901 -1.7916790659 -0.3359464533
C 0.2595186848 -0.6368890711 0.4725404053
C -0.8121747963 -0.0992609513 1.1711904365
N 1.5792284700 -0.2400889387 0.3548001753
C 2.1772185188 -1.1389807205 -0.4828466551
N 1.3709855963 -2.0858524013 -0.9243799029
N 3.5056467073 -1.0715903082 -0.8426394126
C 4.3976774891 -0.1159886536 -0.4169884518
O 4.1297031531 0.8036405390 0.3385146950
O 5.6038829560 -0.3509989782 -0.9570442580
C 6.6381719332 0.5946914862 -0.5822916598
H -4.6458255933 3.0554102916 0.6620205336
H -3.4300898924 3.3207584662 -0.6007027979
H -2.9656348197 2.5680092925 0.9338324262
H -3.1688415961 0.8382670208 -0.8805442699
H -4.8197737729 1.3499033384 -1.1967093522
H -4.8956427458 -0.6820658927 0.1160129576
H -5.4915627478 0.6503993811 1.1190806031
H -3.1136472519 -2.4411302807 0.2293283303
H -1.1848000844 -3.3396581951 -1.0459469268
H -0.7173082292 0.8026480768 1.7658934064
H 2.0450065380 0.5466554864 0.7849187925
H 3.8327118503 -1.7935167458 -1.4707835906
H 6.3615610043 1.6007897314 -0.9047523069
H 7.5315941780 0.2559617929 -1.1042912383
H 6.7922182528 0.5736979343 0.4987090108
