44
CONF26
C -5.3504004116 1.9701392706 1.0994011062
N -3.9750501539 1.6576658662 0.6928203121
C -3.9345421196 0.6469750402 -0.3885380861
C -4.2523313460 -0.7067562263 0.3067937202
C -3.7731940162 -0.4924476723 1.7661747204
C -3.2273360903 0.9632806960 1.7657241994
C -1.7379192221 1.0132636137 1.3971801110
C -1.5062105205 0.2700342223 0.0897664787
C -2.5190892363 0.6614954048 -0.9814171623
O -0.1497763451 0.6055722641 -0.3555471855
C 0.4727410404 -0.2778068828 -1.1521771122
O -0.0098488361 -1.3288221923 -1.5240191628
C 1.8788469167 0.1911230625 -1.4884420831
C 2.2327493755 -0.1844179795 -2.9325203685
O 1.3373710174 0.4106677956 -3.8731136090
C 2.8666066027 -0.4111087592 -0.5062345276
C 3.6973047185 0.4197102622 0.2494384012
C 4.6299492495 -0.1229401337 1.1299827400
C 4.7417032816 -1.5045043126 1.2658016847
C 3.9150421533 -2.3395313523 0.5167176201
C 2.9829866092 -1.7978026826 -0.3640075034
H -5.8769015780 2.4341390472 0.2589361191
H -5.9367135501 1.0953112441 1.4275380539
H -5.3262837796 2.6894225974 1.9247323515
H -4.6612007117 0.9007513708 -1.1668685527
H -5.3254840615 -0.9123607306 0.2720795257
H -3.7450612736 -1.5409170639 -0.1871428214
H -3.0048442905 -1.2100519580 2.0691554394
H -4.6038331118 -0.5894610935 2.4702151394
H -3.3853418501 1.4718831017 2.7219747756
H -1.1317437598 0.5649437827 2.1921770649
H -1.4359983501 2.0602999067 1.2825682658
H -1.5331187669 -0.8107261887 0.2553690493
H -2.2928192660 1.6727537058 -1.3382635952
H -2.4513283371 -0.0280078527 -1.8292004025
H 3.2726258647 0.1108818492 -3.1270201449
H 2.1463693199 -1.2660883122 -3.0657822937
H 5.2687423495 0.5355126246 1.7106138254
H 5.4678908445 -1.9286068928 1.9521428516
H 3.9948013226 -3.4175217499 0.6185211312
H 2.3376052461 -2.4556410108 -0.9378866594
H 3.6125381075 1.4977798916 0.1455672822
H 1.9105093595 1.2806668319 -1.3867006458
H 1.4950189563 1.3634195372 -3.8706894578
