46
CONF61
C -3.3543198639 -1.3988584946 -1.7170264392
C -2.3603657588 -2.0085799536 -0.7574504631
C -2.5965106481 -3.4753496775 -0.4763906110
C -1.8207480220 -1.1360142959 0.3521855601
C -1.5742560646 -1.6548208755 1.7068070447
C -2.2985890834 -1.3286180622 2.7761188738
Cl -1.9509910568 -1.9368430018 4.3676793634
Cl -3.6583871222 -0.2468111839 2.7046971020
C -0.8984767218 -1.5639548651 -0.7793570201
C -0.4128292152 -0.5274925030 -1.7128863765
O -0.9468296291 0.5306843306 -1.9588139993
O 0.7632646501 -0.9288147712 -2.2749941556
C 1.4058495909 0.0338169021 -3.1300676558
C 2.1517881140 1.0942142844 -2.3575418162
C 2.2069775039 1.0779828961 -0.9704637708
C 2.8726307629 2.0981199994 -0.2960829439
O 2.9622511130 2.1024463258 1.0813589335
C 1.8293055198 1.8330607169 1.8282253814
C 0.5486721744 2.1897041784 1.4079794669
C -0.5275742726 1.9606539925 2.2591363120
C -0.3356504916 1.3882397701 3.5132382339
C 0.9488591314 1.0331573912 3.9149464398
C 2.0357152113 1.2501212231 3.0751250517
C 3.5246684776 3.1113790546 -0.9860077072
C 3.4886790242 3.1041766274 -2.3775709445
C 2.7976228039 2.1128651231 -3.0630297356
H -3.3120210563 -1.9093909045 -2.6859507373
H -3.1682116857 -0.3367692070 -1.8793093816
H -4.3659600438 -1.5215445901 -1.3156042453
H -3.5763597733 -3.6128451970 -0.0060933837
H -2.5851854600 -4.0451445670 -1.4113753868
H -1.8424129065 -3.8982206669 0.1915114190
H -2.1349782489 -0.0971005612 0.2919568934
H -0.7494600055 -2.3420551976 1.8697496652
H -0.1764322087 -2.3427240577 -0.5554894888
H 2.0957985646 -0.5557604808 -3.7410768003
H 0.6590546776 0.5025536762 -3.7802960805
H 1.7271928116 0.2908843935 -0.4008180901
H 0.3966681010 2.6398856286 0.4333241380
H -1.5257069917 2.2422245719 1.9383454160
H -1.1811290344 1.2173354591 4.1705122129
H 1.1081048488 0.5802953207 4.8883390552
H 3.0446908048 0.9854483142 3.3719893281
H 4.0403664438 3.8872899104 -0.4318109209
H 3.9906707446 3.8923389762 -2.9293332915
H 2.7545546983 2.1317760877 -4.1483846573
