26
CONF239
C -2.9742339008 0.4736806794 -0.1780587849
C -1.5973109660 -0.1272407285 0.0475199158
C -0.5230513867 0.9657394703 0.1145476724
C 0.8526812435 0.5015019996 0.6168399355
C 1.4379603890 -0.6959957110 -0.1461508270
C 2.9231399957 -0.8838929886 0.1512708705
O 3.3685783098 -2.1527842150 -0.3576504019
O 0.7269810989 -1.8684281244 0.2862560431
O 1.7480280266 1.6139150553 0.5670299156
O -0.3143121008 1.5096998344 -1.2045573206
O -1.6784633501 -0.8585287867 1.2773247317
O -3.9708181816 -0.5393185710 -0.3268724221
H -3.2143169285 1.1400327946 0.6666843000
H -2.9821252763 1.0623379424 -1.0998998256
H -1.3599207958 -0.8034305764 -0.7862282430
H -0.8559221173 1.7602200108 0.7985704453
H 0.7688489405 0.2146118588 1.6713856735
H 1.3004423395 -0.5590243343 -1.2320806748
H 3.0819668895 -0.9177255148 1.2348381913
H 3.5084010161 -0.0600464769 -0.2684322255
H 1.2772323665 -2.6275906184 0.0399738676
H 1.6121770344 2.0253639494 -0.3005631524
H -0.8400188150 2.3126325033 -1.2930510228
H -0.9421719008 -1.4910188537 1.2594441671
H 3.4424328223 -2.0768681181 -1.3180074259
H -3.8766172162 -1.1240182442 0.4375559826
