39
CONF27
C 1.7754895481 4.4863513074 -0.2650570579
C 2.1760460174 3.1610089447 0.2892534393
C 2.0784813736 1.8799479967 -0.2095146444
C 2.6105526736 0.8599534738 0.6586046501
C 3.1160005649 1.3993660803 1.8119617461
S 2.9333009693 3.1075097216 1.8534248482
C 2.5424195571 -0.6041147234 0.4574353185
O 1.7227473597 -1.1794647479 -0.2350150597
O 3.4818655291 -1.2353306352 1.1769058650
C 3.4336594340 -2.6851583311 1.1301738799
S 1.4794090280 1.5512765335 -1.8488828344
O 1.1713209509 2.8140809700 -2.5182745742
O 2.3584837966 0.5786597097 -2.5047817107
N 0.0037638479 0.7012258053 -1.6397603005
C -0.9958775722 1.2447792373 -0.8412363880
O -1.0783779216 2.4178235634 -0.5340144805
N -1.9276761230 0.2852767753 -0.4368212253
C -3.0770366750 0.5087196104 0.3489962583
O -3.5221197285 1.5439167556 0.8032902415
N -3.5983445121 -0.7722273890 0.4845000255
C -2.7767182322 -1.6393505606 -0.1860259858
N -1.7590889081 -1.0664181865 -0.7622339529
O -3.0750441411 -2.9220655444 -0.1879484727
C -2.1441395918 -3.7772658761 -0.9116308836
C -4.8099304225 -1.1064330417 1.2194306687
H 1.9033685379 5.2665373674 0.4881424961
H 2.3840710048 4.7415538682 -1.1370412629
H 0.7312994789 4.4636046203 -0.5834462388
H 3.5524283606 0.8697008608 2.6474183201
H 3.5869906068 -3.0308295961 0.1054874744
H 4.2454359745 -3.0176968910 1.7750124430
H 2.4705159275 -3.0397582376 1.5042505611
H 0.1470352915 -0.3063422616 -1.5688282608
H -2.5418017623 -4.7836645731 -0.7987594803
H -2.1173087579 -3.4840143767 -1.9636408695
H -1.1496227688 -3.6979071646 -0.4661253141
H -4.5748051007 -1.7820552131 2.0454475334
H -5.5359130565 -1.5758022440 0.5512960976
H -5.2208792620 -0.1753944228 1.6122675240
