47
CONF152
C -7.6551525311 -0.2773963267 1.2757359243
O -6.3656933803 0.1545544398 1.7666148030
P -5.5081817295 1.2151509588 0.9217234575
S -5.4535264805 1.0011833463 -0.9963813771
O -6.0786382768 2.6005041119 1.4971275159
C -5.6605315131 3.8469095014 0.8969212867
O -4.0932091901 1.1444155152 1.7144006447
C -3.1787869748 0.1218639991 1.4461033014
C -2.1576788785 0.3504107276 0.5331712409
C -1.2169318753 -0.6435827283 0.3036617129
C -1.2889334624 -1.8504795902 1.0041732927
C -2.3168105276 -2.0597291280 1.9258953029
C -3.2746799675 -1.0749294994 2.1405767883
S -0.1494633544 -3.1943572226 0.7045793012
C 1.3958191066 -2.3381260777 0.4400208020
C 1.8442501751 -1.3509663477 1.3224140148
C 3.0681564141 -0.7327347689 1.1124628101
C 3.8492316332 -1.1273239020 0.0325167343
C 3.4306528364 -2.1175678246 -0.8429953608
C 2.1918238435 -2.7180008524 -0.6414102199
O 5.1082768029 -0.5479562441 -0.1437140784
P 5.2742848380 0.8161703397 -1.0135873620
S 4.2104178903 2.3478402776 -0.5528917149
O 5.0666755739 0.1944136027 -2.4934101458
C 4.8595452014 1.0842523181 -3.6136433648
O 6.8492581857 1.0603210196 -0.8568683716
C 7.7866880340 -0.0099359805 -1.1310349801
H -8.3677587393 0.5526810912 1.3039434853
H -7.9792119005 -1.0694032237 1.9516068269
H -7.5634730182 -0.6595759409 0.2551208676
H -5.8612600386 3.8365483595 -0.1784440758
H -6.2477212272 4.6242961372 1.3867617216
H -4.5943354331 4.0151390902 1.0788965707
H -2.1196211782 1.2912431118 -0.0036377866
H -0.4253750936 -0.4797640392 -0.4193275144
H -2.3634342811 -2.9899229781 2.4825118057
H -4.0792261320 -1.2186366634 2.8526626559
H 1.2294705050 -1.0614187727 2.1678167828
H 3.4272876861 0.0450699356 1.7762459836
H 4.0603989410 -2.3954119896 -1.6802316581
H 1.8375543713 -3.4760751055 -1.3317340271
H 3.9880417113 1.7198081080 -3.4348026161
H 5.7444915508 1.7074596944 -3.7787216756
H 4.6910365864 0.4399701879 -4.4775718970
H 7.5890778543 -0.4560428781 -2.1105438206
H 8.7740909990 0.4527837705 -1.1240407120
H 7.7231033481 -0.7736513640 -0.3516268731
