55
CONF93
C -8.1126957457 -1.1650296087 0.1707990245
C -6.7213554357 -0.9354293710 0.7092994022
O -5.8627928955 -0.6543123358 -0.4355360206
C -4.5646875070 -0.4138410026 -0.1428786401
O -4.0982144548 -0.4090747168 0.9844118359
N -3.8783278100 -0.1830504891 -1.3059060216
C -2.5140132418 0.0897399229 -1.4549601213
C -1.6756595802 0.4145798671 -0.3851986442
C -0.3231039452 0.6423318635 -0.6222772084
C 0.1892066141 0.6487589248 -1.9208931994
C -0.6591688749 0.3612272388 -2.9896122365
C -1.9909175135 0.0595417454 -2.7573507969
S 1.9029035930 1.0479320606 -2.1818281378
C 2.0745987575 2.2641734318 -0.8895603744
C 2.9018862577 3.3729467653 -1.0675980237
C 3.0207197949 4.3105044688 -0.0471276280
C 2.2886372896 4.1640231529 1.1304800359
C 1.4514506748 3.0666389872 1.3033787059
C 1.3657120382 2.0999629686 0.3047627678
N 0.5608280396 0.9281477843 0.4597514833
C 0.8247017782 0.0483009739 1.5048670525
O 1.6019028105 0.3561912904 2.4014402085
C 0.1244694362 -1.2978032132 1.4879483149
C 1.0046556914 -2.4396797867 2.0027351756
N 1.8574707303 -3.0104366219 0.9521337937
C 2.8540438401 -2.0512402298 0.4608076260
C 3.7206691218 -2.7003949010 -0.6043611264
O 4.3931957039 -3.8586992522 -0.0977678284
C 3.4289064015 -4.8033188486 0.3827150155
C 2.5575732012 -4.1946992938 1.4678324585
H -8.7864891471 -1.3812569329 1.0047630128
H -8.1310936394 -2.0147350664 -0.5172943840
H -8.4821500204 -0.2773791234 -0.3502012730
H -6.3322963765 -1.8176890061 1.2269957735
H -6.6829836527 -0.0809399681 1.3919459839
H 1.5972844349 -2.0891586276 2.8668625591
H -0.2760423380 0.3681643670 -4.0046868511
H -2.6414820359 -0.1788288937 -3.5934285799
H 3.4422390666 3.4992625960 -2.0002943789
H 3.6698347069 5.1692810611 -0.1832024352
H 2.3647966951 4.9084727195 1.9159439998
H 0.8763100547 2.9427393045 2.2131689711
H -0.7452235754 -1.2007167037 2.1499946446
H -0.2586180380 -1.5504973075 0.4971840515
H 0.3491425741 -3.2428956371 2.3568222601
H 2.3498458050 -1.1922455740 0.0022951790
H 3.4930530816 -1.6739167809 1.2830867155
H 3.0984740893 -2.9828808856 -1.4695881076
H 4.4971474187 -2.0052048233 -0.9363155421
H 2.8008443956 -5.1470128172 -0.4553082232
H 3.9917764727 -5.6534316153 0.7786494486
H 3.1904253809 -3.9403260516 2.3413266084
H 1.8175057794 -4.9361049824 1.7932056650
H -2.0579265841 0.4665112855 0.6239134546
H -4.4123468895 -0.2833228811 -2.1577774255
