44
CONF18
C -4.9517789363 0.7149276037 1.6957135709
N -3.6140131815 0.3247437876 1.2332778349
C -3.1600716072 1.1590061928 0.0972118787
C -3.9613108759 0.6449342416 -1.1321421497
C -4.2724229810 -0.8324087354 -0.7767413573
C -3.6154273630 -1.0230762553 0.6190292207
C -2.1549010108 -1.4806510479 0.5057496631
C -1.3893955962 -0.5360766999 -0.4085656990
C -1.6526864606 0.9286072909 -0.0736078465
O 0.0362256023 -0.8390661009 -0.2314089216
C 0.8693566929 -0.5067094233 -1.2238526441
O 0.5140831261 -0.0394900497 -2.2927875798
C 2.3136109321 -0.7713208604 -0.8395687598
C 3.2257147632 -0.7138605691 -2.0778634488
O 3.2912130793 0.5772546151 -2.6770793619
C 2.7615132433 0.1743096493 0.2570195912
C 3.6127889617 -0.2867241017 1.2640796452
C 4.0742702063 0.5785642749 2.2529799207
C 3.6858148145 1.9165103218 2.2485545569
C 2.8346506449 2.3832229009 1.2490029189
C 2.3771151102 1.5180419899 0.2584816562
H -5.7271408409 0.6904674097 0.9117305420
H -5.2640944794 0.0422947037 2.5013272855
H -4.9100525936 1.7323262201 2.0983100815
H -3.3476634634 2.2162876388 0.3095220091
H -4.8813179999 1.2217948714 -1.2576166168
H -3.3855569211 0.7453744938 -2.0571661445
H -3.8722777871 -1.5381179097 -1.5108876503
H -5.3505910897 -1.0027327854 -0.7168491771
H -4.1695786729 -1.7230885754 1.2522374254
H -2.1035379733 -2.5020640445 0.1131218924
H -1.7022460848 -1.4709190294 1.5035506315
H -1.6351921762 -0.7352830530 -1.4553366447
H -1.1437314583 1.1806885081 0.8639842265
H -1.2558725703 1.5719828189 -0.8657553177
H 4.2434417611 -0.9699936599 -1.7688087553
H 2.8845194453 -1.4666822440 -2.8028783049
H 3.9144860606 -1.3307041046 1.2731632719
H 4.7333903119 0.2050704988 3.0307599234
H 4.0412046637 2.5908019174 3.0214332139
H 2.5248980514 3.4237959148 1.2393013721
H 1.7134055440 1.8928934843 -0.5157931638
H 2.3610563393 -1.7955092069 -0.4488795926
H 2.3904031191 0.7809188646 -2.9686505170
