22
CONF67
C 2.3593474545 0.0466517108 -0.3605400919
C 0.8826732401 -0.3014377833 -0.2097385092
C 0.0083388870 0.9548091309 -0.0702690160
C -1.5152908458 0.7385319406 -0.1373617708
C -2.1412356625 -0.1775976644 0.9145738199
O -1.9584808924 -1.5623077473 0.6033441400
O -1.8837429819 0.3016535852 -1.4531386210
O 0.3641450683 1.8985544977 -1.0890083514
O 0.7269848455 -1.1826918436 0.9265596604
O 3.1611920570 -1.1317140793 -0.4654103980
H 2.6748914399 0.6637648021 0.4977999099
H 2.5186393840 0.6212775544 -1.2743539353
H 0.5639058035 -0.8956305168 -1.0757623590
H 0.2456008147 1.4354844342 0.8899944225
H -1.9542499744 1.7368232784 -0.0083383452
H -1.7455105249 0.0693786477 1.9097868621
H -3.2219757805 -0.0049526426 0.9209395181
H -1.0172187559 -1.7450668433 0.7851333978
H -1.8891533164 -0.6681972688 -1.4190941536
H -0.0450498503 1.5761525201 -1.9064882552
H 0.9305818903 -0.6820323206 1.7310983913
H 2.9356079065 -1.6914533867 0.2902737744
