57
CONF249
C -0.6307789830 0.1072218982 -5.5014495069
C -1.2086686730 1.1266266901 -4.5134318497
C -0.3272870319 1.2172118528 -3.2756074362
O 0.7665145751 1.7701078180 -3.3604574799
N -0.7862094519 0.6502965835 -2.1060012278
C -2.0690272194 0.0100904346 -2.0722258449
C -2.1891174497 -1.3215111620 -2.4675496088
C -3.4335554622 -1.9435563536 -2.4523396578
C -4.5594716928 -1.2398753589 -2.0348634437
C -4.4364065696 0.0873793089 -1.6306330392
C -3.1948498551 0.7137940194 -1.6465234249
C 0.0282675585 0.7484146880 -0.8413266898
C -0.6950115764 0.0124552717 0.3006830537
C 0.1774382164 -0.1236414629 1.5442581050
N 1.4104763034 -0.8550236048 1.2489063197
C 2.1819898355 -0.1255389929 0.2405261659
C 1.3896253203 0.0537743393 -1.0506822289
C 2.2124669851 -1.0788236954 2.4499395757
C 1.6221231594 -2.1640796159 3.3645935101
C 2.4859932190 -2.4294836746 4.5549564525
C 2.2964710451 -2.0334191699 5.8526101944
C 3.3467801354 -2.4191353901 6.7286884540
C 4.3404274291 -3.1089360732 6.0946660252
S 3.9948088178 -3.2945871485 4.4067090121
C 0.2181973777 2.2287303772 -0.4896537692
O -1.0574182636 2.8217376920 -0.2649214166
C -0.9473238233 4.2118555248 -0.0104044100
H -0.6820607736 -0.9080596729 -5.0958402450
H 0.4155472260 0.3404093073 -5.7151428570
H -1.1905613039 0.1229517290 -6.4407990608
H -1.1781974532 2.1236918384 -4.9639878970
H -2.2480428910 0.8885550576 -4.2809590362
H -1.3014941048 -1.8604906636 -2.7834024314
H -3.5223603926 -2.9793125103 -2.7641069509
H -5.5301604735 -1.7247756677 -2.0230357588
H -5.3124044290 0.6386937496 -1.3036449119
H -3.0742125792 1.7450445086 -1.3322090396
H -0.9604999852 -0.9950438373 -0.0343923141
H -1.6197085102 0.5321427411 0.5642602505
H -0.3969511343 -0.6748972363 2.2956418043
H 0.3963584356 0.8724373521 1.9819989136
H 3.0875271611 -0.7012970039 0.0139871516
H 2.5234963117 0.8577216990 0.6254709160
H 1.9857575664 0.6091564046 -1.7771872232
H 1.1851040690 -0.9372477273 -1.4733476581
H 3.2103256713 -1.4061783163 2.1332684070
H 2.3562390010 -0.1484947116 3.0364919765
H 0.6390990292 -1.8594399513 3.7376057126
H 1.4725157712 -3.0725595886 2.7700413985
H 1.4186591159 -1.4805981233 6.1678441763
H 3.3633975177 -2.1967887673 7.7887182106
H 5.2464094231 -3.5229674224 6.5142361068
H 0.8312629908 2.3146543363 0.4203564388
H 0.7421438624 2.7370627115 -1.3079323074
H -0.3454157633 4.4095668185 0.8907187372
H -0.4895524601 4.7401208783 -0.8606751637
H -1.9586756391 4.5947352431 0.1475562335
