45
CONF3
C 1.3786748061 -3.2542292072 0.6948946792
O 2.0983860009 -2.6353024054 1.7855806204
C 2.3726807740 -1.3324358261 1.6820225617
C 3.0701552336 -0.7258725261 2.7198406949
C 3.3326440581 0.6310119201 2.5502759299
O 4.0107018232 1.2510443593 3.5277879201
C 4.2852085717 2.6539450339 3.3526522288
N 2.9453164538 1.3304024581 1.4807592163
C 2.2796548582 0.6322294852 0.5566345314
N 1.8753783129 1.3811011295 -0.5426394985
C 1.0787732990 1.0593131415 -1.6434825530
O 0.7457932686 1.9233702383 -2.4362693342
N 0.7273339201 -0.2716054785 -1.7469407968
S -0.5039159385 -0.7640460649 -2.8108993758
O -0.0751169455 -0.5291929820 -4.1842128738
O -0.8577526361 -2.1013266448 -2.3407854180
C -1.8547082407 0.3388913454 -2.4567193741
C -2.6932935512 0.3571012408 -1.3390565785
C -3.6471329016 1.3406792045 -1.6518664900
N -3.4163320717 1.8866674604 -2.8449573328
N -2.3279165675 1.2741347010 -3.3263258941
C -1.7902022363 1.7029552603 -4.6157652386
C -2.6088179131 -0.3819908865 -0.1028457317
N -3.6582581881 -0.5582779697 0.7111575385
N -3.1054631618 -1.2202015574 1.7163143387
C -3.8546388081 -1.6712509577 2.8759315405
N -1.8054141369 -1.4526156941 1.5657329133
N -1.4723319274 -0.9227154853 0.4174183833
N 1.9799317032 -0.6651053477 0.5904640714
H 1.9555330602 -3.1890370661 -0.2322794402
H 0.4004596231 -2.7865369494 0.5604486753
H 1.2642115929 -4.2957511576 0.9938043949
H 3.3910448502 -1.2711964762 3.5957655109
H 4.8932969614 2.8212638495 2.4596396607
H 4.8330916778 2.9463309027 4.2484595604
H 3.3557643812 3.2233069709 3.2681924378
H 2.1154816447 2.3610504490 -0.5006784753
H 0.8603041261 -0.8501640405 -0.9053319355
H -4.4781823690 1.6726678635 -1.0462163783
H -0.7397701638 1.9734583356 -4.4980347946
H -1.8776530542 0.9011424990 -5.3513113853
H -2.3839335149 2.5647227394 -4.9187776032
H -3.1508880633 -2.1588701980 3.5504035949
H -4.3195638601 -0.8132284393 3.3669021812
H -4.6285350476 -2.3758368250 2.5616779097
