48
CONF7
C -3.1871067570 0.0075794203 -3.1280677159
O -3.9268959361 -0.9872995196 -2.4236618102
C -3.6409573106 -1.1607801550 -1.1049931950
C -4.4113418421 -2.1600805221 -0.4612699704
C -4.2141235342 -2.4322407971 0.8634654379
C -3.2412877727 -1.7281490011 1.6174891614
N -3.0891449739 -2.0582762998 2.9271914464
C -2.1799693743 -1.3988466723 3.6152696009
C -1.3719308718 -0.3775389551 3.0779898684
C -1.5075442296 -0.0215718353 1.7551773687
C -0.6489654548 1.0582618999 1.1342774582
O -0.0787254301 1.9249356354 2.1202486476
C 0.4742111430 0.4224109329 0.2854134766
C 1.7149773112 -0.0176603545 1.1058134711
C 2.9587236052 0.2497270020 0.2427228569
C 3.1246579058 1.7714699461 0.1022715427
C 1.7746299927 2.3581230237 -0.3967888800
N 0.8611228939 1.2877894443 -0.8502252600
C 1.5823521894 0.4545577887 -1.8250294087
C 2.7224036600 -0.3782340434 -1.1411966250
C 3.9144373077 -0.4973804831 -2.0400236589
C 5.1835184457 -0.2227577129 -1.7458286624
C -2.4705526618 -0.7154808540 0.9683233050
C -2.6872073193 -0.4482820005 -0.4076621421
H -3.3506551957 1.0032691406 -2.6963910826
H -2.1127723505 -0.2181993628 -3.1231985512
H -3.5604165553 -0.0130115858 -4.1523960263
H -5.1515160099 -2.6939129362 -1.0476684752
H -4.7917685183 -3.1947727921 1.3747438921
H -2.0647848821 -1.6786941655 4.6621638777
H -0.6406494466 0.1235850748 3.7030876330
H -1.2632635316 1.6540153180 0.4432052503
H -0.8079861229 2.3621930258 2.5748140247
H 0.0238959935 -0.4667022325 -0.1726297464
H 1.6402994194 -1.0789508881 1.3668401228
H 1.7868786654 0.5499177288 2.0379993167
H 3.8389228558 -0.1939557792 0.7192178491
H 3.9311960921 1.9990365672 -0.6017666548
H 3.3995441737 2.2053956354 1.0699349751
H 1.9307524485 3.0417673776 -1.2388348498
H 1.2723385221 2.9169418906 0.3956465065
H 2.0075927269 1.1225598689 -2.5839380904
H 0.8705159886 -0.2106991971 -2.3304070212
H 2.3417880145 -1.3996878503 -0.9832779250
H 3.6841385398 -0.8505986868 -3.0473160102
H 5.9670108825 -0.3474818961 -2.4861132052
H 5.4888920451 0.1286190846 -0.7652241392
H -2.0952362227 0.3090902593 -0.9049580660
