111
CONF49
C 2.8545705627 -0.6310097629 1.9549995178
N 1.8913449229 -1.3602505585 2.7944371933
C 2.3212989147 -2.4690092160 3.6176059929
C 0.6819084984 -1.3989227385 2.1160020448
C -0.4062017696 -2.2408773834 2.3225378781
C -1.5316416219 -2.0606854245 1.5096460490
O -2.6479698677 -2.8490967684 1.6153479002
C -2.5967366070 -3.9785377184 2.4774698311
C -1.5871176207 -1.0743042411 0.5107520918
C -0.4676400208 -0.2499952225 0.3449509135
C 0.6505828629 -0.4095695396 1.1305962645
C 1.9328045551 0.3833792993 1.2182346920
C 1.7304650366 1.6586109208 2.1183498612
C 2.1904661367 2.8270373311 1.2455047803
N 3.1473953009 2.2072009584 0.3355066865
C 3.5219922963 3.0571471304 -0.7792416456
C 4.2436502477 2.2728698680 -1.8276774968
C 4.2058629264 0.9448822222 -1.8865399253
C 3.3695643807 0.0804031524 -0.9712047070
C 2.4306853368 -0.7844143979 -1.8670314404
C 3.0939232269 -1.8468026387 -2.7400419697
C 4.3309166286 -0.7810435108 -0.1258975046
O 5.3030427970 0.0990757708 0.4796741282
C 6.6034326958 -0.2812442581 0.4474270156
C 7.4500667710 0.7216970865 1.1711601204
O 7.0046902842 -1.2969414837 -0.0769214593
C 3.6447206322 -1.5824121963 1.0191985493
O 2.7559283087 -2.5424528061 0.4728435505
C 4.7844472910 -2.2657493590 1.7959753304
O 5.4037149894 -1.7795427838 2.7131495969
O 5.0538817466 -3.4758691561 1.2636773635
C 6.2370999336 -4.1249641608 1.7842251879
C 2.4765509396 0.9786873082 -0.0968678536
C -2.8415543514 -0.9406054484 -0.3594681948
C -4.0512934491 -0.4166936867 0.4489901843
C -3.8356164714 0.8474624970 1.3222521473
C -3.0270618075 2.0072786931 0.7188232874
N -3.7486648827 2.7886575456 -0.2817994221
C -4.9077244873 3.4198073738 0.3506546923
C -5.7022906873 2.5174929906 1.2757230769
C -7.0676259478 3.0018283026 1.6796024106
C -7.0395778606 4.3293957639 2.4502811138
C -5.1919360284 1.3643335434 1.7221940014
C -4.1593674527 1.9902139801 -1.4578516570
C -3.0681356990 1.1336537212 -2.0217477372
C -2.5683932034 -0.0826130245 -1.5823277944
N -1.5856076688 -0.5056961471 -2.4594844143
C -1.4085308163 0.4182260949 -3.4539528576
C -0.5319127499 0.4257592151 -4.5374825347
C -0.5743327343 1.5252389739 -5.3823500472
C -1.4691427318 2.5852985516 -5.1530417417
C -2.3425816472 2.5691375807 -4.0766762353
C -2.3244475352 1.4731782237 -3.2042238968
C -3.1401130638 -2.3386340477 -0.9589735396
O -2.2893518276 -3.0711392524 -1.4168691497
O -4.4539538853 -2.6177003730 -1.0039265461
C -4.7820264688 -3.8751723029 -1.6305462391
H 3.5965867230 -0.1154652460 2.5698543585
H 2.5239046335 -3.3822869070 3.0317640678
H 1.5433590316 -2.6991172554 4.3532152732
H 3.2250891732 -2.1885305495 4.1643208087
H -0.3700761938 -3.0285867292 3.0625389564
H -3.5537970540 -4.4887985886 2.3563289754
H -1.7807059280 -4.6558939729 2.1951269992
H -2.4794445584 -3.6769838250 3.5266036678
H -0.4766836452 0.5065083249 -0.4322863536
H 2.3372114038 1.5818207088 3.0241635010
H 0.6858144476 1.7590966927 2.4206033170
H 2.6574658436 3.6383260428 1.8155535513
H 1.3301261830 3.2532973776 0.6885079529
H 4.1638375350 3.8700645462 -0.4117584325
H 2.6336327366 3.5473393684 -1.2389562284
H 4.8107404829 2.8354719271 -2.5649034029
H 4.7739841931 0.4256503788 -2.6549117109
H 1.9074764768 -0.0695585590 -2.5154506610
H 1.6745943082 -1.2550600135 -1.2345424222
H 2.3419065448 -2.3125101798 -3.3846856610
H 3.8675906005 -1.4320446066 -3.3929895720
H 3.5470916079 -2.6475470009 -2.1490821061
H 4.8605639858 -1.4908141488 -0.7702039618
H 7.1411131808 1.7389072523 0.9214636755
H 7.2954688767 0.5793216440 2.2458008436
H 8.4997994797 0.5582830018 0.9305225685
H 3.2846044630 -3.2924343376 0.1714383946
H 6.3023534139 -5.0753539350 1.2558659361
H 6.1367732902 -4.2821633965 2.8606708356
H 7.1099767290 -3.5017814859 1.5761802462
H 1.5949869372 1.2453835940 -0.7219791050
H -4.8835400909 -0.2644787620 -0.2389808961
H -4.3647017191 -1.2183413655 1.1213690622
H -3.2963473808 0.5198144372 2.2235191162
H -2.0890818741 1.6563743462 0.2921596384
H -2.7664801587 2.6939790704 1.5356390602
H -4.5595876559 4.2976068142 0.9185525858
H -5.5702223328 3.8142567275 -0.4338700218
H -7.6864905383 3.1285245804 0.7791874114
H -7.5542015365 2.2339430467 2.2920688537
H -6.6426429771 5.1440612337 1.8372302702
H -8.0470197778 4.6151528410 2.7674804867
H -6.4111572254 4.2420014847 3.3423447810
H -5.7989817047 0.7295509569 2.3690513590
H -4.4597488373 2.7008634643 -2.2381967240
H -5.0545736998 1.3836766158 -1.2442980217
H -1.1097415307 -1.3896027340 -2.3587680487
H 0.1574879858 -0.3945109391 -4.7128932895
H 0.0959956954 1.5683921197 -6.2345662363
H -1.4713597751 3.4314988575 -5.8324140994
H -3.0216360901 3.3994411758 -3.9091188423
H -4.4379693735 -3.8833468304 -2.6679291000
H -4.3114662626 -4.7010337929 -1.0904858873
H -5.8683372895 -3.9483686818 -1.5817843835
