47
CONF71
C -2.1439998144 0.4821472424 4.1077373384
C -2.7499135282 0.7371426096 2.7444623893
C -3.2358548017 -0.4764341545 1.9960790555
C -1.9205270279 0.2177847289 1.5702444566
C -1.8339254925 0.9433692852 0.2984751122
O -2.7218819628 1.4975963223 -0.3160923893
O -0.5380966860 0.9235905794 -0.1547590318
C -0.3058535223 1.6410340571 -1.3940251842
C -0.9227772387 0.9078333806 -2.5069275415
N -1.3799469418 0.3349670221 -3.3995751313
C 1.1858204935 1.7717687707 -1.5787043652
C 1.7680817108 3.0363385759 -1.5856207103
C 3.1485182472 3.1481336746 -1.7434787078
C 3.9382552945 2.0142590038 -1.8771083911
C 3.3389213276 0.7536755383 -1.8625274254
C 1.9612273528 0.6214182673 -1.7260317655
O 4.1755667152 -0.3220240006 -2.0544720160
C 3.7997341741 -1.5674106712 -1.5636320467
C 3.4400574483 -1.7344980758 -0.2288126572
C 3.1453663879 -3.0138994540 0.2324774723
C 3.2194765901 -4.1104060281 -0.6260803840
C 3.5908827133 -3.9238094850 -1.9555293503
C 3.8797224216 -2.6474225977 -2.4339244394
C -4.4257172701 -0.4414597782 1.1448810934
C -5.1760690970 -1.4973222479 0.8296007232
Br -6.7382464916 -1.3215051144 -0.2487833111
Br -4.8133381017 -3.2792866534 1.3938384119
C -3.4792932147 2.0559708767 2.6449743250
H -1.4234046319 1.2691858933 4.3538337634
H -1.6328670022 -0.4835175959 4.1472766491
H -2.9317966248 0.4890833525 4.8686564789
H -3.0475150205 -1.4283494099 2.4827003876
H -1.0163255045 -0.3188199111 1.8355679569
H -0.7766114933 2.6286763463 -1.3435797767
H 1.1522455613 3.9217828080 -1.4682773168
H 3.6138377484 4.1282276866 -1.7522622334
H 5.0142367551 2.0879629438 -1.9943409376
H 1.4966666706 -0.3592386213 -1.7306773017
H 3.3930273689 -0.8770093405 0.4347520977
H 2.8653080875 -3.1533665680 1.2719215250
H 2.9915537862 -5.1054618638 -0.2584093347
H 3.6526378966 -4.7725827320 -2.6293046868
H 4.1668261388 -2.4822213803 -3.4671093891
H -4.7438384566 0.5115686240 0.7373930015
H -3.8630469155 2.2664728415 1.6473289827
H -2.7999388007 2.8678298367 2.9247619055
H -4.3171843390 2.0582261147 3.3501294044
