34
CONF7
C -0.4829754169 1.1689850038 -2.7838519313
C -1.0172111034 0.7459219947 -1.4401861309
C -0.2771695296 0.1299089165 -0.4641917721
C -0.9163357585 -0.3662971785 0.8435074887
C -2.4552783312 -0.3069495660 0.7515541003
C -2.9588578666 1.0030142856 0.1706104568
C -2.4606535023 1.1143830508 -1.2605561083
C -0.4586451004 0.4905520064 2.0404539800
C -0.5639291814 -1.8466709767 1.0963037540
C 1.1400718156 -0.0174495188 -0.7034948288
C 2.1515815531 -0.4067710694 0.1124223655
C 3.5349263767 -0.4435378724 -0.3751643070
O 3.8565600678 -0.1368545805 -1.5269189738
C 4.5693770813 -0.8922496123 0.6281774679
H -1.3086993699 1.2274292403 -3.4990389572
H 0.2717035027 0.4966492543 -3.1945916749
H -0.0436998803 2.1731668245 -2.7243259053
H -2.8636758043 -0.4849920336 1.7533369442
H -2.8042790258 -1.1302042222 0.1121390083
H -4.0528070712 1.0461425120 0.1946647577
H -2.5927165054 1.8513908085 0.7604366229
H -2.6034479837 2.1288259716 -1.6581839511
H -3.0543758288 0.4630980152 -1.9225632321
H -0.7743663880 1.5314371538 1.9234712628
H -0.9023251500 0.0988809651 2.9628465568
H 0.6262153686 0.4881347539 2.1611183076
H -1.1657987774 -2.2167115740 1.9339300607
H -0.8004902915 -2.4515510801 0.2144224673
H 0.4853728591 -2.0058582256 1.3464879733
H 1.4781479516 0.2638325401 -1.6973336024
H 2.0056639581 -0.6927190970 1.1460659657
H 4.5444485150 -0.2377523774 1.5071710216
H 4.3272175678 -1.9010907156 0.9826187414
H 5.5664509474 -0.8840931893 0.1863358811
