123
CONF36
C -1.7789562286 4.3649429339 1.7143608030
C -0.5599416249 3.4372463580 1.5962501458
C -0.3724474521 2.7104963081 2.8999050428
C 0.7877020560 2.4966523530 3.5614519960
C 2.0923656155 2.8082926427 3.0305243819
C 3.3288815899 2.5999571468 3.5388286060
C 3.7189085784 2.0474220973 4.8755111179
O 4.5629252792 2.6426664936 5.5510180310
N 3.2413803189 0.8375919597 5.3288206182
C 2.3008538774 -0.0028788580 4.7011924488
C 1.1638423282 -0.3848693979 5.3669655499
C 0.0513814234 -1.0931916346 4.7416374984
C 0.0209449793 -1.1801843524 3.3359520020
C -1.1848680483 -1.5194806923 2.7086759815
C -2.2804534338 -1.9497124830 3.4754110338
C -2.2494310051 -2.0450208720 4.8581222505
C -1.0820986866 -1.5709131587 5.4801982030
O -1.1079881658 -1.6187310024 6.8215388426
C -3.4066466507 -2.5377583496 5.6681913936
O -3.3910286182 -2.2064446044 2.7426976649
C -3.1947334195 -1.5602347427 1.4306267258
C -1.6794719974 -1.2473472378 1.3897058920
O -1.1529141061 -0.7398225990 0.4084581674
O -3.6435788750 -2.3817936940 0.4003786860
C -2.7330139653 -3.2765900917 -0.1679737120
C -2.3053561696 -3.0940821320 -1.4131880220
C -2.6828391973 -1.9209824484 -2.2800456816
C -1.4559042590 -1.2824602811 -2.9592052733
C -1.6477756066 0.1864641337 -3.3663255987
C -1.8818514934 1.1593648516 -2.1767750502
C -0.8044768819 2.2665513445 -2.1870994496
C -0.8168249464 3.2202070708 -0.9667554352
C -0.7163008337 2.4796852452 0.3879269492
O 0.4203344199 1.5872882574 0.3537961905
C 0.2821818579 4.2766788509 -1.1445887485
O 0.5052138948 1.6956336247 -2.3678312835
C -3.2913819902 1.7548608509 -2.1380662395
O -2.7477213751 0.2372275398 -4.3308524670
C -2.6896331702 1.1572388520 -5.3067021690
O -1.7719321303 1.9439793606 -5.4562952091
C -3.9170702716 1.1065716006 -6.1694182893
C -0.9314492951 -2.1097185630 -4.1342765187
O -3.6024149685 -2.3575515235 -3.2989966026
C -4.9162903333 -2.5686957038 -2.7895412127
C -4.0159221720 -0.2893076616 1.4143141154
C 1.2735061804 -0.9720895711 2.6408823915
N 1.5895982099 -1.3086378534 1.4338381743
C 3.0134108938 -0.9984630917 1.3117841107
C 3.2483416071 0.0037032150 0.1610297504
C 2.8573083027 -0.5965873478 -1.1825667615
N 3.6224734688 -1.8163743853 -1.4623548220
C 3.3931734229 -2.8164309875 -0.4108204067
C 3.7815597751 -2.2950205196 0.9670424480
C 3.2497984244 -2.3932718135 -2.7601490436
C 3.5432760962 -1.5109475595 -3.9783154615
C 3.2307614664 -2.3079789251 -5.2476280403
C 4.9887550039 -1.0153576245 -3.9918043210
N 3.4883791765 -0.4409421690 2.5769466227
C 2.4463097853 -0.4376165200 3.3495822691
O 0.9380389136 -0.0185648019 6.6530009761
C 4.5420789810 3.0379161785 2.7575350236
H -1.8697947505 5.0213055080 0.8451405784
H -2.7002029267 3.7765522841 1.8003907830
H -1.6946418162 4.9945835970 2.6049293317
H 0.3288195048 4.0461243317 1.4072597486
H -1.2920037360 2.3782798015 3.3841721488
H 0.7293517765 2.0456871423 4.5479867850
H 2.0866627401 3.2656843347 2.0436529882
H 3.6977418618 0.5200351332 6.1776026352
H -0.3244223348 -1.1705837375 7.1876766840
H -3.1244996530 -3.4237499152 6.2463966127
H -4.2457376588 -2.7949995758 5.0214734238
H -3.7303083269 -1.7753951915 6.3837189638
H -2.4545748009 -4.1177976914 0.4643388734
H -1.6628438856 -3.8600651639 -1.8401610128
H -3.1793734876 -1.1687460974 -1.6523336537
H -0.6751577637 -1.2459055952 -2.1870469716
H -0.7435400394 0.4903902073 -3.8975334867
H -1.7434894019 0.5706757049 -1.2667298953
H -0.9782471623 2.8854784755 -3.0776071726
H -1.7857856453 3.7324157450 -0.9835452714
H -1.6290479952 1.8854645092 0.5394477102
H 0.0989011268 0.6874156553 0.5445065047
H 0.2830786867 4.6462919225 -2.1749877354
H 1.2732005617 3.8610401609 -0.9387155569
H 0.1283260997 5.1345947275 -0.4847207457
H 0.7835882936 1.4447248271 -1.4678243781
H -3.4524942923 2.4624848350 -2.9597820203
H -4.0554894879 0.9759671706 -2.2114907321
H -3.4533714248 2.2901477950 -1.1980917225
H -3.7010089872 1.5411004521 -7.1455780014
H -4.2895532777 0.0857776273 -6.2717203498
H -4.6984457695 1.7045032713 -5.6865138771
H -0.7490021854 -3.1495805362 -3.8472081112
H -1.6416962539 -2.1066814318 -4.9647889245
H 0.0155769391 -1.6892628347 -4.4882943928
H -5.5377342897 -2.8811807729 -3.6321636173
H -4.9336542698 -3.3521453162 -2.0188167302
H -5.3244547244 -1.6414821980 -2.3596625226
H -5.0762749138 -0.5495209020 1.4686289176
H -3.8157702916 0.2474573276 0.4833083454
H -3.7495955334 0.3461208194 2.2628153227
H 4.3150612881 0.2519227230 0.1623293289
H 2.6776698230 0.9154960277 0.3530805934
H 3.0716740914 0.1436613550 -1.9607845959
H 1.7663940368 -0.7951606342 -1.2075211555
H 4.0046493426 -3.6982304755 -0.6380478637
H 2.3359828598 -3.1450166381 -0.3988107924
H 4.8498984143 -2.0579724367 0.9954977366
H 3.5734648626 -3.0533410301 1.7291363243
H 2.1716913619 -2.6622887325 -2.7708213954
H 3.8131728649 -3.3307140180 -2.8728588075
H 2.8718767939 -0.6411854078 -3.9602537522
H 3.9091244884 -3.1648935413 -5.3391147360
H 3.3532787029 -1.6836769777 -6.1383600525
H 2.2034821362 -2.6882726576 -5.2376087871
H 5.2104774992 -0.3921843950 -3.1206985277
H 5.1860705885 -0.4277669169 -4.8947495390
H 5.6821211218 -1.8655048134 -3.9818571295
H 1.6461501250 0.5510426952 6.9935747774
H 4.2526472081 3.3654745057 1.7567631595
H 5.2596312613 2.2145574810 2.6628756827
H 5.0614806825 3.8582631478 3.2635734162
