18
CONF8
C -2.1760295984 -0.4447988017 1.0768670425
C -0.8375283072 0.1135374264 0.6165802214
C -0.1813717686 -0.8010009174 -0.4215227403
C 1.1623449680 -0.3085658503 -0.9157691560
O 0.8786046700 0.9188193807 -1.6594809698
N 2.0239972950 1.5579430739 -2.1731421434
O 1.7643110597 2.5711175439 -2.7749120257
O 3.1004770645 1.0478971187 -1.9706951556
O 0.0443332620 0.3385383113 1.7314336281
H -2.0410513958 -1.4348026796 1.5290898525
H -2.6318394975 0.2188771319 1.8166997166
H -2.8628579753 -0.5474316497 0.2306480477
H -0.9862925143 1.1079677075 0.1809813795
H -0.8604974019 -0.9446650103 -1.2698872816
H -0.0145388407 -1.7896598943 0.0269126245
H 1.8349158366 -0.0725282851 -0.0869867400
H 1.6348051153 -1.0270916060 -1.5915268474
H 0.1482179121 -0.5041532114 2.1940197398
