27
CONF43
C -3.0549057586 0.9447886613 0.5492342701
C -4.3558993264 1.6393041317 0.1249125425
O -4.5023498022 2.8865701869 0.7966977662
C -2.8624199587 -0.3710746842 -0.1687365514
C -1.5570755133 -1.1666224897 0.1728484694
C -0.2614179621 -0.6592057297 -0.5469296694
C 1.0633543125 -1.1482880294 0.1386472509
C 2.3161732919 -1.0442668076 -0.7962380734
C 3.6826217147 -1.1067738972 -0.0373880926
F 3.9012253284 0.0158526497 0.6549520731
F 4.6658359426 -1.2516198598 -0.9359877403
F 3.7040592443 -2.1530673111 0.8002646721
F 2.2806049806 0.1266351025 -1.4742065473
F 2.2908112244 -2.0677787220 -1.6753476780
F 1.2841426538 -0.3943072722 1.2412283462
F 0.9222896949 -2.4397095448 0.5104418959
F -0.2746962853 -1.0967830501 -1.8242674115
F -0.2518132429 0.6978378076 -0.5499664230
F -1.3628419568 -1.0953525825 1.5201882116
F -1.7312366585 -2.4617813394 -0.1663056460
F -2.8856504675 -0.2003109829 -1.5287123778
F -3.8991678671 -1.2112171138 0.1454240510
H -2.2112530753 1.6073456236 0.3473867206
H -3.0706661600 0.7349729672 1.6238583424
H -4.3223911975 1.8751568222 -0.9417285660
H -5.2187399119 0.9833563766 0.3002242928
H -4.7024924000 2.7119050772 1.7227551999
