68
CONF61
C 1.9314264168 -4.3401554470 -0.8275378834
C 0.9860404492 -3.5261615171 -1.7080198758
C 1.2993116281 -2.0104072638 -1.7855835664
C 0.2129518428 -1.3241399525 -2.6309463560
C 1.2936053606 -1.4461197047 -0.3658770116
O 0.0712906899 -1.5273796505 0.1923163145
C -0.0856917414 -1.1145148561 1.5907297338
C 0.0087723907 -2.3760664183 2.4318240963
C -0.1656463261 -2.0711212011 3.9183180673
C -1.3635386648 -1.1936244636 4.1163107702
C -1.9475547528 -0.4689805527 3.1445878300
C -3.1148102754 0.3558825135 3.4210719137
C -3.5833581851 1.2675643136 2.5550625451
C -2.9102590549 1.5889937010 1.2524868920
C -1.4600836801 1.0545949682 1.2465329342
C -1.4434583341 -0.4255444445 1.7123407962
C -0.7380194651 1.2847717916 -0.0835137655
C -0.6966281325 2.7495694921 -0.5207525985
C 0.0784993907 2.9241097974 -1.8173225347
C 1.5606385278 2.6230186712 -1.7225009644
C 2.2234514912 2.9549234427 -3.0478879279
C 2.0607292887 4.4392383559 -3.3171280479
C 0.6941547423 5.0075763615 -3.0148538561
O -0.1580009760 4.3199597809 -2.2319303370
O 0.3515201022 6.1042900557 -3.4109062835
O 3.6306667708 2.6913481743 -3.0448517710
C -3.7661418688 1.1089553171 0.0670178976
C -0.2716516271 -3.3600236729 4.7399990312
O 2.2658638229 -0.9886080810 0.2053811396
C 2.6684966424 -1.7588408011 -2.4209499243
H 1.9303818433 -3.9760569872 0.2061503326
H 1.6200757224 -5.3888202003 -0.8074050219
H 2.9612635400 -4.3063717198 -1.1944623317
H 1.0113414512 -3.9093250016 -2.7359571663
H -0.0424473504 -3.6455243893 -1.3496305080
H 0.2491096251 -1.7251025839 -3.6491723334
H -0.7848277329 -1.5014061376 -2.2223721022
H 0.3804678305 -0.2433318794 -2.6852061651
H 0.7247458076 -0.4228703146 1.8454508632
H 0.9748928027 -2.8608940946 2.2519734554
H -0.7804141646 -3.0694959566 2.1104865997
H 0.7260475238 -1.5258362167 4.2697246384
H -1.7813020828 -1.1445440953 5.1221631482
H -3.6124405501 0.2059042276 4.3774006217
H -4.4843881273 1.8284399719 2.7968834351
H -2.8590341658 2.6850516349 1.1856423076
H -0.9135379580 1.6236085118 2.0151239331
H -2.1508050979 -0.9935951931 1.0891160161
H -1.1937944694 0.6753042824 -0.8728949054
H 0.2914927853 0.9334300991 0.0247270890
H -1.7084304131 3.1347709066 -0.6857136531
H -0.2341047926 3.3676089026 0.2601362055
H -0.3756079267 2.3033616111 -2.6026283568
H 1.6933572763 1.5599815900 -1.4949625248
H 2.0189644287 3.2080632529 -0.9141587091
H 1.7367720732 2.3741193002 -3.8479083100
H 2.7563091258 4.9858916113 -2.6645727530
H 2.3137120018 4.7059020911 -4.3465257882
H 3.7513024019 1.7390887132 -2.9366293764
H -4.7874216775 1.4905323577 0.1653097936
H -3.8221812000 0.0163422890 0.0333858348
H -3.3667421715 1.4633967813 -0.8880562693
H -0.3613551214 -3.1356057038 5.8075834884
H 0.6151959928 -3.9848809953 4.5933510834
H -1.1529642033 -3.9360404883 4.4365248197
H 2.8562357380 -0.6841832127 -2.5137092611
H 3.4801215286 -2.1898289109 -1.8316635855
H 2.6874334506 -2.2001913931 -3.4223608698
