119
CONF637
C -7.4563824139 4.2714521728 2.9503685280
C -7.4147932391 4.6317154909 1.4666902917
C -8.7431368423 5.2403671120 1.0117361627
C -7.0914442810 3.4006238622 0.5982889300
C -6.9336448103 3.8291949745 -0.8695592535
O -6.0625863632 4.6456411456 -1.1659075826
N -7.7195658073 3.2534486594 -1.8115310552
C -7.5411695824 3.6121529108 -3.2339637563
C -8.4803481108 2.6546740279 -3.9339008704
C -7.9361795384 1.5123819884 -4.7475114717
C -8.6699624201 2.6537658232 -5.4144712197
C -9.5989332362 2.4118150861 -2.9441569104
C -8.8209081511 2.2903854725 -1.6228322993
C -8.3161898500 0.8880690466 -1.4124555221
N -9.0587973650 -0.2016756995 -1.4876346182
C -8.2298483367 -1.2325639246 -1.1300449826
C -6.9611739115 -0.7674267740 -0.8357573539
N -7.0384332051 0.5945986286 -1.0510282251
C -5.7504075844 -1.4180031362 -0.3790234961
C -4.4855949291 -0.8239101675 -0.5647397402
C -3.3730416419 -1.4654740295 -0.0712421880
C -3.4495012009 -2.6965261157 0.5956748012
C -4.6917887858 -3.2974237165 0.7708913016
C -5.8258229633 -2.6509535614 0.2930563660
C -2.1014473634 -3.1001683599 1.0067178431
C -1.1863826555 -2.1216283126 0.5906523587
C -1.9309362735 -1.0171527091 -0.1209945973
F -1.4864154334 -0.8427971389 -1.4139065807
F -1.7531769479 0.2055512495 0.4927170537
C 0.1625761913 -2.2214053470 0.8444998647
C 0.6447047267 -3.3454744239 1.5414248384
C -0.2736147758 -4.3238057174 1.9542328417
C -1.6378899840 -4.2133174571 1.6970591593
C 2.0847742735 -3.4912287784 1.8241160196
C 3.0256732443 -3.0903256963 0.8701530882
C 4.3664011361 -3.2442748926 1.1915194016
C 4.8020579399 -3.7805220530 2.4275097592
C 3.8572557009 -4.1789723975 3.3730899075
C 2.5162879613 -4.0296533834 3.0589066406
N 6.1853392770 -3.8122789036 2.4768923211
C 6.5722383509 -3.3217763808 1.3201330765
N 5.5261796096 -2.9738153686 0.4999669205
C 7.9912167309 -3.1390150681 0.8705866932
C 9.0360451825 -3.5192243571 1.9310222174
C 10.4274762111 -3.4977811859 1.2575613772
C 10.7089440449 -1.9756117521 1.0462929709
C 9.4175304534 -1.3350875744 1.5885765092
C 9.0793195152 -2.2360748496 2.7805991313
N 8.3225114138 -1.6981849868 0.6558703592
C 7.9530403737 -1.0590567908 -0.4718221123
O 7.2036153728 -1.5797191121 -1.3111497462
C 8.4217656368 0.3864227300 -0.6375855140
C 7.5712528208 1.3318892582 0.2593199363
C 8.0918340890 2.7640909572 0.1439353547
C 6.0817993619 1.2531720628 -0.0729858099
N 8.3357888581 0.7314231596 -2.0418281659
C 9.4086092701 1.2678163471 -2.6897068631
O 10.4214314884 1.6880971886 -2.1615562983
O 9.1760790085 1.2936712295 -4.0313143879
C 10.2379429467 1.8860889601 -4.8005801614
N -5.8260201981 2.7560473497 0.9395429268
C -5.7684693374 1.6865821784 1.7951734437
O -6.7264178263 1.0557674198 2.1963862284
O -4.4738974460 1.4042141046 2.0888250302
C -4.2928187593 0.2304680736 2.9068014929
H -7.6823913590 5.1611164899 3.5465129022
H -8.2263889091 3.5187678593 3.1507928333
H -6.5001059179 3.8716835879 3.2990096964
H -6.6154066094 5.3632690103 1.2899067629
H -9.5657857940 4.5296050412 1.1594648183
H -8.9746280947 6.1372613139 1.5934756058
H -8.7187901675 5.5272405211 -0.0449675991
H -7.8702282742 2.6448911820 0.7418057877
H -7.8273209788 4.6623284900 -3.3857622829
H -6.4935792692 3.5040522310 -3.5311801329
H -6.8615086813 1.4539301486 -4.8879334293
H -8.4414270498 0.5552365706 -4.6698682210
H -9.6679836482 2.4636210910 -5.7962956029
H -8.0854319857 3.3555005660 -6.0014294755
H -10.2692612892 3.2789517539 -2.8964852007
H -10.1832786742 1.5123729474 -3.1441360411
H -9.4463901722 2.5819235405 -0.7705733502
H -8.5731464606 -2.2575589901 -1.1270871509
H -6.3210549888 1.2665475129 -0.8167038326
H -4.3781803578 0.1166791561 -1.0965660950
H -4.7868809457 -4.2449301471 1.2916046807
H -6.8023679218 -3.0912321938 0.4642426932
H 0.8426848020 -1.4325371880 0.5393761472
H 0.0987415352 -5.2060359444 2.4647984643
H -2.3179482793 -4.9940947052 2.0226661746
H 2.7112925429 -2.7080745903 -0.0953724904
H 4.1714694918 -4.5809871238 4.3301521023
H 1.7673134722 -4.3007246687 3.7955761321
H 5.6569686351 -2.5432527263 -0.4083948885
H 8.1392716100 -3.6799561858 -0.0736571674
H 8.7821744654 -4.4385757112 2.4565991735
H 11.1728115855 -3.9481214447 1.9188651873
H 10.4379187297 -4.0590104102 0.3187374406
H 11.5730204262 -1.6364620918 1.6261419373
H 10.8833313178 -1.7108554548 -0.0000698552
H 9.4584520291 -0.2628572558 1.7791661107
H 9.8799493944 -2.2483162176 3.5248037612
H 8.1251998806 -1.9978938557 3.2545687742
H 9.4726707576 0.4893920844 -0.3441302923
H 7.7095766411 0.9913177486 1.2946221226
H 7.9590950333 3.1389239285 -0.8757728280
H 7.5397731498 3.4233664058 0.8208164257
H 9.1571090089 2.8278694435 0.3852182808
H 5.5175158390 1.9361988115 0.5687251623
H 5.6815698099 0.2453715779 0.0741828951
H 5.9023729133 1.5465255877 -1.1126318054
H 7.6584717696 0.2159149418 -2.5875811092
H 10.3967370901 2.9255829112 -4.5010566876
H 11.1689095622 1.3287606913 -4.6663779640
H 9.9064085334 1.8331068736 -5.8378038902
H -4.9799263410 3.2799902533 0.7636239563
H -3.2145442405 0.0779237062 2.9520310452
H -4.7049000937 0.3976926629 3.9058783005
H -4.7845004230 -0.6326022180 2.4508700549
