44
CONF275
C -3.8949778032 -1.2113701993 -2.6865150204
S -2.4817080637 -2.2914650350 -2.4010125897
O -1.9643917457 -2.7215407565 -3.7166897338
O -2.8494609043 -3.3375007269 -1.4213810788
C -1.2160239742 -1.2037437405 -1.6602579941
C -1.3694455358 -0.6422020772 -0.3841589728
C -0.3147383730 0.1611543680 0.0670714764
C 0.8356478419 0.3794170449 -0.6881848279
C 0.9348556074 -0.1847095231 -1.9572935491
C -0.0908780770 -0.9797426473 -2.4451553381
C 1.9760917298 1.2217310017 -0.1950723897
O 2.2269284984 2.2948814336 -0.7002748780
C 2.8401161999 0.6024398097 0.9079453892
C 3.6039066701 1.6999815857 1.6440190967
O 3.1535050484 2.1450907793 2.6814400986
C 4.9033761271 2.1760089938 1.0487873927
C 5.3242028510 1.4359937883 -0.2205948719
C 5.1542069843 -0.0743199679 -0.0537209738
C 3.7383753348 -0.4760261566 0.2520640478
O 3.2832823442 -1.5774071585 0.0310580873
Cl -0.4489933840 0.9867505286 1.6085898369
C -2.5931961729 -0.8184080431 0.4727524943
O -3.3780497371 0.3851655589 0.3283652584
C -4.2745617553 0.6342311537 1.3906332868
C -5.5737747853 -0.1414006960 1.2416669455
F -5.3923952015 -1.4833200962 1.3218505155
F -6.1772049084 0.1010202654 0.0549764232
F -6.4421651926 0.2071458599 2.2202940459
H -4.2436460681 -0.8023339194 -1.7362792297
H -3.5788878038 -0.4175174257 -3.3668474662
H -4.6610619546 -1.8422767515 -3.1466274927
H 1.8224639212 -0.0070312248 -2.5555215261
H -0.0185566337 -1.4265512554 -3.4291030226
H 2.1807548292 0.0797796034 1.6065129897
H 4.8088539462 3.2551117574 0.8796664640
H 5.6594011518 2.0546875014 1.8363796435
H 6.3707278285 1.6595579974 -0.4419310528
H 4.7364958749 1.7827912825 -1.0758729302
H 5.7570138134 -0.4271270107 0.7982886829
H 5.4865174976 -0.6386965853 -0.9297277677
H -3.1657218008 -1.6975836092 0.1741218835
H -2.2953024915 -0.9480724713 1.5204446903
H -3.8425091885 0.3893297785 2.3706770376
H -4.5290714551 1.6980774936 1.3630942158
