47
CONF159
C -7.1657398965 -0.5641407110 2.2223296112
O -6.3301805729 -1.7193342063 1.9566638567
P -5.4784159894 -1.8048244457 0.6033717638
S -4.3755512255 -3.3691979939 0.4692568425
O -6.6184293278 -1.5481897510 -0.4992604395
C -6.2678701338 -1.6070805867 -1.9000526640
O -4.7114749219 -0.3571675140 0.4900204775
C -3.4996253042 -0.0882868987 1.1140216621
C -3.2377072788 -0.4739196823 2.4227067637
C -2.0113214223 -0.1468449355 2.9922140622
C -1.0694477048 0.5870466328 2.2708451693
C -1.3585807787 0.9878976497 0.9633633918
C -2.5657436440 0.6349333354 0.3797532650
S 0.4513510211 1.0525894757 3.0848276762
C 1.6633881017 0.7819292500 1.8001186607
C 1.6570687168 -0.3738552836 1.0141848263
C 2.6358466470 -0.5638298316 0.0507940983
C 3.6416876009 0.3840763709 -0.1039466371
C 3.6757198095 1.5270761363 0.6847408495
C 2.6724439509 1.7293585134 1.6269943788
O 4.6253261579 0.1048371599 -1.0446193439
P 5.2108020925 1.2287818446 -2.0887606150
S 3.9232809320 2.4077896070 -2.8846984938
O 6.0671571153 0.2471003711 -3.0290992939
C 5.3781216336 -0.5818535500 -3.9917716120
O 6.3743536492 1.9781924752 -1.2826842561
C 7.3838572965 1.2118213566 -0.5775749012
H -7.5555230618 -0.7086228628 3.2303003704
H -7.9874881700 -0.5185109799 1.5032492723
H -6.5738433941 0.3552297687 2.1769158491
H -5.8130313130 -2.5741256506 -2.1343525935
H -7.2029475573 -1.4864331007 -2.4476956339
H -5.5786520067 -0.7949428366 -2.1518528352
H -3.9662259221 -1.0487348609 2.9838480527
H -1.7841316716 -0.4731618115 4.0015782391
H -0.6332566004 1.5642536045 0.3990844212
H -2.7998838401 0.9253068425 -0.6384272048
H 0.8781732972 -1.1169667020 1.1478236444
H 2.6374782430 -1.4478245811 -0.5772404837
H 4.4561124788 2.2677056481 0.5480940789
H 2.6712808442 2.6349497277 2.2243074324
H 6.1571125256 -1.0899757830 -4.5608510606
H 4.7501269827 -1.3164332494 -3.4778702579
H 4.7674461244 0.0385553364 -4.6543528638
H 7.9929814835 1.9448816643 -0.0480534106
H 6.9153904425 0.5272709546 0.1362396878
H 7.9985635006 0.6526742896 -1.2874378123
