20
CONF39
C -0.2399333551 -0.3754347555 0.4263761053
O -0.0366232241 -1.1976357164 -0.7483933726
C 1.3084983978 -1.3495410165 -0.9615771575
O 1.7558412165 -1.9774385473 -1.9011916984
C 2.0359604488 -0.6708590737 0.0937071235
O 3.3883129948 -0.6401557853 0.1712077348
C 1.1415110090 -0.1101678597 0.9288312583
O 1.2928576029 0.6290775716 2.0367309917
C -1.0118879920 0.8970092989 0.0486326033
O -0.3053112211 1.6758781213 -0.9105022626
C -2.3685717958 0.5795878595 -0.5838188278
O -3.1860905329 -0.2145433217 0.2756802860
H -0.8286753380 -0.9521171028 1.1516478179
H 3.7420837009 -1.1621914383 -0.5657261963
H 2.2352801865 0.7398079179 2.2352258677
H -1.1726957001 1.4556620712 0.9825306369
H 0.3703561999 2.1951348864 -0.4569116939
H -2.2123103434 0.0960528466 -1.5558484224
H -2.8910715219 1.5264962924 -0.7511122124
H -3.0175305210 -1.1446223598 0.0845111434
