44
CONF56
C -3.8781974986 -2.7796179770 -1.1054307660
S -2.7016821636 -2.3529052799 -2.4015225925
O -3.2988760154 -1.3421783069 -3.3016589002
O -2.2066284521 -3.6114594224 -2.9970185287
C -1.2965853949 -1.6000571706 -1.5089134093
C -1.4092533013 -0.3751748879 -0.8348268887
C -0.2534969872 0.0856096015 -0.1918802578
C 0.9543409698 -0.6106528133 -0.2325747604
C 1.0116981937 -1.8320731599 -0.9014994074
C -0.1125553680 -2.3273323822 -1.5438957388
C 2.2130450620 -0.1257518182 0.4249260538
O 2.7760144214 -0.8169994863 1.2499789121
C 2.7975161586 1.1782274539 -0.1192117561
C 4.0164165679 0.7815676560 -0.9937038854
O 3.9121491161 0.8068785401 -2.2004795422
C 5.2629543012 0.4162697299 -0.2441222679
C 5.6138144164 1.4854035773 0.8024572505
C 4.4482665015 1.7426814413 1.7731727276
C 3.2289860883 2.1437221084 0.9999013101
O 2.6259588212 3.1848417033 1.1537772592
Cl -0.3193498342 1.5533139838 0.7605126978
C -2.6834520125 0.4188807195 -0.7427093303
O -3.2493790227 0.1544956163 0.5591817268
C -4.1392719460 1.1465127017 1.0266674420
C -5.5365887102 0.9839581906 0.4493882591
F -6.0401992591 -0.2510199433 0.6786291875
F -5.5711934205 1.1781680140 -0.8928533272
F -6.3836745220 1.8803666759 1.0074476551
H -4.7175688716 -3.2622483399 -1.6143397488
H -3.3834681875 -3.4713362146 -0.4198419425
H -4.2021350917 -1.8744894936 -0.5881485562
H 1.9444458785 -2.3857700012 -0.9217211611
H -0.0726923777 -3.2735273323 -2.0695016207
H 2.0716039379 1.6752665473 -0.7633413842
H 5.0751827374 -0.5353586564 0.2714077004
H 6.0723197279 0.2707188247 -0.9625581967
H 5.8858567519 2.4192389889 0.2980587316
H 6.4846670628 1.1523056028 1.3721357116
H 4.6891788848 2.5316475849 2.4885195323
H 4.2263425202 0.8152033044 2.3157980481
H -2.4606373531 1.4881934938 -0.8441375938
H -3.3794014303 0.1428280262 -1.5360005450
H -4.2218935628 1.0280698929 2.1111742726
H -3.7925762413 2.1635832094 0.7972349263
