47
CONF98
C -3.4980861448 -2.2845048351 0.9046445934
C -3.4178046184 -1.0294014753 0.0653433701
C -4.5172102328 0.0052200702 0.1418585625
C -3.1832924234 0.2715276858 0.8384886912
C -2.3048060686 1.3139244896 0.2904663633
O -2.3759148576 1.8399937132 -0.7989151412
O -1.3252361050 1.6229660689 1.1987980419
C -0.3221771320 2.5474848368 0.7037474645
C 0.3138494637 3.1072955599 1.8961102186
N 0.8443459717 3.5670323241 2.8127106624
C 0.6820874969 1.8495594626 -0.1860258037
C 1.3595760812 0.7271851988 0.2930292678
C 2.2560182830 0.0619177784 -0.5279643896
C 2.4674606853 0.5374585508 -1.8246827005
C 1.8166685702 1.6570013134 -2.3052501454
C 0.9118990407 2.3157089584 -1.4768886727
F 3.3277272882 -0.1283720886 -2.6200025295
O 2.8561159172 -1.0936259982 -0.0885127234
C 4.2420847676 -1.1203217590 0.0117136705
C 5.0111287738 0.0345401261 0.1154324558
C 6.3923679666 -0.0893996479 0.2521599247
C 6.9939136382 -1.3444056417 0.2922768406
C 6.2029193155 -2.4887099331 0.1949816976
C 4.8238420807 -2.3840766407 0.0516715238
C -5.7134420674 -0.1774283403 0.9669983019
C -6.9501672334 0.1775642185 0.6170951585
Cl -7.3592609589 0.9291845640 -0.9005234333
Cl -8.3229136485 -0.0802469743 1.6631438853
C -2.7544048984 -1.2377796386 -1.2760713327
H -2.4978921374 -2.7157052265 1.0155790807
H -4.1336734677 -3.0245012930 0.4059104895
H -3.8990367186 -2.1000108982 1.9030242809
H -4.6487361504 0.5790873516 -0.7701612600
H -3.1515624186 0.1648387744 1.9175187088
H -0.8065953637 3.3640984402 0.1559739235
H 1.1957093084 0.3533969880 1.2991467847
H 2.0050495735 1.9907565679 -3.3197403595
H 0.3764325502 3.1836703001 -1.8462239272
H 4.5451522667 1.0141424612 0.0951503598
H 6.9973308176 0.8082781689 0.3328968865
H 8.0698346438 -1.4312463391 0.4000660892
H 6.6607475424 -3.4724526524 0.2252835391
H 4.1947398096 -3.2641376658 -0.0303308448
H -5.6030987364 -0.6348130788 1.9454704760
H -2.7493104781 -0.3311190995 -1.8828592521
H -3.2922656746 -2.0182754909 -1.8244954848
H -1.7201140106 -1.5732991490 -1.1384132314
