59
CONF128
C 0.7472797065 4.0220312608 -5.1126432947
C 1.2193192046 5.3512192243 -4.4570958671
C 0.9811216246 5.1706886605 -2.9459710851
C 1.0410057091 3.6529852319 -2.7127006367
C 0.2835207716 3.1238386547 -3.9479370205
C 0.4143718695 3.2318462083 -1.3905443767
C 0.5211658016 1.7528147682 -1.0941775859
O -0.2895732674 1.1770383579 -0.3925272789
N 1.6103126575 1.0691755912 -1.6521532131
C 2.6130438145 1.6679737356 -2.4246341025
O 3.5519799866 1.0133351249 -2.8395116389
C 2.4852888386 3.1491028329 -2.6990125925
C 1.7482483824 -0.3685676305 -1.3556088579
C 2.6325789615 -0.6031078087 -0.1338482645
C 2.8475176583 -2.0913570977 0.1549716116
C 1.5425959564 -2.8890916405 0.2795072296
N 0.5427615472 -2.2060339392 1.0933810374
C -0.7991203153 -2.7521198568 0.8977833187
C -1.8222121109 -1.9102987100 1.6566439963
N -1.4703643426 -1.8684566695 3.0742074446
C -0.1249005748 -1.3443257533 3.2882711689
C 0.8889805457 -2.1841981643 2.5132101903
C -2.0688471617 -2.6937371291 3.9849755770
N -3.1926065876 -3.3406862919 3.5939754264
C -3.7892414893 -4.0894122135 4.5141620602
C -3.3112184033 -4.2304251814 5.8125401774
C -2.1431156705 -3.5331132635 6.1011363121
N -1.5098702603 -2.7719197468 5.2162070441
H 1.5678985598 3.5504486792 -5.6614280389
H -0.0581389109 4.1824113220 -5.8338972509
H 2.2805720287 5.5237948862 -4.6607054606
H 0.6810051677 6.2190427726 -4.8466947387
H -0.0230544339 5.5226861216 -2.6773499742
H 1.6975910472 5.7206492014 -2.3262193173
H -0.7922506465 3.2501545320 -3.7753652919
H 0.4589544978 2.0593742408 -4.1362467219
H 0.9065871916 3.7589715740 -0.5597578913
H 3.0091671932 3.3331943071 -3.6404124474
H 3.0525338597 3.6698232501 -1.9137805428
H 0.7432743981 -0.7488898599 -1.1662610039
H 3.6041560928 -0.1236516016 -0.2972466051
H 2.1542626376 -0.1233360663 0.7273914771
H 3.4479840486 -2.1939244183 1.0661786474
H 3.4422261991 -2.5444688147 -0.6483635694
H 1.7674623412 -3.9064911159 0.6593776112
H 1.1105573471 -3.0243561370 -0.7203344274
H -1.0360172172 -2.7248688958 -0.1732843682
H -0.8759328133 -3.8069322235 1.2357797973
H -2.8247299443 -2.3211720500 1.5429881666
H -1.7966916266 -0.8846327694 1.2667933430
H -0.0983079931 -0.3137609821 2.9104859581
H 0.1019089405 -1.3480100218 4.3539095243
H 1.8847496060 -1.7434846094 2.6378359067
H 0.9175270701 -3.2067941998 2.9451897917
H -4.6941601249 -4.6066640625 4.1944246185
H -1.6898646090 -3.5911189720 7.0909896821
H 2.1760809607 -0.8466289063 -2.2410258512
H -0.6486097954 3.4849298153 -1.3392080855
H -3.8107866777 -4.8487223946 6.5474553539
