32
CONF14
C 2.8081897424 -0.4450605930 -1.3910662246
C 2.1472985825 0.7584846904 -1.5626543681
C 1.4634045541 1.3621596686 -0.5011603176
C 1.4932962511 0.7392570030 0.7611715935
C 2.1631798044 -0.4555542410 0.9585274729
C 2.8000021309 -1.0342907646 -0.1318058588
N 3.4913948600 -2.3151257749 0.0650123465
O 4.0442889947 -2.8219720195 -0.9061192864
O 3.4771580854 -2.8112302178 1.1875663895
Cl 0.6527867111 1.4604970749 2.1111977129
N 0.7518595915 2.5597976461 -0.7288412125
S -0.7243473017 2.4061899579 -1.6225814955
O -0.3780945912 1.7744120302 -2.8983754578
O -1.3452334898 3.7310757097 -1.5603278311
C -1.6844562883 1.2453508023 -0.6573791424
C -1.3616017402 -0.1032628186 -0.7518352719
C -1.9798325973 -1.0131537247 0.0991629424
C -2.9401609242 -0.5470706566 1.0070347432
C -3.2749498507 0.8024984764 1.0702591325
C -2.6309457763 1.7135124559 0.2456603841
Cl -3.7581600307 -1.6363072915 2.0938652627
C -1.5769665724 -2.4650293489 0.0304974715
F -1.0761955475 -2.9030219779 1.2103846632
F -2.6175561941 -3.2698756267 -0.2880805081
F -0.6207572714 -2.6720263526 -0.8996230782
H 3.3321373715 -0.9118651511 -2.2146753611
H 2.1501848620 1.2515309844 -2.5268331683
H 2.1728721811 -0.9355022033 1.9283292165
H 0.5454911912 3.0742066974 0.1284255619
H -0.6325301818 -0.4473657051 -1.4747235086
H -4.0270730460 1.1385973276 1.7740717765
H -2.8646833038 2.7701444456 0.3097595193
