32
CONF6
C -6.5635084518 0.0205475791 -0.4399508212
C -5.1721382249 -0.4370014937 -0.1875318603
N -4.8448201611 -1.6217658622 0.2586832433
C -3.4935863103 -1.7612093248 0.3709206907
C -2.7314904621 -0.6746263519 0.0132548544
S -3.7939259591 0.6038177214 -0.4954246292
C -1.2563279410 -0.5584091680 -0.0508446814
O -0.5470110660 -1.4976093328 -0.3814134532
N -0.7680887066 0.6926507691 0.2436845052
C 0.6085754054 0.9736010789 0.1794123568
C 1.3532602798 1.2312621889 1.3382172251
C 2.7084545176 1.5253028892 1.2980512559
C 3.3285591215 1.5313627847 0.0595362046
C 2.6461262557 1.2929525997 -1.1220695035
C 1.2860115048 1.0291184827 -1.0468713965
Br 0.3284745340 0.7987947519 -2.6737998607
O 4.6894081348 1.8729944613 -0.0117530736
C 5.5701967759 0.8437183717 0.0906357248
F 5.4769184870 0.1969585708 1.2725525882
F 5.4001390354 -0.0829410276 -0.8763803418
F 6.7988783476 1.3532432005 -0.0190955426
Br 0.4870782897 1.1759077906 3.0330833157
C -2.9575854659 -3.0698115502 0.8916751528
F -3.9055475019 -3.7503075670 1.5675505012
F -2.5312661831 -3.8775864474 -0.1096691041
F -1.9177001908 -2.8887658949 1.7354058215
H -6.7108019016 0.2448639127 -1.5011725563
H -7.2552470610 -0.7687213649 -0.1422614178
H -6.7856677561 0.9293961706 0.1270312897
H 3.2712038394 1.7323822202 2.1994080071
H 3.1615963218 1.3366561698 -2.0732151328
H -1.3486207902 1.3235840559 0.7819119872
