46
CONF146
C -1.7401372484 3.7916769437 -0.5324502729
C -0.7149867716 2.8061955229 -1.0946879681
C -1.0790937697 1.3369350837 -0.8603222280
C -2.3277313797 0.9168334871 -1.6150418951
O -2.5325782011 -0.5217372128 -1.4436921956
C -3.2407791823 -0.9163061948 -0.3831026243
O -3.8413941535 -0.1855902229 0.3783686035
C -3.2655493869 -2.4407338239 -0.2550421250
C -4.3910215789 -3.0162566292 -1.0997086899
O -2.0480679410 -3.0395437889 -0.7159337062
C -0.8825498720 -2.6690859634 -0.0994195578
C -0.8185155755 -1.9700123494 1.1090749280
C 0.4236225373 -1.6346814124 1.6433529702
C 1.5770753569 -1.9967318427 0.9684763004
C 1.5278845829 -2.7009407631 -0.2272774496
C 0.2922028629 -3.0385231338 -0.7610589609
O 2.8297952966 -1.7054167591 1.5279752818
C 3.2956715543 -0.4355826075 1.4164903508
C 4.4895110315 -0.1524584734 2.0955642689
C 5.0779279832 1.0884193589 2.0601066286
C 4.4545642033 2.1033192214 1.3146517962
C 3.2633809627 1.8426364811 0.6255745074
C 2.6898604271 0.5812362058 0.6775977682
C 5.0401602313 3.3948933827 1.2585842246
N 5.5145957940 4.4517667327 1.2098053395
F 5.0700181381 -1.1433741554 2.8014995441
H -1.3880450833 4.8222785489 -0.6390108562
H -2.7025817192 3.7177893838 -1.0483536251
H -1.9147326441 3.6029969276 0.5327650176
H -0.5806731564 2.9795483317 -2.1703439727
H 0.2592468506 2.9916353711 -0.6274247364
H -0.2528999324 0.6945083932 -1.1883545704
H -1.2266080386 1.1572147301 0.2124103426
H -3.2237785798 1.4424301890 -1.2791320260
H -2.2045461820 1.0487626653 -2.6927637511
H -3.4327812980 -2.6739352727 0.8033365039
H -4.4288902306 -4.1000013076 -0.9653321246
H -5.3452573827 -2.5890068478 -0.7815246023
H -4.2296993919 -2.7880380488 -2.1565848359
H -1.7115681581 -1.6820388367 1.6500584713
H 0.4894109688 -1.0900164098 2.5797457602
H 2.4472369045 -2.9731640584 -0.7348735952
H 0.2229026646 -3.5813018759 -1.6977718533
H 6.0004496013 1.2654635667 2.6009674635
H 2.7892510924 2.6273896249 0.0476288979
H 1.7696981148 0.3805477376 0.1421959350
