47
CONF27
C 5.1840804462 -1.6522273244 2.3294862746
C 4.7495221551 -0.9333654532 1.1162896412
C 3.5269729508 -0.5576043556 0.6203165794
C 3.8412118602 0.1148786845 -0.6010574087
N 5.1350512916 0.1431219479 -0.8231249974
O 5.7112930537 -0.5356511610 0.2632477618
C 2.9263455605 0.7527677766 -1.5626577293
C 2.7837769381 0.2467388070 -2.8565407133
C 1.9075695070 0.7757628081 -3.7869878585
C 1.1332162242 1.8680340256 -3.4140885826
C 1.2387746210 2.4197318516 -2.1403371986
C 2.1301942834 1.8599114847 -1.2361143520
Cl 2.2675269569 2.5640566938 0.3605805986
F 3.5184775853 -0.8288586318 -3.2010602065
C 2.2303927131 -0.7841712201 1.2838391142
O 2.1415554943 -0.9117510560 2.5050138725
N 1.1483864377 -0.8420051363 0.4519801451
C -0.1914536355 -0.8758991538 0.9408134066
C -1.1333665076 0.3479706423 0.6636325296
N -2.0057000894 -0.5573419976 -0.0961360467
C -1.2340118221 -1.6892536805 0.1389568948
O -1.3813556414 -2.8460083922 -0.1762419625
C -3.4358153178 -0.3960848838 0.0388041551
C -3.6831386524 0.0164185183 1.5388266020
S -2.1855335619 1.0566936529 1.9963589687
C -3.7238376154 -1.2473247149 2.3983997406
C -4.9435066408 0.8486200675 1.7461293368
C -4.0173487039 0.5976864712 -0.9543099576
O -5.1435103249 0.5143478985 -1.3909606975
O -3.1576339379 1.5806057621 -1.2678873452
H 4.3758116549 -2.2860457238 2.6946823284
H 6.0709462723 -2.2531635355 2.1152999540
H 5.4345320947 -0.9345254749 3.1189158272
H 1.8383585612 0.3322886715 -4.7734877353
H 0.4376273580 2.3001145864 -4.1251791691
H 0.6401652735 3.2757887352 -1.8532327741
H 1.2871649665 -0.7649483071 -0.5456436627
H -0.1942077437 -1.1653614640 1.9954384232
H -0.6818707431 1.1519147452 0.0761521688
H -3.9296924322 -1.3542447522 -0.1496923026
H -3.7714049449 -0.9762736475 3.4560278683
H -2.8383963616 -1.8709193300 2.2475895800
H -4.6132202082 -1.8362181590 2.1462690816
H -4.9203118001 1.7821324773 1.1777976084
H -5.8188114597 0.2678956951 1.4373842981
H -5.0553526583 1.0933843698 2.8059631077
H -3.5994739340 2.1883807002 -1.8866559921
