55
CONF36
C 2.4409719599 -0.2727704155 2.0638001762
C 3.6572377799 0.5525679062 2.4568422320
N 3.9455764439 1.5568842308 1.4243444229
C 2.7766322214 2.4265227798 1.2484828793
C 1.5574949472 1.6037521316 0.8582409207
N 1.2830174378 0.6027955287 1.8893351240
C 0.0253306392 -0.1108561659 1.6963337108
C -0.0654476163 -1.0395894819 0.4527045817
C -1.3921932752 -1.7121418361 0.4011870915
C -2.3906561352 -1.5520165575 -0.4935211588
C -3.6169116350 -2.3695993649 -0.3847053994
C -4.2331235950 -2.6106196363 0.8503149207
C -5.3422283722 -3.4414080788 0.9505045202
C -5.8744960435 -4.0346584569 -0.1934778125
C -5.3059118556 -3.7804119795 -1.4360672905
C -4.1876049786 -2.9500328541 -1.5279176596
S -3.4628702736 -2.6962078567 -3.1341017419
C -2.7692225101 -1.0792414617 -2.9180849488
C -2.3287071828 -0.6442959288 -1.6560056644
C -1.8504207485 0.6669384383 -1.5453260447
C -1.7333178760 1.4772811887 -2.6672294266
C -2.1171294485 1.0100363421 -3.9263018348
C -2.6510144463 -0.2615744876 -4.0458571223
C -1.2248329455 2.8800451611 -2.5524150582
F -0.2405035470 3.1358351595 -3.4545550702
F -0.7214757087 3.1601511161 -1.3290808436
F -2.2026189595 3.7981440746 -2.7918929625
C 5.1510137308 2.3334180455 1.7383786085
C 6.4042987396 1.5239775897 1.4316014018
O 6.3750514455 1.0422221670 0.0833949890
H 2.2212401498 -0.9999477012 2.8549591971
H 2.6823560081 -0.8365330626 1.1424283682
H 3.4733025821 1.0367380603 3.4357123327
H 4.5191606984 -0.1137518572 2.5668234659
H 2.5552318207 2.9896525898 2.1761037570
H 2.9931380785 3.1518384492 0.4558863750
H 0.6877929855 2.2645341362 0.7675213631
H 1.7426389875 1.1480784216 -0.1336646546
H -0.1617773401 -0.7186660460 2.5917288911
H -0.7785527729 0.6348803258 1.6398736579
H 0.7066021669 -1.8137476735 0.5461238223
H 0.1370318938 -0.4760649793 -0.4615870209
H -1.5623376392 -2.4479263488 1.1869874069
H -3.8286487501 -2.1333211264 1.7376200641
H -5.7982430241 -3.6178208801 1.9192282111
H -6.7448806630 -4.6789329153 -0.1239523513
H -5.7290810731 -4.2207027260 -2.3336771552
H -1.5759619974 1.0492731299 -0.5698365343
H -2.0256360435 1.6445069418 -4.8017198813
H -2.9886602014 -0.6202800472 -5.0127138299
H 5.1699963655 2.6713298867 2.7917649916
H 5.1500146105 3.2268219855 1.1020620472
H 7.2868308785 2.1634357693 1.5366135462
H 6.5153141084 0.6851237641 2.1352943880
H 5.4471896081 0.7963345851 -0.0672111793
