44
CONF6
C 2.3472942337 2.6575444914 0.6611008281
C 2.8159035501 1.2561630025 0.4713337353
N 1.9672676110 0.2672821100 0.7768553953
C 2.4288254366 -0.9743533905 0.5517552093
N 3.6348842175 -1.2812586237 0.0736458039
C 4.3948689220 -0.2116471733 -0.1835430032
N 4.0496863011 1.0692643213 -0.0121858272
O 5.6005712575 -0.5123691475 -0.6530777870
C 6.4994104188 0.5837538273 -0.9609742097
N 1.6132111454 -2.0519507787 0.8245749955
C 0.2923789340 -2.1127823951 1.2823820059
O -0.2855831969 -3.1854216592 1.3474836903
N -0.2582975233 -0.9058218366 1.6462842249
S -1.9226189129 -0.7230458772 1.9724637270
O -2.2760383909 -1.5580954759 3.1227399940
O -2.0844156321 0.7356875015 2.0581252954
C -2.7579896312 -1.3603545832 0.5155068574
C -3.5285910530 -2.5070521551 0.7028681929
C -4.2230462744 -3.0460953974 -0.3715279736
C -4.1283759956 -2.4424161408 -1.6219273907
C -3.3467883015 -1.3058914659 -1.7928366973
C -2.6419205203 -0.7277299406 -0.7324122865
C -1.8547066313 0.5299911431 -1.0030508026
C -2.7628279104 1.7668210940 -0.9258773896
C -1.9935588431 3.0402775538 -1.1402044228
F -1.0353923741 3.2302666308 -0.1941632323
F -1.3570662636 3.0687416746 -2.3416289516
F -2.8017182074 4.1297395267 -1.1014651470
H 3.1507519384 3.2724302434 1.0726559241
H 2.0823172623 3.0765280511 -0.3170812255
H 1.4675364354 2.6912583037 1.3040331227
H 6.0690465901 1.2192526032 -1.7376684783
H 6.7008524193 1.1717446369 -0.0632583436
H 7.4084777583 0.1018305069 -1.3179524434
H 2.0084656893 -2.9593552880 0.6115138831
H 0.2992394966 -0.0557413377 1.4527117196
H -3.5751918261 -2.9694706646 1.6811763192
H -4.8253701944 -3.9370037599 -0.2310171543
H -4.6600256206 -2.8606818444 -2.4705017238
H -3.2734692369 -0.8447052156 -2.7738010076
H -1.4324170023 0.4566306066 -2.0096720057
H -1.0217703633 0.6492851141 -0.3096465351
H -3.5445221809 1.7226245936 -1.6904194511
H -3.2392885470 1.8361266302 0.0556263516
