54
CONF213
C 3.5930369792 -1.5934643418 1.6010665883
C 3.6249861582 -0.0713295321 1.7236615677
C 3.0333202010 0.5701025681 0.4945779619
C 2.2456448546 -0.1799969393 -0.3888393413
C 1.7370137238 0.3880252446 -1.5594105492
C 1.9859292811 1.7201259816 -1.8591453312
C 2.7433099820 2.4576896335 -0.9641098382
C 3.2725386159 1.9138041126 0.1893043325
F 2.9786046046 3.7750608774 -1.2354955533
O 1.9406463391 -1.4991034258 -0.1775722306
C 2.2112629241 -2.0244651263 1.1429480577
C 2.0487500920 -3.5460222288 1.0459623110
C 0.7622506816 -4.0221033215 0.3553993567
N -0.4104421914 -3.8550024709 1.2278580686
C -1.1311774121 -2.5799144772 1.1373073769
C -1.7266868468 -2.2435164994 -0.2280191873
C -2.3723173729 -0.8523972462 -0.2216211451
C -2.9750956907 -0.4537724470 -1.5571779408
C -3.5657369272 0.9506559673 -1.4526966851
C -2.5727927393 1.8940506627 -0.8274618958
C -1.5058941022 1.3929166847 -0.0702604529
O -1.3041286427 0.0555627042 0.1412235855
C -0.5583270401 2.2507185758 0.4928779411
C -0.6633665374 3.6243881976 0.3190052317
C -1.7292711306 4.1073909724 -0.4228242056
C -2.6736308948 3.2780811545 -0.9963538832
F -1.8462097813 5.4557687115 -0.6018899982
O -2.7108942659 -3.2445025993 -0.5160364407
O 2.1147760439 -4.0960598038 2.3628161173
H 3.8219928123 -2.0663898117 2.5595192036
H 4.3306058154 -1.9380650009 0.8649314082
H 3.0555240848 0.2388211735 2.6099167021
H 4.6490686415 0.2886533230 1.8672862018
H 1.1327529381 -0.2238786590 -2.2214388604
H 1.5883612124 2.1818958896 -2.7562972053
H 3.8782526483 2.5259155254 0.8511131283
H 1.4628340207 -1.6192076682 1.8406018740
H 2.9035333827 -3.9395754241 0.4788710263
H 0.6696653607 -3.5370147650 -0.6248308486
H 0.8809048721 -5.0960976938 0.1752324689
H -0.4758969759 -1.7608354855 1.4367698850
H -1.9555241850 -2.6114370695 1.8626831950
H -0.9436899892 -2.2430613682 -1.0003938101
H -2.1873981963 -0.4829640382 -2.3215782129
H -3.7510398913 -1.1707978138 -1.8397080314
H -3.8582397128 1.3235706791 -2.4395012230
H -4.4788018094 0.9206098376 -0.8433003609
H 0.2697277045 1.8264721784 1.0519817304
H 0.0662473674 4.3046561109 0.7447824836
H -3.4845225255 3.7005239811 -1.5824039611
H 1.1830952195 -4.1212469514 2.6513207639
H -3.1424786709 -0.8105937520 0.5658115911
H -2.8346343349 -3.2878727071 -1.4717136681
H -1.0640400645 -4.6066460891 1.0453145699
