45
CONF36
C -6.1378699348 2.2260309036 1.8400963199
C -5.2927032747 0.9935912350 1.7997415428
C -4.2572126311 0.8074514752 0.9735474003
C -3.4736802542 -0.4384412402 0.9477154717
C -1.9305530934 -0.4592776760 0.8477728765
C -2.8156778602 -0.9793026546 -0.2900748411
C -2.8969861086 -0.2273956125 -1.5975309192
C -2.8039044904 -2.4835986955 -0.4589868900
C -1.1461802985 0.7740347171 0.7170631815
O -1.5006373261 1.8347863119 0.2408731503
O 0.1088912523 0.5645870114 1.2247279702
C 1.0651228837 1.6489005656 1.1041168126
C 2.2612997021 1.1389453855 0.3593035189
C 3.5016030825 0.9619110663 0.9589275836
C 4.5918223417 0.4810661566 0.2439440759
C 4.4972614783 0.1426334256 -1.0996689494
C 3.2493964417 0.3081148450 -1.6944742483
C 2.1651605911 0.7979280981 -0.9874884625
F 0.9859034705 0.9483684383 -1.6180921386
F 3.0879990849 -0.0030308824 -2.9930258741
C 5.6556895618 -0.4283323611 -1.8840699958
O 5.5269240799 -1.8361829394 -2.0721199432
C 5.7161407829 -2.5711822719 -0.8597597793
F 5.7637635302 0.3378246626 0.8907795771
F 3.6690655217 1.2577611076 2.2603456044
H -6.1122708446 2.6871596315 2.8351302298
H -7.1891294609 1.9889317693 1.6352047281
H -5.8010515119 2.9650891204 1.1073904801
H -5.5564569032 0.1994296753 2.5002126962
H -3.9836437422 1.5972962478 0.2798691426
H -3.8358967062 -1.1969001143 1.6392641781
H -1.4401751704 -1.2282349881 1.4345593404
H -2.8661924827 0.8541451392 -1.4710656800
H -3.8291551565 -0.4922864107 -2.1088337756
H -2.0630591454 -0.5195104521 -2.2454224446
H -1.9455642468 -2.7950761583 -1.0646579586
H -3.7172796113 -2.8072921460 -0.9708426297
H -2.7512121087 -2.9943785144 0.5064931160
H 0.6028143362 2.4832877982 0.5713261220
H 1.3377969110 1.9629093311 2.1122716565
H 6.5995273508 -0.1881342888 -1.3785910149
H 5.6687992642 0.0120398556 -2.8838074227
H 4.9359934539 -2.3389762624 -0.1213240416
H 5.6538964381 -3.6292390660 -1.1213091035
H 6.7016216078 -2.3574515089 -0.4228635417
