14
CONF9
C 0.5091421411 -0.3434298465 -0.0781330455
C -0.7011276325 0.5062974116 0.2804045982
C -1.8158523333 0.5126128113 -0.7315525642
O -2.9369831006 0.9172318390 -0.4983886458
O -1.4448685708 0.0470517722 -1.9413258255
C 1.5597595610 -0.3081146112 0.9984524771
O 1.4981026176 0.3295271486 2.0290985615
O 2.6145259844 -1.0878752012 0.6788929662
H 0.2300203116 -1.3904538613 -0.2416002314
H 0.9770825093 -0.0060529398 -1.0091053908
H -0.4047958235 1.5540977923 0.4152827828
H -1.1363055386 0.1922920032 1.2331279240
H -2.2129608321 0.1071098605 -2.5354888870
H 3.2642606959 -1.0302941839 1.4003349896
