38
CONF5
C -5.6572310719 1.5206219060 -1.1976284872
C -5.0848716319 0.8015109633 -0.0062485296
C -5.8753272941 0.5432703430 1.1165548951
C -5.3428409458 -0.1503435844 2.2003170887
C -4.0270326726 -0.5918027067 2.1804083359
C -3.2264109218 -0.3346353384 1.0598949899
C -3.7575679164 0.3637170686 -0.0290275245
N -1.8996368472 -0.8000727944 1.1140580952
C -0.9541963951 -0.7570197586 0.1394151764
O -1.0604925628 -0.3103834960 -0.9852394923
O 0.2071087641 -1.3111695362 0.6392293538
C 1.2748218956 -1.4436178953 -0.2552797936
C 1.2348043933 -2.4218501528 -1.2368079022
C 2.3522543385 -2.5620863353 -2.0563644776
C 3.4670989351 -1.7528766012 -1.8871216185
C 3.4850035774 -0.7733481116 -0.8829898865
C 2.3674501428 -0.6140965521 -0.0549254165
N 4.6468550135 -0.0010064375 -0.7685577856
C 4.9008979340 1.0183101691 0.1081876478
O 4.1456432117 1.4481626617 0.9634355462
O 6.1489425287 1.4949871823 -0.1181864533
C 6.5497410722 2.5860158890 0.7428359050
H -6.4145857339 2.2476794561 -0.8924090657
H -6.1406230797 0.8098191093 -1.8785344440
H -4.8774381626 2.0389974389 -1.7615372802
H -6.9053131179 0.8868900159 1.1417179212
H -5.9566848706 -0.3487605401 3.0735612039
H -3.6133223367 -1.1304615356 3.0279874926
H -3.1414166885 0.5691945115 -0.8934899641
H -1.6171173908 -1.2409064484 1.9787061033
H 0.3586712507 -3.0497285573 -1.3530121143
H 2.3562114076 -3.3166584122 -2.8360787933
H 4.3329644718 -1.8765488169 -2.5305356604
H 2.3441723539 0.1306670451 0.7268636818
H 5.3926383561 -0.2203246812 -1.4142063299
H 7.5615768435 2.8389767038 0.4285757249
H 5.8828015337 3.4410000120 0.6083612702
H 6.5424524364 2.2678776421 1.7880716034
