45
CONF23
C 6.9705866494 -0.3018116692 3.6145841440
C 5.6595253293 -0.8154327433 3.0236352857
C 5.1709082512 0.0305123036 1.8484507352
C 3.8610530091 -0.4733389334 1.2452112980
C 3.3745394664 0.3763675407 0.0723679631
C 2.0662005135 -0.1299894120 -0.5322827934
C 1.5941777829 0.7136543422 -1.7141840697
C 0.2377210062 0.2633054977 -2.2929400333
C -0.9267747659 0.4732622113 -1.3565629747
C -1.4422948291 1.7629683602 -1.2294258160
N -2.4832911447 1.9213573307 -0.3728927867
C -3.0330206781 0.8619258468 0.3505654178
N -4.0304800211 1.3475996902 1.1012648110
C -4.0318753395 2.6608178522 0.7969558792
N -3.1227428950 3.0854820852 -0.0898680330
N -2.5642608881 -0.3786460655 0.2358483851
C -1.5370834035 -0.5597134795 -0.5975089411
C -1.1033638270 -1.9960649905 -0.7452641692
C -1.8600935415 -2.6809438193 -1.8923340103
N -1.0503996988 2.8670848588 -1.9177324181
H 7.7665364004 -0.3025611914 2.8620505424
H 7.3030238708 -0.9201595443 4.4538109468
H 6.8601408405 0.7252987992 3.9788074007
H 4.8854124486 -0.8331524956 3.8018490319
H 5.7853151105 -1.8546924697 2.6926634231
H 5.9464118140 0.0509397741 1.0697371141
H 5.0431705071 1.0706979664 2.1798150290
H 3.0857116206 -0.4951461211 2.0234458041
H 3.9900753629 -1.5126190993 0.9120985553
H 4.1506174405 0.4015869602 -0.7055870864
H 3.2413789315 1.4146197318 0.4072730759
H 1.2877271597 -0.1425530548 0.2424001717
H 2.1981338238 -1.1705704155 -0.8601363884
H 1.5362921880 1.7624311108 -1.3891820145
H 2.3478653548 0.6780740512 -2.5116461247
H 0.0442082805 0.7995866092 -3.2323156700
H 0.3066729427 -0.7907378349 -2.5734175059
H -4.7294143045 3.3628129867 1.2373036978
H -1.3328461646 -2.5032497496 0.1953215762
H -1.5623663798 -3.7299088380 -1.9807287215
H -1.4171848911 3.7493129276 -1.5919986153
H -0.1371825904 2.8703389780 -2.3352037759
H -2.9369729700 -2.6413486125 -1.7067287226
H -0.0250971100 -2.0708925429 -0.9070279116
H -1.6648361830 -2.1876912046 -2.8502861926
