47
CONF101
C -5.2172141221 -2.5785610263 -1.0051183425
C -4.0905975695 -2.5909891471 0.0277895608
C -3.8347296302 -1.2287875444 0.6804670877
C -3.3315705261 -0.1634404325 -0.2949664959
C -2.9655445192 1.1705368087 0.3704477038
C -4.2074529312 1.9695256501 0.7972801679
C -3.9210464781 3.0733869700 1.8154129362
C -2.1170715034 2.0204816218 -0.5728465153
O -0.8484871940 1.3905368428 -0.8720816745
C 0.1383510509 1.5875658342 0.0477020685
O 0.0024832829 2.2664409004 1.0464397604
C 1.3545048950 0.8743308212 -0.3568384195
C 2.4576429034 0.9341650754 0.4110314264
C 3.7417230471 0.3046260401 0.1739729676
C 4.7800198087 0.5000170590 1.1038204112
C 6.0253429389 -0.0702883645 0.9303280560
C 6.2766169399 -0.8650744751 -0.1932136115
C 5.2613054727 -1.0777234465 -1.1340032849
C 4.0169966380 -0.4969389695 -0.9430034205
O 7.5291253259 -1.3829465956 -0.2815249536
C 7.8374516614 -2.1933981280 -1.4141368541
H -5.4210517458 -3.5866221939 -1.3790604368
H -6.1436927142 -2.1909095290 -0.5662515639
H -4.9706325917 -1.9525317564 -1.8677942358
H -4.3328495407 -3.3175074720 0.8131578783
H -3.1636142032 -2.9446746983 -0.4429782599
H -3.0892403523 -1.3499336489 1.4777015314
H -4.7581216860 -0.8928121306 1.1703669037
H -4.0849182276 0.0307833571 -1.0714778155
H -2.4456468270 -0.5567867596 -0.8101106928
H -2.3598526777 0.9696922501 1.2652555750
H -4.6824960042 2.3945977059 -0.0991333397
H -4.9419389698 1.2789658104 1.2260086564
H -3.4740125721 2.6540123060 2.7223971004
H -4.8427768780 3.5896507259 2.1008066288
H -3.2273020499 3.8257260681 1.4297100818
H -2.6122543004 2.1194268891 -1.5449317633
H -1.9248610392 3.0119074295 -0.1549026750
H 1.3068601165 0.3158146580 -1.2852961753
H 2.3777112883 1.5296046750 1.3198502255
H 4.5941441530 1.1163682576 1.9786672196
H 6.8226466516 0.0836514470 1.6489923733
H 5.4304951376 -1.6893609178 -2.0113471874
H 3.2449801773 -0.6746306890 -1.6842595221
H 8.8775357193 -2.4952942932 -1.2872880370
H 7.7329114656 -1.6266693097 -2.3478936835
H 7.2001264701 -3.0859337603 -1.4497690691
