39
CONF46
C 4.0898619972 0.3591892013 -2.7660623087
C 3.3550537915 0.0967979827 -1.4533941592
C 1.8697993873 0.4515297398 -1.5501512103
C 1.1481357758 0.2398786129 -0.2380408504
C 1.0669116491 -1.1983286594 0.2441350223
O -0.1397845838 -1.2114404151 1.0287207120
C -0.9739175696 -0.1453373636 0.5828059488
C -2.2556781780 -0.7381304118 -0.0403139432
N -1.9404622893 -1.6017415058 -1.1611928075
C -1.6739798529 -1.2476079740 -2.4349311322
N -1.3231424852 -2.3130071527 -3.1447760233
C -1.3853849443 -3.3180450669 -2.2248391834
N -1.7522518267 -2.9375123128 -1.0082402488
O -0.2553835486 0.5536774420 -0.4138561632
C -1.3255870752 0.7506263994 1.7743144679
C -1.9428022987 2.0008149433 1.6482511559
Cl -2.3790852200 2.6792484524 0.0831272271
C -2.2470661366 2.7909174082 2.7525290512
C -1.9358337380 2.3093238672 4.0159905705
Cl -2.3177816916 3.2987081973 5.4141260067
C -1.3355020617 1.0716395238 4.1945486412
C -1.0411317776 0.3114271715 3.0702151630
H 5.1496814590 0.0992156768 -2.6858373329
H 3.6569863129 -0.2332147704 -3.5795022537
H 4.0203168322 1.4156990616 -3.0467884142
H 3.8157859549 0.6800437141 -0.6458488977
H 3.4628881858 -0.9602143965 -1.1782777479
H 1.3840311363 -0.1648747145 -2.3183283321
H 1.7586371624 1.5005550980 -1.8504275169
H 1.5639083607 0.8848114385 0.5515458366
H 1.8961166522 -1.4946210924 0.8905737352
H 0.9785103866 -1.8948353543 -0.6025894213
H -2.7765318579 -1.3262699858 0.7182470492
H -2.9114366375 0.0622654776 -0.3880724503
H -1.7571549569 -0.2284987576 -2.7878149923
H -1.1654522452 -4.3531119503 -2.4548473149
H -2.7163271544 3.7584131357 2.6237568678
H -1.0992194683 0.7054216799 5.1865899298
H -0.5657272608 -0.6534115464 3.1946552133
