74
CONF4
C -0.9431801566 -1.7681099466 -1.4414246486
C -0.6564087203 -3.2200891838 -1.8070271317
O -1.4756652613 -3.9887402112 -0.8744349319
C -1.7781820332 -3.2424102504 0.2269833864
O -2.3892229288 -3.6976498631 1.1583572402
C -1.1640728903 -1.8694676376 0.0567157352
C -1.8779120758 -0.6249724342 0.5882963670
C -3.3322607197 -0.5278083865 0.1374684295
C -3.7077937716 0.2692830988 -0.9450339454
C -5.0356950183 0.3043645476 -1.3758180357
O -5.4960783141 1.0539764990 -2.4180662831
C -4.5444145279 1.8513131467 -3.1108694144
C -5.9993020115 -0.4720426429 -0.7251475044
O -7.2909684334 -0.4420015478 -1.1546684206
C -5.6116530462 -1.2650146797 0.3602263891
O -6.6409922095 -1.9848005212 0.9115233735
C -6.2994253476 -2.9323826940 1.9246084844
C -4.2940784314 -1.2889121817 0.8027096326
C -1.0713683827 0.5887206762 0.1448176286
C -1.2730441018 1.7874064469 0.8576238770
C -0.5958435292 2.9058013963 0.4414934370
C 0.2434959195 2.8843693720 -0.6681072470
O 0.7490820465 4.1427815221 -0.8930603758
C 0.3843743462 4.9017479434 0.2720090169
O -0.6513987460 4.1747125721 0.9562906847
C 0.4418472648 1.7417752013 -1.3960058105
C -0.2166304425 0.5663215421 -0.9702636290
C 0.0970700483 -0.7029452829 -1.7377536723
O 1.4246620805 -1.2502816502 -1.4552707934
C 2.1690745625 -0.7458697118 -0.4088035837
O 3.0314781369 0.2844507164 -0.9246444159
C 3.7776240464 0.8727671701 0.1294141742
C 4.5830104017 2.0544697389 -0.3799349162
O 5.3986067881 2.5308993471 0.6959351714
C 6.2707758754 1.5298110295 1.1925806121
C 7.0848711954 2.1275224781 2.3087295020
O 5.5474753550 0.4153481228 1.7158270745
C 4.7430743216 -0.1677754366 0.6905821503
C 3.9486245111 -1.3241720300 1.2574330940
O 4.7698068342 -2.4097804745 1.6854986528
C 3.0166891468 -1.8759200684 0.1797068067
O 2.1244464050 -2.8390525971 0.7276123624
H -1.8880360084 -1.4575508808 -1.9086592224
H -0.9674055537 -3.5024364803 -2.8149701148
H 0.3922490071 -3.4829333414 -1.6400870015
H -0.1835401596 -1.9520126617 0.5525563714
H -1.8711455744 -0.6622811376 1.6845347183
H -2.9607468731 0.8766998221 -1.4393545392
H -5.1022738646 2.3641683907 -3.8956542506
H -4.0816069162 2.5935535478 -2.4465379368
H -3.7589576387 1.2329278959 -3.5665498976
H -7.7856425109 -1.0506029534 -0.5883447178
H -5.9277378307 -2.4272511082 2.8246782732
H -7.2228305531 -3.4626265022 2.1606376302
H -5.5430339601 -3.6388848358 1.5627073762
H -3.9955604201 -1.9179965527 1.6303955896
H -1.9560171705 1.8205911279 1.6995141376
H 1.2589201393 4.9947967026 0.9340315144
H -0.0008956930 5.8774533895 -0.0352216231
H 1.1045121975 1.7229980327 -2.2529587231
H 0.1253183570 -0.4742651449 -2.8102260909
H 1.5339338838 -0.3092773324 0.3821571747
H 3.1097568358 1.2213397953 0.9374964317
H 3.9393552074 2.8827509810 -0.6877817049
H 5.2038578253 1.7420980458 -1.2358374904
H 6.9039463307 1.1661224428 0.3588734865
H 6.4166756284 2.4709142733 3.1021982395
H 7.6602594376 2.9759297985 1.9329265612
H 7.7685239675 1.3779296242 2.7126501018
H 5.3874173590 -0.5313659998 -0.1302162312
H 3.3356240779 -0.9539718454 2.0973186046
H 5.3642827293 -2.0712038249 2.3656853705
H 3.6209203924 -2.3120545842 -0.6317819735
H 2.6593784827 -3.4612007291 1.2371842096
