27
CONF34
C -4.6589325344 0.2767077891 -0.4378550043
C -3.2271371429 -0.0996014532 -0.8045330960
C -2.1756160358 0.1391810321 0.3266888665
C -0.6934304586 0.2276579272 -0.1822405656
C 0.3719414435 0.0204291616 0.9446103912
C 1.8457175840 0.4869010162 0.6272397518
C 2.5218356006 -0.1141719403 -0.6448272732
C 4.0700962694 0.1059594576 -0.7184274545
F 4.4933146853 -0.2642188758 -1.9346327120
F 4.3738201542 1.3961895437 -0.5275093593
F 4.7028103500 -0.6344211135 0.1974558958
F 1.9755161710 0.4636956345 -1.7383288691
F 2.3010535444 -1.4474254816 -0.6897007014
F 2.5814021584 0.1246825122 1.7081868622
F 1.8601359963 1.8329731194 0.5317776070
F 0.4110975608 -1.2854163136 1.2831619009
F -0.0059090468 0.7406166187 2.0302996237
F -0.4918708648 -0.7263280222 -1.1238066950
F -0.5040749121 1.4454494197 -0.7403005027
F -2.4733309181 1.3072513724 0.9489950710
F -2.2628921194 -0.8663333166 1.2312840517
F -2.8531907267 0.6390368080 -1.8957771714
F -3.1623440753 -1.4196134191 -1.1555094586
O -5.1140448657 -0.4035619733 0.7140447375
H -5.2642468783 0.0628701374 -1.3293951941
H -4.6958839368 1.3500091243 -0.2366633682
H -5.3161781123 -1.3168476302 0.4714721240
