52
CONF170
C -0.8051111914 -2.9338369593 -1.2721527724
C -0.9554386382 -2.1492895538 -0.0011555456
C -1.6662686694 -1.0158218334 0.1342170510
C -2.4185039766 -0.3309215471 -0.9270794283
C -2.5422635750 1.2232752655 -0.9605735856
C -3.7496440671 0.3372065380 -0.7006123417
C -4.4154970847 0.2897078322 0.6557822437
C -4.7360254147 0.2725094759 -1.8490903911
C -1.8645854569 2.0213688091 0.0709712492
O -1.8912672941 1.8512865624 1.2764365268
O -1.1366373048 3.0090644563 -0.5232978547
C -0.2836044797 3.8162701668 0.3441137063
C 1.1093132836 3.2507952775 0.3571045981
C 1.3673219433 2.0350507777 1.0003872702
C 2.6452386346 1.5015648014 0.9598784164
C 3.6894928575 2.1518771654 0.3084764745
C 3.4310357478 3.3641798360 -0.3208986603
C 2.1472775664 3.9084946452 -0.3031962991
O 2.8883733163 0.3180870933 1.6489256814
C 3.0945212470 -0.8300501029 0.9116026650
C 2.7882889379 -0.9317835729 -0.4447032993
C 3.0023175393 -2.1458008997 -1.0951344730
C 3.5066928216 -3.2463050583 -0.4078126984
C 3.8024510445 -3.1273506048 0.9502886531
C 3.6015578697 -1.9232031695 1.6144462421
C -0.2395765239 -2.7479164195 1.1770669012
H -1.2711851593 -2.4630114205 -2.1386364414
H 0.2584452350 -3.0884604458 -1.4925808863
H -1.2438240147 -3.9325881185 -1.1498458447
H -1.6960280359 -0.5596427031 1.1197203237
H -2.2868435961 -0.7315748163 -1.9273871829
H -2.4714199674 1.6505144276 -1.9551008462
H -5.0935931581 1.1428455849 0.7687211148
H -3.7063151581 0.3097428944 1.4806850746
H -5.0127279887 -0.6263373137 0.7265735778
H -5.3138951909 -0.6568299033 -1.7935640658
H -5.4376577738 1.1129668015 -1.7995346493
H -4.2283524803 0.3037633384 -2.8175727211
H -0.2944155014 4.8145283381 -0.0963580015
H -0.7190666555 3.8447294598 1.3458300313
H 0.5799608091 1.5000323778 1.5207060122
H 4.6804137254 1.7093779642 0.3002526617
H 4.2343037249 3.8868570593 -0.8302732167
H 1.9510689403 4.8510517692 -0.8055261417
H 2.3854198186 -0.0824408147 -0.9848681960
H 2.7646625941 -2.2258730733 -2.1515153248
H 3.6672352790 -4.1872913952 -0.9232286507
H 4.1955184100 -3.9775796976 1.4991435583
H 3.8272075337 -1.8164528723 2.6704409754
H -0.6031496480 -3.7646075744 1.3757233780
H -0.3697067331 -2.1477070306 2.0816448521
H 0.8344877634 -2.8344710342 0.9678247843
