30
CONF48
O 5.4310292698 -0.8053726377 -0.9443723061
S 5.2227071464 0.0181422232 0.4314552808
O 6.1129908996 -0.5982844981 1.4021164239
O 5.1899254435 1.4540588147 0.1802312098
C 3.4633392401 -0.5500349996 0.9576418831
F 3.3740462658 -1.8700392159 0.7271786569
F 3.3854498624 -0.3147772549 2.2753753581
C 2.3286219561 0.2128594744 0.2068181889
F 2.2610777292 1.4663470189 0.7010038803
F 2.6516530243 0.2652096798 -1.1074352773
C 0.9227561265 -0.4739878431 0.3491081466
F 0.7801371230 -0.8993177281 1.6238107255
F 0.8823261264 -1.5398522148 -0.4804224293
C -0.2670182693 0.4914276300 0.0030668718
F -0.4664147302 1.3191632746 1.0523782091
F 0.0708815663 1.2226632493 -1.0823476260
C -1.6062582036 -0.2699994498 -0.3032568470
F -1.7392967773 -1.2874663921 0.5765785269
F -1.5395750648 -0.7713206764 -1.5565394982
C -2.8724879823 0.6518699312 -0.1936674758
F -3.1626275369 0.8330638230 1.1139590162
F -2.5925164049 1.8507967215 -0.7531082955
C -4.1316191654 0.0558131793 -0.9116781137
F -4.0057017078 0.2451612835 -2.2419742731
F -4.2092337504 -1.2707166922 -0.6566436867
C -5.4830399688 0.7049630833 -0.4635880549
F -5.8067848291 0.3287208279 0.7776780879
F -5.3953899555 2.0415635547 -0.5102977414
F -6.4505230147 0.3036008286 -1.2982533635
H 5.1668596021 -0.2617459236 -1.7124458290
