47
CONF1
C -6.4917492934 -1.3014447748 2.8292407076
O -5.9861656735 -0.3672487369 1.8316063108
P -5.0446720662 -0.8890630908 0.6518760218
S -3.5621811198 -2.0503440364 1.1326989701
O -6.1184927255 -1.4559380800 -0.3865341760
C -5.6738476128 -2.1287322398 -1.5991640677
O -4.6442495719 0.5138026024 -0.0577574057
C -3.4856438408 1.2100357240 0.3002548896
C -3.4393496056 1.9224331102 1.4896528003
C -2.2809387873 2.6257749501 1.8085731153
C -1.1986140757 2.6288525054 0.9269532606
C -1.2746862002 1.9261664263 -0.2794152129
C -2.4173003268 1.2006755686 -0.5880089442
S 0.2358513436 3.6140168814 1.3436549367
C 1.5895244794 2.5253336842 0.9146404948
C 1.5717652582 1.1681559186 1.2489984764
C 2.6597079942 0.3617302103 0.9413082124
C 3.7660173825 0.9286779653 0.3182254964
C 3.8093235860 2.2765689942 -0.0030875483
C 2.7098932484 3.0775756498 0.2905643017
O 4.8951352801 0.1516686956 0.0418533903
P 4.8798372512 -0.9963569270 -1.1044837643
S 3.8410139076 -0.5910460151 -2.6961851869
O 4.4476576691 -2.2708902147 -0.2442126221
C 4.1739315580 -3.5403325944 -0.9051303418
O 6.4452179839 -1.2547201206 -1.2913666935
C 7.2375883083 -0.3651139608 -2.1289961009
H -7.1267687817 -2.0523051724 2.3520614326
H -7.0763374000 -0.6980770492 3.5227153820
H -5.6573988538 -1.7785738575 3.3490115363
H -6.5840720470 -2.4019316156 -2.1318082801
H -5.0704581151 -1.4484176803 -2.2064487953
H -5.1001621428 -3.0221028238 -1.3407552571
H -4.2876983347 1.9153628078 2.1655360661
H -2.2219021902 3.1667556249 2.7472844965
H -0.4405667550 1.9359919308 -0.9730952547
H -2.4897561461 0.6387235814 -1.5130546594
H 0.7099817082 0.7375008679 1.7478450945
H 2.6565231560 -0.6927477159 1.1956784260
H 4.6844781317 2.6874154495 -0.4948633261
H 2.7231936566 4.1289302075 0.0224002391
H 3.3569671881 -3.4192214613 -1.6206413634
H 5.0739470782 -3.9038271451 -1.4077816403
H 3.8834246248 -4.2253914516 -0.1095074645
H 7.2036583989 0.6532198514 -1.7323274862
H 8.2547580897 -0.7527608224 -2.0855744217
H 6.8636132614 -0.3887814094 -3.1553880644
