22
CONF2
C 2.2743940872 -1.1732396526 0.1528152821
C 1.2229513539 -0.2610579455 -0.4544732757
C 0.0698137503 0.0284845151 0.5177618835
C -0.7852190291 1.2156454301 0.0538816888
C -1.9890748359 1.4668056743 0.9600668633
O -3.0131041133 0.4839933832 0.7541803971
O -1.2270523197 1.0545045255 -1.3080708560
O -0.7212830610 -1.1577127850 0.7135492518
O 0.7276354292 -0.9384211374 -1.6228149508
O 3.3537444519 -1.4108853294 -0.7555279840
H 1.8069667004 -2.1201569335 0.4609795779
H 2.7056400125 -0.6927732966 1.0361032019
H 1.6962508912 0.6913415468 -0.7390052878
H 0.4872279293 0.2927152380 1.4985234062
H -0.1422925945 2.1053906164 0.0732827181
H -1.6617591245 1.4924363642 2.0094243385
H -2.4381532131 2.4332230004 0.7117588391
H -2.5922497482 -0.3744217665 0.9281862858
H -2.0767204009 0.5875617519 -1.2598423394
H -0.7420115036 -1.6097596966 -0.1458015895
H 0.0798561298 -0.3353540569 -2.0250147513
H 2.9644400127 -1.7783192399 -1.5599626888
