38
CONF390
F -1.8510460553 0.1322844314 1.4336465107
C -1.6111768582 -0.2789553103 0.1709436360
F -1.3541655591 -1.6068482047 0.1889797811
C -0.3785929942 0.4808517959 -0.4069566507
F -0.3901011651 0.3516768542 -1.7515662513
F -0.4824232626 1.7865425016 -0.0757852164
C 0.9942145860 -0.0606923886 0.1306168102
F 0.8740809660 -0.3084545184 1.4563465059
F 1.2881910268 -1.2145794566 -0.5097444124
C 2.1796876054 0.9452923481 -0.0787709509
F 2.0729024226 1.5007652573 -1.3062857792
F 2.0920484869 1.9185643689 0.8565948139
C 3.5896396025 0.2717106012 0.0333170651
F 3.5959033216 -0.5926155542 1.0754541316
F 3.8455383045 -0.4043367270 -1.1059496009
C 4.7594964970 1.2859497962 0.2566199532
F 5.9245974617 0.6455440497 0.0891403289
F 4.6843839284 2.2875450789 -0.6308148836
F 4.7262067232 1.7914055889 1.4940571367
S -3.2084062839 0.0137468000 -0.8683562563
O -3.1649270198 -0.9954613767 -1.9252877605
O -3.2055790945 1.4560364816 -1.1141790788
N -4.4266962594 -0.3530083991 0.1718522005
C -5.0771185603 -1.6705544450 0.1353580386
C -4.4429701697 -2.7008878808 1.0507166079
O -4.5235721804 -2.2148550078 2.3914030933
C -4.9471787636 0.6881381233 1.0862128285
C -6.1754790932 1.3906920520 0.5224537780
H -6.1190649091 -1.5094514754 0.4348470469
H -5.0801348609 -2.0519511528 -0.8894844599
H -4.9978362850 -3.6460980096 0.9350639532
H -3.4014868972 -2.8753559926 0.7498635217
H -5.1614622002 0.1890700589 2.0356398423
H -4.1524973995 1.4142280030 1.2725139151
H -6.5471410633 2.1210444499 1.2479555513
H -5.9246271740 1.9156352028 -0.4025227294
H -6.9852677984 0.6843123450 0.3155952853
H -3.9783265696 -2.7739472662 2.9536525678
