33
CONF176
C 4.4465244528 0.4838951336 -0.6667578528
C 5.8968036995 0.0487975311 -0.4851747652
O 6.2911236074 -0.5069873961 -1.7405296868
C 3.8951689171 1.1229323489 0.5847052098
C 2.4017277022 1.5937770910 0.5191877502
C 1.3407421371 0.4586313290 0.7216960374
C -0.0940985883 0.8487019924 0.2154652945
C -1.2224401293 -0.0716926745 0.8050674428
C -2.5592050849 -0.0083765674 -0.0141826245
C -3.7946026426 -0.5528073260 0.7829468016
C -5.0196142755 -0.9189460098 -0.1175720293
F -5.3127477823 0.0976410636 -0.9406512984
F -4.7728659285 -2.0153126646 -0.8416702260
F -6.0763594343 -1.1575379257 0.6704573702
F -4.1995586890 0.3892613629 1.6600460875
F -3.4403167978 -1.6692140209 1.4608479183
F -2.8083155436 1.2763068465 -0.3542512423
F -2.4128583580 -0.7422092310 -1.1405221092
F -1.4776339004 0.3156251682 2.0746326098
F -0.7870928580 -1.3518037878 0.8085069345
F -0.3561133332 2.1251651394 0.5697006549
F -0.1165622444 0.7479404263 -1.1338503110
F 1.2684395406 0.1617904872 2.0373961821
F 1.7361396203 -0.6477231508 0.0431063816
F 2.1941613716 2.5221600002 1.4773735651
F 2.1942554678 2.1725999025 -0.6960184696
F 4.0025566290 0.2813685486 1.6632173318
F 4.6246693886 2.2434020580 0.8836520676
H 4.3827487941 1.2114847359 -1.4806311405
H 3.8411720387 -0.3823012727 -0.9414902559
H 5.9680782631 -0.6962349606 0.3194097879
H 6.5210551420 0.9128515231 -0.2187529779
H 7.2021402202 -0.8079223992 -1.6628453334
