43
CONF462
C 5.2853789616 0.0578979145 -0.4895111205
C 4.4955906277 -0.9200683993 0.0681168471
C 3.7559366862 -1.7444034020 -0.7997373420
N 3.7864251611 -1.6363222427 -2.1247018715
C 4.5605432438 -0.6788458085 -2.6542120522
C 5.3239086971 0.1859814281 -1.8857241827
C 6.1459446852 1.2623912992 -2.5081955180
F 7.3935372629 1.3259357564 -1.9714997742
F 6.2948597362 1.1004766211 -3.8424261814
F 5.5969374196 2.4974589074 -2.3234813703
O 2.9879132406 -2.6797435828 -0.2193588281
C 2.1104132721 -3.4677953540 -1.0673704216
C 1.1519565011 -4.1956058078 -0.1471510382
C 0.2461382593 -3.2626253715 0.6276772186
O -0.5875250183 -2.5573022510 -0.3383897358
C -1.3095747032 -1.5366234996 0.1988679381
C -0.8205240618 -0.2287692914 0.2326467509
C -1.5549238645 0.8416024183 0.7337005875
C -2.8364683246 0.5952487654 1.2271568799
C -3.3698472114 -0.6969371757 1.2072124258
C -2.6052237468 -1.7315099768 0.6999294017
Cl -3.2793265594 -3.3461626828 0.6614919468
O -3.6535039457 1.5515486589 1.7460048985
C -3.1521796075 2.8945218336 1.7924150253
C -4.2246787801 3.7249304951 2.4190236419
C -4.1933081558 5.0512836687 2.4646471385
Cl -5.4388256240 6.0054912361 3.2139700128
Cl -2.8859505585 5.9787507000 1.7845237042
Cl 0.7837281953 0.0780365647 -0.3987330570
H 5.8684741954 0.7198670859 0.1427383444
H 4.4265699888 -1.0614630936 1.1402663524
H 4.5663950012 -0.6101678589 -3.7390192295
H 2.7143039213 -4.1685237461 -1.6531972003
H 1.7106827255 -4.8086725571 0.5691652674
H 0.8256598973 -2.5277114989 1.1991259023
H -0.4006316291 -3.8220670001 1.3137905004
H -1.1183771654 1.8310711254 0.7249346394
H -4.3698888350 -0.8728237160 1.5852516392
H -2.9173927360 3.2471181207 0.7780511360
H -2.2294458890 2.9307595844 2.3918858236
H -5.0621389406 3.2049822708 2.8733065699
H 0.5442424663 -4.8763667014 -0.7541544921
H 1.5790037012 -2.8002322418 -1.7505632709
