45
CONF11
C 1.6217746115 -3.1590867269 0.7991494684
O 2.2163967641 -2.4003327872 1.8801516614
C 2.3164299478 -1.0752851355 1.7304350083
C 2.9510387184 -0.3516745786 2.7307503876
C 3.0332475293 1.0233658903 2.5162183889
O 3.6446206087 1.7514865230 3.4568972045
C 3.7427550855 3.1808337657 3.2472643488
N 2.5383302422 1.6301427390 1.4320466586
C 1.9452400461 0.8251273725 0.5492435744
N 1.4323784730 1.4781931087 -0.5687524463
C 0.6770947873 1.0073854380 -1.6311143339
O 0.2703463575 1.7642047633 -2.5033008143
N 0.4253340456 -0.3512270086 -1.6254579188
S -0.7307927008 -1.0317435432 -2.6503757271
O -0.2702407749 -0.9332886229 -4.0347803175
O -1.0033957858 -2.3458684907 -2.0622722846
C -2.1680581016 -0.0071921302 -2.4586611444
C -2.9832082496 0.1444806656 -1.3321814256
C -4.0112038684 0.9928317885 -1.7775094441
N -3.8444870414 1.3343951177 -3.0556488931
N -2.7237775369 0.7267569590 -3.4634548742
C -2.2658293451 0.9413320922 -4.8359867526
C -2.8609505714 -0.3595000593 0.0154376632
N -1.7423256479 -0.8123769378 0.5936364085
N -2.1606837553 -1.0806763206 1.8211362899
C -1.2946966765 -1.6211819009 2.8607940722
N -3.4448420103 -0.8212599534 2.0188740675
N -3.9104546957 -0.3609286661 0.8829704408
N 1.8071505786 -0.4986045403 0.6332861359
H 1.6680542044 -4.1966485451 1.1274089728
H 2.1947037386 -3.0235083396 -0.1220548327
H 0.5820342232 -2.8589171083 0.6426405918
H 3.3627932909 -0.8244777571 3.6120586603
H 4.2716305354 3.5546202224 4.1232564517
H 2.7476369064 3.6271167526 3.1819634986
H 4.3087444657 3.3960007786 2.3379292888
H 1.5861036869 2.4783038081 -0.5898616759
H 0.6823302342 -0.8727096883 -0.7710299302
H -4.8507716495 1.3711709453 -1.2113292244
H -2.2968233256 0.0058598329 -5.3970523742
H -2.9474494742 1.6670508736 -5.2777884015
H -1.2474802401 1.3319994350 -4.8281000395
H -0.3922305444 -1.0096432934 2.9214264795
H -1.8430419813 -1.5824879912 3.8013884564
H -1.0334254327 -2.6540383554 2.6177132891
