44
CONF28
C -3.7197157374 -2.9923566821 1.1669276597
C -2.4248465274 -2.4402033179 0.6085188809
C -1.8382750329 -3.2518795514 -0.5694028525
O -2.1624173625 -2.4695142373 -1.7216171855
C -2.0900055414 -1.1321567253 -1.2715111956
O -2.6922449461 -1.1468341593 0.0183328980
C -2.9742087286 -0.2840411072 -2.1943914728
N -2.9005922412 1.1195800791 -1.8454677914
C -3.4577904854 1.7659679423 -0.7947206256
N -3.0366651768 3.0187506723 -0.7498055920
C -2.1903655110 3.0828677423 -1.8161829604
N -2.0680422634 1.9586440639 -2.5091549464
C -0.6571225584 -0.6050295481 -1.1839513813
C -0.2558563031 0.0864467078 -0.0387091549
C 1.0057149762 0.6486024494 0.0918347965
C 1.9072985178 0.5157884150 -0.9592833662
C 1.5467194174 -0.1575556433 -2.1212029291
C 0.2723350358 -0.6957422442 -2.2265181666
Cl -0.1126245275 -1.4859465309 -3.7450983779
O 3.1593030553 1.0858993765 -0.9594327064
C 3.8037246175 1.2959543018 0.2459122256
C 3.9498811578 0.2748091483 1.1810740805
C 4.6718601376 0.5095028450 2.3443348844
C 5.2455096058 1.7599442336 2.5504187889
C 5.1110558072 2.7776487428 1.6140212788
C 4.3800510675 2.5425014695 0.4547867909
Cl 6.1577120583 2.0545757297 4.0181506641
H -3.5368161568 -3.9430037903 1.6781961461
H -4.4385437764 -3.1576121861 0.3585439799
H -4.1555482447 -2.2944933839 1.8868654529
H -1.6773176313 -2.3194976240 1.4047276727
H -0.7495376329 -3.3673495266 -0.4788454229
H -2.3055617733 -4.2321176929 -0.6891426784
H -2.6423468703 -0.3950277983 -3.2276144217
H -4.0027964288 -0.6413176504 -2.0937744618
H -4.1459990203 1.2852105526 -0.1129952683
H -1.6546063544 3.9800968892 -2.0964247536
H -0.9758578598 0.2038515430 0.7627660177
H 1.2763167488 1.1940324305 0.9881494305
H 2.2549959718 -0.2398497147 -2.9362698232
H 3.5031871569 -0.6963812823 0.9976188349
H 4.7975602564 -0.2752746916 3.0810032105
H 5.5667150266 3.7447527725 1.7906879064
H 4.2557631035 3.3177571772 -0.2928764779
