21
CONF78
C 0.7706648986 -1.4224091549 -0.1716130841
C 0.0094167848 -0.0908921934 -0.0428347322
C 0.7269539672 1.0290208415 -0.8012295897
O 1.9900028854 1.3079698735 -0.1590826418
C -1.3584150883 -0.3061698155 -0.7038892134
O -2.2327894546 0.7732472790 -0.3379006596
C -0.1622232992 0.3099559035 1.4341962524
O -1.0613488810 -0.5508481631 2.1437068623
O 2.0817971302 -1.4047530310 0.4020085920
H 0.8205381108 -1.6980690329 -1.2382016739
H 0.2127387183 -2.2061291966 0.3527595231
H 0.8937379938 0.7120165054 -1.8407594089
H 0.1021879792 1.9325608669 -0.8055114245
H 2.4769496341 1.9255133822 -0.7184136259
H -1.2377974759 -0.3540102330 -1.7957957346
H -1.7778347520 -1.2650913270 -0.3680207757
H -3.0799965681 0.6214292083 -0.7741505029
H 0.8001002501 0.2340515379 1.9457656138
H -0.4994475797 1.3530015802 1.4938069258
H -1.9502545432 -0.3517291150 1.8203562876
H 2.4750195910 -0.5486654196 0.1648030102
