56
CONF1
C 0.5327279554 1.1018414112 2.0703489311
C 0.9186991162 -0.2230023939 2.7089176680
N 2.3657680669 -0.4419567371 2.6142728161
C 2.7770881016 -0.3952069308 1.2063117418
C 2.3834391973 0.9322813229 0.5752366523
N 0.9366201845 1.1200364239 0.6659152610
C 0.4732559752 2.3260086405 -0.0193143221
C 0.5654702055 2.2134363872 -1.5439317516
C 0.0396948833 0.8700937751 -2.0564965763
N -1.2943242207 0.5702314851 -1.5219444464
C -2.3669194797 1.4193926181 -1.8386530637
C -2.3830074503 2.1697139795 -3.0217567172
C -3.4490118292 3.0164759788 -3.3120687064
C -4.5361152490 3.1103220486 -2.4490370417
C -4.5458910479 2.3537118627 -1.2798162568
C -3.4623457368 1.5386981544 -0.9675364046
S -3.4152568835 0.7097732937 0.6062640431
C -2.5136197912 -0.7424323807 0.1302730275
C -1.5270796909 -0.6435753226 -0.8699469539
C -0.7890381019 -1.7931585597 -1.1726708830
C -0.9823136983 -2.9686031726 -0.4484022333
C -1.9448524886 -3.0518867742 0.5516412004
C -2.7301772615 -1.9339719215 0.8138775776
C -0.0905919755 -4.1342123363 -0.7425837384
F -0.5807507377 -5.3020002957 -0.2685308112
F 1.1463011380 -3.9788344880 -0.1848845869
F 0.1181917511 -4.3023128646 -2.0740810194
C 2.7540291020 -1.7032098823 3.2566972083
C 4.2443765095 -1.7109768477 3.5708777601
O 4.6063395218 -0.5477184436 4.3236180423
H -0.5560747029 1.2214937272 2.1275034888
H 0.9971820873 1.9323040769 2.6404304483
H 0.3582823362 -1.0401224669 2.2102186434
H 0.6313499482 -0.2155609671 3.7665905797
H 2.3091609947 -1.2214293538 0.6335922512
H 3.8635685119 -0.5138805591 1.1381272175
H 2.9315954792 1.7574071740 1.0745585244
H 2.6888144728 0.9213086154 -0.4768698985
H 1.0206883411 3.2293543857 0.3145291311
H -0.5785665277 2.4696389075 0.2578449451
H 0.0111770880 3.0503158788 -1.9819259855
H 1.6001470985 2.3132069086 -1.8914408150
H 0.0598535809 0.8320892081 -3.1534544587
H 0.7083720188 0.0904066371 -1.6944231090
H -1.5569923006 2.0985409077 -3.7192298927
H -3.4279501757 3.5964644720 -4.2292070372
H -5.3714721355 3.7629362400 -2.6788288924
H -5.3831065998 2.4143282008 -0.5911169963
H -0.0536204150 -1.7740563277 -1.9676099711
H -2.0931243428 -3.9668389297 1.1120156498
H -3.4982220567 -1.9773038971 1.5794373622
H 2.4947201929 -2.5833455024 2.6373417646
H 2.1985142417 -1.7820597346 4.1989970090
H 4.4841486267 -2.5887816493 4.1797594075
H 4.8425806354 -1.7717496617 2.6491595138
H 4.0682672615 0.1663757852 3.9433045308
