39
CONF158
C 3.0548558620 1.7380253972 -2.9711920982
C 2.6205790217 0.3282377686 -2.5709890873
C 3.2648605330 -0.1729925336 -1.2752727761
C 2.9695286887 0.6902980428 -0.0461679896
N 1.5358236822 0.8444444749 0.2146877154
C 0.8374207336 -0.1014684872 0.8565713171
O 1.3100270344 -1.1439285558 1.3112825473
N -0.5542679750 0.1826556421 1.0058753316
C -1.2122223701 1.4238125526 1.0107184141
C -0.7608555401 2.7366069733 1.0766248313
C -1.7339095557 3.7362765385 1.1110995423
C -3.1002944661 3.4322341036 1.0986047153
C -3.5441373374 2.1133547938 1.0659907637
C -2.5858835250 1.1039996553 1.0277251019
N -2.7770612720 -0.2724573911 1.0441973038
C -1.5750220166 -0.7833823688 1.0366400522
N -1.2300869599 -2.1111566225 1.0560910613
C -2.0845563591 -3.1768813733 0.8472419459
O -3.2638709570 -3.1171809222 0.5732818171
O -1.3766108150 -4.3168046768 0.9938892518
C -2.1342291474 -5.5331797857 0.7829807340
H 2.6429852442 2.0103358886 -3.9476828809
H 4.1468352733 1.8077349260 -3.0325687435
H 2.7125181472 2.4882970621 -2.2505220275
H 2.8777980089 -0.3736625519 -3.3728024520
H 1.5275543228 0.2912956283 -2.4746357221
H 2.9352046075 -1.1987860891 -1.0737934290
H 4.3556747346 -0.2039949713 -1.3943995871
H 3.3787603061 1.6972946159 -0.1670497167
H 3.4278396771 0.2489783364 0.8428514019
H 1.0359744834 1.5561983284 -0.2981632491
H 0.2898747044 2.9981780436 1.1203798106
H -1.4164685058 4.7727717322 1.1562177573
H -3.8247976366 4.2396678611 1.1271232536
H -4.6012632148 1.8688820419 1.0797957720
H -0.2461688377 -2.3042499470 1.2279582976
H -1.4202956512 -6.3413959450 0.9347744608
H -2.5322905936 -5.5581241643 -0.2339942965
H -2.9498205403 -5.5999355244 1.5066312473
