51
CONF32
C 0.0779100825 -1.3128347083 1.8068465123
C 0.9054337522 -0.0529515287 2.0360186712
N 0.6126180178 0.9531514068 1.0075595706
C -0.8030696206 1.3315478619 1.0606515622
C -1.7018964252 0.1288742938 0.7985854927
C -1.4126445881 -0.9830753120 1.8293324466
C -2.2806901827 -2.1900571178 1.5356152850
O -1.8106620702 -3.1923037780 1.0085572087
C -3.7394732278 -2.1270300151 1.8498069461
C -4.5688226061 -3.1418240581 1.3497350107
C -5.9303837850 -3.1468887433 1.6085787562
C -6.4504084318 -2.1200204890 2.3832186354
C -5.6710263553 -1.0985120006 2.9009624661
C -4.3092299147 -1.1078534718 2.6255913427
F -7.7767874432 -2.1164307251 2.6444683288
C 1.4847668908 2.1184712557 1.1424231165
C 1.5798284871 2.9396041517 -0.1442250569
N 2.1003516978 2.1306936104 -1.2586394333
C 3.4787495970 1.8916269018 -1.2920744334
O 4.2211359215 2.4061246941 -0.4600325722
C 3.9503527728 1.0093472963 -2.3595943522
C 5.3110204135 0.7048393767 -2.4840621909
C 5.7478584065 -0.1403642956 -3.4887270756
C 4.8202113731 -0.6934734452 -4.3811591608
C 3.4696268687 -0.4063016561 -4.2749801240
C 3.0318184946 0.4511364152 -3.2586252539
N 1.6968443834 0.7685416519 -3.1215639681
C 1.1742565378 1.6012101713 -2.1631350727
O -0.0217030551 1.8657392004 -2.1266017698
H 0.3417262033 -1.7489124939 0.8374016594
H 0.3144108099 -2.0546230025 2.5775761300
H 1.9725819958 -0.2979977185 1.9858923900
H 0.7048467809 0.3435751069 3.0531567655
H -0.9961508191 2.0934303689 0.2998673401
H -1.0557263810 1.7667983925 2.0499831378
H -1.5099653803 -0.2589841376 -0.2100040602
H -2.7499060005 0.4423383726 0.8420368723
H -4.1277285998 -3.9291840380 0.7486309216
H -6.5833794528 -3.9222894133 1.2234187313
H -6.1240168432 -0.3199292880 3.5044809462
H -3.6981326366 -0.3107273885 3.0323726007
H 1.1571819197 2.7976475888 1.9536591196
H 2.4890887814 1.7681959098 1.4021886315
H 2.2642348781 3.7760760245 0.0137010716
H 0.6101764308 3.3308476962 -0.4507724131
H 6.8020247027 -0.3752673861 -3.5856305184
H 5.1597575748 -1.3575281433 -5.1696575985
H 2.7506411382 -0.8343306975 -4.9664045655
H 1.0253809732 0.3951386100 -3.7784519458
H -1.6693470851 -0.5930313109 2.8237418374
H 6.0056539875 1.1454295564 -1.7774195333
