22
CONF2
C -2.7031945466 -0.0543497945 -0.4837735918
C -3.0292099923 -1.2922400760 -1.0248072173
N -2.1605333903 -2.3017518999 -1.1290111981
C -0.9215283196 -2.0896830114 -0.6916616692
C -0.4715075524 -0.8761056576 -0.1590570888
C -1.4009746088 0.1625505438 -0.0453110373
C -1.0410027839 1.4998213180 0.5579498954
F -0.3730781688 2.2778875134 -0.3461515088
F -0.2475760493 1.3712871774 1.6369127048
F -2.1312660395 2.1934541400 0.9305044731
C 0.9591486081 -0.8458945083 0.3016711183
O 1.3881323138 -1.7020512372 1.0574269886
N 1.7389705060 0.1322590227 -0.2518588280
C 3.0988915479 0.3444919477 0.2126554755
C 3.2235460034 1.5775871311 0.9907773009
N 3.3117820128 2.5671836674 1.5790032049
H -3.4545731561 0.7203956173 -0.3919670159
H -4.0400665867 -1.4836621178 -1.3785584765
H -0.2239344509 -2.9220193256 -0.7570315996
H 1.3109424377 0.8475232957 -0.8191006640
H 3.8005867394 0.3862527551 -0.6288841655
H 3.3664451743 -0.5129364112 0.8402730847
