38
CONF73
C 1.7506630660 1.6217723646 2.4904081019
C 1.7945072868 0.4657829155 1.4956982136
C 2.0993824207 -0.8576859803 2.2048754009
N 2.7730112421 0.7844334742 0.4333463547
C 2.6770067822 -0.0420605466 -0.7786855097
C 2.0226598401 0.7572942096 -1.9099963877
O 2.7472334732 1.9718282202 -2.1316238361
C 0.5731109870 1.1360258109 -1.6260886848
O -0.1641415873 -0.0741042568 -1.4048017679
C -1.4512672926 0.0360439327 -0.9658124115
C -2.1534316114 1.2285354191 -0.8299598805
C -3.4857572588 1.2213035259 -0.3646811353
C -4.1452664328 0.0505792287 -0.0279209740
C -3.4238083921 -1.1398699894 -0.1696861797
N -3.7923156837 -2.4397079451 0.0847198859
C -2.7402092261 -3.2831121201 -0.1972626059
C -1.6692779063 -2.5454859097 -0.6397705275
C -2.0835836900 -1.1764365721 -0.6310019949
H 1.0294836775 1.4194737674 3.2885466987
H 2.7355785033 1.7614521573 2.9523611275
H 1.4695273722 2.5541140856 1.9912403530
H 0.8119717088 0.3810394347 1.0136297019
H 2.1520844073 -1.6904484921 1.4962820920
H 1.3236524515 -1.0911958845 2.9419691146
H 3.0599870455 -0.7892166578 2.7298445540
H 3.7042188380 0.7053192865 0.8278523560
H 3.6829341737 -0.3202412070 -1.1131335265
H 2.1170701651 -0.9736880059 -0.6176784300
H 2.0741422668 0.1756336825 -2.8383132463
H 2.9339862339 2.3030026403 -1.2353966433
H 0.5279770928 1.7802884315 -0.7362609126
H 0.1566689621 1.6861127921 -2.4800700306
H -1.6925895058 2.1753170474 -1.0839282240
H -4.0041390700 2.1707375286 -0.2721897764
H -5.1695943937 0.0551530494 0.3290444227
H -4.6934259070 -2.7323800927 0.4268557360
H -2.8412311715 -4.3500964768 -0.0575525840
H -0.7068189734 -2.9355123702 -0.9351899513
