47
CONF36
C -2.2201679105 0.1960493697 -4.5007803799
C -2.6270855580 -0.1150184590 -3.0788864170
C -4.1148004715 0.0285566082 -2.8310710269
C -1.9260324499 -1.1889665156 -2.3067462677
C -0.7854244727 -1.9459449631 -2.8575726534
C 0.1272870563 -2.5529925866 -2.1010973065
Br 1.5551341403 -3.5639474318 -2.8452841491
Br 0.1154428962 -2.4654522252 -0.1989370198
C -1.7543334801 0.3004653432 -1.9028746435
C -0.4101812566 0.8772367671 -2.0346025317
O 0.3260975317 0.8707986077 -2.9982007478
O -0.0236932053 1.4055995080 -0.8299436325
C 1.3307391073 1.9156488439 -0.7643291505
C 2.3011240635 0.8687215560 -1.1178697599
N 3.1092987874 0.0700153081 -1.3268398948
C 1.5546417956 2.3640566890 0.6604349668
C 1.8208044266 3.6960055279 0.9527723933
C 2.0004711788 4.0704688783 2.2859493843
C 1.9092141599 3.1343622838 3.3057471994
C 1.6380757086 1.7993526735 2.9917163577
O 1.5662168297 0.9248938110 4.0495718826
C 1.2382862429 -0.4011865948 3.7624000453
C -0.0982008999 -0.7601291791 3.6384709075
C -0.4153337458 -2.0928798312 3.3870553234
C 0.5961329627 -3.0449592357 3.2650257276
C 1.9304011305 -2.6642604074 3.3949556241
C 2.2602287708 -1.3337685875 3.6433820415
C 1.4661605674 1.4055099239 1.6705597233
H -2.4912108544 1.2282037706 -4.7454234904
H -2.7664385514 -0.4669263516 -5.1806004535
H -1.1516939287 0.0782586904 -4.6735371850
H -4.3755950416 -0.2130082556 -1.7967715332
H -4.6684404916 -0.6458496837 -3.4929684972
H -4.4366828326 1.0541280497 -3.0399508639
H -2.5221507523 -1.7355609665 -1.5785145485
H -0.6775660908 -2.0338507763 -3.9353010827
H -2.2660817040 0.5776048546 -0.9877653167
H 1.4522751561 2.7462458834 -1.4682016763
H 1.8856164355 4.4310015568 0.1575065747
H 2.2097337993 5.1065547328 2.5312458244
H 2.0452735434 3.4178284676 4.3440572927
H -0.8698216385 -0.0027575898 3.7324934437
H -1.4555461321 -2.3870500813 3.2887544299
H 0.3443304470 -4.0822339634 3.0693705290
H 2.7196506496 -3.4031274714 3.3000371384
H 3.2928602570 -1.0146998929 3.7402623529
H 1.2609835178 0.3698026306 1.4223001718
