62
CONF10
C -2.5269686460 0.8823098034 1.3628420332
C -1.1044647442 1.2253728323 1.8163834578
C -0.2586442585 0.5688621077 0.7274179695
C 1.2602781612 0.5225290452 0.8650773972
C 1.8020065144 1.9481424101 1.0263473373
C 3.3209566597 1.9970131849 0.9514057558
F 3.7276855824 3.3467091488 0.9915838330
C 3.8043441091 1.3393140533 -0.3007100400
C 4.4780206502 2.0093207035 -1.2520321692
C 4.9023760086 1.3721202531 -2.4953926226
O 5.5111416614 1.9994593122 -3.3732119633
C 4.5797439814 -0.0476541635 -2.6493855311
C 3.9035915159 -0.7165093813 -1.7054926355
C 3.4148720968 -0.1135014605 -0.4278563593
C 4.0808452864 -0.9082215315 0.7322504048
C 1.8321224561 -0.1313680652 -0.4115157959
C 1.1976258320 -1.4878947698 -0.7590620575
O 1.7302546051 -2.4930901091 0.1160304514
C -0.3422364779 -1.4424805878 -0.7307241558
C -0.9051482380 -0.8216335400 0.5480087021
C -0.6983357506 -1.7366958478 1.7660450030
C -2.4249230719 -0.4067245185 0.4727884822
O -2.7508958207 0.0470402544 -0.8425821718
C -3.5194361111 1.2588061662 -0.7048575067
C -3.2605360522 2.1211059479 -1.9193481811
C -4.9979419919 0.9532600255 -0.4947574480
O -2.9669655660 1.8974513364 0.4448665077
C -3.3756126511 -1.5265430070 0.8950798411
O -3.7177539611 -1.6782406113 2.0521247031
C -3.8291165602 -2.4536107016 -0.2085847716
O -4.5521107821 -3.5380605605 0.3432040322
H -3.2421050955 0.7646250734 2.1829586273
H -0.9831508699 2.3094975946 1.8810763155
H -0.8944227470 0.7993558719 2.8027340010
H -0.4658808209 1.1196200815 -0.2043896418
H 1.5333386188 -0.0660272064 1.7490003118
H 1.4068408671 2.5772474045 0.2169442442
H 1.4801342684 2.3761374436 1.9805665184
H 3.7690685184 1.5193266341 1.8322222089
H 4.7287499080 3.0577287025 -1.1283262218
H 4.9239981501 -0.5360781352 -3.5566802023
H 3.7043165488 -1.7783143469 -1.8313435181
H 5.1347432626 -0.6213735368 0.7999855263
H 4.0134111131 -1.9782772072 0.5435126700
H 3.6032856763 -0.7045888373 1.6925776370
H 1.5388984781 0.5265436780 -1.2449592878
H 1.4802749277 -1.7326443336 -1.7943612235
H 1.2587434410 -3.3159406664 -0.0659825962
H -0.7085222304 -2.4664626389 -0.8825825411
H -0.6717980371 -0.8496261952 -1.5907044687
H 0.3607820033 -1.8383154893 1.9988760092
H -1.0838380778 -2.7397387087 1.5527171295
H -1.2210192226 -1.3667665131 2.6507141460
H -3.7793902186 3.0766259871 -1.8099005341
H -2.1874535302 2.3003468871 -2.0217646905
H -3.6338129687 1.6211530447 -2.8166338092
H -5.5488303495 1.8902688436 -0.3769039235
H -5.3996100042 0.4139816993 -1.3570586533
H -5.1534422438 0.3505969364 0.4052279583
H -4.4314654446 -1.8654462661 -0.9161835092
H -2.9342400724 -2.7831900632 -0.7625013751
H -4.9123775926 -4.0468536739 -0.3927700185
