40
CONF10
C 1.2425334295 -1.7047471328 -0.8099423816
O 2.5212615138 -1.0063638828 -0.5682510345
C 2.2127852218 0.1896818426 0.0251200415
C 3.1138452774 1.0328940287 0.6631661219
O 4.4664852087 0.8125684960 0.6905014648
C 2.5763320193 2.1279905246 1.3505105090
C 1.1971006898 2.3283268619 1.4385026186
C 0.3003500102 1.4684576467 0.7860763390
C 0.8613326645 0.4610147550 0.0252048193
C 0.1286415027 -0.6325308786 -0.6967165433
C -0.3811313793 -0.1893593278 -2.0775023633
C -1.4033403272 0.9343499533 -1.9643984355
N -2.4696344888 0.5731178514 -1.0252081804
C -3.5243067407 1.5836078331 -1.0162874106
C -1.9417102917 0.2779850167 0.3222332577
C -1.1923492062 1.4614854917 1.0066346345
C -1.0734617074 -0.9946306459 0.2042766768
C -0.5741131748 -1.5414592732 1.5116243052
C 0.4571893494 -2.3887482963 1.5071953610
C 1.0376227553 -2.8493163938 0.1937736567
O 2.2722404085 -3.5545086611 0.3285287708
H 1.3279048701 -2.1189945764 -1.8177556785
H 4.6655203271 0.0110593972 0.1871486499
H 3.2610285582 2.7946454767 1.8668400399
H 0.8209314340 3.1444831116 2.0494372274
H 0.4638294853 0.1413342956 -2.6927875940
H -0.8369041419 -1.0579282491 -2.5699825064
H -0.8985832741 1.8750606426 -1.6684451016
H -1.8580313895 1.1170795694 -2.9452526821
H -3.9824264842 1.6328658180 -2.0104060694
H -4.2980734536 1.3037971020 -0.2933664175
H -3.1691476654 2.6001620202 -0.7657973346
H -2.8116282567 0.0366663115 0.9460138175
H -1.3709379881 1.4078839412 2.0879994672
H -1.6446937570 2.4069187890 0.6841420790
H -1.6864792602 -1.7547340087 -0.3040567243
H -1.0472536458 -1.2265931420 2.4394772256
H 0.8643633563 -2.8168222137 2.4201246441
H 0.2889341404 -3.5019164696 -0.2920273266
H 2.0839743150 -4.3847834028 0.7836517657
