37
CONF13
C -1.7258474711 -2.8785408291 -4.5536851147
C -1.5920808337 -1.9294137698 -3.4045475413
C -2.6528271778 -1.0269304113 -3.1289566042
C -2.5151208979 -0.1688357818 -2.0705557844
C -3.5307697185 0.8330109677 -1.6453098901
N -1.3691596672 -0.2350271944 -1.3493470462
C -0.3403930011 -1.1207436507 -1.6377514193
N -0.4804242956 -1.9767171381 -2.6918853451
N 0.7736802792 -1.1696225284 -0.9254891702
N 0.7724289547 -0.2388663454 0.0886402859
C 1.8169964400 -0.2450433436 0.8567168757
C 2.9625038549 -1.2058148881 0.6781446842
C 1.8911633620 0.7748119285 1.9238343657
C 3.1460883353 1.3550959848 2.1806456336
C 3.3120898595 2.3462875756 3.1381595439
C 2.2148775448 2.7635777371 3.8864569165
C 0.9725607440 2.1798205157 3.6617265412
C 0.7762631757 1.1927280395 2.6896690879
C -0.6017253068 0.6048851562 2.5453302205
H -0.8400498629 -3.5075666832 -4.6453187062
H -2.6106134726 -3.5096457002 -4.4155570398
H -1.8769587089 -2.3205743180 -5.4843005468
H -3.5498823913 -1.0147215582 -3.7345595864
H -3.8431548388 0.6393632670 -0.6132838567
H -4.4026248965 0.7921524484 -2.2981438722
H -3.1032848864 1.8411147440 -1.6761976637
H -1.2095778868 0.3785230631 -0.5556597532
H 2.5755440731 -2.2116602429 0.4960236687
H 3.6089421305 -1.2211121204 1.5563152550
H 3.5678387050 -0.9391087384 -0.1971703136
H 4.0036807011 1.0360523588 1.5966129973
H 4.2913418684 2.7859394880 3.3001688327
H 2.3257897502 3.5290912032 4.6483467188
H 0.1224786740 2.4885019675 4.2648052849
H -0.5662699195 -0.4620779714 2.3142272102
H -1.1559643994 1.0867273370 1.7328022803
H -1.1675398088 0.7543403467 3.4690933538
