26
CONF2
C 2.6008362977 -1.1209829184 -0.5094291039
C 1.4789659907 -0.1644907406 -0.2682559521
C 1.3474790092 1.0216806131 -0.8723087963
C 0.1433864254 1.8818123252 -0.5819386927
C -0.7473503060 1.2155505530 0.4750496257
C 0.1572562039 0.7012760533 1.6265176935
C 0.4039138466 -0.5457171647 0.7280786548
C -1.0212570156 -0.2845885399 0.1089248238
C -1.2742108491 -0.6501060205 -1.3461934147
C -2.1356488190 -0.8904739561 0.9630064790
H 3.3180853950 -0.7290957956 -1.2356762439
H 2.2167944056 -2.0793281093 -0.8831761536
H 3.1349907034 -1.3418358810 0.4236594002
H 2.0834590493 1.3736656226 -1.5921028259
H -0.4268352357 2.0599491083 -1.5059184702
H 0.4584054501 2.8739549582 -0.2277381668
H -1.6146692726 1.8365616791 0.7273327768
H 1.0397898196 1.2987304014 1.8708777683
H -0.3993030353 0.4769923631 2.5367424020
H 0.5863036024 -1.5168579070 1.2007384319
H -2.2295018317 -0.2276406176 -1.6796778857
H -1.3397702767 -1.7388284381 -1.4577265523
H -0.4874331289 -0.2906070448 -2.0114188874
H -2.1477172039 -1.9805609519 0.8499213506
H -2.0358749743 -0.6672057484 2.0273729649
H -3.1100945410 -0.5118543461 0.6333385730
