47
CONF43
C -5.2066495053 -1.7468975813 3.0658402852
O -5.2750403107 -1.1458932138 1.7411797441
P -4.9512481915 -2.0242699624 0.4463086338
S -3.3644441569 -3.1420937700 0.4895922761
O -6.3561610661 -2.7419893905 0.1917067204
C -6.4852351043 -3.7411927888 -0.8584150709
O -4.9817994107 -0.8826942141 -0.7079411632
C -3.8286651310 -0.1820641048 -1.0691702488
C -3.2720469691 -0.4392322206 -2.3125212830
C -2.1399952269 0.2690496017 -2.7050952174
C -1.5912841951 1.2324509176 -1.8580653416
C -2.1795845379 1.4935643596 -0.6170331756
C -3.2975019052 0.7765800369 -0.2127089211
S -0.1796090344 2.1754359392 -2.4200363772
C 1.0189821922 1.9069909583 -1.1191579896
C 1.0524886812 0.7378966025 -0.3547353448
C 2.0393068834 0.5655264006 0.6083318216
C 2.9960335994 1.5560418500 0.7848267594
C 2.9816662145 2.7208928618 0.0314503850
C 1.9824266511 2.8994820291 -0.9191302294
O 3.9550406105 1.4062904153 1.8017734902
P 5.3966589722 0.7330246595 1.5046340753
S 6.4946637687 0.6952727184 3.1015650650
O 6.0021165848 1.4935588715 0.2276412859
C 6.7822134425 2.7096262180 0.3931422925
O 4.9539688263 -0.6539383969 0.8458396518
C 5.9712989047 -1.6039569578 0.4207236599
H -5.4340297238 -0.9411127209 3.7629203078
H -4.2018359930 -2.1361469310 3.2475722726
H -5.9487174724 -2.5446424771 3.1548853259
H -5.8082331784 -4.5767668954 -0.6641666031
H -7.5218174439 -4.0742138543 -0.8189523471
H -6.2695257034 -3.2925700948 -1.8320393422
H -3.7092264293 -1.1972034603 -2.9532367983
H -1.6793422012 0.0621364491 -3.6651179215
H -1.7613166586 2.2530703006 0.0351894854
H -3.7628005854 0.9675508206 0.7481595015
H 0.3115622575 -0.0399416062 -0.5039863772
H 2.0729228269 -0.3339704432 1.2129879346
H 3.7280432166 3.4893407128 0.2000726969
H 1.9515379593 3.8166382877 -1.4988286477
H 7.0107952782 3.0489480974 -0.6170020101
H 6.2003754407 3.4687892538 0.9231089378
H 7.7013914350 2.4887351178 0.9406398706
H 6.5863018065 -1.1658807102 -0.3695255253
H 6.5906357270 -1.8935720256 1.2738963483
H 5.4256777812 -2.4666494165 0.0399231146
