22
CONF8
C 2.2947868141 -0.4675722742 0.1345073280
C 0.9541131305 0.2066895888 0.4020132499
C -0.0753185424 -0.1377004439 -0.6694864026
C -1.4775714364 0.4101350472 -0.3647941436
C -2.1560597096 -0.2459226543 0.8268100760
O -2.2545460442 -1.6664778657 0.6873500525
O -2.3308020788 0.1698985180 -1.4948991531
O 0.3468291257 0.3512568581 -1.9539451821
O 1.1069842128 1.6330622187 0.4050862276
O 3.2874813323 -0.0028351355 1.0609621016
H 2.6587700931 -0.1949453782 -0.8602318206
H 2.1774227413 -1.5584359377 0.1861939435
H 0.5829866754 -0.1341444357 1.3823329848
H -0.1380492878 -1.2273004088 -0.7668508059
H -1.4052198872 1.4923202523 -0.1690497218
H -1.5899855139 -0.0540740364 1.7421758918
H -3.1528163782 0.2040162146 0.9454397789
H -2.6949625867 -1.8305432782 -0.1577351813
H -1.7857994180 0.3296548483 -2.2801276675
H 0.6218540457 1.2713100062 -1.8191894901
H 1.9580849692 1.8133677918 0.8312987773
H 3.0718185422 -0.3617592889 1.9321391778
