33
CONF153
C 4.7061493918 0.0348972414 -1.8990517738
C 5.6409577769 0.4521719400 -0.7681133654
O 6.9215091893 0.6222983721 -1.3817730021
C 3.4123298752 -0.6439262116 -1.4980823886
C 2.3737137054 0.2746370786 -0.7887477368
C 1.1159189002 -0.4539228835 -0.1994520667
C -0.0776039618 0.5231920838 0.0999104692
C -1.1345318760 -0.0831346299 1.0909350446
C -2.5163097848 0.6590770976 1.0445403964
C -3.4118795765 0.3724297416 2.2984948689
C -4.9227904543 0.7195236149 2.0904408837
F -5.5442027281 0.6638474157 3.2759908256
F -5.0528653015 1.9563360677 1.5901195709
F -5.5061059539 -0.1533137747 1.2627240927
F -2.9623462028 1.1097849613 3.3357983376
F -3.3366111332 -0.9399613874 2.6191242490
F -2.2990172398 1.9922163362 0.9768027489
F -3.1845674657 0.2648828495 -0.0627944804
F -0.6449588865 -0.0002341389 2.3487666408
F -1.3385708546 -1.3814795143 0.7766273547
F 0.4086923945 1.6627482299 0.6413273222
F -0.6970347470 0.8155526032 -1.0663186726
F 1.4768892913 -1.0580791174 0.9575004029
F 0.6850199783 -1.3910743392 -1.0691199626
F 2.9987113325 0.9083585160 0.2386008018
F 1.9644041394 1.2101585222 -1.6840160797
F 2.8185700660 -1.1363272471 -2.6269625460
F 3.6557278041 -1.7039652245 -0.6654478180
H 4.4680998389 0.8838351495 -2.5468679061
H 5.2321260349 -0.7063873012 -2.5115375421
H 5.6712121987 -0.3312176564 0.0023961633
H 5.3049269560 1.3866886280 -0.3034262173
H 7.5315587165 0.9556502783 -0.7158734997
