34
CONF2
C -3.1252183718 -1.5525680661 -1.1107081515
N -2.2370376355 -1.0348809947 -0.0647508434
C -1.7580515323 0.2874815460 -0.1629644928
C -0.4470032906 0.6370181666 0.2149100482
C -0.0167982471 1.9619946456 0.0723681360
C -0.8633339603 2.9138966359 -0.4636043409
Cl -0.2955505650 4.5599170916 -0.6475173562
C -2.1589073558 2.5879990627 -0.8533699704
C -2.5930466695 1.2842002146 -0.6853592147
N 0.4846539080 -0.3141232338 0.6993101101
C 1.8209951052 -0.2529647266 0.1800434811
C 2.9176098395 -0.1599679312 1.0335290895
C 4.1966672402 -0.0837763561 0.4936713731
C 4.3838490544 -0.0906066869 -0.8854729451
C 3.2822737784 -0.1797643857 -1.7316453875
C 2.0007998505 -0.2662010521 -1.2018347181
C 0.1764780794 -1.2339639355 1.7023168030
O 0.9850694284 -2.0310000672 2.1317101091
C -1.2629568739 -1.1925348698 2.1779763792
C -2.1542527681 -1.7815151037 1.0997028197
O -2.7265502830 -2.8481853491 1.2218642423
H -2.8582921659 -1.0891852672 -2.0622815363
H -4.1809780794 -1.3590004315 -0.8856782075
H -2.9897054849 -2.6334877737 -1.1707988804
H 0.9935532390 2.2237377250 0.3628791360
H -2.8163977621 3.3425092347 -1.2676194592
H -3.6065353034 1.0253022444 -0.9697353720
H 2.7695580850 -0.1583030548 2.1061576696
H 5.0514433121 -0.0144385743 1.1583839150
H 5.3846224458 -0.0278955872 -1.2994423597
H 3.4193497474 -0.1903644107 -2.8078945287
H 1.1359376878 -0.3404354905 -1.8533313686
H -1.5689810930 -0.1656957077 2.4086737096
H -1.3432636716 -1.8231975107 3.0605120108
