27
CONF2
C -2.7594362842 -0.9297798547 -0.1339849077
C -1.7603163554 -0.2603851527 0.8165576839
N -1.1132233095 0.7087393019 -0.0714826446
C -1.2067495528 0.2635427490 -1.3659628633
N -0.4669079124 0.8501148427 -2.2915359274
N -0.6718359909 0.4708517587 -3.6089890828
O -1.6246095716 -0.2614553461 -3.9360653711
O 0.1326137821 0.9247571783 -4.4040625873
N -2.0705569341 -0.7806612286 -1.4160033569
C 0.0220630403 1.5042407672 0.3971225311
C 1.2103228808 0.6578475357 0.7859915724
C 2.1110369934 0.2004518967 -0.1777476306
N 3.1570135993 -0.5842849909 0.1063099999
C 3.3323076197 -0.9330535435 1.3628562253
C 2.5149212973 -0.5395964092 2.4202222892
C 1.4355004347 0.2729719908 2.1085112291
Cl 4.7113477606 -1.9681545059 1.7166585600
H -3.7218627001 -0.3989122559 -0.1373000756
H -2.9301738223 -1.9813916907 0.1081845222
H -2.2441337709 0.2423292682 1.6591312973
H -1.0288985518 -0.9870209631 1.2029992219
H -2.4755231685 -1.0000944964 -2.3158738314
H 0.2858643936 2.1957346063 -0.4061285254
H -0.3186802108 2.0912355810 1.2576565097
H 1.9836359880 0.4802051671 -1.2218064559
H 2.7241106500 -0.8541183720 3.4351780317
H 0.7721696056 0.6158864621 2.8989399943
