28
CONF8
O -1.7505836511 1.3373239600 1.7137040365
C -2.7014954830 1.1242722601 0.6657740484
C -2.1244920472 0.1822070784 -0.3601569305
O -0.9896153099 0.8040241252 -1.0215061796
C -0.0316852616 -0.1769714979 -1.3646402082
C -0.6148753738 -1.5314436781 -0.9649066254
C -1.5811449168 -1.1578503912 0.1525466963
O -2.5870667309 -2.1529019296 0.2952411000
N 1.2473586054 0.1213643977 -0.6419717718
C 1.2782014613 0.8624221221 0.5053550249
C 2.4272644536 1.1180030247 1.1764283202
C 3.6788440312 0.6068848755 0.6894572886
O 4.7871648060 0.7715052551 1.2017411113
N 3.5553965646 -0.1451850901 -0.4880179190
C 2.3996240080 -0.4385469922 -1.1805389337
O 2.3868248637 -1.1373559431 -2.1884105753
H -2.1116591103 2.0038488530 2.3101775658
H -3.6249136972 0.6676993681 1.0542428228
H -2.9680808064 2.0714275577 0.1769367970
H -2.9049008555 -0.0252935812 -1.1081864570
H 0.2087725190 -0.1100687642 -2.4281568643
H 0.1518891615 -2.2494813829 -0.6700299681
H -1.1857671075 -1.9405866109 -1.8056546370
H -1.0451664022 -1.0096908470 1.0992307241
H -3.0401799244 -2.0037493726 1.1346320856
H 0.3162690733 1.2390455820 0.8383898231
H 2.4193337461 1.7121784405 2.0800709710
H 4.4046839715 -0.5430802053 -0.8717513301
