35
CONF188
C -4.1190859523 -1.5006620084 2.0825111757
C -2.6196285926 -1.4420106012 1.9300730631
O -2.2526608210 -1.7809128818 0.5354267544
P -1.7409707343 -0.6781690230 -0.4796959632
S -1.2819433245 -1.3898698851 -2.2210495028
O -2.8415267559 0.4645885491 -0.3601815484
C -2.7397656383 1.6982892859 -1.1583662899
C -3.9323161377 2.5515484314 -0.8090985506
O -0.4882291645 0.0995684894 0.2786599607
C 0.7640973521 -0.4210144899 0.2578248433
N 1.0743485900 -1.6245863059 0.7930542827
C 2.3842315380 -1.6641966169 0.5827888201
N 2.8277318561 -0.5516450562 -0.0315553540
N 1.7656711689 0.2720943251 -0.2547777607
C 4.1860213007 -0.1687953534 -0.4617650374
C 4.6313747607 1.0843628547 0.2836254223
C 4.2200317202 -0.0041468635 -1.9770566707
Cl 3.3975624046 -2.9686253346 1.0402973793
H -4.6061748307 -0.7432012995 1.4631604441
H -4.3746771861 -1.3108160766 3.1299113973
H -4.4986305232 -2.4885657272 1.8081224843
H -2.1139905170 -2.1966077389 2.5362624734
H -2.2175398918 -0.4564988506 2.1809027358
H -1.7961739280 2.1918958239 -0.9056855853
H -2.7329713992 1.4151856683 -2.2154414803
H -3.9303005705 2.8082821505 0.2536147465
H -4.8644820962 2.0346023782 -1.0521911450
H -3.8867668594 3.4774002424 -1.3901788295
H 4.8199542824 -1.0114086570 -0.1713594068
H 5.6656729334 1.3093176116 0.0105789831
H 4.0063968600 1.9387046202 0.0092628664
H 4.5792479693 0.9358890383 1.3656528033
H 3.5957163142 0.8382288632 -2.2875511133
H 3.8706545899 -0.9114698316 -2.4773244870
H 5.2491204837 0.1932439567 -2.2884519158
