53
CONF79
C -2.9203342691 2.2844169662 -0.4563103125
O -2.4876129289 0.9294379561 -0.1445494414
C -2.7597479091 0.0053845742 -1.0663805638
O -3.2966834463 0.2072590241 -2.1312512848
C -2.3521591102 -1.3917746971 -0.5629545299
C -3.4281957760 -1.8997465344 0.4288220962
C -2.7813629473 -1.7049722129 1.7777349137
C -3.3737729237 -1.7973315768 3.0270996745
C -2.5511950030 -1.6279669369 4.1386075992
C -1.1807706498 -1.3785878424 4.0380830891
C -0.5982150654 -1.2895346429 2.7805318142
C -1.4075096737 -1.4459734016 1.6565701359
C -1.0794366198 -1.3909632802 0.2488796664
N 0.0917514074 -1.4958098872 -0.2711596947
N 0.1113244283 -1.5481778710 -1.6408154208
C -1.0834899766 -1.9017270323 -2.4693162520
O -2.1681826824 -2.2883412579 -1.6546867778
C 1.2630696191 -1.2721467827 -2.3218649616
O 1.3741161979 -1.4940346866 -3.5184438901
N 2.2709629787 -0.6240614753 -1.5379090563
C 1.9155073136 0.5672044061 -0.8314670387
C 1.1137393514 1.5123683864 -1.4680783770
C 0.7001217099 2.6471980516 -0.7783472795
C 1.1182114348 2.8161521937 0.5305278791
C 1.9235073056 1.8896180353 1.1785000587
C 2.3202658087 0.7517600776 0.4900406323
O 0.6434666176 3.9335401945 1.2565950685
C 1.4187506239 5.0395406054 1.2197334038
F 0.8113738049 5.9891974346 1.9407853268
F 1.6022302984 5.5127152353 -0.0345907593
F 2.6516194557 4.8367448817 1.7393454190
C 3.6080990690 -1.0054223759 -1.6203196543
O 4.5324150917 -0.3109721959 -1.2464645231
O 3.7217659593 -2.2418789155 -2.1229362057
C 5.0838645161 -2.7094243056 -2.2969555679
Cl -3.2687628883 -1.7329259396 5.7384171513
H -4.0093662826 2.3129846866 -0.5326079284
H -2.4657838248 2.6100237442 -1.3936263409
H -2.5715822698 2.8927083458 0.3764220856
H -3.5976630731 -2.9643534485 0.2298828724
H -4.3847661061 -1.3805743242 0.3290088844
H -4.4332439683 -1.9975124262 3.1418005671
H -0.5849518388 -1.2498419840 4.9341797590
H 0.4633555090 -1.0884003945 2.6802960979
H -0.8362413636 -2.7635900171 -3.0921328992
H -1.3314513347 -1.0360312811 -3.0987103715
H 0.8066636728 1.3645237211 -2.4989543151
H 0.0691513976 3.3904246058 -1.2519827804
H 2.2133422395 2.0467355923 2.2114050921
H 2.9216657812 -0.0023891837 0.9840467474
H 4.9873296170 -3.6997120619 -2.7392766627
H 5.6281230552 -2.0394413777 -2.9659884447
H 5.5866867834 -2.7663187553 -1.3292356106
