26
CONF5
C 0.6499482153 2.6599129704 -0.2218245001
C 1.2842874537 1.4054526176 -0.8130208599
N 1.1073492919 0.2296072408 0.0628201438
C 2.1769997304 0.0413675674 1.0612138136
C 3.2995561983 -0.8408052354 0.5278950674
C 0.0688429822 -0.6105253881 -0.0135679272
S -0.1407200210 -1.9553035772 0.9821702744
S -1.0938816062 -0.1830422472 -1.3310996322
C -2.4968685093 -1.3376677743 -1.0600620758
C -3.5080595355 -0.8217517583 -0.0953818730
C -3.8403937553 -1.3796317219 1.0618973464
Cl -4.3275353496 0.6617857399 -0.6261131207
H 0.8333816421 3.5082153106 -0.8876002968
H 1.0832649824 2.8906741383 0.7556245610
H -0.4301444809 2.5354650585 -0.1068143264
H 2.3627206700 1.5436739038 -0.9358107620
H 0.8861171098 1.1897130349 -1.8081977467
H 2.5547077296 1.0388118252 1.3068089045
H 1.7365035541 -0.3905303488 1.9617840265
H 4.0819515233 -0.9328414527 1.2870000877
H 2.9243993219 -1.8401947430 0.2920613428
H 3.7459162021 -0.4092141259 -0.3731911335
H -2.9334830327 -1.4639237774 -2.0562292570
H -2.0954637217 -2.2917466247 -0.7068392880
H -3.3231589035 -2.2812883845 1.3716763143
H -4.6062376069 -0.9662120421 1.7070872169
