47
CONF88
C 4.8575607336 -1.8786292916 -2.1877401033
C 3.7123011997 -1.3754274300 -1.3617837013
C 2.7190205436 -2.2764649843 -0.8746557957
C 2.8175348320 -3.7354875553 -1.1937974670
C 1.6542234410 -1.8141927892 -0.1164199084
C 1.5272187206 -0.4568682438 0.2014025362
N 0.4949670999 0.0520119450 0.9739657649
C -0.5313594665 -0.8475436578 1.5500482206
C -1.7597799932 -1.0689517812 0.6590098654
O -1.3062493715 -1.5722788791 -0.5931172056
C -2.6538498088 0.1776607588 0.4936999643
O -3.0467496266 0.6611181823 1.7730240769
C -3.9539438507 -0.1546315035 -0.2599127504
O -3.6669446135 -0.6808958442 -1.5720809306
C -4.8796184175 1.0409409154 -0.3873810104
O -4.1907653026 2.0252847022 -1.1762897533
C 0.4466509220 1.3902153435 1.2744309810
N -0.5341369113 1.8448799852 2.0384055421
C -0.5987881581 3.1760050246 2.3391610848
O -1.4991993726 3.6525055803 3.0279560722
N 0.3976338765 4.0291147585 1.8384710771
C 1.4591689493 3.6688815835 1.0449146399
O 2.2858159386 4.4772660124 0.6440053299
C 1.4944118216 2.2172825632 0.7349799281
N 2.4762665833 1.7714048899 -0.0021881086
C 2.5201949054 0.4476585391 -0.2770274852
C 3.5903938539 -0.0404992258 -1.0561131535
H 5.5153989123 -1.0579844911 -2.4796909291
H 4.4980041211 -2.3765546950 -3.0950508524
H 5.4475535981 -2.6169917687 -1.6333157034
H 1.9919805647 -4.2953804804 -0.7515571704
H 3.7622609114 -4.1498718228 -0.8236376653
H 2.8099382429 -3.8953617577 -2.2781367139
H 0.9077490564 -2.5276934209 0.1992494321
H -0.0543922584 -1.8075561483 1.7459194412
H -0.8373928544 -0.4332693101 2.5104992411
H -2.3599453458 -1.8264102372 1.1948474744
H -2.0560116145 -1.4685796874 -1.2100519740
H -2.1038208457 0.9457993215 -0.0739948170
H -2.2634625194 1.1450284233 2.1143216778
H -4.4803626968 -0.9486209522 0.2844238896
H -3.4749146568 0.0871061249 -2.1333294294
H -5.1286423568 1.4304454012 0.6063822683
H -5.8003283213 0.7173693511 -0.8902620485
H -4.8421302279 2.6563765079 -1.5034702183
H 0.3148304841 5.0090633138 2.0849267529
H 4.3217099085 0.6827271321 -1.4030396566
