48
CONF5
C 2.9397923898 -1.0715153616 -1.1896236053
C 1.6462066494 -0.8895267879 -0.7895651571
C 1.1021725674 0.2995615477 -0.1981429927
C 2.0171590510 1.4720822694 0.0201252036
C -0.2353858153 0.3007286634 0.1260990012
C -0.9474853866 1.3523572613 0.7739133219
C -2.2880632025 1.4564709607 1.0563534687
C -2.7102676104 2.5291233885 1.9638649027
C -1.7024203960 3.5470407489 2.4442848297
C -3.9695605676 2.5909511498 2.4569060996
C -5.0659429495 1.6744094047 2.0408775928
C -4.7569108919 1.0897492158 0.6732626031
C -3.3516662308 0.4609407775 0.5654133389
C -3.1919638835 0.0937118569 -0.9245811770
C -3.2941760821 -0.8118989558 1.4333626187
C 3.3944512175 -2.2912269376 -1.7743886246
C 4.6545067702 -2.5883145845 -2.2185561472
C 5.8089903191 -1.6319298002 -2.1547765820
C 4.8873211871 -3.9025839505 -2.7857899699
C 6.0558977986 -4.3599960144 -3.2720947214
H 3.6493993158 -0.2593059195 -1.0608647668
H 0.9502792795 -1.7176208530 -0.9305513230
H 2.4659264223 1.7883290833 -0.9285181272
H 2.8436639916 1.1991128731 0.6864699381
H 1.5052567776 2.3333727416 0.4481590024
H -0.7649382997 -0.6177241920 -0.0981329273
H -0.3246243080 2.1569434005 1.1465854667
H -1.2413526576 4.0843716818 1.6076850264
H -0.8913244165 3.0833621341 3.0173631252
H -2.1926211245 4.2816984719 3.0868799764
H -4.1994539783 3.3523534552 3.1997979079
H -5.2048704664 0.8789471737 2.7897143476
H -6.0173840831 2.2199014358 2.0161757945
H -4.8290655577 1.8951417654 -0.0700798388
H -5.4960118877 0.3280255317 0.3995107171
H -2.3589790159 -0.5787703586 -1.1262017352
H -3.0579946602 0.9954915765 -1.5310966865
H -4.1036952254 -0.4108340782 -1.2632896848
H -2.3285299680 -1.3158019575 1.3346912330
H -3.4400019623 -0.5760817764 2.4921989744
H -4.0805089465 -1.5107084389 1.1243650241
H 2.6410230314 -3.0735202273 -1.8777659234
H 6.6309393455 -2.0597477595 -1.5686749823
H 5.5380816397 -0.6748790310 -1.7097660425
H 6.2053609665 -1.4403714462 -3.1590745445
H 4.0208325156 -4.5635922114 -2.8107751877
H 6.9573409323 -3.7548898005 -3.2789592197
H 6.1305979142 -5.3633379151 -3.6783502438
