39
CONF233
C 4.7721605685 1.1904784787 -2.1602498265
C 3.4596296372 1.1486436757 -1.3806508707
C 3.0953754440 -0.2703800530 -0.9454653728
C 1.8156333066 -0.3391801524 -0.1438182689
C 1.4010268233 -1.7496490517 0.3104925542
O -0.0097986607 -1.8340163066 0.0045743685
C -0.4293643835 -0.5344136830 -0.3854447240
C -1.5038883576 -0.6663112441 -1.4786768236
N -2.7926007351 -1.0522190099 -0.9381444978
C -3.8295066086 -0.2523813775 -0.6148233970
N -4.7927661041 -0.9597300167 -0.0379492095
C -4.2714745291 -2.2194148112 -0.0266795901
N -3.0593219092 -2.3258939298 -0.5560995783
O 0.7002501605 0.0623257148 -0.9774879345
C -0.9331073346 0.2492398221 0.8362894929
C -1.1771717794 1.6268416080 0.8352344900
Cl -0.9055430548 2.6224590824 -0.5903071923
C -1.6647765749 2.2936398459 1.9547232959
C -1.9241238404 1.5564522671 3.1015169948
Cl -2.5424875598 2.3883075163 4.5173875623
C -1.7094986949 0.1866961080 3.1504985322
C -1.2188634042 -0.4445857068 2.0148681308
H 4.7085097721 0.5749771751 -3.0643587434
H 5.0209817206 2.2115646227 -2.4650012359
H 5.5996497008 0.8076269886 -1.5527453035
H 2.6498401823 1.5583779596 -1.9957642509
H 3.5334460373 1.7882035467 -0.4914205543
H 3.8998661104 -0.6836262790 -0.3223871665
H 2.9974806174 -0.9267397191 -1.8203732666
H 1.8662755571 0.3413858526 0.7193732085
H 1.5663010393 -1.8995446698 1.3829523581
H 1.9131472704 -2.5320823358 -0.2587724682
H -1.6253482349 0.2967850725 -1.9781531194
H -1.1703976240 -1.4137602875 -2.2021009327
H -3.8356880318 0.8099099555 -0.8246959274
H -4.7947285404 -3.0790587509 0.3730254170
H -1.8410246034 3.3618747371 1.9257888931
H -1.9199416830 -0.3782741920 4.0507675969
H -1.0481515090 -1.5145276640 2.0340772538
