40
CONF9
C 4.3278331143 -0.9459112448 1.3465181945
C 4.2483961531 0.5535773349 1.1645645091
O 2.9027557898 1.0685004211 1.4112766515
P 1.7139738322 0.8679358964 0.3628797564
S 2.1768427340 0.8691715387 -1.5166744978
O 0.6693906608 1.9310604376 0.9235268367
C 0.0388782210 2.9401063063 0.0756748495
C 0.8910166695 4.1862081312 0.0071279070
O 1.1238011755 -0.5609684370 0.9562826433
C -0.0158350317 -1.1457188441 0.4827255407
C -0.2582841413 -2.4617259831 0.8667944451
C -1.4282470264 -3.0301336064 0.3850595996
N -2.2673677604 -2.3415161371 -0.4169893523
C -1.9305972372 -1.0882308520 -0.7211999129
N -0.8265768526 -0.4495553494 -0.2905488687
C -2.8592223327 -0.2990343033 -1.6111654751
C -3.5003233151 0.8479705555 -0.8180509666
C -2.1165840097 0.2296956367 -2.8432776018
C -1.8219225760 -4.4340865046 0.7196536372
H 3.9558009048 -1.2390255818 2.3320778771
H 5.3736497875 -1.2580664104 1.2609332799
H 3.7513535694 -1.4702832458 0.5794108009
H 4.5542275309 0.8559929968 0.1575388629
H 4.8626846078 1.0798640072 1.8984619008
H -0.1388950144 2.5085261880 -0.9138721808
H -0.9224541800 3.1299121121 0.5589282469
H 1.0798439499 4.5834813749 1.0081842344
H 0.3678271285 4.9494300771 -0.5780847652
H 1.8471846176 3.9744937690 -0.4797027266
H 0.4343218764 -2.9985173495 1.5031535374
H -3.6444928280 -0.9915992474 -1.9304503815
H -4.0375527618 0.4728981703 0.0586046689
H -4.2089520342 1.3908387189 -1.4513186174
H -2.7319794076 1.5492459244 -0.4786967293
H -2.8114982815 0.7673477390 -3.4959453685
H -1.3175248798 0.9148588609 -2.5445501964
H -1.6670927588 -0.5870843714 -3.4164189303
H -2.7983911057 -4.4363049979 1.2143083518
H -1.9274598303 -5.0186464519 -0.1996698840
H -1.0885301590 -4.9147072740 1.3696351171
