59
CONF297
C 2.8152249589 2.6503496774 2.9550475816
C 4.1294059147 2.6013595172 3.7858940806
C 4.7808368276 1.2481836361 3.4451281086
C 4.2600481351 0.8999995549 2.0425351819
C 2.7845651793 1.3399227946 2.1410812471
C 4.4380015447 -0.5724591144 1.7016425803
C 4.0171690473 -0.9390537702 0.3023224971
O 3.6406061159 -2.0675985634 0.0181875404
N 4.0881197178 0.0589334075 -0.6767392735
C 4.5626024746 1.3527657701 -0.4362816724
O 4.6298243815 2.1621899150 -1.3513635312
C 5.0000998906 1.6925134751 0.9641260516
C 3.6345175771 -0.2528001320 -2.0488966029
C 2.2263289695 0.2739143397 -2.3226165943
C 1.1478515796 -0.3760830542 -1.4564651710
C -0.2171062976 0.2557953626 -1.7126579934
N -1.2534265526 -0.1869522278 -0.7699720865
C -1.6102408021 -1.5962715136 -0.9810434133
C -2.6862428978 -2.0336411547 0.0093589633
N -3.8680314778 -1.1797686167 -0.1157822073
C -3.5274537690 0.2297219016 0.0833336806
C -2.4513842811 0.6511513359 -0.9125641379
C -4.9484046656 -1.5562696756 -0.8644349647
N -5.0376402318 -2.8606303593 -1.2241788108
C -6.1292844650 -3.2161729723 -1.8988404077
C -7.1400087623 -2.3242079673 -2.2385812068
C -6.9450031916 -1.0095372117 -1.8311848823
N -5.8706701829 -0.6058846922 -1.1556396129
H 2.8160352089 3.5180288592 2.2883193600
H 1.9301083831 2.7396087489 3.5905450597
H 4.7907456429 3.4262973784 3.5031351719
H 3.9433304794 2.6958138732 4.8590568530
H 4.4329675048 0.4747692823 4.1414021603
H 5.8748858397 1.2692469158 3.4899503470
H 2.2291979363 0.5657898139 2.6840870842
H 2.3055848548 1.4621779178 1.1631784360
H 5.4993565688 -0.8478909083 1.7933827829
H 3.8765548549 -1.2183268994 2.3829507470
H 4.8800702845 2.7729334853 1.0779805449
H 6.0771917251 1.4779773777 1.0232482400
H 3.6694422250 -1.3376873677 -2.1582405774
H 4.3492503625 0.1980319023 -2.7403223165
H 2.2138615808 1.3608049601 -2.1786976032
H 2.0090301275 0.0923983773 -3.3828326285
H 1.3924515728 -0.2518989920 -0.3941678045
H 1.1289444227 -1.4528943238 -1.6580662657
H -0.5255168592 0.0674236538 -2.7611829169
H -0.1213651065 1.3438974814 -1.6011252601
H -1.9770919486 -1.7669407645 -2.0142268024
H -0.7253697670 -2.2228163959 -0.8316360503
H -2.3041936865 -1.9309839660 1.0330095993
H -2.9590403148 -3.0738582909 -0.1614396607
H -3.1456822858 0.3425292037 1.1060890037
H -2.8692681863 0.5911804152 -1.9384358853
H -2.1750863029 1.6953180997 -0.7242063854
H -6.1955376727 -4.2657691407 -2.1843775559
H -8.0187788396 -2.6321481498 -2.7909131982
H -7.6831996164 -0.2414841793 -2.0608484388
H -4.4169358634 0.8473177072 -0.0307624598
