24
CONF23
C -2.1553463046 -2.3309150288 1.0361754795
O -1.4256186977 -1.3603061559 0.2283659317
P -1.3467468777 0.1673272975 0.7076121653
S -0.8178834683 0.5020660301 2.5383126675
O -2.7248486931 0.8631472924 0.3225769082
C -3.2987249471 0.6934619280 -1.0134515004
O -0.3616688631 0.7474435099 -0.4605107165
C 1.0106373137 0.6597100024 -0.3511033518
C 1.6524348165 -0.5574656289 -0.5299317081
C 3.0386035480 -0.6241093500 -0.4629515176
C 3.7832996244 0.5331319906 -0.2213940609
C 3.1402547362 1.7540879655 -0.0509108351
C 1.7552564139 1.8161308866 -0.1134211769
Cl 0.9491928152 3.3433555494 0.1001524087
Cl 5.5208643174 0.4840060948 -0.1314278185
Cl 3.8153492855 -2.1646992921 -0.6887666046
H -3.2051755741 -2.0370774386 1.1195149298
H -1.6985724873 -2.4073833221 2.0258091075
H -2.0693185512 -3.2764646421 0.5022350798
H -2.6756435637 1.2062938708 -1.7492355196
H -3.3864025399 -0.3685511786 -1.2534241000
H -4.2847098623 1.1533376637 -0.9639080207
H 1.0662965116 -1.4477820603 -0.7245436286
H 3.7184713495 2.6512541056 0.1342257809
