53
CONF153
C 1.7452584936 1.4614249498 -0.9379452159
C 0.2425731655 1.6013069641 -1.1112331861
N -0.4422627517 0.4281908016 -0.5543167080
C -0.1078737002 0.3416712868 0.8728745409
C 1.3939544795 0.2005651360 1.0590610123
N 2.0968442760 1.3470016579 0.4776384861
C 3.5489215291 1.2626347617 0.6309449421
C 4.0166052645 1.2816564994 2.0764002470
O 4.0201890437 -0.0460138293 2.5975023501
C 4.2936350685 -0.0910117725 3.9931515724
C 4.1703214267 -1.5388562759 4.4187768802
O 2.8587915292 -2.0451203480 4.1928298094
C -1.8931054399 0.5132841664 -0.7640417971
C -2.6204937799 -0.6689013643 -0.1414062341
C -3.7820508213 -0.4623622269 0.5998495855
C -4.4858094114 -1.5393926133 1.1327658572
C -4.0277717342 -2.8369625100 0.9338556251
C -2.8628371085 -3.0505011434 0.1995764523
C -2.1664659109 -1.9749846473 -0.3376124363
C -2.2389856008 0.5710911106 -2.2436639982
C -1.5607575198 -0.2133169288 -3.1786933776
C -1.9223193353 -0.2003958170 -4.5197277121
C -2.9805150992 0.6048289885 -4.9265132724
C -3.6719578538 1.3964180728 -4.0196646282
C -3.2900711049 1.3736104453 -2.6819852461
Cl -3.4439386600 0.6266319654 -6.6195484146
H 2.2379171527 2.3493294463 -1.3536093070
H 2.0919558498 0.5810509211 -1.5177620585
H -0.0964592146 2.5319155713 -0.6134914946
H 0.0103289378 1.6870198349 -2.1770333835
H -0.6030656135 -0.5304557182 1.3095029736
H -0.4607667258 1.2400420623 1.4180571739
H 1.7282841195 -0.7533216947 0.6008242802
H 1.6133492941 0.1498299078 2.1299301267
H 3.9725801538 0.3610977587 0.1429875044
H 3.9793484651 2.1348601235 0.1229448523
H 3.3532510205 1.9289977732 2.6732302217
H 5.0368609168 1.6954780058 2.1320537783
H 3.5665462838 0.5288556654 4.5436937859
H 5.3090140816 0.2871576674 4.2052543829
H 4.3610665654 -1.6223813452 5.4936760431
H 4.9239441485 -2.1408997433 3.8870661430
H 2.6682628584 -1.8967546017 3.2581630402
H -2.2997584416 1.4328094375 -0.2943385153
H -4.1380414124 0.5512988185 0.7640252650
H -5.3886330784 -1.3624928453 1.7087117695
H -4.5714525805 -3.6781728845 1.3513918217
H -2.4961874794 -4.0606244438 0.0457418462
H -1.2534877104 -2.1392906202 -0.9004830779
H -0.7278147923 -0.8274340104 -2.8524321728
H -1.3903758030 -0.8061709654 -5.2442936538
H -4.4903823903 2.0229411631 -4.3545008743
H -3.8261624837 1.9928173072 -1.9679130031
