38
CONF27
O -2.4842919618 -1.0652373452 0.5764051528
P -1.2681455827 -0.5144350187 -0.0525645173
O -0.4836459840 -1.3971642514 -1.1403045774
C 0.3617522845 -2.4554773766 -0.7673327375
C -0.0010566272 -3.3663383698 0.2154447462
C 0.8940653514 -4.3852846425 0.5369959645
C 2.1142471537 -4.4908861949 -0.1249486062
C 2.4439058459 -3.5747640761 -1.1228250404
C 1.5669907186 -2.5459222038 -1.4499543338
O -0.1900400954 -0.1361251872 1.0821146126
C 1.1809582483 0.0582434684 0.8441768237
C 1.6427094799 0.8913485640 -0.1660822448
C 3.0194245777 1.0324919573 -0.3321768809
C 3.9075566597 0.3608590555 0.5033987310
C 3.4179176841 -0.4553825184 1.5218739932
C 2.0472600168 -0.6122681301 1.6977891603
O -1.4895272641 0.7733522095 -0.9875434583
C -2.3909857521 1.7722328507 -0.5660151901
C -1.9278530098 2.7959668953 0.2476606639
C -2.8147203140 3.8065020742 0.6130684414
C -4.1337620996 3.7803508652 0.1659792437
C -4.5724828149 2.7403704790 -0.6514414349
C -3.6987416688 1.7222611020 -1.0245110149
H -0.9564862627 -3.2823250234 0.7225240122
H 0.6270729424 -5.1003981823 1.3083340550
H 2.8048427818 -5.2871745388 0.1318789946
H 3.3917095951 -3.6531322377 -1.6455801798
H 1.8103383153 -1.8100504256 -2.2085410768
H 0.9497711746 1.4151086344 -0.8142358532
H 3.3934956860 1.6757793118 -1.1221576567
H 4.9774147551 0.4759543463 0.3648785541
H 4.1033305199 -0.9799005745 2.1798071252
H 1.6440157068 -1.2546277190 2.4731662149
H -0.8958659268 2.8009802351 0.5825592548
H -2.4688228393 4.6155055684 1.2482251473
H -4.8194832833 4.5706251760 0.4530519030
H -5.5992260197 2.7173025937 -1.0019609217
H -4.0182545431 0.9016111298 -1.6575403200
