41
CONF134
C 4.4618167576 -1.8206309026 2.3167981040
C 3.1445945835 -1.5254615851 1.6309523095
O 2.4410500453 -0.4372256772 2.2926495694
C 2.8003964937 0.8182749942 1.9223610077
O 3.6332414110 1.0804454118 1.0639028079
N 2.1134799507 1.7421574469 2.6395093423
C 2.1649486124 3.1540132922 2.2899595448
C 1.4003408393 3.5099001384 1.0204024304
O 0.0000389798 3.2112935669 1.1602746604
C -0.4928812827 1.9971537125 0.7659955163
C -1.8154030432 1.7462051896 1.1502887679
C -2.4407074814 0.5611923260 0.7870734577
C -1.7405298171 -0.3817904175 0.0444809413
C -0.4292401085 -0.1462190903 -0.3416699718
C 0.2004633223 1.0445641347 0.0124899311
O -2.3483526846 -1.6001828513 -0.2542746426
C -2.8547320356 -1.7785312663 -1.5241161313
C -3.3155870141 -3.0628689918 -1.8191550883
C -3.8577388440 -3.3235568777 -3.0715276936
C -3.9426701419 -2.3153588453 -4.0324495442
C -3.4800415554 -1.0395897040 -3.7235228830
C -2.9340943779 -0.7586811067 -2.4716596897
H 4.3030291300 -2.0622258547 3.3717267505
H 5.1400052107 -0.9662614581 2.2449333763
H 4.9376361563 -2.6802924128 1.8342045844
H 2.4561873764 -2.3701847225 1.7075527657
H 3.2842121951 -1.2689555275 0.5774164530
H 1.3485213350 1.4157760600 3.2103346306
H 3.2091167585 3.4600194048 2.1603910555
H 1.7508090954 3.7154868000 3.1324037265
H 1.4532942338 4.5921172721 0.8683220551
H 1.8291308351 3.0227844113 0.1413377940
H -2.3422794374 2.4925917561 1.7356754116
H -3.4661428417 0.3626774928 1.0816585816
H 0.1049391095 -0.8935457690 -0.9202614252
H 1.2266544141 1.1968709421 -0.2971022575
H -3.2430865688 -3.8383205841 -1.0635314498
H -4.2145712775 -4.3236540358 -3.2980025274
H -4.3653058924 -2.5236335766 -5.0096255653
H -3.5424631286 -0.2446885561 -4.4605171191
H -2.5780782965 0.2383355666 -2.2385210827
