28
CONF52
O -3.7581357058 0.9078583475 1.4275910963
C -2.3905526076 1.1076933790 1.0596483321
C -2.1633797688 0.3376814828 -0.2315246528
O -0.8826988266 0.7320489619 -0.7848459507
C -0.0247021984 -0.4078826705 -0.8662624603
C -0.6018400437 -1.4276442013 0.1090458832
C -2.1006792397 -1.1788362234 -0.0410828835
O -2.6238564392 -1.7815946479 -1.2312441077
N 1.3447346849 0.0267471295 -0.5563735663
C 1.5876178928 0.7679071548 0.5708036228
C 2.8193533344 1.2021944452 0.9153881340
C 3.9504034893 0.8866060002 0.0824302495
O 5.1179227120 1.2181492188 0.2830888871
N 3.6189463579 0.1278246009 -1.0476842459
C 2.3750191694 -0.3345645124 -1.4257221980
O 2.2040924855 -1.0079725163 -2.4332218751
H -3.9027778443 1.3415814941 2.2769316428
H -2.1744664396 2.1697923178 0.8782522432
H -1.7108128407 0.7423175067 1.8441991497
H -2.9482295890 0.5951756950 -0.9531200288
H 0.0041723493 -0.7926277658 -1.8888018005
H -0.2794506387 -1.2043621929 1.1321046998
H -0.3132995423 -2.4526879835 -0.1348358505
H -2.6718133979 -1.4942666760 0.8403954970
H -2.5401909593 -2.7393026001 -1.1367731471
H 0.7118910803 0.9989927178 1.1669441508
H 2.9730742332 1.7896581966 1.8100584092
H 4.3796588959 -0.1304860343 -1.6653892304
