45
CONF5
C 5.3851095124 2.9405806643 -0.6910758523
C 4.2368409407 2.0812982027 -0.1637181024
C 2.9109512128 2.8440320331 -0.1284572478
C 1.7524622200 2.0726345952 0.5099682815
C 1.3561408624 0.8070642299 -0.2498206016
C 0.1447852739 0.0773661068 0.3579583015
C -0.1082541424 -1.2536468597 -0.3714347611
C -1.2398144656 -2.0849055743 0.2295553292
C -1.4171120076 -3.4350195138 -0.4635906248
C -2.5627314334 -4.2633395605 0.1173950479
C -2.7242213312 -5.6149289456 -0.5761154496
C -1.0910215852 0.9520153561 0.3685762979
C -1.6486852285 1.4215805831 -0.8266396162
C -2.7841764117 2.2264380220 -0.8188758618
C -3.3878704955 2.5786488073 0.3881246652
C -2.8441352256 2.1175598082 1.5840975290
C -1.7062986835 1.3119860188 1.5700418823
H 6.3266719056 2.3827178610 -0.7162444575
H 5.5328520569 3.8239053163 -0.0596976581
H 5.1741757038 3.2902811247 -1.7080617961
H 4.1368188112 1.1866592379 -0.7898565463
H 4.4734806022 1.7270088129 0.8490014257
H 3.0614784776 3.7802503969 0.4260717498
H 2.6336497112 3.1327563662 -1.1525262172
H 2.0176521163 1.8047459800 1.5429157743
H 0.8797763887 2.7350427750 0.5769457953
H 2.1970048051 0.1030623299 -0.2698445470
H 1.1371830768 1.0613317858 -1.2966410999
H 0.3873406656 -0.1573804617 1.4043730656
H -0.3231134741 -1.0503360139 -1.4298533346
H 0.8217697629 -1.8376222743 -0.3491517852
H -1.0423185487 -2.2467629679 1.2990657231
H -2.1808610932 -1.5216072336 0.1708207418
H -0.4821005822 -4.0084479371 -0.3903119070
H -1.5962755586 -3.2720417797 -1.5360189714
H -3.4968667106 -3.6918118918 0.0356881938
H -2.3873703217 -4.4173529225 1.1905072485
H -2.9248477534 -5.4831688166 -1.6453240033
H -3.5507243023 -6.1906580620 -0.1473987451
H -1.8115813089 -6.2137124577 -0.4800425678
H -1.1907393071 1.1557437627 -1.7755569815
H -3.2006984183 2.5803555471 -1.7575661756
H -4.2735714037 3.2065516977 0.3944295256
H -3.3049454522 2.3848780848 2.5306416871
H -1.2858078499 0.9562488723 2.5075214495
