29
CONF207
C -2.6632738851 0.3815388064 -1.3957890199
N -2.8445622888 -0.3450864418 -0.1263371715
C -3.1591369374 -1.7884002439 -0.2410617571
C -4.6459045434 -1.9916253798 -0.5043020617
O -5.4535061656 -1.5725256073 0.5951806285
S -2.1073874162 0.2145009770 1.2358377523
O -2.1056765064 1.6799553105 1.2186465295
O -2.6190567067 -0.5384581107 2.3849659354
C -0.2399036003 -0.3369650592 1.1803485368
C 0.7167617343 0.7232398671 0.5666043342
C 2.1445003614 0.1704269276 0.2298965867
C 3.2203691693 1.2810360707 -0.0056486159
F 3.5382091636 1.8919130941 1.1404542527
F 4.3252717545 0.7141728456 -0.5085480437
F 2.7652214388 2.1916507791 -0.8779221689
F 2.0689998109 -0.5725691560 -0.8956933222
F 2.5774944156 -0.6117507002 1.2454197180
F 0.8417873740 1.7452283543 1.4429479933
F 0.1709421423 1.1847748629 -0.5836367180
F -0.1821603240 -1.4748123836 0.4514007096
F 0.1325198661 -0.6041300100 2.4432651373
H -1.8160943621 -0.0213577563 -1.9624301889
H -3.5779786511 0.2598029327 -1.9809416854
H -2.5179150872 1.4441833009 -1.2039113689
H -2.8887176803 -2.2954733407 0.6875963663
H -2.5665717118 -2.2165446222 -1.0598912320
H -4.9509643793 -1.4866451449 -1.4311477641
H -4.8196290763 -3.0645036300 -0.6329311541
H -5.3461974885 -0.6167253323 0.6894424931
