34
CONF129
C -3.8187460288 -1.5502376205 1.4959104504
C -2.4505508360 -1.7983262502 0.9121319188
O -2.5180778211 -1.6707849794 -0.5628322294
P -1.8605346317 -0.4447633941 -1.3221681929
S -2.0935283771 -0.5063957793 -3.2395602266
O -2.3450111710 0.8355716535 -0.5148921557
C -2.3921386341 2.1880705264 -1.0954569469
C -1.0146835953 2.7955007445 -1.2033822630
O -0.2671926750 -0.4292892686 -0.7942699820
N 0.4022296203 -1.6012164357 -1.1430466657
C 1.6194432736 -1.6130411355 -0.7015351817
C 2.2829445630 -2.8478091173 -1.0145295162
N 2.8546388275 -3.8252052418 -1.2507686523
C 2.3800066768 -0.6065855080 0.0587124059
C 2.2493631648 0.7653065313 -0.1989021569
C 2.9998472107 1.6768215767 0.5319348401
C 3.8727535746 1.2367827571 1.5256859913
C 4.0116407817 -0.1263795254 1.7774422303
C 3.2803673681 -1.0477424017 1.0392020773
H -3.7729901839 -1.7027310387 2.5789750502
H -4.1473976896 -0.5257167730 1.3029895970
H -4.5508320568 -2.2472519822 1.0795117303
H -1.7038043335 -1.1020973560 1.3039881265
H -2.1073840752 -2.8208601518 1.0838719968
H -3.0271699232 2.7388867503 -0.3996383196
H -2.8914441750 2.1219617269 -2.0665885988
H -1.1149889695 3.8349753028 -1.5315384170
H -0.4017381110 2.2653275241 -1.9384873662
H -0.5055236037 2.7841423142 -0.2354727237
H 1.5863256802 1.1141129452 -0.9791210597
H 2.9039167600 2.7370432109 0.3214961389
H 4.4504863942 1.9558720936 2.0974720327
H 4.6947077668 -0.4741341233 2.5451758294
H 3.3950650227 -2.1098068815 1.2336018239
