47
CONF143
C -3.0076226096 0.6818168080 4.3375703495
C -3.4412860578 1.1570292353 2.9671223441
C -4.1050962350 0.1554732734 2.0810458657
C -2.6380879229 0.5565192696 1.8065374585
C -2.3248957186 1.3019843021 0.5855625877
O -3.0039379959 2.1302146445 0.0144613499
O -1.0983925119 0.9094377671 0.1040184122
C -0.6779973696 1.5655215156 -1.1179706654
C -1.5390613488 1.1382402349 -2.2289174443
N -2.1856452678 0.7887883177 -3.1200529121
C 0.7630515614 1.1926988260 -1.3658372487
C 1.7492545188 2.1737568446 -1.2945872831
C 3.0804812020 1.8170308257 -1.4994795054
C 3.4310806228 0.4994382228 -1.7686649537
C 2.4301543857 -0.4720322743 -1.8267672353
C 1.0960745688 -0.1342423859 -1.6321469277
O 2.6887102090 -1.7859389639 -2.1509659104
C 3.8982645319 -2.3502074512 -1.7656324110
C 4.3664924227 -2.2346877062 -0.4592001133
C 5.5460638236 -2.8844172165 -0.1079917995
C 6.2415883160 -3.6465635751 -1.0461191477
C 5.7513807914 -3.7583680392 -2.3453282919
C 4.5767107423 -3.1065571719 -2.7140154702
C -5.1836393266 0.5296534067 1.1451323994
C -5.4531302664 -0.1380485831 0.0263154026
Br -6.8876022149 0.3385296042 -1.1280507273
Br -4.4028158005 -1.6093489567 -0.5603029760
C -3.8673957148 2.6052304928 2.9308392515
H -2.7155051616 -0.3718442705 4.3236475659
H -3.8325260669 0.8028717186 5.0479809717
H -2.1588536591 1.2745883003 4.6939983741
H -4.1743946123 -0.8618299373 2.4629044712
H -1.8969247592 -0.1864493434 2.0784233922
H -0.7838260910 2.6503792347 -1.0107006998
H 1.4809650262 3.2035016728 -1.0826692646
H 3.8551498677 2.5754899431 -1.4560656049
H 4.4671708213 0.2269865561 -1.9370917627
H 0.3356087757 -0.9071422310 -1.6876404371
H 3.8147533598 -1.6482315191 0.2683758906
H 5.9167106767 -2.8006503696 0.9088351391
H 7.1588500682 -4.1527257814 -0.7638721465
H 6.2857981734 -4.3510224090 -3.0811669413
H 4.1821722264 -3.1791795613 -3.7221172827
H -5.8164159577 1.3806079529 1.3835418852
H -3.0464529810 3.2413320525 3.2773487054
H -4.7142069810 2.7455247320 3.6115658484
H -4.1607731510 2.9368427014 1.9351742348
