73
CONF527
C -0.8698259480 3.0560710623 -0.6172163171
C -1.6891644332 2.2553564023 0.3708220343
O -2.9695107740 2.0011934973 -0.2611055015
C -3.8534121455 1.1995229542 0.5066651124
O -3.3241054570 -0.0823517808 0.7891177775
C -3.3847989730 -1.0115959405 -0.2986857565
C -4.5606429876 -1.9603469014 -0.1024915044
O -5.7595141480 -1.1981987701 -0.2251880724
C -4.5196423555 -3.1007244935 -1.1118906551
O -5.5870308267 -3.9892616928 -0.7671846744
C -3.1638007273 -3.8076248306 -1.0346862061
C -2.9798816692 -4.9009513374 -2.0708938394
O -3.1759129532 -4.4356453085 -3.4068911826
O -2.1306470761 -2.8326508555 -1.2839062833
C -2.0889585497 -1.8172753030 -0.2996121735
O -1.0425869938 -0.9395643925 -0.6514942445
C 0.2415745171 -1.2947074800 -0.3530981820
C 0.6014928357 -2.5589325050 0.1151933969
C 1.9415594605 -2.7978736398 0.3996577929
O 2.2999204819 -4.0199524735 0.8224316708
C 2.9278087521 -1.7894004629 0.2231674354
C 4.3258214828 -2.0781342155 0.3975363541
O 4.7417603355 -3.1942685642 0.7691998863
C 5.2794854003 -0.9642532802 0.0567788184
C 4.6361526927 0.3927465208 0.3076875065
O 3.3833189524 0.4913171410 -0.4456380009
C 2.5055725158 -0.5219629568 -0.2511032568
C 1.1776828667 -0.2731642462 -0.5450866420
C 5.4942158058 1.5548299835 -0.0917081940
C 5.8460391603 1.7632496089 -1.4281800320
C 6.6561849497 2.8306224213 -1.7928611292
C 7.1364460339 3.7019131396 -0.8103718083
O 7.9403604580 4.7640404894 -1.1047811657
C 6.7956409163 3.5048605843 0.5279976896
C 5.9735880124 2.4396863354 0.8754023601
C -4.1603603086 1.8642008013 1.8491598900
O -4.9400561839 3.0479126225 1.6469439191
C -2.8584160509 2.1844074896 2.5853227230
O -3.1061934769 2.8752280937 3.8128000563
C -1.9210673045 2.9910944979 1.6901041292
O -0.6516465954 3.1724932099 2.3199320686
H 0.1254591316 3.2490973530 -0.2095884327
H -0.7613664450 2.5023291614 -1.5544109206
H -1.3562682665 4.0142865368 -0.8276576979
H -1.2006666055 1.2957457148 0.5863105642
H -4.7643346577 1.1244351428 -0.0971189220
H -3.4709633612 -0.4841737877 -1.2584001194
H -4.4883831882 -2.3931916862 0.9102916781
H -6.4945403846 -1.8198720260 -0.1308320534
H -4.6592212915 -2.6960778892 -2.1232091114
H -5.8961418317 -4.4221262303 -1.5722555979
H -3.0345919702 -4.2472042657 -0.0313007068
H -3.7219493113 -5.6856488867 -1.8963720363
H -1.9794838787 -5.3388837748 -1.9462951878
H -2.5027449233 -3.7652597350 -3.5821634247
H -1.9098508428 -2.2471050822 0.7003269717
H -0.1098580431 -3.3660248567 0.2296801128
H 3.2937042577 -3.9967038344 0.9194614172
H 6.1918062382 -1.0649173573 0.6510490363
H 5.5551110209 -1.0647955047 -1.0024051055
H 4.3737145289 0.4769215762 1.3713507158
H 0.8623508530 0.7027776129 -0.8922797795
H 5.4774129477 1.0919853754 -2.1983706010
H 6.9203702546 2.9916314934 -2.8347882506
H 8.0983821938 4.7964619892 -2.0582587545
H 7.1703251403 4.1905082633 1.2809835616
H 5.7027521087 2.2946650166 1.9175765358
H -4.7778741970 1.1939019961 2.4550740703
H -4.5301036554 3.5600906730 0.9347493501
H -2.3595754287 1.2462205028 2.8563448396
H -3.7135346993 3.6009491714 3.6032839276
H -2.3760189169 3.9732636143 1.4717822062
H -0.8313653734 3.4909815999 3.2155970208
