46
CONF152
C -1.2388393968 2.0455077489 2.5675374686
C -0.7628828146 0.6085427231 2.5400716045
O -0.8075556076 0.0638451086 1.1958477123
P -2.1646235129 -0.5579789827 0.5731953396
S -3.3663386662 -1.4532652490 1.8003535624
N -2.8690399773 0.6547240837 -0.2994708070
C -2.1797387074 1.4270130968 -1.3566000153
C -2.6405587981 2.8807021477 -1.2851062289
C -2.4107657394 0.8229076110 -2.7397037561
O -1.4574885638 -1.4821660413 -0.5862041769
C -0.4992238212 -2.4247986998 -0.2561859850
C -0.9110665110 -3.7129528737 0.0590126872
C 0.0381328858 -4.6781874969 0.3750055817
C 1.3912269490 -4.3519740130 0.3935216168
C 1.7936676432 -3.0568991358 0.0950114654
C 0.8569783966 -2.0777670574 -0.2475829754
C 1.3013816250 -0.7133096827 -0.6382591300
O 0.8297408312 -0.0619121524 -1.5449802167
O 2.3307037288 -0.3028578523 0.1370214795
C 2.8962331873 1.0085698429 -0.1794821596
C 3.5210235167 1.5076938063 1.1076866912
C 3.8926634093 0.8615337537 -1.3158559043
H -1.1137765246 2.4540736242 3.5755609465
H -0.6593404525 2.6578130622 1.8697831775
H -2.2965439136 2.1104119278 2.2977933029
H 0.2889649296 0.5263062160 2.8292859105
H -1.3630488362 -0.0288250972 3.1988754685
H -3.8728563174 0.5740513262 -0.3945431447
H -1.1093102823 1.3761909411 -1.1305122925
H -3.7162758101 2.9561974916 -1.4836118590
H -2.4438510991 3.3060343146 -0.2973594421
H -2.1197480505 3.4813642384 -2.0369491207
H -2.0567511456 -0.2090652723 -2.7706537999
H -3.4765630723 0.8443359887 -2.9973918250
H -1.8671151165 1.3956070554 -3.4975649344
H -1.9723087908 -3.9325045007 0.0650545743
H -0.2840439812 -5.6859460833 0.6158262122
H 2.1315208370 -5.1042435994 0.6435582349
H 2.8441144499 -2.7892473148 0.1112618466
H 2.0680836326 1.6560352297 -0.4872921798
H 2.7715810857 1.5831815043 1.9000748356
H 4.3134349047 0.8305611134 1.4409015687
H 3.9571992441 2.4979055665 0.9469546418
H 4.3339316454 1.8347680756 -1.5521084481
H 4.6979447496 0.1780734280 -1.0280847651
H 3.4011277568 0.4799504911 -2.2136927468
