30
CONF7
C 3.5106886536 -0.6558323258 -2.0553417093
C 3.6282087670 0.3153980972 -0.8800977676
C 2.3236686944 1.0485339137 -0.5515463523
C 1.1947619446 0.1367671891 -0.0687319621
C -0.0613456009 0.9138884310 0.3271992724
C -1.2009626461 0.0297576992 0.8254392825
C -1.7527454214 -0.9549440297 -0.2328752047
C -3.2622376373 -1.1387657546 0.0900416086
C -3.5225824262 -0.2852994316 1.3490057369
C -2.4487436925 0.8022102098 1.2742886718
H 3.1407823448 -0.1396623911 -2.9489818992
H 4.4823940841 -1.0967993326 -2.3001989668
H 2.8216126813 -1.4772741764 -1.8354979310
H 4.4031004132 1.0583027006 -1.1073257201
H 3.9708200063 -0.2262078361 0.0120340569
H 2.5230903070 1.8015885718 0.2230278655
H 1.9857184319 1.6003731569 -1.4405488020
H 1.5460847092 -0.4495026391 0.7929967873
H 0.9374565834 -0.5858025238 -0.8528132913
H -0.4176852707 1.4937608446 -0.5374397835
H 0.1990878432 1.6433388761 1.1074188088
H -0.8395622890 -0.5499402935 1.6884892726
H -1.2097522553 -1.9048589781 -0.2260645848
H -1.6255165202 -0.5222046802 -1.2329405141
H -3.5318197315 -2.1880803402 0.2431835756
H -3.8718492879 -0.7701285161 -0.7416806611
H -3.3647515036 -0.8866341499 2.2529415894
H -4.5427665315 0.1096144895 1.3884594095
H -2.7146268981 1.5411686884 0.5046409620
H -2.3005284558 1.3372345414 2.2185765273
