65
CONF482
C -4.1864047532 2.7404039351 -2.5727664545
C -3.8617438880 1.3231545407 -3.0394888132
C -3.2643992429 0.4491439854 -1.9288446281
C -2.9958380342 -0.9821346547 -2.4169433894
C -1.9583608293 1.0436549623 -1.4487902421
O -1.0213423040 1.3131249980 -2.1782510249
O -1.9395038631 1.2108489345 -0.1123222034
C -0.7077906756 1.7361719893 0.4786932592
C -0.7480959905 3.2547146081 0.4760233876
C 0.5669760818 3.8230153832 1.0303249514
C 1.0133589826 3.0582194581 2.2405670350
C 0.4981826301 1.8804009550 2.6433236892
C -0.6271552947 1.1891711544 1.8942595332
C -0.4594363355 -0.3441208598 1.9627890856
C -0.5043989601 -0.7628670313 3.4467538613
C 0.5252939203 0.0050120464 4.2302266146
C 0.9854132845 1.2045222789 3.8356626218
C -0.3849918480 -2.2741215019 3.6612281835
C 0.8155211707 -0.8157323249 1.2251209347
C 0.4807790520 -1.5369831471 -0.0819547471
C 1.7005479521 -1.8180307589 -0.9397296689
C 2.6905787624 -2.7836695298 -0.3237089501
C 3.7580920215 -3.1329111181 -1.3382349295
C 3.0940740817 -3.8229254914 -2.5231334583
C 1.8342884861 -3.1600243159 -3.0271624454
O 1.3632524930 -3.4061229826 -4.1217244170
O 1.1626499790 -2.3181617368 -2.2228266757
O 4.7135760519 -3.9929334548 -0.7077935240
C 1.6806445503 3.8623933348 -0.0319699925
H -4.8936985715 2.7240263365 -1.7364465018
H -3.2839166198 3.2661467730 -2.2397619172
H -4.6321022527 3.3275147520 -3.3811881542
H -4.7720167965 0.8288548895 -3.3985020747
H -3.1587565355 1.3513444733 -3.8806149400
H -3.9574953510 0.4185373141 -1.0812664435
H -2.5791770256 -1.6043428871 -1.6186707453
H -3.9317381462 -1.4363093267 -2.7552589284
H -2.2905321532 -0.9731648460 -3.2539081825
H 0.1327756029 1.3775959841 -0.1228016714
H -0.9209018249 3.6235489345 -0.5403831061
H -1.5899718572 3.5786166819 1.1002517535
H 0.3827402515 4.8622155107 1.3378200133
H 1.8242475713 3.4969904820 2.8223413553
H -1.5731713738 1.4371847337 2.4012336385
H -1.3309894234 -0.7956478738 1.4723794508
H -1.4993435452 -0.4699881541 3.8207217984
H 0.9041991627 -0.4443478899 5.1466594938
H 1.7472993390 1.7177602671 4.4196444824
H -0.5607971456 -2.5213623154 4.7131701309
H -1.1249678147 -2.8080897805 3.0558916505
H 0.6085950043 -2.6489575377 3.3969260412
H 1.4673701624 0.0423517365 1.0115891178
H 1.4023002684 -1.4768779481 1.8684639657
H -0.0331994207 -2.4828186002 0.1335428281
H -0.2083323094 -0.9256997436 -0.6754150414
H 2.2053525543 -0.8743697128 -1.1872710879
H 2.1772251141 -3.6953743435 0.0101549288
H 3.1455558378 -2.3051722794 0.5491204585
H 4.2530826448 -2.2091452872 -1.6757430735
H 2.7917589981 -4.8328162801 -2.2110357790
H 3.7727914324 -3.9370311142 -3.3732539589
H 5.4168263608 -4.1746288853 -1.3448961040
H 1.8931190622 2.8590519092 -0.4160541962
H 2.6069065002 4.2606071830 0.3943599781
H 1.3851939034 4.5005821881 -0.8711269948
