65
CONF193
C -4.1383982605 3.6767041042 0.0091794076
C -2.7391225767 3.9892598452 -0.5166562906
C -1.9702266889 2.7358038822 -0.9452745898
C -0.5968296770 3.0829902260 -1.5403310784
C -1.7492842720 1.8160377942 0.2372790125
O -1.3514355727 2.1780830004 1.3288248012
O -2.0055755436 0.5333462783 -0.0817633867
C -1.7962878930 -0.4818508003 0.9506866539
C -3.0764390676 -0.6556980259 1.7500324724
C -2.8802376615 -1.7017060939 2.8572763727
C -2.1481745400 -2.9018716130 2.3337785978
C -1.4857394700 -2.9469305638 1.1621875301
C -1.4152066040 -1.7587021459 0.2217076162
C -0.0271483445 -1.6959651760 -0.4561224148
C 0.1352284898 -2.9848200346 -1.2914474229
C -0.0734940714 -4.1908775189 -0.4147267793
C -0.8004294464 -4.1495255738 0.7148088006
C 1.4513149495 -3.0623870632 -2.0688413598
C 1.1018668213 -1.4800916010 0.5789891548
C 1.7001296388 -0.0679223416 0.5811654723
C 2.5177145554 0.2787994218 -0.6489962479
C 3.0427303611 1.7009071993 -0.6439909893
C 3.9107787363 1.9174167417 -1.8713880792
C 5.0879853755 0.9495562727 -1.8147873086
C 4.7618792458 -0.4605074119 -1.3742352564
O 5.5351577020 -1.3836658203 -1.5384708671
O 3.6196567867 -0.6974490571 -0.7044982420
O 4.3580478414 3.2684926779 -2.0114423975
C -2.1680557265 -1.1193839566 4.0916328767
H -4.6691790904 4.5932070403 0.2832666413
H -4.7330203842 3.1550745824 -0.7486050185
H -4.0937507266 3.0397660790 0.8997885805
H -2.8061485495 4.6536574610 -1.3862453142
H -2.1556432379 4.5179547683 0.2463166826
H -2.5543641085 2.1889771094 -1.6935878866
H 0.0083335066 3.6276230551 -0.8086029941
H -0.0541406683 2.1804123718 -1.8406517798
H -0.7263657906 3.7163834111 -2.4227582654
H -0.9836524312 -0.1451543784 1.6005821834
H -3.3792258070 0.3036697991 2.1833089239
H -3.8680410909 -0.9817823221 1.0642321057
H -3.8750899506 -2.0318598327 3.1881143231
H -2.1531955663 -3.7907695314 2.9649257879
H -2.1613026428 -1.9160869076 -0.5732280727
H -0.0390073246 -0.8509237133 -1.1565783082
H -0.6732250936 -2.9706745256 -2.0408950382
H 0.3975970893 -5.1240976702 -0.7188319665
H -0.9028369256 -5.0391482202 1.3334605742
H 1.5871263006 -2.1691712902 -2.6878759015
H 2.3160624593 -3.1485819569 -1.4047699266
H 1.4481153836 -3.9366009709 -2.7281521284
H 0.7187656343 -1.6877989628 1.5854827228
H 1.9081411676 -2.2011303437 0.4206033994
H 0.9028333209 0.6829858436 0.6527592278
H 2.3388540075 0.0643286623 1.4634166592
H 1.9287710669 0.1103276408 -1.5609447960
H 3.6253841904 1.8836327865 0.2697685852
H 2.1915050006 2.3879711579 -0.6537999546
H 3.3139790203 1.7249855062 -2.7712707034
H 5.8067795985 1.3162115625 -1.0667468740
H 5.6219906945 0.8910829851 -2.7665600100
H 4.8812512333 3.4904815453 -1.2292225790
H -2.0316389583 -1.8884060674 4.8585812588
H -2.7571729966 -0.3034345877 4.5228990890
H -1.1788943068 -0.7311557120 3.8272445132
