33
CONF2
N 2.3278072332 -2.4489553403 1.6603807830
C 2.4030604462 -1.2365600361 1.0651816250
N 1.2927985362 -0.6359309636 0.6590290090
C 1.5049107358 0.5891933620 0.1323842373
C 2.7184304064 1.2575249433 -0.0203169659
N 2.5325474541 2.5014458667 -0.5919833230
C 1.2393446634 2.5848507461 -0.7765465809
N 0.5539107474 1.4538560954 -0.3618264207
C -0.8761727083 1.2534600597 -0.4725511593
O -1.4031063836 0.9458495037 0.8087095534
C -2.5349128982 0.0299656434 0.6772828424
C -2.2589879249 -1.1962947236 1.5312842885
O -1.2056826578 -1.9990368855 1.0140979066
C -2.6841273649 -0.2610715219 -0.8211348647
O -3.6971581879 0.5272709198 -1.4581504898
C -1.2967804732 0.0885718155 -1.3893818315
O -1.2917774575 0.4210651741 -2.7586209733
C 3.9200763461 0.6229726271 0.4104394897
O 5.0777244636 1.0332652505 0.3685880532
N 3.6408114617 -0.6590711943 0.9506951167
H 3.1556734397 -3.0145029302 1.7617133103
H 1.4514657621 -2.9422654178 1.5867200716
H 0.7083238919 3.4246163129 -1.2073454121
H -1.2863986262 2.1986163498 -0.8640850181
H -3.4326301163 0.5366819091 1.0575553926
H -2.0461335613 -0.8635175810 2.5585607024
H -3.1626946191 -1.8160548128 1.5545745787
H -0.3912073558 -1.4506862371 0.9735136558
H -2.9470308008 -1.3040969114 -1.0104698953
H -3.7119580560 1.4108722967 -1.0657121645
H -0.6155114007 -0.7549686679 -1.2449988042
H -2.1356424577 0.8668994352 -2.9361483929
H 4.4510275576 -1.1639652777 1.2899886739
