43
CONF20
C -3.6366066908 1.2360410197 1.8810897352
Si -1.9497137368 1.1059359570 1.1081584903
C -0.9996247542 2.7069358206 1.1879010754
O -1.1568636254 -0.1102104123 1.9259847009
O -2.0711331918 0.6951293770 -0.4885922223
Si -2.0292947061 -0.6918743031 -1.3793503206
C -2.4167949621 -0.2331194140 -3.1414194636
C -3.2080468016 -1.9514241264 -0.6795027481
O -0.5114259663 -1.3429527599 -1.2977318424
Si 1.0410194431 -0.8259428729 -1.1654155044
C 2.1706727176 -2.2102792416 -1.6841806208
C 1.2915400615 0.7289956037 -2.1649504235
O 1.2847116171 -0.4974786354 0.4388655598
Si 2.4179350188 0.0358352422 1.5310038204
C 3.2716199827 -1.4618044003 2.2393275833
C 3.6198699186 1.2085554174 0.7251554100
O 1.6209293052 0.8796616664 2.7008552910
H -3.5616304544 1.4788824631 2.9461458895
H -4.1761306892 0.2876626201 1.7906084095
H -4.2325213471 2.0162450104 1.3968370154
H -0.8990037445 3.0617948079 2.2188606565
H 0.0112699964 2.5770534497 0.7868645460
H -1.5004125266 3.4878550727 0.6057788143
H -0.4255761214 -0.4977441514 1.4166810182
H -1.7317262615 0.5415129517 -3.5013772472
H -2.3276449411 -1.1005806666 -3.8033095435
H -3.4359016961 0.1575196788 -3.2284657401
H -4.2386846947 -1.5820669440 -0.7034417991
H -2.9505996444 -2.1751550971 0.3614959618
H -3.1697774055 -2.8880976979 -1.2450184412
H 2.0034306174 -2.4872790641 -2.7299888219
H 3.2230462614 -1.9254443371 -1.5763156122
H 1.9952271690 -3.0975284757 -1.0670318966
H 2.3160470415 1.1051237027 -2.0785577822
H 1.0911479500 0.5462830438 -3.2262407691
H 0.6108614488 1.5166301092 -1.8226565357
H 3.9934009588 -1.1732196869 3.0104599401
H 2.5429569032 -2.1376793910 2.6996061635
H 3.8079052017 -2.0217703447 1.4652556877
H 3.0949441936 2.0585503511 0.2774331504
H 4.3189128389 1.6046585642 1.4693259621
H 4.2094877715 0.7147540694 -0.0548734926
H 0.6921774656 0.6600362032 2.8547254434
