54
CONF41
C 3.1294045956 -2.6894794387 1.0565019392
C 1.7876056819 -2.2096253661 0.5240386224
C 1.5979474575 -0.7179929042 0.6545836391
O 2.4170877894 0.0458434881 1.1258464052
O 0.3865991114 -0.3744993035 0.1781591030
C -0.1211470532 1.0072401567 0.1617294769
C -0.2298085472 1.4992619973 1.6277715128
C -0.8897243395 0.5085742128 2.5553540126
C -2.2831071965 0.4096640567 2.6427979803
C -2.8821646836 -0.5275118369 3.4809099546
C -2.0979628697 -1.3824492534 4.2528127171
C -0.7102517846 -1.2815183367 4.1896112326
C -0.1146845746 -0.3425650541 3.3504183950
C -1.4858770504 0.8894346699 -0.5136958207
C -2.4057770159 1.9419600502 -0.4368644325
C -3.6317701792 1.8728095675 -1.0917911692
C -3.9684711387 0.7469541722 -1.8383076724
C -3.0626529519 -0.3056652597 -1.9226605118
C -1.8336377552 -0.2346425885 -1.2701383988
C 0.8504957166 1.8945447426 -0.6762883932
C 0.4398541896 3.3662199043 -0.7472827858
C 1.0264672955 1.3209408042 -2.0903739717
N 2.1325084188 1.9410097264 -2.8325295703
C 3.4291110159 1.5263507836 -2.2910909463
C 2.0489896979 1.5476261246 -4.2415112598
H 3.9563883359 -2.2192760158 0.5176636016
H 3.2129318101 -3.7728621901 0.9375694570
H 0.9531327709 -2.6914337905 1.0482922055
H 1.6611038429 -2.4650803616 -0.5353027079
H 0.7794471914 1.7218718445 1.9824935660
H -0.7898996932 2.4363930341 1.6356954277
H -2.9052409612 1.0760839201 2.0540098044
H -3.9652683628 -0.5854857975 3.5352265701
H -2.5648380863 -2.1126303539 4.9066744377
H -0.0878811331 -1.9313225238 4.7976792830
H 0.9680965588 -0.2629291363 3.3180812199
H -2.1831613651 2.8279462730 0.1462513560
H -4.3271424905 2.7026080082 -1.0102176571
H -4.9266303475 0.6905740081 -2.3453640713
H -3.3090117140 -1.1920279072 -2.4995419873
H -1.1426488227 -1.0638731572 -1.3534563846
H 1.8029225636 1.8400993781 -0.1456159325
H 0.1024480938 1.5026487524 -2.6540192298
H 1.1648764618 0.2232696455 -2.0449036735
H 4.2321592591 1.9588883178 -2.8963780885
H 3.5479472467 0.4243705236 -2.2926583495
H 3.5561889973 1.8809136867 -1.2642808004
H 2.8633454615 2.0150606633 -4.8048291562
H 2.1216748247 0.4508830548 -4.3786021416
H 1.0969455832 1.8825589434 -4.6662683702
H 3.2371895364 -2.4504160078 2.1180668289
H -0.4687288001 3.5005006394 -1.3421993640
H 0.2786113041 3.8010295591 0.2427505413
H 1.2406150807 3.9286097375 -1.2337857970
