45
CONF24
C -1.6679236537 2.2696047067 0.7717980600
C -2.9843940278 1.8048890107 0.2181022805
C -3.2900338068 0.5294240668 -0.0782172683
C -2.4128491032 -0.6362640498 0.1007275987
C -2.1714986382 -1.5959805785 -1.0986378151
C -2.8875117198 -2.0573467886 0.1716521090
C -2.2199089449 -2.9944610449 1.1552226304
C -4.3590501264 -2.3664394489 -0.0187326396
C -0.7996983662 -1.8856499524 -1.5262342287
O -0.4593771050 -1.9848006519 -2.6915039256
O 0.0777209956 -1.9931214864 -0.4856879788
C 1.4836191310 -1.8735205332 -0.7779871950
N 1.9839185121 -0.7359479168 -0.0574057471
C 2.5901051741 -0.7792681049 1.1835197722
O 2.8971160451 -1.7782437376 1.8019564576
C 2.7929348744 0.6652573587 1.6003764756
N 2.1081499608 1.4037215797 0.5527970453
C 1.6878324757 0.5931228301 -0.4540994789
O 1.1429229363 0.8970747729 -1.5019485985
C 2.1785682224 2.8509143453 0.4183859966
C 3.5089462364 3.3073016046 0.0231894209
C 4.6172753074 3.6600196746 -0.2914191048
C -3.9850339210 2.9044477302 -0.0031869696
H -0.9455732915 1.4659783058 0.9237248393
H -1.8186317122 2.7851123148 1.7286146692
H -1.2182513633 3.0046164481 0.0917846873
H -4.2745341460 0.3331910468 -0.4981900353
H -1.5011440695 -0.4651979269 0.6640002137
H -2.8263423417 -1.4465262508 -1.9510331368
H -1.1945459831 -2.7039193150 1.3814342478
H -2.7935097885 -2.9922584847 2.0887570352
H -2.2157426610 -4.0190102511 0.7663245923
H -4.9002817675 -2.1958180021 0.9186718796
H -4.4817152798 -3.4194059739 -0.2937823545
H -4.8211755115 -1.7585724879 -0.7990887245
H 1.9918089914 -2.7670632065 -0.4119045031
H 1.6309356386 -1.7391933242 -1.8508918834
H 2.3570804248 0.8431243525 2.5902794695
H 3.8672942365 0.8934015438 1.6376670961
H 1.4374322303 3.1528140891 -0.3289971541
H 1.8915955304 3.3105176043 1.3716707236
H 5.5957714406 3.9761938646 -0.5747905795
H -3.5822051640 3.6592558146 -0.6906933377
H -4.2000891746 3.4255803499 0.9385093619
H -4.9244705683 2.5247411984 -0.4131110447
