47
CONF131
C -5.5645721984 -2.0087012944 2.5168542485
O -5.3091016407 -0.9379756296 1.5633375960
P -4.8538851916 -1.2907677863 0.0663276904
S -3.4562437088 -2.6203264701 -0.1341449409
O -6.1639671453 -1.6693765001 -0.7604372290
C -7.3543560799 -0.8225014779 -0.6867047596
O -4.5524680094 0.2020416326 -0.4892336481
C -3.4349041883 0.9245551454 -0.0506207252
C -2.2667153832 0.8702524510 -0.8009731413
C -1.1726978159 1.6302685394 -0.4073369026
C -1.2494265750 2.4204429918 0.7429203487
C -2.4323041800 2.4636879094 1.4846184266
C -3.5368576223 1.7195132445 1.0819324462
S 0.1034243930 3.4688639277 1.2645914801
C 1.5394017835 2.4817806828 0.8602441603
C 1.6485455336 1.1557991051 1.2895623948
C 2.7924940270 0.4234751263 1.0024320861
C 3.8273244692 1.0356870604 0.3025883957
C 3.7443224375 2.3551214552 -0.1145955712
C 2.5882686590 3.0798956889 0.1606062813
O 5.0130271697 0.3456457890 0.0416353570
P 5.0602932069 -0.9502249082 -0.9341846886
S 3.8707175608 -0.8972146364 -2.4697343358
O 4.8522717580 -2.1280600930 0.1242337559
C 4.6987480904 -3.5027022355 -0.3350001297
O 6.6286766941 -1.0523254493 -1.2189549404
C 7.2449363000 -0.1979495768 -2.2247334450
H -6.3675918549 -2.6555466153 2.1527730762
H -5.8697017042 -1.5122644740 3.4375206194
H -4.6520237896 -2.5873574476 2.6791399804
H -7.1420830087 0.1561296623 -1.1225331611
H -8.1140190211 -1.3407878605 -1.2705167578
H -7.6788738703 -0.7203882086 0.3514794591
H -2.2229243702 0.2509296073 -1.6901131781
H -0.2622065134 1.6038119506 -0.9964608393
H -2.4941758231 3.0741208269 2.3798351883
H -4.4615191489 1.7470437198 1.6471700325
H 0.8401260837 0.6929382906 1.8458328318
H 2.8878508309 -0.6058683739 1.3311314309
H 4.5670265030 2.8010287475 -0.6630210692
H 2.5019359240 4.1063363585 -0.1798885721
H 5.6024902247 -3.8269659733 -0.8573540082
H 4.5508673434 -4.0953373610 0.5669709665
H 3.8274042141 -3.5814337774 -0.9896863150
H 7.1180172710 0.8534131026 -1.9525146016
H 8.3017682659 -0.4623790942 -2.2239309908
H 6.8026790150 -0.3963275869 -3.2040183006
