41
CONF22
C 0.3185956168 -1.8200289573 -3.0222146242
C -0.2072866719 -1.1542138893 -1.8031598136
C -1.5020638662 -0.8586092899 -1.4745034338
C -1.5033749056 -0.2013384822 -0.1949709451
C -0.1581596772 -0.0715688988 0.2149772565
N 0.6416577702 -0.6460883539 -0.7979948328
C 2.0337731599 -0.8413830839 -0.7711097021
O 2.5510998690 -1.8242811626 -1.2714878513
C 2.8528060398 0.2407523602 -0.1639352654
C 2.5074370256 1.5891338530 -0.2908105953
C 3.3505219625 2.5795410267 0.1932991986
C 4.5349522128 2.2069124586 0.8216764169
C 4.9014569554 0.8704684509 0.9550990640
C 4.0609043652 -0.1077192664 0.4449910484
Cl 5.5935744345 3.4484055545 1.4514868792
C 0.1600199783 0.4483214674 1.4604359840
C -0.8780570632 0.8966635011 2.2758894688
C -2.2149978116 0.8028827609 1.8575521169
C -2.5378064387 0.2392427477 0.6245232033
O -3.2780218026 1.2225966773 2.6073795849
C -3.0078900561 1.7728664333 3.8906332186
C -2.7350827124 -1.1687063772 -2.2647345012
C -3.4233462710 -2.3957411120 -1.7025706214
O -4.3977180513 -2.3932988053 -0.9911894254
O -2.7788561748 -3.5324288785 -2.0771786054
H 0.6798779632 -2.8280344023 -2.8021184604
H 1.1578765631 -1.2682680904 -3.4551210618
H -0.4756941565 -1.8932740290 -3.7674416384
H 1.5773303132 1.8669541057 -0.7749494388
H 3.0961197847 3.6274074506 0.0872380224
H 5.8324682392 0.6074272485 1.4430620605
H 4.3320159548 -1.1557833878 0.5114981645
H 1.1801098570 0.5141705927 1.8161987735
H -0.6283647108 1.3086413400 3.2449352758
H -3.5790359700 0.1220933464 0.3446704596
H -3.9792932333 2.0355912778 4.3118828996
H -2.3877920944 2.6763966267 3.8178563565
H -2.5147016676 1.0420061657 4.5453369310
H -2.4894881690 -1.3486517595 -3.3146515711
H -3.4452363041 -0.3401505948 -2.2037465413
H -3.2403305533 -4.2689061217 -1.6460929466
