49
CONF2
C -3.6012079849 2.5107809307 -0.2475585892
C -2.4603611870 1.6006494771 0.1506356813
C -2.0536827782 0.4489824115 -0.7235011377
C -2.8747720541 0.1737491483 0.5280194526
C -2.3292463672 -0.6178892244 1.6434804334
O -2.9930853077 -1.1408073311 2.5132994292
O -0.9735293868 -0.7366301392 1.5810376156
C -0.3479811707 -1.5445133707 2.5969541081
C -0.7076009389 -2.9546446893 2.3895657862
N -0.9456574780 -4.0728321397 2.2251166882
C 1.1476787011 -1.3511926744 2.4702368753
C 1.7142213343 -1.2365476457 1.2035840782
C 3.0872292858 -1.0448011882 1.0985414694
C 3.8981699907 -1.0128809520 2.2300355886
C 3.3174965294 -1.1567181934 3.4853488944
C 1.9397622796 -1.3129540184 3.6155520735
O 3.7095192787 -0.9484612218 -0.1289868235
C 3.1131075592 -0.1985091755 -1.1316131033
C 2.4442110288 0.9951493925 -0.8665651185
C 1.9487057367 1.7406680312 -1.9328611040
C 2.1271502976 1.3097081468 -3.2456335377
C 2.8004661839 0.1152510064 -3.4918767065
C 3.2909257042 -0.6494308701 -2.4361924719
C -2.6469753696 0.1548152552 -2.0638474650
C -2.2625546311 -1.2228776942 -2.6263079024
Br -3.1522737343 -1.5558053765 -4.3507965939
Br -2.9022012285 -2.5972396964 -1.3521525937
Br -0.3207623733 -1.4249962358 -2.8425161161
Br -2.0645630350 1.5850726160 -3.3418686403
C -1.3574007701 2.3059398097 0.9072853996
H -4.0564463726 2.9382679939 0.6516226116
H -4.3815717131 1.9891528130 -0.8067799743
H -3.2241609985 3.3330759879 -0.8631466258
H -1.0014307656 0.1905547958 -0.6455581747
H -3.9319771120 -0.0249289080 0.3838526719
H -0.6987109822 -1.2475155828 3.5916575453
H 1.0984035495 -1.2778872177 0.3116753123
H 4.9672928589 -0.8695661517 2.1158004663
H 3.9430730543 -1.1252583502 4.3712171084
H 1.4855010221 -1.4007083480 4.5972680540
H 2.3185325225 1.3395632915 0.1544862746
H 1.4264861947 2.6709106317 -1.7313129257
H 1.7369162303 1.8968610252 -4.0701698913
H 2.9403146070 -0.2325086647 -4.5106828754
H 3.8171015886 -1.5821165357 -2.6108056705
H -3.7367557255 0.2198396149 -2.0722769533
H -0.5277405502 1.6401862585 1.1518044657
H -0.9701156787 3.1237920457 0.2903013200
H -1.7495007384 2.7369126119 1.8346319988
