41
CONF14
C -3.0668357639 -2.5999973827 -0.2378513475
C -1.9125182716 -2.3773913262 -1.2128299196
C -0.8372473173 -1.4095991047 -0.6915452773
C -0.2330267925 -1.9043298435 0.6340369378
O 0.1941466285 -3.0179509359 0.8451569186
C -0.3258335953 -0.7937991226 1.6140877077
C 0.1917684382 -0.7223256699 2.9018752145
C -0.0200666647 0.4492386033 3.6209332457
C -0.7429581282 1.5171217884 3.0697005444
C -1.2709969981 1.4390188025 1.7860905675
C -1.0464006378 0.2716489735 1.0659006375
C -1.4550607121 -0.0534084723 -0.3188785372
O -2.1712604179 0.6112430562 -1.0391331924
C 0.2569834333 -1.2392118889 -1.7740146414
C 1.5236190920 -0.5148163339 -1.3539880314
C 2.8031535437 -0.9643941323 -1.9360385531
O 2.4394805073 -1.3323169043 -0.6011539446
C 1.4369335265 0.9055113528 -0.8793652264
C 0.6587263492 1.8334897312 -1.5741716383
C 0.5799761764 3.1378976186 -1.1065962087
C 1.2612591805 3.5500343510 0.0322373616
C 2.0455047456 2.6201611245 0.7071665187
C 2.1377775564 1.3083722056 0.2591868331
Cl -0.4160856858 4.2921834057 -1.9727720134
H -3.5960737105 -1.6659367664 -0.0245504395
H -2.7124562386 -3.0224953476 0.7078511196
H -3.7914192150 -3.3007001174 -0.6614266193
H -1.4183371910 -3.3314905473 -1.4290225318
H -2.2936202345 -1.9733650097 -2.1581761367
H 0.7490608576 -1.5563217316 3.3156289433
H 0.3780133310 0.5436907662 4.6264423403
H -0.8877873683 2.4175689178 3.6583569192
H -1.8272063652 2.2587756323 1.3432997605
H -0.2019311014 -0.7293199164 -2.6303542072
H 0.5506403106 -2.2418076903 -2.1018269870
H 3.6216098897 -0.2487780504 -2.0115578065
H 2.8061024338 -1.7812947266 -2.6584773595
H 0.0969441477 1.5475649831 -2.4551649336
H 1.1781745272 4.5736640213 0.3779928023
H 2.5823782843 2.9247745767 1.5998708192
H 2.7348694659 0.5790905442 0.7937207471
