47
CONF21
C -1.0478204274 3.3731056014 -2.4683055650
O -1.8847321029 2.5490460608 -1.6366911286
C -1.5975084338 1.2452724571 -1.6439878678
C -2.0573004911 0.4102318228 -0.6839163173
C -2.8055516071 0.8546190268 0.5075406747
C -4.0004611754 0.2124512473 0.8584975751
C -4.7375842353 0.5956458826 1.9691752840
C -4.2877559581 1.6372211076 2.7760766957
C -3.0936626395 2.2761615105 2.4705342562
C -2.3643604536 1.8770994208 1.3578617017
O -1.2056338953 2.6053605262 1.0994471694
C -0.0015934880 1.9929851780 1.0726063244
C 0.2024193010 0.6675082483 1.4463473928
C 1.5048458069 0.2244740075 1.2864089028
N 2.5205401875 0.9826129651 0.8964428789
C 2.1906283539 2.2421913963 0.5997512959
N 0.9822873681 2.7915469139 0.6472096733
O 1.7428729684 -1.0954059471 1.5721310850
C 2.8673644645 -1.7003492036 1.0593887051
C 3.6734785358 -2.4042030043 1.9406820991
C 4.7645583837 -3.1188876217 1.4608178742
C 5.0587511289 -3.1310851605 0.0995347761
C 4.2515765320 -2.4337541640 -0.7858541141
C 3.1426191515 -1.7142101695 -0.3192759570
C 2.3113282566 -1.0304551449 -1.2470503342
N 1.6469679854 -0.4872763679 -2.0255887175
C -1.7437323395 -1.0263013609 -0.7740204013
O -1.7812162782 -1.7950417593 0.1688755682
O -1.3982782981 -1.4121906632 -2.0269351258
C -0.9286976866 -2.7685592937 -2.1291670501
H -0.9588817451 2.9415603516 -3.4720539963
H -0.0602220269 3.4777690096 -2.0083098606
H -1.5369103419 4.3456244040 -2.5225026648
H -0.9716392821 0.8742328464 -2.4541454861
H -4.3487587984 -0.6009023246 0.2309251644
H -5.6640482528 0.0828873547 2.2044716762
H -4.8581477786 1.9472703548 3.6452336751
H -2.7061613870 3.0826241389 3.0832755456
H -0.5888670046 -0.0020164622 1.7581424430
H 3.0052475702 2.8888532509 0.2758243456
H 3.4305547124 -2.3794219284 2.9967260558
H 5.3914536712 -3.6655501682 2.1572739931
H 5.9133690544 -3.6851078011 -0.2717720382
H 4.4604152545 -2.4356690251 -1.8497159824
H -0.0933529536 -2.9369958701 -1.4445192768
H -0.6044877606 -2.8856402942 -3.1631884289
H -1.7339121418 -3.4693314499 -1.8914041215
