45
CONF2
C 1.8810807312 -3.0018626344 0.7425522281
O 2.5639901158 -2.2279093859 1.7593910199
C 2.6509610418 -0.9058569795 1.5836059326
C 3.3361001755 -0.1662303104 2.5387156451
C 3.4019807952 1.2054858652 2.3019571306
O 4.0615451357 1.9487304127 3.1978890597
C 4.1400005312 3.3753834240 2.9645964630
N 2.8442891834 1.7960737549 1.2397661024
C 2.2095838170 0.9763477406 0.4001300572
N 1.6257684327 1.6169272372 -0.6904342849
C 0.8304280458 1.1326049924 -1.7154933990
O 0.3386482605 1.8889110293 -2.5434565424
N 0.6455544511 -0.2382186031 -1.7344450015
S -0.5452778607 -0.9332834023 -2.7128879832
O -0.2017412577 -0.7176950460 -4.1174964258
O -0.6882757355 -2.2959633784 -2.1951172008
C -2.0305902593 -0.0307892744 -2.3476502326
C -2.8021933544 -0.0762606274 -1.1822833575
C -3.9088295042 0.7347531602 -1.4830635725
N -3.8252387227 1.2379052734 -2.7156575315
N -2.6832372224 0.7710971853 -3.2351410736
C -2.3089549286 1.1699982160 -4.5916774210
C -2.5578261506 -0.7333021795 0.0806366263
N -3.5403734273 -1.0206362881 0.9461003265
N -2.8666318250 -1.5465924455 1.9554282497
C -3.5068348750 -2.0400514759 3.1682264602
N -1.5572104549 -1.5967959457 1.7588443471
N -1.3406041721 -1.0806568207 0.5714903415
N 2.0861081392 -0.3465739779 0.5045226618
H 0.8376787356 -2.6878131138 0.6579863148
H 1.9400516835 -4.0324860430 1.0902844640
H 2.3874738651 -2.8961375924 -0.2207902265
H 3.7939105804 -0.6255869800 3.4042663053
H 4.6550079301 3.5815190862 2.0233769554
H 4.7130355974 3.7637149910 3.8058222123
H 3.1403748226 3.8160369976 2.9470315612
H 1.7479526103 2.6213820994 -0.7118876320
H 0.9315729781 -0.7590704208 -0.8890586452
H -4.7463008469 0.9780434738 -0.8438872241
H -3.0296089452 1.9260051482 -4.9010888151
H -1.3002275637 1.5834818502 -4.5872575778
H -2.3529984116 0.3117403709 -5.2648780768
H -4.0701148178 -1.2269741041 3.6304416496
H -4.1788956437 -2.8613443038 2.9102992580
H -2.7211319554 -2.3880505734 3.8376554330
