46
CONF340
C -5.3117240457 4.4771443106 -2.4503758081
C -4.5818764372 3.1856973213 -2.8136066989
C -4.2284281845 2.3580674778 -1.5762973252
C -3.5097498925 1.0844634950 -1.9594950472
O -3.2032424450 0.3625097298 -0.7231877153
C -2.5783009537 -0.8102088551 -0.8624284299
O -2.2306212517 -1.2947677228 -1.9179326625
C -2.4086770575 -1.4828472454 0.5003617096
C -3.6861765985 -2.2268168689 0.8629605863
O -1.3643370565 -2.4540554596 0.4460020381
C -0.0760970251 -2.0158727929 0.3038431683
C 0.8909319238 -3.0241323973 0.2303896130
C 2.2312709145 -2.6952560366 0.0943034345
C 2.5942011997 -1.3561549691 0.0285081800
C 1.6505752770 -0.3460886024 0.0969685120
C 0.3024103172 -0.6726988947 0.2356580688
O 3.9425798199 -1.0267103231 -0.1766249297
C 4.7063041317 -0.7762424626 0.9162777186
C 6.0401805883 -0.4201326436 0.6697225034
C 6.9256696517 -0.1432438333 1.6825110366
C 6.4690563432 -0.2215774960 3.0092887597
C 5.1412766642 -0.5756761827 3.2793144975
C 4.2670616908 -0.8510180850 2.2384517689
C 7.3612872476 0.0595847886 4.0765842031
N 8.0872144336 0.2888515227 4.9511657969
F 6.4528805631 -0.3532093094 -0.6119095430
H -6.2455908991 4.2610145145 -1.9202933161
H -4.6936840989 5.1043291895 -1.7988441797
H -5.5572415731 5.0579231250 -3.3445785888
H -5.2065668483 2.5843040026 -3.4862907568
H -3.6635972914 3.4220402953 -3.3661132663
H -3.5907293681 2.9473493975 -0.9058574722
H -5.1425685177 2.1077402106 -1.0239481659
H -4.1297842433 0.4388546595 -2.5901263240
H -2.5675607164 1.2875404617 -2.4791764703
H -2.1866958988 -0.7217062173 1.2587626566
H -4.5190917974 -1.5231771205 0.9288626130
H -3.9124027290 -2.9813660752 0.1045240209
H -3.5589487619 -2.7157439601 1.8316326839
H 0.5768618908 -4.0612612596 0.2809345066
H 2.9912416579 -3.4674987593 0.0371533094
H 1.9614797503 0.6920400671 0.0412898505
H -0.4229894300 0.1304155024 0.2868056939
H 7.9487969141 0.1279039704 1.4485764029
H 4.7954857829 -0.6351531813 4.3047772647
H 3.2399166501 -1.1251573940 2.4484788153
