53
CONF53
C 0.6287741179 1.1857435125 -3.0520009518
N 1.5284966829 0.0758842704 -2.7552186873
C 1.5971832593 -0.8813219399 -3.8640528160
C 2.7154726803 -1.8912317321 -3.6239041573
C 2.5185674282 -2.6070174879 -2.2876704831
C 2.3398037242 -1.5905381105 -1.1569504549
C 1.2297766404 -0.5765518733 -1.4657135399
C -0.1755315376 -1.2224863951 -1.3637221427
C -0.7617439222 -1.0976846891 0.0437271468
N -1.0016410487 0.3058139873 0.4097286607
C -1.8752637662 1.0830094048 -0.3779983641
C -2.8702197966 0.5055909555 -1.1751399363
C -3.6810245814 1.3020527216 -1.9788848466
C -3.5434591014 2.6870299882 -1.9741965683
C -2.5907057090 3.2783598716 -1.1479808584
C -1.7552343630 2.4803879323 -0.3730725333
S -0.4636610771 3.2240809464 0.6026085517
C -0.4931084494 2.0957120767 1.9721812937
C -0.7369566960 0.7314850002 1.7164503966
C -0.7002867125 -0.1596714690 2.7950864136
C -0.3771201211 0.3162152421 4.0615245507
C -0.1243510711 1.6580471769 4.3178605610
C -0.2090393411 2.5526919718 3.2557394039
S -0.2876091715 -0.8618576503 5.4156089579
O -0.5728271019 -0.1396451408 6.6773385822
O -1.1217460171 -2.0358343115 5.0655589201
C 1.4379317620 -1.3828562262 5.4365989644
H -0.4096022852 0.8797147084 -3.2815064603
H 1.0080781927 1.7385802500 -3.9189917152
H 0.5924825761 1.8679242128 -2.1947458031
H 0.6354867988 -1.4147320247 -4.0084015619
H 1.7876276288 -0.3182524452 -4.7859903800
H 3.6762137877 -1.3595662385 -3.6191226479
H 2.7419154085 -2.6121226475 -4.4491743677
H 1.6376549565 -3.2587138561 -2.3528730150
H 3.3730443163 -3.2583472192 -2.0712147090
H 3.2796927073 -1.0425686967 -1.0140223354
H 2.1143832685 -2.1007447103 -0.2123378820
H 1.2752256222 0.2236316022 -0.7132417872
H -0.1359723991 -2.2898860754 -1.6031388328
H -0.8556700959 -0.7720998018 -2.0911328409
H -0.0309397860 -1.4888460536 0.7568192811
H -1.6705919161 -1.7070321481 0.1505335213
H -3.0051112882 -0.5695381571 -1.1796111533
H -4.4313125496 0.8303664527 -2.6052835622
H -4.1771178682 3.3077668024 -2.5985107407
H -2.4789824530 4.3578088680 -1.1180813838
H -0.9294069746 -1.2094320773 2.6591047399
H 0.1179970721 2.0026428971 5.3162371497
H -0.0314746260 3.6105017751 3.4207205415
H 1.5338578476 -2.1068916163 6.2506026096
H 1.6682983806 -1.8422285882 4.4728079467
H 2.0597470632 -0.5033434574 5.6170496164
