47
CONF40
C 3.5438900670 -3.4364834074 -3.2077854660
C 3.7249062798 -2.2226558490 -2.3887017789
C 2.8774957044 -1.4449798711 -1.6395640862
C 3.7240325944 -0.4242732042 -1.1070878455
N 4.9708434217 -0.5767348236 -1.4890568759
O 4.9667510634 -1.7103896683 -2.3190775547
C 3.3666409273 0.6742561007 -0.1929580270
C 2.9422647891 0.3804254845 1.1046761434
C 2.5512300278 1.3397078141 2.0174523118
C 2.5817659001 2.6716136847 1.6158775407
C 2.9927539744 3.0251693970 0.3348641870
C 3.3776490881 2.0279684460 -0.5535826017
Cl 3.8392633825 2.4830540024 -2.1792092789
F 2.9070525378 -0.9201485288 1.4669238979
C 1.4405392469 -1.7013250240 -1.4348734444
O 0.9602723607 -2.8299095455 -1.5506524451
N 0.6921062612 -0.6063063563 -1.1129802490
C -0.6712259305 -0.6975835527 -0.6989313324
C -1.0258403282 -0.3326285298 0.7861440361
N -1.8297143746 0.7806266634 0.2674309717
C -1.6009676844 0.4823541872 -1.0677224585
O -2.0056896364 0.9846520315 -2.0901873728
C -3.0707620585 1.0857142257 0.9395216835
C -3.6838985649 -0.3029587459 1.3571709684
S -2.1884940860 -1.3681060019 1.7676418167
C -4.4368093835 -0.8940813850 0.1657060002
C -4.5873502672 -0.2340132158 2.5833430518
C -2.8032302788 1.9928327882 2.1309718823
O -1.7754685164 1.9973361762 2.7716420807
O -3.8608777843 2.7772279542 2.3883097844
H 4.2885843075 -3.4681886797 -4.0059785663
H 3.6634331105 -4.3292176434 -2.5836149096
H 2.5381942676 -3.4549766473 -3.6294153730
H 2.2318560624 1.0448646755 3.0104014346
H 2.2782529740 3.4474050724 2.3102890083
H 3.0077408350 4.0627725242 0.0240358310
H 1.1395744232 0.2982822235 -1.0623882469
H -1.0956846342 -1.6567857702 -1.0067764160
H -0.1728305601 -0.0385800874 1.4025697717
H -3.7557471877 1.5861093203 0.2481084040
H -5.3142603105 -0.2764119316 -0.0580038092
H -4.7736695269 -1.9060764752 0.4046051942
H -3.8103233012 -0.9479453189 -0.7291222656
H -4.0640806143 0.1576914139 3.4596319333
H -5.4488621823 0.4059078752 2.3673710972
H -4.9607655712 -1.2332901241 2.8234971247
H -3.6705413328 3.3080778343 3.1822834549
