48
CONF14
C -4.8128738920 -3.0393500633 2.9723423912
O -3.5708402577 -2.3361376952 3.1013575061
N -3.5206407343 -1.3485381711 2.1349742989
C -2.4053647362 -0.6972559199 2.1487929085
C -1.3060905590 -0.9283978949 3.1158715963
C -1.5260960603 -0.7785092099 4.4875425785
C -0.5105105993 -1.0280957951 5.3992938809
C 0.7367716817 -1.4567089725 4.9524569810
C 0.9752536523 -1.6204238742 3.5935964017
C -0.0431418468 -1.3405626183 2.6949107396
O 0.1163332581 -1.5624279578 1.3247203893
C 0.9959882767 -0.8107461715 0.6274274578
C 0.8495351895 -0.8074913138 -0.7570081450
C 1.7657535099 -0.0625037997 -1.4878696084
N 2.7469381631 0.6130924763 -0.9060758599
C 2.7839686881 0.5545745867 0.4249945080
N 1.9635478577 -0.1243421022 1.2223226504
O 1.6245917860 -0.0592855207 -2.8391134374
C 2.5235904962 0.6991959560 -3.5795147111
C 3.5071977683 0.0349020924 -4.2966797775
C 4.3696059242 0.7512417304 -5.1181354199
C 4.2443216546 2.1330137077 -5.2184250080
C 3.2561796018 2.8013795796 -4.5039927149
C 2.3918833559 2.0823056483 -3.6870221979
Cl 1.1437128612 2.9118246176 -2.7979497833
F -0.1474582555 -1.4743747264 -1.3585102664
C -2.2693801916 0.3403805463 1.1171085607
N -1.2457058370 1.1247425401 1.2112374748
O -1.0558373513 2.0767229362 0.2058706161
C -1.7991486238 1.8336204917 -0.9980247875
C -3.2319199154 1.5290234317 -0.6420001952
O -3.2519977171 0.3541304257 0.1862092566
H -4.7923674566 -3.8013354876 3.7538803077
H -5.6596769602 -2.3620477998 3.1262175945
H -4.8888167014 -3.5108998553 1.9869800271
H -2.5048463447 -0.4599806576 4.8281196947
H -0.6939039343 -0.8966138565 6.4602604752
H 1.5295924879 -1.6659592037 5.6629068071
H 1.9377317026 -1.9520269489 3.2264244285
H 3.5759760540 1.1206497058 0.9116316633
H 3.5806183928 -1.0423461911 -4.1958775829
H 5.1384165432 0.2287548269 -5.6765633431
H 4.9146249433 2.6991301880 -5.8559664875
H 3.1466330071 3.8772590601 -4.5755449231
H -1.7099438615 2.7481121483 -1.5898338184
H -1.3534579939 0.9937256409 -1.5490369542
H -3.6828736741 2.3660047504 -0.0945506868
H -3.8358734476 1.2925748363 -1.5210301851
