33
CONF22
C -3.0617367400 -0.6903378857 -1.2659986413
C -3.1634409085 0.4028005010 -0.2023482174
C -4.6176030209 0.6187625814 0.2184428835
C -2.3024430411 0.0684015148 1.0342171129
C -0.8351143346 -0.0572463124 0.7255331784
C -0.0638615975 1.0827357842 0.4694260492
C 1.2832091866 0.9799377996 0.1421305727
C 1.9035600290 -0.2711369781 0.0650845493
C 1.1434800620 -1.4099676255 0.3288743064
C -0.2078380288 -1.3027275275 0.6510926038
C 3.3735645456 -0.3830925141 -0.3072172598
C 3.6566460402 0.1118380570 -1.7253107722
C 4.1968974988 0.3751153081 0.7171039587
O 4.7707401794 1.4272065017 0.5263910417
O 4.2062007455 -0.2588297977 1.9096971482
H -2.0307299766 -0.8244693251 -1.6084274006
H -3.6804245257 -0.4451549995 -2.1355273943
H -3.4098991371 -1.6488124266 -0.8610295435
H -2.7809618524 1.3408023081 -0.6296521912
H -5.2388349407 0.8858275870 -0.6428026055
H -4.7016508471 1.4179277109 0.9626099006
H -5.0275489798 -0.2986762264 0.6581774739
H -2.4505675938 0.8573904358 1.7823915980
H -2.6697002369 -0.8690324367 1.4711177810
H -0.5264370079 2.0647331127 0.5314172995
H 1.8588587859 1.8823947139 -0.0475822898
H 1.6111610622 -2.3897675922 0.2798923517
H -0.7854571283 -2.2025858851 0.8463837833
H 3.6585820788 -1.4376244597 -0.2194646885
H 3.3809588589 1.1637143488 -1.8353695895
H 3.0735139295 -0.4767046907 -2.4383806780
H 4.7180639529 0.0073606603 -1.9672919940
H 4.7188123342 0.2792177735 2.5371410492
