41
CONF12
C -7.4001714349 -1.2852488737 1.1813864753
C -5.9205679004 -1.6060795446 1.1616449384
O -5.1345597846 -0.4547914217 1.5899685634
C -4.9001628985 0.4816331175 0.6450716153
O -5.2334517612 0.4069879988 -0.5100139084
C -4.1901055661 1.6809087547 1.2777055369
C -5.2345418114 2.6504444015 1.8128331666
O -3.4315521316 2.3874432178 0.3075009113
C -2.3320780569 1.7728054874 -0.2241856302
C -1.6389936974 2.5145251237 -1.1835023217
C -0.4984040473 1.9949381002 -1.7728450214
C -0.0596145186 0.7327008676 -1.4012253537
C -0.7377454098 -0.0235250628 -0.4632552719
C -1.8808526444 0.5010872911 0.1344228428
O 1.0531346009 0.2291646155 -2.1034663583
C 2.0576864820 -0.2956913429 -1.4208468065
N 2.2629367458 -0.3839797821 -0.1482548731
C 3.5024731495 -1.0232371387 -0.0706518158
C 3.9673499973 -1.2822779719 -1.3649441021
O 3.0220296272 -0.8083052629 -2.2508640987
C 5.1609748244 -1.9015044935 -1.6605708202
C 5.9110723402 -2.2730293661 -0.5440334927
C 5.4897367013 -2.0363127114 0.7667096453
C 4.2732738534 -1.4047807163 1.0197096568
Cl 7.4519534939 -3.0710986122 -0.8048572962
H -7.7115198673 -0.9532937650 2.1757888709
H -7.6372704863 -0.5072999224 0.4517100777
H -7.9725056761 -2.1817555349 0.9234053989
H -5.6652432949 -2.3849320324 1.8836362939
H -5.5861444941 -1.9041169308 0.1639922050
H -3.5438962711 1.3315769352 2.0947847758
H -5.8470783900 2.1579350415 2.5720099684
H -5.8759622063 2.9915434634 0.9961071425
H -4.7378597088 3.5143814215 2.2603475883
H -2.0100830315 3.4964100041 -1.4537776106
H 0.0505305506 2.5556248071 -2.5208758475
H -0.3803084396 -1.0075673483 -0.1872369886
H -2.4021813727 -0.1018020912 0.8681025113
H 5.4973686467 -2.0885259779 -2.6720631220
H 3.9417454182 -1.2161855294 2.0341693171
H 6.1223716522 -2.3497299806 1.5883919723
