37
CONF25
C 5.7551093290 -1.6687345874 2.0464323037
C 4.6452239923 -2.4491518977 1.3762963824
C 5.1413922558 -3.4303349499 0.3312549162
O 3.7977908607 -1.4375377920 0.7120877109
C 2.5295539747 -1.7683335365 0.4642111869
O 1.9930706928 -2.8023058650 0.8156237728
C 1.7836045984 -0.6870653673 -0.2484740551
C 2.2706848481 0.0807505388 -1.3144296939
C 1.4805963186 1.0522811033 -1.9174057592
C 0.2042620530 1.2611128249 -1.4299596186
C -0.3317058058 0.5353847794 -0.3667621419
C 0.4795674703 -0.4501548353 0.1914949585
C -1.6918184055 0.7570441120 0.1280233266
N -2.5340543456 -0.2766801919 0.2723665333
N -3.6605170146 0.2241236419 0.7829280820
C -3.5827017252 1.5696055139 0.9718218578
C -2.3099539912 1.9462182287 0.5618902888
Br -1.4878096441 3.6306539710 0.6899270824
C -4.7132661981 2.3489569670 1.5501304589
F -5.8848437962 2.0679727900 0.9259012831
F -4.5089298266 3.6718489048 1.4483962239
F -4.9028040384 2.0671895269 2.8661943928
C -4.8049340368 -0.6574904653 1.0032235338
F -0.5635426601 2.1746487521 -2.0516071848
Cl 3.8503393917 -0.1925009626 -2.0138719009
H 6.4144271519 -2.3638982657 2.5739115155
H 6.3469443788 -1.1256036097 1.3031532581
H 5.3510015929 -0.9563926675 2.7704907942
H 4.0211574978 -2.9560459659 2.1180819438
H 5.7419804058 -2.9107202326 -0.4217919587
H 4.3080265545 -3.9374638202 -0.1612875926
H 5.7678697400 -4.1860156145 0.8145846784
H 1.8348013292 1.6225201769 -2.7676597284
H 0.0953127123 -1.0445222404 1.0131520000
H -4.4250937374 -1.6785770203 1.0208958587
H -5.5321646576 -0.5447638378 0.1948949997
H -5.2748664511 -0.4244315413 1.9604906261
