47
CONF164
C 4.9179378702 -1.3319530195 -1.5696185962
C 3.6985641820 -0.7360841040 -0.9321169805
C 2.5895519381 -1.5612070461 -0.5811107643
C 2.6279666606 -3.0281974488 -0.8755005498
C 1.4671012856 -1.0157799027 0.0259902751
C 1.3954404156 0.3548335979 0.3004488846
N 0.3069136414 0.9432928551 0.9177360194
C -0.7874505408 0.1171937238 1.4681277095
C -1.9900830876 -0.0275738076 0.5220464236
O -2.9466133569 1.0090923968 0.7124001541
C -2.6880330661 -1.3670617129 0.7917269996
O -1.8042237516 -2.4540231174 0.4883617076
C -4.0209290950 -1.5097443357 0.0363923803
O -4.5941175305 -2.7894111927 0.3246681692
C -3.9122455753 -1.2691883801 -1.4615274775
O -2.9244898253 -2.1665775224 -2.0072204117
C 0.2225176880 2.3059962735 1.0319847566
N -0.9023061824 2.8316653690 1.4847343180
C -0.9866602156 4.1877228155 1.6528227298
O -2.0040743783 4.7443252953 2.0541454905
N 0.1430077992 4.9710631531 1.3514372786
C 1.3445895330 4.5307541094 0.8481361398
O 2.2719658988 5.2866139394 0.5971269954
C 1.3867180555 3.0597799061 0.6458328187
N 2.4629349940 2.5317510896 0.1266980400
C 2.4837897867 1.1923520348 -0.0781585620
C 3.6199260069 0.6150108329 -0.6808795053
H 4.6675396104 -1.8284729268 -2.5136480819
H 5.3683311713 -2.0912427815 -0.9206930859
H 5.6650475025 -0.5622807457 -1.7714922060
H 3.4757574377 -3.5025883501 -0.3680222893
H 2.7665826291 -3.2054119122 -1.9481003197
H 1.7086009128 -3.5208203978 -0.5545273059
H 0.6364746299 -1.6715334072 0.2564520374
H -0.3707043164 -0.8607614688 1.7023618600
H -1.1147015812 0.5820707004 2.4019723324
H -1.6168867644 -0.0334420502 -0.5177095240
H -2.4477759430 1.8065030092 0.9863839569
H -2.9048720355 -1.4441238326 1.8652762459
H -1.7469607462 -2.4929577949 -0.4826164112
H -4.7186997408 -0.7648354805 0.4311940007
H -3.8977270576 -3.4468331872 0.1860030121
H -3.6314525053 -0.2236445507 -1.6455083281
H -4.8922520840 -1.4555082671 -1.9202235125
H -2.8048986791 -1.9586106213 -2.9412047649
H 0.0459221782 5.9683921919 1.5048472095
H 4.4349768402 1.2814564252 -0.9454285862
