27
CONF6
C -2.5671864967 2.0974400949 -1.2635302009
C -1.5825036641 0.9802458579 -1.6206380913
N -1.6274530774 0.1442497066 -0.4113632556
C -2.0473909572 0.8964389766 0.6409029040
N -1.9402188202 0.3731664229 1.8707427764
N -2.4516256022 1.0768690456 2.9117068904
O -3.0668846327 2.1531730265 2.7653085429
O -2.2745793277 0.5711179108 4.0249923722
N -2.4863894055 2.0925894685 0.2035582717
C -0.7496299666 -1.0192452565 -0.2793130079
C 0.7083734950 -0.6328982867 -0.1940280900
C 1.2932766993 -0.3167566079 1.0312260996
N 2.5710001300 0.0698112214 1.1608267205
C 3.2899573506 0.1482784242 0.0606335841
C 2.8348723789 -0.1472571010 -1.2195415274
C 1.5108286033 -0.5472809458 -1.3332877405
Cl 4.9711968623 0.6660256999 0.2562609978
H -3.5865865860 1.8563508149 -1.5899183391
H -2.2734148908 3.0656930077 -1.6721544760
H -1.8833869597 0.4058646854 -2.4996761535
H -0.5675462327 1.3740166349 -1.7732343257
H -3.0878952218 2.6439800201 0.7972588783
H -1.0535478984 -1.5744436130 0.6100606715
H -0.9180888568 -1.6524963875 -1.1558431809
H 0.7133544115 -0.3806066448 1.9492310237
H 3.4860878405 -0.0721877000 -2.0817090335
H 1.1052816808 -0.7996534138 -2.3092455075
