38
CONF19
C 2.8194313466 0.2288108844 -4.0277452134
S 1.3571950493 0.1831344205 -2.9872216400
O 1.3553951027 1.3344902145 -2.0803773249
O 0.1869843646 -0.1071883058 -3.8218109862
N 1.5997070888 -1.2291793400 -2.0291983391
C 2.0719942090 -1.3446102349 -0.7377134970
O 2.4158442311 -2.4279485008 -0.2958906666
C 1.9439419008 -0.1632093531 0.1845558889
C 3.0082148277 0.6563187693 0.5622724774
C 2.8557314657 1.6427838363 1.5363890533
C 1.6268181619 1.8225145505 2.1356878355
C 0.5582258474 1.0033248306 1.7609479294
C 0.7112185909 0.0059108005 0.7989273337
O -0.6221540779 1.2379515683 2.4070355233
C -1.7518798837 0.5456715850 2.0113120311
C -2.4666191788 0.9339569947 0.8739316045
C -3.6361227837 0.2736506868 0.5305956658
C -4.0866545100 -0.7712560096 1.3362240099
C -3.3840905905 -1.1575351786 2.4727582786
C -2.2105252879 -0.4925634265 2.8075932754
C -5.3544699396 -1.4663486359 0.9313715039
F -5.2365706651 -2.0460131160 -0.2918661338
F -5.7154404996 -2.4356167252 1.7970587106
F -6.3955258466 -0.5986708051 0.8437621465
Cl -1.8860394354 2.2490239450 -0.1089976316
N 4.2908605763 0.5141432047 -0.0979300722
O 4.3516909842 -0.2449082030 -1.0712112934
O 5.2490393508 1.1496891420 0.3301503484
H 3.6924438596 0.3605704452 -3.3867611221
H 2.8668955120 -0.7056432699 -4.5911118336
H 2.6837472314 1.0816920750 -4.6986919461
H 1.6147549647 -2.0935653835 -2.5664529633
H 3.6977380550 2.2693086786 1.8021773317
H 1.4750566190 2.5891756811 2.8865645268
H -0.1190977717 -0.6344528863 0.5224114602
H -4.1886068142 0.5767142510 -0.3520474366
H -3.7405999997 -1.9690403327 3.0949889677
H -1.6385328489 -0.7710868522 3.6858474752
