56
CONF3
C -2.7835532877 4.2852609994 0.9355777649
C -3.3942670651 2.9420257155 0.5356145612
C -4.7996426541 2.7935120200 1.1226228015
C -2.4959581672 1.7845843601 1.0100347169
C -1.0573220961 1.8558206855 0.5184403395
C -0.7676298080 1.8217683067 -0.8463019768
C 0.5429361561 1.8487634427 -1.3131650353
C 1.5796160894 1.9112066865 -0.3869704414
C 1.3172820343 1.9453038400 0.9785040105
C 0.0025716140 1.9097749211 1.4242673498
O 2.9397505772 1.9367008398 -0.7053373494
C 3.3698493795 2.0018314231 -1.9970990985
F 2.8623081164 3.0997992715 -2.6463775846
F 2.9665425821 0.9110197552 -2.7284141171
C -2.9879899954 0.4393083586 0.5231139980
O -3.5620252757 0.2171281304 -0.5166980136
O -2.5976162586 -0.5489848206 1.3802095007
C -2.5471229066 -1.8923426770 0.8201108121
C -3.8721231742 -2.3612436777 0.4103503241
N -4.9071005141 -2.7994824831 0.1453276060
C -1.4880728331 -1.9782759089 -0.2593925598
C -0.1695768389 -1.7686504007 0.1475234045
C 0.8431539234 -1.7865281213 -0.8051900165
C 0.5536567610 -2.0032561974 -2.1512083557
C -0.7642965771 -2.2079386388 -2.5397131899
C -1.7922440843 -2.1995064749 -1.5997764694
O 2.1610389661 -1.5311172245 -0.4945658098
C 2.6633115073 -1.9029168676 0.7429579190
C 2.3839951177 -3.1455484485 1.3076984764
C 2.9833825961 -3.4856566204 2.5168997863
C 3.8576063348 -2.6026527589 3.1490449714
C 4.1364717635 -1.3707210149 2.5614070370
C 3.5383753710 -1.0127113074 1.3560758134
H -3.4326609767 5.1054380221 0.6140188088
H -2.6741163272 4.3483433018 2.0250731498
H -1.7973246130 4.4330605382 0.4858349490
H -3.4603643747 2.8919639951 -0.5584420678
H -5.2631173884 1.8449294276 0.8351482981
H -5.4461875419 3.6043860059 0.7735518676
H -4.7603696634 2.8400838984 2.2173672062
H -2.4789741503 1.7684398783 2.1057515698
H -1.5741109707 1.7610549171 -1.5705669272
H 0.7288923695 1.8126122216 -2.3779209361
H 2.1439487397 1.9957914933 1.6788944318
H -0.1986902728 1.9282586012 2.4911979895
H 4.4608811425 2.0516745537 -1.9961204501
H -2.2518918859 -2.5047248426 1.6787484685
H 0.0600634615 -1.5819501061 1.1914230215
H 1.3625271064 -2.0081471030 -2.8740849626
H -0.9932263173 -2.3763016683 -3.5868465564
H -2.8196945360 -2.3520819142 -1.9112488220
H 1.7122852026 -3.8351084310 0.8072798391
H 2.7707177695 -4.4531983520 2.9607935843
H 4.3224419159 -2.8765303080 4.0903584956
H 4.8207079719 -0.6789836480 3.0427967182
H 3.7449659514 -0.0591745833 0.8823668660
