22
CONF378
C 1.9272600133 -0.4413428645 -0.8605315206
C 1.2905722815 -0.4775578996 0.5261348670
C 0.0000149690 0.3395551290 0.6336471108
C -1.0674212562 -0.0668407568 -0.3902187797
C -2.3914286314 0.6391552633 -0.1296880738
O -3.3640557607 0.3097795388 -1.1230491796
O -1.2661220167 -1.4894016579 -0.4060499609
O 0.3549881281 1.7212071736 0.4413891193
O 2.2363265883 -0.0017988017 1.4972836542
O 3.1727899016 -1.1466151465 -0.8598237271
H 2.0714159640 0.6018689986 -1.1805650542
H 1.2833439825 -0.9441473271 -1.5882360794
H 1.0798101008 -1.5171554483 0.7958378515
H -0.3975009533 0.1950317053 1.6498193987
H -0.7194476611 0.1919417763 -1.3974282751
H -2.7501023939 0.3686227639 0.8780853180
H -2.2556504238 1.7240255076 -0.1685970216
H -3.3972191471 -0.6560248311 -1.1658244481
H -1.5646620164 -1.7592118066 0.4747033998
H -0.1535415091 2.2578211153 1.0601457928
H 2.2452748350 0.9641499562 1.4091148254
H 3.6653552066 -0.8130623878 -0.0961491220
