52
CONF7
C -3.7351602581 1.5379672533 3.2030222244
O -3.8446921995 1.6779401036 1.7862334516
C -2.7606070262 1.3275874539 1.0445446618
C -1.5482519296 0.8912489870 1.5814302474
C -0.5030343301 0.5273143297 0.7336217156
C -0.6574953877 0.6187730732 -0.6493804607
C -1.8655565831 1.0719439737 -1.1863985188
C -2.9229897253 1.4364071282 -0.3444552958
O -4.0812675156 1.9405966940 -0.8713074588
C -5.0899131452 0.9423280564 -1.0796953377
O -2.1131807379 1.1980954808 -2.5211968651
C -1.0498506266 0.8867465388 -3.4127231287
C 0.7907712250 0.0041012280 1.3510854734
C 0.6949410353 -1.4589302568 1.7938003766
C 0.5860242709 -2.3823754400 0.5953168115
C 0.0635520438 -3.6616389680 1.2350660363
O -0.7641440610 -3.2030772392 2.3432741468
C -0.4226198402 -1.9299427671 2.7052375509
O -0.9303094056 -1.3745083982 3.6422448577
C 1.9178046235 -2.4244837373 -0.1235986005
C 2.4639571706 -1.0097117087 -0.3123371235
C 3.5324194855 -0.8633062474 -1.2241158469
C 4.0590471130 0.3908533798 -1.3937244835
C 3.5665435251 1.4919244535 -0.7008401673
C 2.5276918726 1.3781279045 0.1874139446
C 1.9702626983 0.0999501974 0.3925854915
O 4.2390514345 2.6233267352 -1.0870192385
C 5.3450474847 2.1485941666 -1.8741300408
O 5.0627370958 0.7884318643 -2.2428261864
O 1.8506788034 -3.1521806204 -1.3543088382
H -4.7098617956 1.8218844001 3.6017401275
H -3.5045175044 0.5034220085 3.4861173150
H -2.9665097563 2.2077896269 3.6087906769
H -1.4130079153 0.8038766635 2.6508581094
H 0.1735548446 0.3634053724 -1.2940089830
H -5.3515766245 0.4504680630 -0.1348259582
H -4.7491125653 0.1950654897 -1.8078640401
H -5.9636707130 1.4650480962 -1.4741842010
H -1.4375102226 1.0762555914 -4.4146767695
H -0.7533439414 -0.1684428515 -3.3321588465
H -0.1747152966 1.5247107047 -3.2324458372
H 1.0085190300 0.6192531875 2.2328005201
H 1.6224838191 -1.6995923451 2.3435200415
H -0.1785172861 -1.9778415293 -0.0836745982
H 0.8754149603 -4.2786155425 1.6425420725
H -0.5668836472 -4.2708982552 0.5861636946
H 2.6324946319 -2.9983601792 0.4857765856
H 3.9103117723 -1.7200156481 -1.7698698323
H 2.1298300985 2.2434084891 0.7066182848
H 5.4352702912 2.7586053599 -2.7768462089
H 6.2618155954 2.1775040984 -1.2655880427
H 1.3380755114 -2.6190352079 -1.9756039167
