21
CONF1
C -1.9077466140 0.0236228976 -0.5989563387
C -1.1545640248 0.4919509175 0.6416497278
C 0.1304930144 1.2561038403 0.3238381394
C 1.0901331108 0.4325020805 -0.5731996347
C 1.1063254824 -1.0511340284 -0.1493071169
C -0.3318499090 -1.5082589568 0.1339987943
O -1.1847662582 -1.1706065292 -0.9840152938
O -0.8259152797 -0.7794127310 1.2392204175
O 1.9062134291 -1.2764218949 1.0003087697
O 0.7730632392 0.5893911762 -1.9543035628
O 0.7265034106 1.5329838687 1.5964675149
H -2.9419240167 -0.2412634031 -0.3518593226
H -1.8891444540 0.7392790228 -1.4258281299
H -1.7673223177 1.0467281874 1.3560030006
H -0.1252638912 2.1858590507 -0.2088591880
H 2.1062968305 0.8280180258 -0.4416951583
H 1.5418699893 -1.6426112668 -0.9629656400
H -0.4034258425 -2.5774579958 0.3563500074
H 1.4825090038 -0.7951583902 1.7270322543
H 0.1144114276 -0.0874302575 -2.1663708421
H 1.5541035802 2.0033163916 1.4424910990
