63
CONF20
C -12.2737276100 0.9050825507 0.5838238968
C -10.9917182368 0.6074994457 -0.1907821248
C -9.7390338864 0.7037747084 0.6793648306
C -8.4489714244 0.4128867102 -0.0852738880
C -7.1963525655 0.5103060649 0.7841626254
C -5.9066444571 0.2281860847 0.0153739610
C -4.6521774563 0.3295415489 0.8815959429
C -3.3631363658 0.0584263887 0.1077484322
C -2.1066498859 0.1628731031 0.9706612787
C -0.8182782090 -0.0952754478 0.1912694431
C 0.4398851002 0.0092168355 1.0517133614
C 1.7277920263 -0.2341625559 0.2667988042
C 2.9871380121 -0.1323274262 1.1257533299
C 4.2747492283 -0.3653456917 0.3368122300
C 5.5316021845 -0.2479271201 1.1998298717
C 6.8311132305 -0.5825518670 0.4621798627
C 7.1425809920 0.3597285999 -0.7036058373
C 8.5459210493 0.1826710456 -1.2880391978
C 8.7919089124 -1.1971538393 -1.8982733067
C 10.1299869115 -1.2990579592 -2.6217131126
O 10.2486498334 -0.3847059775 -3.7170030726
H -12.2526368187 1.9170564764 1.0025659655
H -13.1582899857 0.8259261929 -0.0554596813
H -12.3990297140 0.2051183014 1.4171082929
H -10.8988261178 1.3043453124 -1.0341586715
H -11.0498562640 -0.3975135806 -0.6290780290
H -9.8294398631 0.0043975794 1.5225128526
H -9.6816760320 1.7084666236 1.1215088200
H -8.3602181783 1.1127200174 -0.9280682853
H -8.5069351808 -0.5916413248 -0.5274309950
H -7.2815030811 -0.1932112228 1.6242210685
H -7.1411727851 1.5132596930 1.2302089050
H -5.9606255753 -0.7752062497 -0.4298682979
H -5.8237957841 0.9310513214 -0.8255129509
H -4.6017002073 1.3310460240 1.3314783864
H -4.7306659517 -0.3777924318 1.7191045709
H -3.2868812791 0.7657601769 -0.7300199157
H -3.4127297598 -0.9431095629 -0.3421664202
H -2.0612235857 1.1620159856 1.4262870804
H -2.1779531708 -0.5499050102 1.8041814978
H -0.8636630689 -1.0936102410 -0.2661669535
H -0.7481329730 0.6189203173 -0.6411935130
H 0.4806352847 1.0045242284 1.5161086711
H 0.3750747794 -0.7113761849 1.8790060229
H 1.6865542668 -1.2279666137 -0.2008875839
H 1.7923380605 0.4890182853 -0.5583031873
H 3.0259654130 0.8597055141 1.5974334115
H 2.9260254514 -0.8590767041 1.9479534030
H 4.2444811201 -1.3628067402 -0.1253125759
H 4.3209414934 0.3551906000 -0.4898885039
H 5.5971389848 0.7715397618 1.6055447226
H 5.4293022958 -0.9164413180 2.0650782118
H 6.7782753295 -1.6184722446 0.1015538621
H 7.6662176061 -0.5471316663 1.1755497653
H 7.0285626298 1.3967647405 -0.3592056990
H 6.4045422340 0.2194765058 -1.5043047256
H 8.7175425958 0.9405807293 -2.0606581933
H 7.9805011065 -1.4424935615 -2.6011963281
H 8.7676409778 -1.9724618784 -1.1212785182
H 10.3008153408 -2.3328508872 -2.9607504356
H 10.9461593591 -1.0367163029 -1.9389726983
H 9.5637216734 -0.6058097644 -4.3577390969
H 9.2945502143 0.3645369943 -0.5039662172
