47
CONF10
C -7.8737124705 -0.1440126469 -0.2169758147
O -6.8420009072 0.5908723722 -0.9332078309
P -5.4922212437 -0.1457443537 -1.3697350828
S -5.6507119497 -1.9018896166 -2.1827828870
O -4.7649626769 0.9986842630 -2.2152913422
C -5.1002927765 1.1940146678 -3.6187080378
O -4.6524021385 -0.0772308901 0.0169217128
C -3.4907945101 -0.8314993551 0.2076676750
C -2.3096160691 -0.4660356145 -0.4286813744
C -1.1579488845 -1.2037344205 -0.1881833926
C -1.1881298330 -2.2771786484 0.7068283713
C -2.3806438730 -2.6219494810 1.3458437177
C -3.5436588854 -1.9036795311 1.0849382993
S 0.2564789566 -3.2905942248 0.9998773306
C 1.5552820173 -2.0760045788 1.1942365383
C 2.8074436187 -2.3578463498 0.6443199188
C 3.8679278460 -1.4761767391 0.8319958713
C 3.6512842299 -0.3078091523 1.5481902662
C 2.4108620961 -0.0090193358 2.0976373343
C 1.3629648678 -0.9047818339 1.9327695496
O 4.7036250779 0.5836933265 1.7791646378
P 5.2909893601 1.5269479173 0.5971573292
S 3.9825894793 2.2573356348 -0.6381046523
O 6.4256592504 0.5759226234 -0.0046386538
C 7.1466124651 0.9714219253 -1.2060881104
O 6.1621311877 2.5620303394 1.4483289178
C 5.5210490243 3.7004525552 2.0888648495
H -8.2227285380 -0.9840518945 -0.8225967229
H -8.6810993020 0.5692153873 -0.0541761619
H -7.4847284858 -0.4993284307 0.7412753699
H -6.1496285561 1.4842190231 -3.7172315509
H -4.4525754009 1.9994194241 -3.9632453859
H -4.9017262974 0.2781920152 -4.1807906115
H -2.2964392027 0.3768885479 -1.1109205678
H -0.2348097960 -0.9369585273 -0.6918124491
H -2.4038696509 -3.4486979893 2.0480540873
H -4.4799834053 -2.1602340227 1.5684404428
H 2.9579118787 -3.2635926033 0.0660800073
H 4.8456730585 -1.6873593938 0.4131202572
H 2.2768088853 0.9108584282 2.6565762659
H 0.3952377361 -0.6863429380 2.3716670319
H 6.4450663425 1.1203901992 -2.0306395539
H 7.7164524140 1.8851620872 -1.0179288372
H 7.8216251984 0.1450398292 -1.4261387610
H 5.0355707442 4.3276174255 1.3370473341
H 4.7919188633 3.3545860241 2.8267252077
H 6.3235191541 4.2487887731 2.5811954800
