27
CONF9
C -3.8245639186 0.7476959459 -0.5954499980
C -4.2573963054 -0.4936293041 -1.3777911656
O -4.6529653626 -1.5893846680 -0.5533165326
C -2.6600759155 0.5919189481 0.3573657804
C -1.3553944088 0.0127533548 -0.2744360790
C -0.0477351635 0.2653784096 0.5524836318
C 1.1398702306 -0.6755227670 0.1406254131
C 2.5383492204 -0.1482646779 0.6127822178
C 3.6617242587 -1.2375332226 0.6117998756
F 3.4800788263 -2.1155748464 1.6035363912
F 4.8463222602 -0.6360854087 0.7859655106
F 3.6760991563 -1.8923273722 -0.5579042310
F 2.4387141505 0.3340954925 1.8734545998
F 2.9328522892 0.8461549269 -0.2107975024
F 0.9347665966 -1.8980951777 0.6831255795
F 1.1681238594 -0.7931250829 -1.2068066254
F 0.3439474289 1.5488318575 0.3691981649
F -0.3046532195 0.0669057487 1.8653325090
F -1.5058181173 -1.3288916519 -0.4308112784
F -1.1883305342 0.5743420589 -1.4988328777
F -2.9861177833 -0.1959674960 1.4254929754
F -2.3365540579 1.8311686918 0.8686613502
H -3.5658788557 1.5388631763 -1.3062433090
H -4.6554138139 1.1157119335 0.0185991266
H -5.0753270462 -0.1863510792 -2.0430875626
H -3.4458270793 -0.8646731097 -2.0089564411
H -5.4305328751 -1.3164893829 -0.0496471652
