42
CONF145
C -2.2084865711 -1.3645439013 -0.6985838029
C -2.9917257641 -0.3187805882 0.1096837875
C -2.1823332502 0.9219287301 0.5013821055
C -1.5402418246 1.6420592390 -0.6822640396
C -0.7514946476 2.8812217660 -0.2582233124
C 0.1332041605 3.4248447311 -1.3894717763
C 1.0914575740 2.3802585832 -1.9024402664
O 1.2161412791 2.0392003343 -3.0618645531
O 1.8066162860 1.8366529577 -0.8944382081
C 2.6762870243 0.7323305558 -1.2476817058
C 3.4050438641 0.3201687109 0.0040235185
O 2.4918529924 -0.1520170612 1.0286047707
C 2.1390819272 -1.4595455371 0.9771397991
O 2.5166321117 -2.2193276524 0.1091753673
C 1.2971372303 -1.8383779393 2.1678963432
C 0.2842842257 -2.9574287618 1.9032195997
C -1.0313867277 -2.4562697342 1.3010656922
C -0.8804658054 -1.8043624520 -0.0728473738
H -2.0090410615 -0.9725642200 -1.7035907515
H -2.8459367734 -2.2478859984 -0.8374457490
H -3.3916782802 -0.7803298220 1.0210665252
H -3.8630360232 -0.0067791420 -0.4813177072
H -2.8373063149 1.6206922031 1.0388086918
H -1.3913451703 0.6409982186 1.2106577428
H -2.3086740272 1.9216556231 -1.4161664180
H -0.8645321545 0.9471863489 -1.1986795979
H -1.4370360126 3.6731344528 0.0644830636
H -0.1197627559 2.6351838303 0.6025748491
H -0.4687128785 3.7568595999 -2.2393966074
H 0.7195965355 4.2807177060 -1.0333516077
H 2.0716446709 -0.0842886616 -1.6543707404
H 3.3995330109 1.0536040792 -2.0047643029
H 3.9134563228 1.1750645527 0.4549631023
H 4.1313971166 -0.4603572209 -0.2378965672
H 2.0223818991 -2.1626506927 2.9272906255
H 0.8082349592 -0.9441507329 2.5678154461
H 0.7407235804 -3.7075228145 1.2467135598
H 0.0705226576 -3.4556260062 2.8547708005
H -1.7284671312 -3.3010706294 1.2193175124
H -1.4871972148 -1.7441257652 2.0015649527
H -0.3837852707 -2.5107445684 -0.7506844874
H -0.2125833719 -0.9350120193 0.0013134384
