49
CONF8
C -4.2217089122 -0.4466291684 -0.3549220512
C -3.1255903097 -1.2922057734 0.2610058239
C -1.9190905220 -0.6308782332 0.9401602334
C -1.7829641106 -1.3991131189 -0.4023919368
C -0.9834677421 -2.6845953624 -0.3318236665
C -1.4900863031 -0.6292439722 -1.6724010989
C -1.6881545409 0.8099978899 0.9919997155
O -2.1428209134 1.6919446432 0.2948185252
O -0.7739021246 1.0862679525 1.9961610558
C -0.3186173264 2.4485644060 2.0163846632
C 0.3443842291 2.6247422431 3.3101623406
N 0.8887283319 2.7999172317 4.3134202294
C 0.6459369839 2.7617382745 0.8809315659
C 1.3471365673 1.7286414496 0.2660510055
C 2.2234108613 2.0376592521 -0.7718595166
C 2.4092466129 3.3568402864 -1.1840173908
C 1.7014675865 4.3724905550 -0.5538326633
C 0.8149245835 4.0843482719 0.4810015580
O 2.9057986072 1.0793551902 -1.4864329162
C 3.0811097657 -0.1867741506 -0.9405101212
C 3.7120134113 -0.3573544941 0.2888200630
C 3.9308154293 -1.6487367061 0.7586099394
C 3.5350054159 -2.7526362768 0.0038296433
C 2.9176451168 -2.5618667501 -1.2296144168
C 2.6823750049 -1.2743655070 -1.7075059993
C -3.6999129084 -2.4878302274 0.9986868917
H -4.9118138060 -0.1089435570 0.4258133480
H -4.7912067820 -1.0631483504 -1.0599461640
H -3.8533953694 0.4321010087 -0.8784385908
H -1.5127955355 -1.1626505101 1.7942638455
H -1.2896246112 -3.3574480054 -1.1417827100
H 0.0811520671 -2.4631529403 -0.4657105887
H -1.1003311211 -3.2120618064 0.6153321835
H -1.8278159768 -1.2155143140 -2.5347183316
H -0.4086807177 -0.4802551638 -1.7723689860
H -1.9691762050 0.3473994779 -1.7104312861
H -1.1724076428 3.1365967884 1.9717944657
H 1.1991521464 0.7008258632 0.5762065239
H 3.0953717087 3.5677183293 -1.9972995013
H 1.8384286918 5.3990975275 -0.8776222411
H 0.2558189838 4.8784427624 0.9660143950
H 4.0248478517 0.5079342150 0.8643781463
H 4.4218419787 -1.7909541569 1.7161203477
H 3.7118387342 -3.7566909346 0.3751189736
H 2.6092911633 -3.4164710887 -1.8236621613
H 2.1984627470 -1.1053616905 -2.6637038785
H -4.1789775074 -3.1705853050 0.2874694245
H -2.9497273240 -3.0470639335 1.5591551728
H -4.4639352678 -2.1500911056 1.7069556260
