45
CONF183
C -3.9166270297 3.9582464673 2.2555445058
O -4.3747314851 2.8600650629 1.4406923454
N -3.3380475044 2.4126213502 0.6500736557
C -3.6727939270 1.4124015615 -0.1052209322
C -4.9526636617 0.7597377855 -0.1751515114
C -6.2088997261 1.0204301125 0.3242120186
C -7.0392322836 -0.0608562876 -0.0715207636
C -6.2475532206 -0.9191934951 -0.7745626911
O -4.9796983764 -0.4429382315 -0.8516730989
C -2.5708380922 0.9680213738 -1.0381056423
O -2.7869614262 0.7449153374 -2.2252042647
N -1.3466360165 0.8710132131 -0.4555405999
C -0.1704758747 0.5701291717 -1.2052679361
C 0.6673860038 -0.6851884021 -0.8181010649
N 1.8007748475 0.2082684089 -0.5696307644
C 1.1163667587 1.3733344516 -0.8920087631
O 1.4463860028 2.5334785285 -0.9301379743
C 3.1498969730 -0.1430752930 -0.5498571078
C 3.5455626312 -1.3872310933 -0.8959994738
C 2.5855919947 -2.4615368287 -1.3390439314
S 1.0567382357 -1.8549213773 -2.1664323972
C 4.9662600091 -1.8628204146 -0.7894812571
O 5.0308655307 -3.0301428902 0.0759626611
C 5.0080405429 -2.7512305891 1.4141306027
O 5.0261898335 -1.6174994260 1.8721218459
N 4.9424005799 -3.8904467325 2.1352553230
C 4.0289069613 0.9256359785 0.0181359831
O 3.7281893812 1.5612633358 1.0054933246
O 5.1568063900 1.1074276426 -0.6844738665
H -4.7834697907 4.2530743251 2.8486461625
H -3.1023589361 3.6329487532 2.9099531089
H -3.5897354057 4.7893447942 1.6235864106
H -6.4989744716 1.8848918196 0.8969318816
H -8.0905657238 -0.1864922106 0.1403492904
H -6.4246817846 -1.8661714020 -1.2614251771
H -1.2679589705 1.0595839516 0.5343613218
H -0.4033456976 0.6057191657 -2.2745215824
H 0.3350604133 -1.2124400088 0.0812476467
H 3.0828914522 -3.1096639466 -2.0678184705
H 2.3011360068 -3.0932821447 -0.4887279508
H 5.3086232215 -2.2333369953 -1.7597240353
H 5.6505889800 -1.1007990816 -0.4258395497
H 5.0757374604 -3.8284623223 3.1309207086
H 5.0598593935 -4.7847888862 1.6868703447
H 5.6959890922 1.7789338765 -0.2290185310
