41
CONF124
C -4.0977690959 1.8609142060 1.9256691453
C -4.3748977347 0.5080675782 1.2718260405
N -3.7112026756 0.3443604739 -0.0301274320
C -4.5823031242 0.4045332083 -1.2039672606
C -5.0604183484 1.8059369043 -1.5483766608
O -3.9215566472 2.6083527898 -1.8699009352
C -2.3633201737 0.1940372255 -0.1218661369
C -1.6744627798 0.2592069807 -1.3645621574
C -0.3163678087 0.0620254474 -1.4259988034
C 0.4481473132 -0.1983271277 -0.2699353940
C -0.2241476619 -0.2478262882 0.9733509552
C -1.5790545232 -0.0524347979 1.0474528866
N 1.7993570115 -0.3768878765 -0.4615565797
N 2.4938712576 -0.5972991145 0.5885704384
C 3.8598707523 -0.7748187805 0.3467678482
C 4.4778254718 -0.7129382286 -0.9199975254
C 5.8392336428 -0.9037512025 -1.0366886919
C 6.5961208354 -1.1578921658 0.1114806790
C 6.0096723983 -1.2234619882 1.3756901623
C 4.6458557841 -1.0314714925 1.4850582774
N 8.0302956438 -1.3584608421 -0.0151980082
O 8.5316498546 -1.3039027916 -1.1409057038
O 8.6831769116 -1.5745631337 1.0087094568
H -4.4505571166 2.6790855279 1.2922165841
H -3.0302940764 2.0081549712 2.1094726389
H -4.6207870947 1.9149819458 2.8852334394
H -5.4479804115 0.3983543291 1.0951528924
H -4.0861667214 -0.3120861664 1.9396642285
H -5.4653635544 -0.2139759912 -1.0018307140
H -4.0751690669 -0.0380832293 -2.0628308862
H -5.7469694021 1.7259739667 -2.4044098502
H -5.6186172721 2.2359657543 -0.7045336345
H -4.2255248817 3.5125355306 -2.0133964926
H -2.2065360791 0.4981241323 -2.2744287290
H 0.1977251412 0.1224168060 -2.3806162002
H 0.3391356159 -0.4491727506 1.8771250266
H -2.0539625306 -0.1075713559 2.0180862604
H 3.8784277989 -0.5139760393 -1.7995348812
H 6.3254845001 -0.8582796900 -2.0032531392
H 6.6181731563 -1.4221297934 2.2486345048
H 4.1594066919 -1.0765584222 2.4537538541
