39
CONF493
C 8.6609699944 1.6470189625 -0.0643254464
C 7.4367919101 1.1068247001 0.6723074099
C 6.1262522938 1.5453980172 0.0187632573
C 4.8695432740 1.1490411522 0.7995606965
C 4.7027098479 -0.3559564525 1.0644643925
C 4.6970229817 -1.1795148268 -0.2312107924
C 4.4765120903 -2.6780026916 -0.0320074452
C 3.4735311678 -0.6115984030 1.9294758673
O 2.2552017886 -0.3400522934 1.1757782056
C 1.5684371217 0.7783138419 1.4882940680
O 1.8420623917 1.5466072863 2.3768634084
C 0.4386356537 0.9682201505 0.5214642504
C 0.7144990082 0.7668449150 -0.8275043254
C -0.2368240570 1.0368902066 -1.7969129521
C -1.5054344169 1.4976651982 -1.4333765728
C -1.8045227145 1.6724957111 -0.0700986530
C -0.8313773517 1.4128429105 0.9057284365
Br -1.2521937135 1.5806965769 2.7449313942
Br -3.5300681369 2.2574898545 0.4415824113
Br -2.7926831961 1.8711602156 -2.7641520109
Br 0.2589128688 0.7560053056 -3.6080750638
H 9.5917405562 1.3195249156 0.4082624300
H 8.6738660168 1.3034016063 -1.1043855711
H 8.6579253951 2.7421121744 -0.0777143218
H 7.4912265421 0.0111412560 0.7059091334
H 7.4509945733 1.4475141374 1.7164860987
H 6.1317084860 2.6384484732 -0.0826827030
H 6.0806280968 1.1528753910 -1.0053539717
H 3.9880026349 1.5130188844 0.2540950056
H 4.8667649818 1.6741476362 1.7634059702
H 5.5475749275 -0.6987191617 1.6822398556
H 5.6545109971 -1.0262691881 -0.7410155600
H 3.9283669937 -0.7796044445 -0.9055676659
H 3.4620859446 -2.8985413719 0.3132120843
H 4.6248736405 -3.2187370728 -0.9710138239
H 5.1807943806 -3.0866325061 0.7017402289
H 3.4829570232 0.0142319582 2.8255753186
H 3.3961881535 -1.6621062041 2.2192603870
H 1.6924600036 0.4075971989 -1.1194844559
