111
CONF30
C 2.9906133801 -1.1531341205 1.4733648467
N 2.0462986466 -2.0595283181 2.1428455488
C 2.5003718464 -3.3044002361 2.7315907081
C 0.8279191555 -1.9720517566 1.4889836402
C -0.2529145939 -2.8484703949 1.5482484595
C -1.4148103381 -2.4970621394 0.8487794324
O -2.5256546939 -3.2938399349 0.8307029203
C -2.4905983947 -4.5324181562 1.5459332797
C -1.5121987719 -1.3053348336 0.1030369764
C -0.3868683390 -0.4728865171 0.0500110765
C 0.7679713440 -0.8006700155 0.7279825295
C 2.0450811641 -0.0272307763 0.9570081534
C 1.8374637384 1.0454867465 2.0917346892
C 2.1657798271 2.3798143970 1.4235937197
N 3.1531533836 1.9985390661 0.4161477182
C 3.4554487071 3.0506993221 -0.5417234570
C 4.2582643836 2.5025277340 -1.6813051583
C 4.2964578934 1.2030247607 -1.9653825911
C 3.4776350648 0.1537216257 -1.2496361467
C 2.6341310071 -0.6011224754 -2.3237571669
C 1.8971887557 0.2956676705 -3.3173120588
C 4.4677606531 -0.8330966988 -0.5855458898
O 5.4130642504 -0.0570279013 0.1911081634
C 6.7270945021 -0.3551993024 0.0878838512
C 7.5439346227 0.5787503287 0.9263652613
O 7.1676822012 -1.2500005634 -0.6055371083
C 3.8081526864 -1.8756590025 0.3662136301
O 2.9625379366 -2.7250762476 -0.3805430262
C 4.9351576596 -2.7615621887 0.9365107130
O 5.1993590075 -3.8431235518 0.4461880483
O 5.5835145401 -2.2238883421 1.9677521710
C 6.6896782790 -3.0089085199 2.4935816984
C 2.5468525768 0.8241712896 -0.2278623886
C -2.8466819358 -0.9368960948 -0.5526727957
C -3.9281863428 -0.6459052334 0.5171026045
C -3.5533021846 0.3423429395 1.6534523638
C -2.7987076255 1.6216056109 1.2645630873
N -3.6315456842 2.6376603927 0.6169920124
C -4.6639761426 3.0775979504 1.5640046957
C -5.3443125964 1.9594567603 2.3294878748
C -6.6178783547 2.3184395558 3.0454177058
C -6.4329055225 3.4171956578 4.1020130807
C -4.8188719788 0.7286173310 2.3729765382
C -4.2555222988 2.1556818506 -0.6400378686
C -3.2927567474 1.4865032999 -1.5719912080
C -2.7191595912 0.2216276444 -1.5294859155
N -1.9030972188 0.0657702273 -2.6367882497
C -1.9211044603 1.2006890093 -3.4030692214
C -1.2794358212 1.4921249290 -4.6069266703
C -1.4909512687 2.7508993266 -5.1531135819
C -2.3239731754 3.6917082615 -4.5178118127
C -2.9702135473 3.3912886306 -3.3273012386
C -2.7778071133 2.1260838112 -2.7514318881
C -3.2725878005 -2.1225600931 -1.4563649153
O -2.4998099391 -2.7376936718 -2.1645841642
O -4.5921538167 -2.3408495178 -1.4397202965
C -5.0603475985 -3.3988972501 -2.3141532909
H 3.7091831289 -0.7471430456 2.1889018141
H 3.4057474145 -3.1195808308 3.3164305707
H 2.7087568281 -4.0818573424 1.9794560060
H 1.7364107063 -3.6852346160 3.4165330282
H -0.1932240432 -3.7732660253 2.1062802227
H -3.4677109524 -4.9904123312 1.3879797969
H -1.7069736701 -5.1915767545 1.1544871104
H -2.3321620549 -4.3640581379 2.6175935615
H -0.4295122908 0.4424622268 -0.5319581139
H 2.5250280589 0.8545209704 2.9204050551
H 0.8171565960 1.0175440770 2.4807463480
H 2.5735258739 3.1235308401 2.1169778838
H 1.2594198846 2.8110977982 0.9509659589
H 4.0164770904 3.8483256880 -0.0368789825
H 2.5284370130 3.5237602598 -0.9359086414
H 4.8198785954 3.2129954360 -2.2830287916
H 4.9056097925 0.8405254600 -2.7933165851
H 1.9133043688 -1.2417999283 -1.8140898552
H 3.3094652117 -1.2675497050 -2.8743632340
H 2.5830065463 0.8954486255 -3.9220494986
H 1.3073821386 -0.3295176273 -3.9948105832
H 1.2017849936 0.9803041914 -2.8211596678
H 5.0099363696 -1.3798682554 -1.3646360993
H 8.5670844068 0.2119234957 0.9998152780
H 7.5438029831 1.5670220761 0.4538694547
H 7.0995253049 0.6872260380 1.9185718055
H 3.5115221101 -3.4715595941 -0.6741627475
H 7.4345107782 -3.1667331438 1.7105611401
H 6.3191921996 -3.9685807067 2.8604920842
H 7.0992033813 -2.4130172618 3.3075291909
H 1.6446309533 1.1542979866 -0.7809375477
H -4.8335432131 -0.3130081927 0.0104237029
H -4.1830313212 -1.5946599904 0.9938054834
H -2.9038903550 -0.2096359758 2.3489226387
H -1.9432251173 1.4004532230 0.6274677896
H -2.4017047814 2.0710010111 2.1847235046
H -4.2031803386 3.7746750723 2.2813228260
H -5.4207537853 3.6605126022 1.0197590940
H -7.3577875439 2.6610372724 2.3075186761
H -7.0293203388 1.4194366176 3.5186854291
H -7.3742198553 3.6082657121 4.6262132892
H -5.6831998937 3.1182557921 4.8421865400
H -6.1062203192 4.3587617330 3.6504033851
H -5.3465796474 -0.0575724196 2.9147367896
H -4.6587025327 3.0373218621 -1.1527534493
H -5.1216354560 1.5075769093 -0.4367832630
H -1.3945376265 -0.7808305349 -2.8438757782
H -0.6403271913 0.7645289930 -5.0958400427
H -1.0060416630 3.0138659910 -6.0880980942
H -2.4637350660 4.6676697411 -4.9723137323
H -3.6136572508 4.1261905468 -2.8524044771
H -4.5988074514 -4.3480327397 -2.0316060641
H -6.1389908648 -3.4355830727 -2.1678690076
H -4.8175433947 -3.1626629649 -3.3527214881
