41
CONF91
C -3.9754984763 0.6265528479 3.2599703978
C -4.1895605791 0.7684916491 1.7536608487
N -3.5272226048 -0.2809520138 0.9797989057
C -4.3195996215 -1.4726820174 0.7100928843
C -5.0178320002 -1.4084303237 -0.6543217588
O -5.8665174220 -2.5337825143 -0.8567796748
C -2.2186053001 -0.1797309290 0.5880818479
C -1.6108899643 -1.1684451806 -0.2238234628
C -0.2943490344 -1.0495792738 -0.6138503255
C 0.4881080532 0.0480844104 -0.2261699746
C -0.1044941398 1.0359226580 0.5835461332
C -1.4157144243 0.9261149099 0.9812031616
N 1.7990218644 0.0595541265 -0.6847874198
N 2.4923193282 1.0595065121 -0.3312635207
C 3.8142737451 1.0419734398 -0.8110437875
C 4.6024929958 2.1405741660 -0.4386904512
C 5.9202557909 2.2359967550 -0.8511207369
C 6.4451704368 1.2189285356 -1.6417550193
C 5.6833472670 0.1151589876 -2.0258261284
C 4.3687623990 0.0265001712 -1.6110515387
N 7.8434386250 1.3100367940 -2.0854298668
O 8.4898566840 2.2927197002 -1.7351010399
O 8.2815094057 0.3977127878 -2.7800911063
H -4.4958737983 1.4269129899 3.7949201348
H -2.9130862214 0.6735353953 3.5140501133
H -4.3655379989 -0.3309844893 3.6181414845
H -3.8536713086 1.7484478837 1.4000652802
H -5.2599909536 0.7161857877 1.5244216520
H -5.0852190955 -1.5693835002 1.4879989601
H -3.6940192632 -2.3710478016 0.7797317366
H -5.6660418717 -0.5263745851 -0.6895805500
H -4.2756187171 -1.3018512513 -1.4588765029
H -5.3169397930 -3.3050614002 -1.0326615955
H -2.1775974897 -2.0233626485 -0.5687813495
H 0.1628043107 -1.8076072070 -1.2418287698
H 0.4922533020 1.8840270122 0.8983726862
H -1.8259419667 1.6971419513 1.6207694000
H 4.1532758379 2.9110257820 0.1784937244
H 6.5444216823 3.0761353095 -0.5747495488
H 6.1351262009 -0.6523425070 -2.6419178021
H 3.7533851213 -0.8184644315 -1.8938179236
