57
CONF3
C 2.8672369958 1.3703663765 -3.4774562003
C 2.4554293502 0.4161634640 -2.3608937271
C 1.0189283548 -0.1624177103 -2.5234106834
C 0.3062061736 0.2623329316 -1.2397549149
C -1.0405560110 -0.3611785677 -0.8655509797
C -1.0812504777 -1.8912350559 -0.7698477648
C -2.4758838721 -2.3956441749 -0.3780695421
C -2.9486314230 -1.7201495387 0.8694181697
C -3.3473049642 -2.4140466978 1.9540498977
C -3.8478593910 -1.7755152836 3.1661624935
O -4.2291160893 -2.4399431707 4.1432068907
C -3.8924402314 -0.3142839048 3.1677840514
C -3.4520957465 0.3989695319 2.1187864077
C -2.9740270856 -0.2124815617 0.8389752294
C -1.5501495560 0.3218159349 0.4247252357
C -0.4846292806 0.2571315974 1.5459957404
C 0.8546695047 0.8783407569 1.1132068072
C 1.4074801524 0.2312164134 -0.1551813976
C 2.4957983889 1.0657259558 -0.9415964247
C 3.8775389306 1.0048933310 -0.3062514097
O 4.6782818278 0.1079816010 -0.5253187792
C 4.2600668885 2.1110668482 0.6533120293
O 5.4861097371 1.8314579459 1.2996492122
O 2.0620089165 2.4297466264 -0.9362811366
C 1.9771190672 -1.1566488601 0.1810344258
O -0.8696803448 0.9903462350 2.7128049058
F -1.7286373609 1.7009228668 0.1332688043
C -4.0306292024 0.2394580661 -0.2185686400
H 3.8528298868 1.8140114097 -3.2896061307
H 2.9247559434 0.8266938962 -4.4250511267
H 2.1363459031 2.1764797094 -3.6090125424
H 3.1763928563 -0.4053546897 -2.3360230927
H 1.0544044585 -1.2504366112 -2.6358362063
H 0.5213295557 0.2430200564 -3.4102974161
H 0.0841901059 1.3273111690 -1.3635907829
H -1.7414676595 -0.0726898493 -1.6600830674
H -0.7989848340 -2.3153829761 -1.7381463271
H -0.3657200982 -2.2681354378 -0.0383905520
H -2.4652943483 -3.4792713726 -0.2339647813
H -3.1792334280 -2.1813349914 -1.1934539538
H -3.3337985858 -3.5012972394 1.9469697153
H -4.2856625344 0.1705998724 4.0571179120
H -3.4961080052 1.4845719392 2.1364969117
H -0.3532771131 -0.8025380983 1.8046689892
H 0.6876225425 1.9479069197 0.9577828576
H 1.5486386059 0.7633302259 1.9536321995
H 3.4526128682 2.2438923272 1.3880722663
H 4.3215197205 3.0515631865 0.0842096704
H 5.8345770369 1.0316284474 0.8687095406
H 2.5538855196 2.9070603829 -1.6171842213
H 2.2195761845 -1.7462889878 -0.7059921184
H 2.8868622241 -1.0533712560 0.7780853942
H 1.2776078581 -1.7320108303 0.7859591597
H -1.4244547755 0.4249089380 3.2645187081
H -4.1292149256 1.3260007124 -0.2062375344
H -3.7587751205 -0.0778773192 -1.2256051587
H -4.9951437815 -0.2066959933 0.0380525423
