37
CONF3
C 4.0175402153 0.2596156218 -1.5202580752
C 3.8486104983 -0.1212337545 -0.0491247713
C 2.4179996804 0.0543368479 0.4702498512
C 1.4240167075 -0.8820755531 -0.2108973479
C -0.0272390249 -0.7595154898 0.3347355430
C -0.9146333653 -1.7650595994 -0.4666502627
N -2.2959893504 -1.7917190494 -0.0270588812
C -2.8585715993 -2.5627701771 0.9280452017
N -4.1379262404 -2.2461583918 1.0778464669
C -4.3081210594 -1.2460220508 0.1666165934
N -3.2219333209 -0.9331632970 -0.5266419436
C -0.0165136100 -1.1961950955 1.7315119342
N 0.0116361499 -1.5849212560 2.8195881887
C -0.5796933615 0.6606828854 0.2135151448
C -0.5060339698 1.3132061152 -1.0197648025
C -1.0328187370 2.5872887845 -1.1855841924
C -1.6404227708 3.2091037367 -0.1005926009
Cl -2.3124967515 4.8224691472 -0.3033465374
C -1.7281163392 2.5872109626 1.1357343101
C -1.1930275439 1.3098884297 1.2825614294
H 3.4592502881 -0.4102905364 -2.1816912602
H 5.0697378214 0.2123799741 -1.8174467080
H 3.6616621946 1.2808703989 -1.6990304140
H 4.1648105154 -1.1612392053 0.1048905432
H 4.5138730829 0.4998047794 0.5620866855
H 2.1034921301 1.0950085618 0.3202185218
H 2.4030536212 -0.1297629156 1.5521030896
H 1.7436980998 -1.9238577337 -0.0893687074
H 1.3778755920 -0.6860680715 -1.2860524708
H -0.8939836676 -1.4774712544 -1.5201518620
H -0.5022009039 -2.7721506288 -0.3637539270
H -2.3102879030 -3.3290053101 1.4609110681
H -5.2518706078 -0.7409791553 0.0031969210
H -0.0407093788 0.8335529416 -1.8747552427
H -0.9718718152 3.0865147949 -2.1458369468
H -2.2045707624 3.0829030642 1.9736946058
H -1.2682253341 0.8248221783 2.2505001625
