57
CONF8
C -3.8876020470 4.7499687406 -0.4008742517
C -3.2881367059 3.3746162275 -0.5048499032
C -2.3503956151 3.0694278566 -1.4893289338
C -1.8009894815 1.7902874093 -1.6129016878
C -2.2122282048 0.7876817316 -0.7168313576
C -3.1585190698 1.0731806657 0.2879609067
C -3.6764706045 2.3629651990 0.3774826647
C -3.5820594097 0.0185583360 1.2722279168
C -1.6513796334 -0.5662136565 -0.8206415546
C -0.3896596741 -0.9965659020 -0.6569279830
C -0.2431417515 -2.4598369920 -0.8940459400
C 0.2196025758 -3.2767379618 0.3406858270
C 1.2274471478 -4.3192116133 -0.1970495717
C 1.0055723131 -4.3348705264 -1.7159080376
C 0.7121341152 -2.8650801471 -2.0236375911
O -1.6022162080 -2.8461819717 -1.2599876156
C -2.4236881336 -1.7525889946 -1.2258815639
O -3.5961702127 -1.8389178345 -1.5279512788
O 0.7330394812 -0.2856952711 -0.3799596785
C 0.7810910574 0.5363276421 0.7512267471
O -0.0802628640 0.5144693550 1.5895124231
C 2.0368461459 1.3444973949 0.7522659388
C 3.2347511607 0.6479672281 1.4687906003
C 2.8821671181 0.3434501030 2.9283431803
C 4.4065588124 1.6371625283 1.4185576341
C 3.6283056842 -0.6444273781 0.7450231475
C -0.7935366777 1.5152027340 -2.6968687443
H -3.9150422633 5.0897554545 0.6390756103
H -4.9207401038 4.7498395545 -0.7676711777
H -3.3218395883 5.4749816332 -0.9911385523
H -2.0385162870 3.8437233698 -2.1861698992
H -4.3980186489 2.5872977771 1.1598920080
H -4.1670574270 0.4591741031 2.0827126294
H -2.7102127163 -0.4846955799 1.7026741020
H -4.1942776844 -0.7505193880 0.7890672472
H 0.6715682147 -2.6184844781 1.0881395172
H -0.6602057348 -3.7378966584 0.7957399467
H 2.2494495657 -3.9878551000 0.0171542895
H 1.0897577047 -5.3000687888 0.2649551198
H 1.8677932481 -4.7161376542 -2.2696733933
H 0.1359657582 -4.9509069541 -1.9723616101
H 0.2750665150 -2.6668345811 -3.0056120102
H 1.6298979833 -2.2737703361 -1.9190201175
H 2.3224984319 1.5697095142 -0.2792991141
H 1.8117102966 2.2772763596 1.2775348897
H 2.0711515843 -0.3883589485 3.0023682225
H 2.5737105943 1.2526553246 3.4557813736
H 3.7568682748 -0.0705251606 3.4408251697
H 4.6782698017 1.8690595183 0.3831279779
H 4.1517236630 2.5731051296 1.9273503399
H 5.2816600091 1.2044523391 1.9144871956
H 3.8417307680 -0.4540908039 -0.3124246051
H 4.5272893662 -1.0668558385 1.2061807052
H 2.8362068529 -1.3977367306 0.8035709036
H 0.2231759395 1.4658934711 -2.2900923391
H -0.8135230105 2.3089513360 -3.4469547391
H -0.9871202150 0.5594267953 -3.1935550828
