38
CONF6
C -2.1695557598 -1.4463886070 -0.9251267004
C -1.3256939384 -0.1939298368 -1.1770805023
C -2.0263186729 1.0176250969 -0.5998374085
C -1.8853357732 2.3849782584 -1.2142034093
C -3.1744301708 1.6200913806 -1.3660228504
C 0.1450214886 -0.3896701280 -0.6802409354
C 0.9800707352 0.8594686732 -1.0548333166
N 2.3929159468 0.6962141866 -0.7483592681
C 3.3324400130 0.0455245665 -1.4613028586
N 4.4960135225 0.0636634065 -0.8192859329
C 4.1970852208 0.7546950278 0.3166306485
N 2.9365411895 1.1596554969 0.4063306089
C 0.2060798555 -0.6951273620 0.8074706509
C 0.3586745163 -2.0088786819 1.2576031236
C 0.3723343035 -2.3112290843 2.6165920414
C 0.2266764583 -1.2798736996 3.5329803264
C 0.0724041430 0.0375310167 3.1224869340
C 0.0662019711 0.3185911750 1.7605851343
Cl 0.2424011091 -1.6478202631 5.2570178944
O 0.7175338823 -1.5159214222 -1.3558829795
H -3.1429126383 -1.3316061500 -1.4105726133
H -2.3410344993 -1.5864298580 0.1474144156
H -1.6899456218 -2.3468037626 -1.3167456402
H -1.2427066420 -0.0390204670 -2.2648150777
H -2.1615957645 0.9893142248 0.4789130209
H -1.2597238956 2.4784614597 -2.0967850492
H -1.8701408098 3.2436696193 -0.5503894717
H -3.3930836875 1.2009787800 -2.3440994787
H -4.0410679030 1.9563943522 -0.8064963915
H 0.8869289152 1.0216879500 -2.1335751672
H 0.6289154696 1.7561939420 -0.5451176108
H 3.1302070821 -0.4040145685 -2.4238809465
H 4.9212210197 0.9735519869 1.0915923731
H 0.4658699121 -2.8130946536 0.5407324676
H 0.4925890186 -3.3354613714 2.9513753932
H -0.0340824637 0.8351447277 3.8489082908
H -0.0405817183 1.3537424814 1.4581077342
H 0.5300839849 -1.4219075969 -2.3000876395
