46
CONF19
C -4.7107928546 0.0623339936 -1.3176753746
N -4.9699067510 0.9772995033 -0.2102373092
C -5.9490569622 2.0269986394 -0.4766021485
C -4.2112012195 1.0461773886 0.8968170731
O -4.2973632082 1.9314108606 1.7576640533
C -3.2536508312 -0.0871293351 1.1619140713
C -1.8693949105 0.0416446633 1.0982508981
N -0.9893795772 -0.8662882198 1.4830840976
C -1.4646080884 -2.0173316433 1.9708802613
C -2.8292797620 -2.2752602437 2.0712164027
C -3.7296775578 -1.3005855299 1.6666518180
S -1.1169388159 1.5777155106 0.4578466755
O -0.5888163096 2.3672021099 1.5793656618
O -2.0423435464 2.1960850811 -0.4960257570
N 0.2668417012 1.0332052604 -0.3532505020
C 0.1721117170 0.0059449649 -1.2806379566
O -0.8735903941 -0.3255417188 -1.8216311419
N 1.3661928294 -0.6230853031 -1.5946779866
C 2.6319756792 -0.5359261289 -1.0187767066
N 2.8034197858 0.2995230424 0.0132269446
C 4.0309179353 0.3300650977 0.5365734671
C 5.0836489513 -0.4458445798 0.0493425433
C 4.7712725039 -1.2670296648 -1.0290746163
N 3.5448034454 -1.3232255049 -1.5740611265
O 5.6440261048 -2.0816861223 -1.6358009011
C 6.9982281909 -2.1098751556 -1.1370996872
O 4.2863129825 1.1309760551 1.5730424697
C 3.1969827894 1.9339760352 2.0904330752
H -4.4010683339 0.6324836348 -2.2019764670
H -5.6202633690 -0.4981158182 -1.5586454823
H -3.9166207915 -0.6379446118 -1.0603095415
H -6.8310711425 1.5782455018 -0.9425466742
H -6.2327975284 2.5108940310 0.4577065730
H -5.5315907535 2.7772214563 -1.1602947739
H -0.7294377155 -2.7535445290 2.2847024765
H -3.1771279780 -3.2248725700 2.4620281868
H -4.8002503005 -1.4675302606 1.7365939050
H 1.1562817292 1.0704105305 0.1755266851
H 1.2793717786 -1.3135648839 -2.3294921226
H 6.0616758244 -0.3854215030 0.5039877848
H 7.4607264069 -1.1221307123 -1.2275303043
H 7.5217617976 -2.8264245728 -1.7683334215
H 7.0155321812 -2.4447223407 -0.0953406225
H 3.6299008475 2.4911752870 2.9200462491
H 2.3848091531 1.2928896301 2.4441632699
H 2.8294338484 2.6192035793 1.3218986826
