41
CONF140
C 4.8022413378 -1.3304356755 1.6110052302
C 3.3848298500 -1.1538551161 1.1082289020
O 2.6701203444 -0.1565970595 1.8900531608
C 2.8628962917 1.1366442225 1.5251329711
O 3.5583846515 1.4990153998 0.5848975504
N 2.1840858160 1.9713983081 2.3513509135
C 2.0527550963 3.3885206034 2.0458109659
C 1.1172237794 3.6899535950 0.8799183284
O -0.2186124676 3.2348452327 1.1581857219
C -0.5984132688 1.9623307774 0.8234132396
C 0.0702562712 1.1291170128 -0.0791496004
C -0.4372658706 -0.1384525611 -0.3529240949
C -1.6059061971 -0.5672726959 0.2598288148
C -2.2840211391 0.2573553376 1.1489278886
C -1.7771347104 1.5183170833 1.4331682241
O -2.0765716698 -1.8605369305 0.0386519804
C -2.7754023949 -2.1078185449 -1.1237517127
C -3.1757619875 -1.1074471703 -2.0086935286
C -3.8965134909 -1.4617477348 -3.1484658604
C -4.2175188422 -2.7909284314 -3.4077310656
C -3.8107472810 -3.7789895518 -2.5103219095
C -3.0903853317 -3.4452886491 -1.3701017682
H 5.3791465867 -0.4107526667 1.4835901636
H 5.2921598179 -2.1270693041 1.0420549155
H 4.8054246015 -1.6104658305 2.6683895504
H 2.7972528317 -2.0650278223 1.2419745772
H 3.3616605998 -0.8618932082 0.0548563715
H 1.5273386785 1.5565759869 2.9948871601
H 3.0389652593 3.8048406597 1.8115688179
H 1.6818403683 3.8848356590 2.9471730383
H 1.0356242774 4.7746602239 0.7636555666
H 1.4978406613 3.2770013884 -0.0573722171
H 0.9880427417 1.4342941827 -0.5655597640
H 0.0796686749 -0.7948354380 -1.0461952178
H -3.1970021508 -0.0926039270 1.6198287299
H -2.2854938876 2.1743915082 2.1321323958
H -2.9322135122 -0.0693786366 -1.8131328744
H -4.2092763096 -0.6822481043 -3.8365926618
H -4.7785063544 -3.0561148066 -4.2975846523
H -4.0536477719 -4.8202319293 -2.6991341192
H -2.7673628987 -4.2041052815 -0.6648156225
