59
CONF190
C 0.8303362326 5.1681992870 -4.7052473456
C 2.1790248301 5.1145784138 -3.9323655299
C 1.9144842844 4.2363982886 -2.6927002076
C 0.7208363810 3.3428366963 -3.0878407830
C -0.1571478246 4.3355797015 -3.8657638019
C 0.0032539694 2.7266551327 -1.8945668997
C 0.8118270648 1.6866957484 -1.1537214372
O 0.6286646827 1.4473646534 0.0266994146
N 1.7820393610 0.9917556753 -1.8867329567
C 2.0056903763 1.1481591775 -3.2607888516
O 2.8255591346 0.4599571470 -3.8396091409
C 1.1749757089 2.1862849551 -3.9805296777
C 2.5559866357 -0.0424257205 -1.1778476267
C 1.8688017880 -1.4058466978 -1.2507558502
C 2.4748883037 -2.4170429525 -0.2748771435
C 2.1558260095 -2.0935315367 1.1899967666
N 0.7161568672 -2.0173299458 1.4369500638
C 0.3816536095 -1.1214387773 2.5444373489
C -1.1329952258 -0.9854105273 2.6675263617
N -1.7434372805 -2.3013395403 2.8403690449
C -1.3967927328 -3.2223279751 1.7634876609
C 0.1212407254 -3.3361826295 1.6445342955
C -2.1722013899 -2.7462274131 4.0589770537
N -2.2540207660 -1.8372676103 5.0597474742
C -2.7214222554 -2.2823685034 6.2200243480
C -3.1081957360 -3.6011536927 6.4337236708
C -2.9714334775 -4.4508659713 5.3414160493
N -2.5094893566 -4.0542556508 4.1612752653
H 0.9427986247 4.7388656648 -5.7054967087
H 0.4733487615 6.1920153506 -4.8434017647
H 2.9635403191 4.6755960875 -4.5558581130
H 2.5292818574 6.1095060390 -3.6459121737
H 1.6135388754 4.8606041828 -1.8424306518
H 2.7951138879 3.6652857412 -2.3803155402
H -0.6745353717 4.9792990830 -3.1430428431
H -0.9240125223 3.8370716970 -4.4685351751
H -0.2884963925 3.4797027199 -1.1567422990
H 0.2967456771 1.6655320525 -4.3890732047
H 1.7695229965 2.5189290429 -4.8349659661
H 3.5464901667 -0.0834470473 -1.6370302680
H 0.8095027920 -1.2823606104 -1.0003539082
H 1.9378654371 -1.7792020143 -2.2780763135
H 3.5659328674 -2.4608097368 -0.3939630904
H 2.1042841625 -3.4186138608 -0.5212798400
H 2.5900822603 -1.1214632235 1.4503222712
H 2.6462214776 -2.8354108476 1.8500976098
H 0.7911482021 -1.4823174154 3.5111622070
H 0.8071687705 -0.1342450517 2.3318565418
H -1.5233789828 -0.5405656295 1.7425248923
H -1.3979154810 -0.3498843108 3.5115467867
H -1.8435019897 -4.1959398397 1.9627450721
H -1.8028315043 -2.8218923445 0.8245385110
H 0.5170691834 -3.8231168403 2.5607066624
H 0.3646817522 -3.9828214148 0.7933041474
H -2.7860724803 -1.5461922434 7.0215835608
H -3.2422022737 -5.5042150681 5.4176788271
H 2.6462808427 0.2952807716 -0.1444420999
H -0.9216099325 2.2330364568 -2.2280346318
H -3.4841946610 -3.9449059670 7.3888949807
