14
CONF4
C 0.6591391276 -0.8751152899 -0.0638187078
C -0.8330209023 -0.6705144712 -0.2488799364
C -1.1593651153 0.6858391195 -0.8143351662
O -0.3616265617 1.4432609208 -1.3281092889
O -2.4749740656 0.9642074299 -0.7099570762
C 1.2428505009 0.0678942611 0.9536406335
O 0.6026568462 0.7792577052 1.7008467687
O 2.5905545209 0.0195291780 0.9598352598
H 0.8599488121 -1.8955960826 0.2836247003
H 1.2035090871 -0.7563451839 -1.0051984525
H -1.3788091893 -0.8043853262 0.6891643061
H -1.2295263053 -1.4155865857 -0.9493398728
H -2.6359994718 1.8330949249 -1.1166007278
H 2.9146627060 0.6244593842 1.6491272585
