49
CONF38
C -5.4590119193 -0.3683148779 -2.0896138922
C -4.1131222241 -1.0056673856 -1.7315847381
C -3.1496765519 -0.9207973480 -2.9193247218
C -3.5078831904 -0.3211386758 -0.5052518178
C -4.2782743579 -0.4480410346 0.8416518515
C -4.1394975387 -1.9724912228 1.1385362210
C -2.7102236979 -2.3025572651 0.6202934832
C -2.1989428671 -0.9338349563 0.0730128419
C -2.0188919939 -0.0525562450 1.2814295874
C -3.3046481701 0.2338567537 1.7701472267
C -3.4903512973 0.9285910675 2.9546261739
C -2.3573213243 1.3656056482 3.6504153339
C -1.0788601659 1.1076396662 3.1651831170
C -0.8998780014 0.3893588689 1.9736057811
N 0.4156341439 0.1186183403 1.5161782102
C 0.8739578947 0.4584477428 0.2696738486
O 0.1740721921 1.0036010920 -0.5865254873
C 2.2800812356 0.1184843561 0.0062890686
C 3.1152261959 -0.7817727750 0.6591555951
N 4.2974670237 -0.7537195098 0.0126475483
N 4.3065138173 0.1071245982 -1.0197145436
C 3.0841810480 0.6378973044 -1.0351692327
C 2.7006849771 1.6393984023 -2.0715366883
F 3.8007718769 2.3589893588 -2.4777731855
F 2.2276655646 0.9918368050 -3.2038888186
C 5.4922391024 -1.5297358051 0.3189717765
H -6.1838747508 -0.4682440236 -1.2758145770
H -5.8863099560 -0.8394424041 -2.9809745930
H -5.3314074215 0.7004450482 -2.3009082857
H -4.2880108674 -2.0658257349 -1.5099323029
H -2.2073663807 -1.4379099729 -2.7142831898
H -3.5949511581 -1.3718684606 -3.8122752581
H -2.9175924319 0.1263078586 -3.1491091143
H -3.3455277825 0.7389452033 -0.7466706083
H -5.3008343052 -0.0691497162 0.8768491614
H -4.9037570403 -2.5384796197 0.5971856629
H -4.2627765694 -2.1801686341 2.2047038521
H -2.7371387124 -3.0435803858 -0.1844103810
H -4.4863841278 1.1318131092 3.3371603766
H -2.4706615768 1.9256265468 4.5735608218
H 2.9476117071 -1.4392391374 1.5004759800
H 1.9264473101 2.3336894676 -1.7383147601
H 5.2746232145 -2.1752880744 1.1702279833
H 6.3145746919 -0.8545164192 0.5679058089
H 5.7665704296 -2.1379528088 -0.5461730711
H -2.0530104711 -2.6859225884 1.4053733996
H -1.3454143999 -1.0025112432 -0.5980729736
H 1.1095385201 -0.0645850684 2.2268635874
H -0.2074074660 1.4728617073 3.7011284203
