42
CONF220
C -2.7100191127 -0.8453013425 -0.8290228644
C -3.0471881763 0.6256925677 -0.9880759596
O -1.9994965738 1.5228179368 -0.6163748401
C -1.6856807216 1.5151741524 0.7793825770
C -0.7305409956 2.6501595582 1.0906299177
O 0.6235235004 2.4210807632 0.6946809925
C 0.8665190438 2.5983221785 -0.7040925200
C 2.3625400029 2.5698583777 -0.9392058470
O 2.9646018515 1.3112713663 -0.6256071111
C 2.7935466021 0.3290882794 -1.6518722956
C 3.2539271546 -1.0251024599 -1.1439516201
O 2.2680036159 -1.7470489202 -0.4036219375
C 1.9450896094 -1.1524560520 0.8563864747
C 0.9636136256 -2.0362308738 1.5797596866
O -0.2683761868 -2.0463289162 0.8593368864
C -1.3287316899 -2.6237702739 1.6156828986
C -2.5966209510 -2.6045872340 0.7919488158
O -3.0257251829 -1.2700016840 0.5028662192
H -1.6445801824 -1.0036628003 -1.0481684085
H -3.3044937036 -1.4303035321 -1.5492893422
H -3.9656004919 0.8541376466 -0.4227779530
H -3.2334913927 0.8292244277 -2.0472202646
H -2.6061977325 1.6588797475 1.3698522871
H -1.2373874027 0.5549273533 1.0743030439
H -0.7006669139 2.7741482036 2.1787900133
H -1.1038299519 3.5860278002 0.6450009241
H 0.4785570944 3.5757096537 -1.0353528126
H 0.3559689354 1.8219874820 -1.2876351733
H 2.5639576695 2.8440152251 -1.9868870407
H 2.8478324707 3.3064311683 -0.2895452213
H 1.7414718081 0.2551785445 -1.9660241170
H 3.3929840783 0.6119671184 -2.5328765389
H 4.1695655615 -0.8993091961 -0.5433238022
H 3.4890064764 -1.6578096977 -2.0055924840
H 2.8546563773 -1.0444145321 1.4695739313
H 1.5067654731 -0.1559958167 0.7153826151
H 1.3545339509 -3.0618528439 1.6784808034
H 0.8108948233 -1.6267005599 2.5912231718
H -1.0929165396 -3.6669582537 1.8871940256
H -1.4783073116 -2.0529784473 2.5469103261
H -3.3894771153 -3.0905579800 1.3743714953
H -2.4582317087 -3.1747283306 -0.1371869470
