45
CONF293
C 4.3566408410 2.9073163976 -1.7490225270
C 2.8419426585 3.0367763554 -1.5907283816
C 2.0856267597 1.7092517541 -1.7090533269
C 2.4138153251 0.7087287564 -0.6006201205
C 1.6807913909 -0.6314673490 -0.7262935613
C 0.1406280751 -0.5561399654 -0.7602863772
C -0.4358849929 0.1802900219 0.4594547008
C -1.9609307992 0.2808393225 0.4375683928
C -2.5416745036 1.1319314274 1.5694762312
C -2.2896217065 0.5680916315 2.9688921433
C -2.9952261411 1.3740233085 4.0576730370
C -0.4369753733 -1.9488029731 -0.9091524908
C -0.3398352353 -2.8852983422 0.1250793182
C -0.8604566029 -4.1662735018 -0.0183911844
C -1.4883249348 -4.5397275961 -1.2041973516
C -1.5899094614 -3.6197346551 -2.2418139054
C -1.0684227888 -2.3374388206 -2.0914928365
H 4.6091582795 2.4168156276 -2.6958960126
H 4.8023296219 2.3205787259 -0.9404747729
H 4.8378020024 3.8900941757 -1.7434239638
H 2.6114430057 3.4952045338 -0.6195687110
H 2.4608948669 3.7274955602 -2.3528921788
H 1.0094293563 1.9227463697 -1.7016462056
H 2.3016813133 1.2517115634 -2.6854666599
H 3.4896710375 0.4969742242 -0.6056745406
H 2.2029115964 1.1665636149 0.3750217053
H 1.9791488863 -1.2792766767 0.1082950772
H 2.0146659041 -1.1403534240 -1.6402674213
H -0.1549765604 0.0060915625 -1.6565058788
H -0.0983069476 -0.3228732823 1.3747881697
H -0.0151748721 1.1935981699 0.4942486296
H -2.2692332968 0.7065004556 -0.5273726513
H -2.3951814586 -0.7263314494 0.4783059210
H -3.6254728877 1.2285955936 1.4206416721
H -2.1329503404 2.1510243322 1.5114061367
H -1.2126757911 0.5485869273 3.1750896483
H -2.6284377535 -0.4764227464 3.0006610294
H -2.7989598030 0.9640258306 5.0530851044
H -4.0796617492 1.3763330171 3.9033949830
H -2.6581823760 2.4163770577 4.0524694866
H 0.1434501494 -2.6098430091 1.0583896905
H -0.7766594260 -4.8766423899 0.7984347102
H -1.8953665407 -5.5394480088 -1.3164133904
H -2.0783542548 -3.8983846903 -3.1705179729
H -1.1551734667 -1.6221063363 -2.9053285768
