31
CONF2
C -1.5111100765 0.3438070848 -0.0834750882
C -0.1477722594 -0.2737130070 0.3919145803
C 1.0811926864 0.6615724428 0.1089046532
C 2.4556313863 -0.0964697831 0.1569788852
C 3.6763405165 0.8622600602 0.3234542466
F 3.5340290985 1.9413064218 -0.4702617441
F 3.7692108703 1.2586908833 1.6028681349
S 5.3563884589 0.0382332679 -0.0908825102
O 6.3461551733 1.0196554973 0.3444677738
O 5.2843329022 -1.3334300868 0.4046230823
N 5.3175883671 0.0390334981 -1.7674592804
F 2.6017930674 -0.7892371160 -0.9984452761
F 2.4439642646 -0.9573095941 1.1949186850
F 0.9363145350 1.2129989738 -1.1173792724
F 1.0992122794 1.6431635512 1.0381130618
F -0.2167100763 -0.5027473766 1.7218720859
F 0.0412197739 -1.4461233410 -0.2538840312
C -2.7582598999 -0.3441603150 0.5762928547
C -4.0932602278 -0.0695988470 -0.1964385929
C -5.3812213408 -0.3683038388 0.6395098357
F -5.2987995611 -1.5825426922 1.2015313234
F -6.4420060020 -0.3400071876 -0.1778592432
F -5.5556221284 0.5486255460 1.5962435913
F -4.1388656197 1.2306497848 -0.5688371706
F -4.1290976744 -0.8489216002 -1.2975979987
F -2.8877377716 0.1162783691 1.8407018102
F -2.5554807829 -1.6806252577 0.6107184519
F -1.5286373107 1.6574473618 0.2344420704
F -1.6018174621 0.2088386386 -1.4255150785
H 5.2714970033 -0.9023297447 -2.1421803018
H 6.0713993141 0.5962165681 -2.1546620844
