70
CONF157
C -2.5855602517 -0.2585212035 -0.2537034683
C -3.9936602792 0.3707428826 -0.3720563451
C -4.9967222881 -0.7015150406 -0.6472445336
C -6.2219681931 -0.7437326991 -1.2669566532
N -6.7009441983 -2.0505038605 -1.2435153755
C -5.7838023044 -2.8659498498 -0.6203434187
C -5.7390317400 -4.2347359922 -0.3439005104
C -4.5980285327 -4.7026862158 0.3033022998
C -3.5255078492 -3.8598313377 0.6746189304
C -3.5734018721 -2.4955676135 0.4095202921
C -4.7144128533 -2.0299899509 -0.2407975761
C -2.5429349556 -1.4413502092 0.7611966820
C -1.1330075942 -2.0234388060 0.8616980586
C -0.1264679768 -0.9347635793 1.2077831567
C -0.2374548307 0.1944669015 0.1774379027
N -1.5942496928 0.7489263055 0.1741487348
C -1.6135457812 2.0167007533 -0.5864408654
C -1.2862224719 1.8959138371 -2.0502247196
C -0.2498957301 2.4993105979 -2.6294482365
C 1.2933084093 -1.4884332774 1.2339149941
O 1.5339476215 -2.6545543393 0.9293015967
N 2.3379766005 -0.6200048603 1.5060336519
C 3.7092150783 -1.1139282467 1.2437770373
C 4.0282218067 -1.3274163704 -0.2393582081
C 3.7207286425 -0.1426692583 -1.1483389542
N 4.3496573720 1.1199952953 -0.7291809187
C 3.8782225461 2.2170598505 -1.5804633419
C 5.8133894035 1.0491543334 -0.7531867986
C 2.1428861494 0.6475982165 2.1608689169
O 1.3043404330 0.7859145203 3.0522427210
N 2.9666735709 1.6170746690 1.7315684312
C 2.8853330871 2.9639906374 2.2858869512
C 1.7628992113 3.7850544709 1.6539195989
H -2.3206948902 -0.6813932994 -1.2450369907
H -4.2184542522 0.8928274403 0.5697634378
H -4.0129210957 1.1198427899 -1.1687557336
H -6.8074049187 0.0386528846 -1.7301148969
H -7.5772606771 -2.3465959365 -1.6407439727
H -6.5444102385 -4.9079866915 -0.6196326860
H -4.5260336698 -5.7622294288 0.5306669826
H -2.6679644459 -4.3023161458 1.1709874451
H -2.8132565596 -1.0153196899 1.7414243371
H -1.1025254199 -2.8116508702 1.6195006980
H -0.8660049237 -2.4863566526 -0.0965908249
H -0.3600682504 -0.5175076555 2.1909455255
H 0.4555652820 1.0102050179 0.4115530135
H 0.0515722337 -0.2028489731 -0.8161076926
H -2.5965510443 2.4836871182 -0.4618604822
H -0.8863089228 2.6877571390 -0.1127619740
H -1.9455211063 1.2705804801 -2.6526474814
H 0.4245226758 3.1292679308 -2.0518283336
H -0.0449629498 2.3948971938 -3.6911763075
H 3.8329143529 -2.0648534529 1.7724568426
H 4.4016270063 -0.3979426187 1.6903537943
H 5.0850343283 -1.6095136827 -0.3073977317
H 3.4568438571 -2.1813668529 -0.6142872393
H 2.6357032222 0.0272719195 -1.1584757226
H 4.0142857952 -0.4007769371 -2.1833140678
H 2.7869865731 2.2879201503 -1.5154652730
H 4.1538597897 2.0705003243 -2.6400254079
H 4.3098378865 3.1630208247 -1.2373110434
H 6.1984646685 0.7875034851 -1.7553044817
H 6.2256800680 2.0217366764 -0.4677208321
H 6.1747512092 0.3053391518 -0.0381284223
H 3.5383779193 1.4642403689 0.8746233508
H 2.7363509528 2.8891740206 3.3677937683
H 3.8532959214 3.4466652036 2.1136848680
H 0.7933518033 3.3120595194 1.8364152689
H 1.9085293895 3.8703083677 0.5719679518
H 1.7428064016 4.7928900288 2.0804910010
