45
CONF37
C 2.4164191011 -2.6782858046 0.0581804777
O 2.6756595794 -1.9525139260 1.2861511756
C 2.3450786267 -0.6617487687 1.3285692189
C 2.5955644950 0.0276364562 2.5153889773
C 2.2364848625 1.3711902147 2.5152030622
O 2.3944566830 2.1942350436 3.5593036840
C 2.9686145634 1.6467819040 4.7655661877
N 1.6780202422 1.9789417890 1.4549164446
C 1.4898578029 1.2120632257 0.3883419635
N 0.8960364468 1.8592895135 -0.6945289292
C 0.3336463490 1.3535158333 -1.8552520483
O -0.3044233953 2.0714293127 -2.6112344533
N 0.5450668488 0.0000995475 -2.0806858411
S -0.4184305764 -0.8576052761 -3.1730758298
O -0.2134803829 -0.3480066713 -4.5284338368
O -0.1428135406 -2.2655506449 -2.8777348261
C -2.0632955021 -0.4188807393 -2.6520226815
C -2.5467379516 -0.2668239329 -1.3505479483
C -3.8474733863 0.2298689799 -1.5332477793
N -4.1437464710 0.3584350785 -2.8278175683
N -3.0522514305 -0.0294026647 -3.5007229082
C -3.0644996472 0.0164714156 -4.9626491725
C -1.9059308087 -0.5367465470 -0.0799546924
N -2.0402571656 0.2642997455 0.9855960398
N -1.3485252963 -0.3902018720 1.9051761208
C -1.1945642066 0.0853746466 3.2749136578
N -0.8123465938 -1.5205519573 1.4691811446
N -1.1564097792 -1.6331991300 0.2072784881
N 1.8050618754 -0.0815314981 0.2539468775
H 2.9668456429 -2.2300869384 -0.7732232722
H 1.3448610156 -2.6892527347 -0.1570992258
H 2.7753927406 -3.6883932642 0.2507093899
H 3.0407869988 -0.4807945700 3.3579749706
H 3.9825872685 1.2815685014 4.5756826758
H 2.3398236056 0.8408075192 5.1563655673
H 2.9961656319 2.4751587600 5.4719004542
H 0.7003622880 2.8416345381 -0.5482661439
H 1.0075732714 -0.5307912705 -1.3205964335
H -4.5758411250 0.4743076768 -0.7720562574
H -2.6950380227 -0.9255515291 -5.3694718860
H -4.1003367735 0.1721543704 -5.2618263325
H -2.4422230624 0.8400537877 -5.3191318761
H -0.5283458508 -0.6053898902 3.7907770399
H -0.7641829142 1.0888970537 3.2564515835
H -2.1732123318 0.1070951131 3.7593693333
