46
CONF165
C 1.7049950656 2.9177562288 3.5823951284
C 1.5199911823 2.1414142857 2.3019054354
O 2.6181570066 1.1775296715 2.2311060586
C 2.6632765750 0.3524741428 1.1878520620
N 3.6669016668 -0.5107002089 1.1990924693
C 3.6890285672 -1.3493896625 0.1343554674
N 2.7865610449 -1.3549544316 -0.8753797654
C 1.8379031353 -0.4332768939 -0.7526079449
N 1.7156645600 0.4570403763 0.2415923593
N 0.8950287091 -0.4214703358 -1.7663349091
C -0.2644952524 0.3360086251 -1.9282376923
O -1.0118252783 0.1351327683 -2.8724781542
N -0.4849006676 1.2862784270 -0.9543835871
S -1.8512618440 2.2888430927 -0.9395332711
O -1.7363679718 3.0267044183 0.3234218828
O -1.9367957310 3.0355240348 -2.1974743553
C -3.2279396688 1.1277849510 -0.8951286355
C -4.3139535528 1.4309430439 -1.7082898984
C -5.4048139514 0.5682812317 -1.7424909802
C -5.3862366411 -0.6049915913 -0.9968911597
C -4.2838965894 -0.9146066781 -0.2071629166
C -3.1969604871 -0.0421830852 -0.1274081546
C -2.0955266245 -0.3944057421 0.8240629953
O -1.7637427107 0.2848102182 1.7720609724
O -1.5764207573 -1.5923885785 0.5229468211
C -0.5915665508 -2.1048520360 1.4622677675
N 4.6817975535 -2.2459548848 0.0864033299
C 4.8476782808 -3.2164933950 -0.9859125684
H 2.6599028815 3.4504150430 3.5832950973
H 0.8988473461 3.6516782250 3.6699699339
H 1.6651255700 2.2548200858 4.4509632619
H 0.5723463410 1.5930925764 2.2907329902
H 1.5681611808 2.7911798288 1.4218754472
H 1.0249730034 -1.1216424644 -2.4855686612
H 0.1908840395 1.3408417408 -0.1719549624
H -4.2979361740 2.3247577030 -2.3208689011
H -6.2568728712 0.8086920500 -2.3688931171
H -6.2267514809 -1.2896400775 -1.0351398944
H -4.2644896681 -1.8337867339 0.3686000458
H -0.2053249761 -3.0136748569 1.0036524412
H -1.0766520055 -2.3250345779 2.4161080717
H 0.2043281480 -1.3725896332 1.6106296047
H 5.3469009662 -2.2267187710 0.8435511332
H 5.7326500595 -3.8146150240 -0.7653336321
H 3.9789303874 -3.8788975594 -1.0565950220
H 4.9846978829 -2.7197359541 -1.9518298758
