73
CONF1279
C -0.8695148810 3.0767052277 -0.7415223287
C -1.6748694690 2.3093492998 0.2840921053
O -2.9636705840 2.0409083928 -0.3177785397
C -3.8463315758 1.2898542138 0.4878956797
O -3.3552066293 -0.0133338690 0.7672127847
C -3.4274780246 -0.9340041144 -0.3236286901
C -4.6104231362 -1.8849819967 -0.1170427828
O -5.8646519391 -1.2020274633 -0.1521079415
C -4.5876679621 -3.0393755608 -1.1196855858
O -5.5915602273 -4.0012400711 -0.8074047844
C -3.2299170095 -3.7335098927 -1.0629339684
C -3.0684781438 -4.8183962987 -2.1089210238
O -1.8072880018 -5.4789142355 -1.9958352272
O -2.2146936649 -2.7519806763 -1.3439173878
C -2.1393292223 -1.7528927370 -0.3441926021
O -1.0786243962 -0.8919658709 -0.6926946536
C 0.1994020849 -1.2872030282 -0.4179376252
C 0.5315342570 -2.5765237707 0.0007475695
C 1.8671112050 -2.8578413563 0.2671953928
O 2.1988391904 -4.1029440311 0.6413193814
C 2.8759664858 -1.8666111241 0.1229102438
C 4.2673681904 -2.1932617321 0.2827286776
O 4.6581553661 -3.3322618372 0.6100033031
C 5.2459741121 -1.0883380230 -0.0137157177
C 4.6312379330 0.2714849580 0.2890013840
O 3.3827179669 0.4257125814 -0.4625294605
C 2.4817542534 -0.5729323398 -0.3022567916
C 1.1588450442 -0.2822134265 -0.5799996561
C 5.5139150716 1.4308546117 -0.0613395565
C 5.8850944914 1.6776699119 -1.3859300840
C 6.7146199434 2.7444752870 -1.7058937323
C 7.1944154897 3.5767195962 -0.6899250924
O 8.0156232320 4.6369239882 -0.9398227642
C 6.8351790500 3.3404896426 0.6372646043
C 5.9942205088 2.2764292945 0.9399270867
C -4.1011752328 1.9538757835 1.8473101741
O -4.7936779061 3.1933469753 1.6680825574
C -2.7759304287 2.2794401623 2.5258090266
O -2.9698147724 2.9707078946 3.7627400930
C -1.8809444538 3.0825644216 1.5855854172
O -0.5957358779 3.2911314619 2.1766442126
H -0.7817694503 2.4950239946 -1.6639395694
H -1.3547622548 4.0311098654 -0.9708133797
H 0.1344173461 3.2757275790 -0.3589477683
H -1.1833965207 1.3553673788 0.5205523395
H -4.7794233284 1.2392220362 -0.0866907978
H -3.5150760009 -0.4020209911 -1.2816953902
H -4.5391627588 -2.3049834736 0.8950642447
H -5.9709424737 -0.8101416204 -1.0315688230
H -4.7355046620 -2.6363435951 -2.1371733000
H -6.4195831009 -3.5152825435 -0.6869230007
H -3.0692128641 -4.1571598140 -0.0577354006
H -3.1973562156 -4.3752327249 -3.1080876053
H -3.8401177487 -5.5777840199 -1.9610906593
H -1.1214262905 -4.8096674184 -2.1221787458
H -1.9593542393 -2.2013895449 0.6474394037
H -0.1988088231 -3.3700676659 0.0901619225
H 3.1937279372 -4.1059941153 0.7326687350
H 6.1544367300 -1.2321430446 0.5775804985
H 5.5215851470 -1.1543666611 -1.0755672436
H 4.3669607015 0.3185200804 1.3544698155
H 0.8650124547 0.7132435487 -0.8884578313
H 5.5165523223 1.0375454881 -2.1821422382
H 6.9936155780 2.9351869276 -2.7387927874
H 8.1830468666 4.7010512183 -1.8900871913
H 7.2103165963 3.9956035874 1.4167233816
H 5.7089893395 2.1011478257 1.9735545947
H -4.6857305990 1.2689185145 2.4748890249
H -5.7335622963 3.0014048182 1.5623422871
H -2.2641189844 1.3430212541 2.7763991571
H -3.5885488474 3.6938477163 3.5810599550
H -2.3592865969 4.0487139949 1.3566909848
H -0.7565062002 3.6182044557 3.0728428226
