54
CONF341
C -2.0091231571 -3.7259058427 2.3693299420
C -1.6421193581 -2.9436524921 1.1069549080
C -0.2452258810 -3.3316593414 0.6199614449
C -1.7355029258 -1.4256975077 1.3626102801
C -1.2694505490 -0.6474989173 0.1212252993
O -1.9533437807 -0.6094289969 -0.9030783390
N -0.0724624344 -0.0317935309 0.2322773933
C 0.5457205726 0.6604216790 -0.8950390974
C 1.5567176368 1.6801591030 -0.3429663987
C 2.2965926983 2.3889942122 -1.4507211969
O 3.5035885817 2.4234319390 -1.5710588394
O 1.4424812165 2.9825187207 -2.3020661387
C 2.0490490204 3.6550549543 -3.4346623539
C 1.2053718811 -0.3022939271 -1.8666054288
C 0.8847765272 -0.2624658468 -3.2223199105
C 1.5015594880 -1.1192848096 -4.1305821562
C 2.4457391181 -2.0205234728 -3.6580242060
C 2.7870415454 -2.0849637483 -2.3114345633
C 2.1612268313 -1.2185968599 -1.4227936714
Cl 3.2305598676 -3.1156230888 -4.7925837308
N -3.1078567196 -1.0652348094 1.6829645759
C -3.4022745098 0.2017458093 2.0841083765
O -2.5668011688 1.0342995289 2.4115751512
O -4.7426363913 0.3955134163 2.1059514729
C -5.2065869819 1.7401795852 2.4653626134
C -5.1397399064 2.6338501406 1.2402334535
C -6.6147489803 1.5593190054 2.9940986678
H -1.2914825965 -3.5116909999 3.1699733056
H -3.0098219576 -3.4769191197 2.7321893613
H -1.9782356313 -4.8006914336 2.1657514731
H -2.3639734023 -3.1804530059 0.3121025650
H -0.1835167876 -4.4164662801 0.4935751680
H 0.0006088980 -2.8670519495 -0.3396928722
H -1.1015729984 -1.1714383575 2.2214441532
H 0.4490522018 -0.1243370606 1.0917490283
H -0.2472491485 1.1944215294 -1.4260811320
H 1.0251001520 2.4231308718 0.2631808539
H 2.3019560887 1.1829795391 0.2836301872
H 2.6199136480 2.9390159696 -4.0307883430
H 2.7046700775 4.4572193394 -3.0885367344
H 1.2166907590 4.0583453485 -4.0096472810
H 0.1400210985 0.4430916276 -3.5788877087
H 1.2458498994 -1.0881422132 -5.1835729927
H 3.5264799057 -2.7973351029 -1.9637618563
H 2.4210694201 -1.2688999126 -0.3691356118
H -4.5459882116 2.1183355632 3.2514355341
H -5.7853687118 2.2397200999 0.4487287814
H -4.1162434894 2.7062073761 0.8633577124
H -5.4840000430 3.6395426021 1.5003636096
H -7.2650519245 1.1392992296 2.2201961999
H -7.0171120439 2.5314023026 3.2931862507
H -6.6238025609 0.8967733325 3.8638116037
H 0.5169112951 -3.0326509631 1.3497429891
H -3.8450920665 -1.5848481850 1.2276526253
