45
CONF8
O 3.9412518775 -0.9710488782 2.5552843162
C 3.5184387598 0.4034725925 2.5027751381
C 2.5952644069 0.6952380366 1.3281821473
O 3.2654729880 0.3496624283 0.0973435538
C 2.5196950649 -0.6443988561 -0.6472231849
O 3.3908177469 -1.6115490565 -1.1534124764
C 1.8838544024 0.0610806284 -1.8429741060
O 1.1345931227 -0.8352545863 -2.6670153692
C 1.5157068425 -1.2368657309 0.3669905964
O 2.0806472385 -2.3519571280 1.0502113572
C 1.2569211870 -0.0621930372 1.3219870670
O 0.2872374100 0.8817485981 0.8337350309
C -1.0269464290 0.4250182817 0.6995766482
O -1.1181605367 -0.2329844723 -0.5622550436
C -2.4268799755 -0.7188256628 -0.8782209213
C -2.2712681891 -1.5198629724 -2.1659278728
O -1.6863680597 -0.7383718219 -3.2162642742
C -3.4147222337 0.4431900702 -0.9756997511
O -3.1143456180 1.3514312220 -2.0406936808
C -3.3757770867 1.2244003586 0.3352142825
O -4.2194881350 2.3782993644 0.2993478100
C -1.9473470260 1.6389827623 0.6988636332
O -1.9105750093 2.2272468014 1.9970433344
H 4.6618576219 -1.0711710865 1.9178863220
H 2.9908852991 0.6146761672 3.4382150541
H 4.3953425365 1.0579508626 2.4410306279
H 2.3827704313 1.7725882892 1.3326180271
H 3.4252598175 -2.3255300436 -0.4920571614
H 2.6906415937 0.5419136748 -2.4141969885
H 1.1879354229 0.8243473061 -1.4914643541
H 1.7357453987 -1.5234072137 -2.9820000087
H 0.6128821952 -1.5836199655 -0.1328494133
H 2.7377547608 -2.0076436945 1.6953632264
H 0.9588977769 -0.4206584932 2.3165042221
H -1.2941718869 -0.2756462810 1.5130791196
H -2.7848635500 -1.4016700193 -0.0881043784
H -1.6594781220 -2.4087548728 -1.9649822794
H -3.2586233857 -1.8459390077 -2.5088504380
H -0.7301390103 -0.6799641207 -3.0259442814
H -4.4261157250 0.0276607969 -1.1126359645
H -2.5603321996 0.8683469281 -2.6814262776
H -3.7707383917 0.5883429087 1.1379559211
H -3.9851253797 2.8686330339 -0.5026186180
H -1.5675509942 2.3391045776 -0.0619766152
H -2.6208566562 2.8839814119 2.0187199333
