22
CONF3
C -3.8942220033 0.5880922308 0.0305063505
N -3.1588507229 -0.6312117760 -0.3532048874
S -2.1494564404 -0.6620308620 -1.6453678998
O -1.6471792947 -2.0293610514 -1.8020048529
O -2.7793301482 0.0735918407 -2.7447671159
C -0.5987150077 0.4178636994 -1.2690660047
C 0.4077497711 -0.2381969683 -0.2784776392
C 1.4316897048 0.7747121981 0.3383941672
C 2.6847459375 0.1020285441 0.9888996832
F 3.3553267275 1.0253604851 1.6904761546
F 3.4991909840 -0.3978395809 0.0537009912
F 2.3074385911 -0.8825841832 1.8164231078
F 1.8703637622 1.6130066394 -0.6291951050
F 0.8073105868 1.4935698615 1.2959361709
F 1.0876580532 -1.2057292905 -0.9318372035
F -0.2887947622 -0.8015977258 0.7392223196
F 0.0128092764 0.6452016516 -2.4463727686
F -1.0393466919 1.5926145476 -0.7663718767
H -3.3030131386 1.2373922343 0.6825215427
H -4.7987443073 0.2692759716 0.5534222887
H -4.1850936102 1.1303065493 -0.8702382512
H -2.8351925327 -1.2205282795 0.4093673983
