22
CONF3
C 4.2776855042 1.3114319247 0.1739300656
C 3.4334533067 2.0230022726 -0.6701311278
C 2.1144459847 1.6172018534 -0.8322813589
C 1.6118779905 0.4974709612 -0.1657337040
C 2.4649987291 -0.2081383040 0.6870167956
C 3.7805216035 0.2024110027 0.8462188852
Br 4.9268945511 -0.7777415733 2.0144419563
C 0.2069774591 0.0480096946 -0.3137095458
C -0.7329719988 0.4195321272 0.6464488907
C -2.0607942023 0.0168066008 0.5543010237
C -2.4658289392 -0.7785235088 -0.5179819296
C -1.5410295384 -1.1682201428 -1.4826062191
C -0.2206390582 -0.7567041422 -1.3720122799
Br 1.0163709580 -1.3252395885 -2.7031639456
Br -4.2580365697 -1.3666833066 -0.7186958216
Br -3.2648029457 0.5782204245 1.9084642813
Br 0.9813360809 2.6290521249 -1.9843725840
H 5.3070634298 1.6222290316 0.3055759231
H 3.8018418573 2.8943427821 -1.1982321550
H 2.0901946935 -1.0801731197 1.2101338085
H -0.4207684291 1.0448917732 1.4748528664
H -1.8544137745 -1.7911173331 -2.3102405472
