44
CONF110
C 5.1758156290 1.1430111838 -1.1420460118
C 3.7630001190 0.5935420573 -1.3050579638
C 2.7488163379 1.6223548079 -1.9320266207
N 1.4455244281 1.2562409997 -1.4295483422
C 1.3500023748 0.7213526108 -0.0666786801
S 3.0597096482 0.2192188602 0.3964325376
C 0.3241458143 -0.3366872789 -0.6054133050
C 0.5231422118 0.3677132967 -1.9699852467
O 0.1248602552 0.2068580455 -3.0991721213
N -0.9846788948 -0.4507922369 -0.0447356547
C -1.8814211963 0.5644615648 -0.1062546454
O -1.6122181662 1.6435257351 -0.6313217550
C -3.2855089293 0.2608609498 0.4428758844
C -3.3004754988 -0.7903391008 1.5287579118
C -3.8361446825 -2.0565892869 1.2940653225
C -3.8290410835 -3.0375013186 2.2830645523
C -3.2790559719 -2.7493730418 3.5314462539
C -2.7386972977 -1.4850597397 3.7845385244
C -2.7536432797 -0.5201532681 2.7890309238
O -3.2403957321 -3.6609485535 4.5471298790
N -3.8652524782 1.5224755334 0.9164209844
C 3.1163126728 3.0687324874 -1.6385777510
O 2.5907609457 3.5133575901 -0.4863013047
O 3.8268733560 3.7308325599 -2.3623862817
C 3.7750056966 -0.6709540096 -2.1645422349
H 5.5804466318 1.4059781001 -2.1248901873
H 5.8223757469 0.3780384464 -0.7032616103
H 5.2030488746 2.0274102888 -0.5002123049
H 2.7634106318 1.5112549622 -3.0207244479
H 0.9489251145 1.4163792166 0.6746666420
H -1.2377810997 -1.2991454064 0.4409873503
H -4.2682350726 -2.2850411617 0.3232778289
H -4.2536997300 -4.0188660850 2.0886345267
H -2.3126387155 -1.2759070828 4.7606034312
H -2.3335528367 0.4611253462 2.9880935412
H -3.6395790520 -4.4898590621 4.2509314102
H -4.8652986249 1.3945521554 1.0320735563
H -3.7397656048 2.2252626385 0.1934187244
H 2.7682769169 -1.0670435029 -2.3241601131
H 4.2177825955 -0.4446048883 -3.1413939725
H 4.3736051740 -1.4467956685 -1.6805467747
H 2.8798050397 4.4329862427 -0.3517012952
H -3.8187442978 -0.1580994506 -0.4318818891
H 0.7866555422 -1.3270063204 -0.6463183723
