35
CONF435
C -1.2646890432 2.8136918059 1.1818874532
C -0.8262286260 1.6607690406 2.0629772115
O 0.4172693397 1.1650906150 1.5920791419
C 0.6939009951 -0.1600808431 2.0314216164
C 2.0563047459 -0.5415635112 1.4731717544
O 2.2647514559 -1.9501373618 1.6193458130
C 2.3338726528 -2.6808668736 0.4015758781
C 0.9880588828 -2.9434462781 -0.2488822892
O 0.4506572312 -1.7109153354 -0.6959604474
C -0.8134849454 -1.8320366646 -1.3319250324
C -1.4313777833 -0.4582104632 -1.4240125804
O -0.6631552620 0.3252497858 -2.3284590260
C -1.0123470173 1.7041865171 -2.3471019994
C -0.6049953923 2.4731583031 -1.1006313574
O -1.6438298859 2.3730622935 -0.1183988350
H -2.1483708438 3.2825306287 1.6336364405
H -0.4679460361 3.5707818162 1.1259503243
H -0.7403564268 1.9992448686 3.1114202071
H -1.5955238677 0.8719121910 2.0214352777
H -0.0618189522 -0.8581262002 1.6412188796
H 0.6903292458 -0.2177731225 3.1325715584
H 2.8523368985 -0.0218583312 2.0223330201
H 2.0967246502 -0.2378110820 0.4214817585
H 2.7867819966 -3.6463011552 0.6561621631
H 2.9926491591 -2.1704240560 -0.3181674778
H 0.3078517436 -3.4213595841 0.4776379084
H 1.1316858373 -3.6406495985 -1.0947611535
H -1.4837563984 -2.4791928008 -0.7402280763
H -0.6989162293 -2.2764391767 -2.3343597787
H -2.4733741687 -0.5462085512 -1.7793675372
H -1.4473235188 -0.0032041985 -0.4255679835
H -2.0940387039 1.8364396520 -2.5190649298
H -0.4748459487 2.1198392261 -3.2059911363
H 0.3385068218 2.0656082246 -0.7148925260
H -0.4553020983 3.5350396002 -1.3624397517
