31
CONF27
C -3.7458377389 0.4810056392 1.0537051600
C -3.4537377670 -0.7652756164 1.6292955937
C -2.4184096547 -1.5405894206 1.1427207561
C -1.6512255148 -1.0690932170 0.0672657788
C -1.9464179379 0.1783817378 -0.5079746395
C -2.9994746767 0.9526324770 -0.0114102825
C -1.1141644389 0.6472467333 -1.6038121040
N -0.0784335230 -0.2552719999 -1.9062425371
N 0.1353211639 -1.4786661195 -1.3231066708
N -0.6159762072 -1.8759695333 -0.3919284143
C 0.9456998473 0.1395475741 -2.8479379383
S 2.0434503146 1.5281513942 -2.2488498761
P 2.7714567427 0.7677464519 -0.4321376112
S 4.1500299855 1.8987157104 0.3079636389
O 1.4768553060 0.5214048067 0.5230263648
C 0.8666051432 1.6522619789 1.1831249272
O 3.1044151358 -0.7542179750 -0.8232886290
C 3.3532291056 -1.7249828586 0.2250460173
O -1.2418571953 1.6925092466 -2.2193503578
H -4.5636035714 1.0755045842 1.4471076475
H -4.0490741102 -1.1234847511 2.4627517322
H -2.1759427818 -2.5082231809 1.5680771061
H -3.2041466723 1.9117834151 -0.4743691323
H 1.5545690300 -0.7380311346 -3.0640239457
H 0.4845789155 0.5459706146 -3.7520028828
H 0.0591733569 1.2406998238 1.7912625793
H 0.4579299638 2.3478144736 0.4410820018
H 1.5995757247 2.1650514932 1.8125412990
H 2.4172406894 -1.9650903363 0.7354543922
H 3.7446852298 -2.6083865561 -0.2796107191
H 4.0934868445 -1.3391457517 0.9331206429
