73
CONF1996
C -0.8786063848 3.0789292716 -0.7926834355
C -1.7138943723 2.3289574521 0.2220472582
O -2.9714985423 2.0220080299 -0.4231048192
C -3.8746703949 1.2769456090 0.3666473497
O -3.3716281506 -0.0081536276 0.7008143442
C -3.4032070641 -0.9584668629 -0.3671277025
C -4.5885792997 -1.9002664194 -0.1912931852
O -5.7805958815 -1.1359367983 -0.3595445166
C -4.5260781242 -3.0606878040 -1.1829352215
O -5.6197755402 -3.9560982025 -0.9757345427
C -3.1739979386 -3.7696032238 -1.0725802882
C -2.9660928310 -4.8559517851 -2.1123002161
O -3.0911127163 -4.3693368597 -3.4488652844
O -2.1306727151 -2.7987699299 -1.2882057896
C -2.1151121153 -1.7742766188 -0.3117003180
O -1.0488040610 -0.9102866079 -0.6357477450
C 0.2229256477 -1.2812962852 -0.3064740683
C 0.5520244502 -2.5414099324 0.1945694899
C 1.8823963224 -2.7976947393 0.5070820814
O 2.2118388456 -4.0164656792 0.9617611653
C 2.8900026894 -1.8116301732 0.3244186787
C 4.2792710998 -2.1241401691 0.5226199527
O 4.6682374595 -3.2384348805 0.9279509770
C 5.2587316313 -1.0400679179 0.1611118415
C 4.6452776976 0.3381203291 0.3710535678
O 3.3977418329 0.4454591205 -0.3877663905
C 2.4988604499 -0.5470632190 -0.1830151559
C 1.1803678269 -0.2802135561 -0.5027076254
C 5.5364954045 1.4618667388 -0.0650698664
C 5.8600793950 1.6366434200 -1.4132389247
C 6.7111777283 2.6579030294 -1.8145697372
C 7.2631102840 3.5146606975 -0.8575379939
O 8.1120643747 4.5304061920 -1.1881039627
C 6.9499962225 3.3513850591 0.4921777928
C 6.0856036148 2.3332159092 0.8767269641
C -4.1938864841 1.9683975753 1.6918205112
O -4.9758561277 3.1192806236 1.3774178666
C -2.9020164830 2.3590528977 2.4126007879
O -3.1911922919 3.2100117760 3.5342468010
C -1.9805203312 3.1399565503 1.4894109576
O -0.7187707257 3.3832556049 2.1182065852
H -1.3674153993 4.0192139750 -1.0681252227
H 0.1070927985 3.3028649066 -0.3781502610
H -0.7481959769 2.4718209216 -1.6932674261
H -1.2172888768 1.3906071198 0.5061156363
H -4.7812932763 1.1932248208 -0.2425857226
H -3.4552969535 -0.4521926091 -1.3406772221
H -4.5446687908 -2.3133908724 0.8327733868
H -6.5218690799 -1.7538719926 -0.2925733196
H -4.6435718954 -2.6740842156 -2.2014789735
H -5.5325339128 -4.3412201149 -0.0914881925
H -3.0685872891 -4.2172801471 -0.0683774513
H -3.7332287226 -5.6235969901 -1.9802900439
H -1.9805856921 -5.3146599901 -1.9491866380
H -2.3996486256 -3.7075463443 -3.5806323506
H -1.9760064254 -2.1962356454 0.6978463192
H -0.1752611621 -3.3334101474 0.3133762535
H 3.2046575237 -4.0087276033 1.0731596883
H 6.1654009910 -1.1446134490 0.7632712103
H 5.5380434321 -1.1722966966 -0.8938035136
H 4.3847778788 0.4614125913 1.4313625848
H 0.8884688181 0.6934382061 -0.8761592104
H 5.4378577550 0.9738865339 -2.1629386569
H 6.9521404993 2.7926257047 -2.8658065154
H 8.2504163210 4.5392562415 -2.1452492983
H 7.3792198477 4.0263448953 1.2254602543
H 5.8375814716 2.2145326193 1.9279120534
H -4.7697647623 1.2703848183 2.3185578645
H -4.9666531306 3.6787353027 2.1678194057
H -2.3812896444 1.4495815423 2.7433390376
H -3.5014987950 2.6557854078 4.2624349451
H -2.4617963520 4.0913747055 1.2131492070
H -0.9088358477 3.7740052065 2.9818350838
