20
CONF37
C 0.2299001364 -0.7627913527 -0.1053280109
O 0.8921592806 -0.1769738719 -1.2468748498
C 1.9541409531 0.5775727164 -0.8138882227
O 2.6828433237 1.2039168770 -1.5442863323
C 2.0410678769 0.4709714697 0.6372472215
O 2.9946352059 1.1059056604 1.3569911865
C 1.0514478635 -0.3241721155 1.0657060227
O 0.6832632673 -0.7127752467 2.3062992641
C -1.2300221818 -0.2938054502 -0.0308921630
O -1.3247559190 1.1192719139 0.1339429560
C -1.9993629360 -0.6241635308 -1.3016622900
O -3.3793762429 -0.3208190802 -1.1560289653
H 0.2491947207 -1.8557663286 -0.2251036734
H 3.5497448802 1.5830820264 0.7201058937
H 1.3157107313 -0.3574611088 2.9455213698
H -1.6991383016 -0.8213829559 0.8148691802
H -1.0980158464 1.3459500499 1.0426964054
H -1.9314904202 -1.6977842704 -1.5063149888
H -1.5487609830 -0.0792662093 -2.1432220216
H -3.4331852128 0.6204907173 -0.9497782782
