22
CONF14
C 1.8919582953 -0.3279096240 -0.7493997245
C 1.2899294003 -0.1932688806 0.6448779645
C -0.0677550749 0.5133687010 0.6703232033
C -1.1196365140 -0.1591883251 -0.2052488152
C -2.4892037729 0.4850611756 -0.0253731208
O -3.4857769291 -0.2490413007 -0.7539095035
O -1.1727563487 -1.5383035011 0.1702467514
O 0.0532590003 1.8620582755 0.2106811304
O 2.1502185558 0.6077601850 1.4730314789
O 3.2548547602 -0.7776272057 -0.6631807033
H 1.9270252943 0.6481360785 -1.2424519004
H 1.2915884003 -1.0156570892 -1.3580809875
H 1.1747784380 -1.1941182286 1.0870745061
H -0.4222840084 0.5005130418 1.7152202317
H -0.8230666292 -0.0628486658 -1.2640033827
H -2.7817536402 0.4312509658 1.0293160214
H -2.4617363635 1.5356545646 -0.3366857603
H -3.3542946823 -0.0705792360 -1.6944504748
H -1.9891077261 -1.8871140061 -0.2168831224
H 0.8335362989 2.2261674412 0.6534258974
H 3.0572755432 0.3666126288 1.2327799438
H 3.2429479197 -1.7009270109 -0.3773095436
