31
CONF9
C 5.1525661283 1.1885799784 -1.5126946269
C 4.1206898090 0.4827272353 -0.6962248384
N 3.0892596489 1.1873409990 -0.2429832513
C 2.1805187439 0.5295591582 0.4807869417
N 1.0604646068 0.9948017636 1.0540475445
C 0.5640699937 -0.1110124684 1.6365532615
N 1.2400805917 -1.2532514741 1.5043152898
N 2.2875375162 -0.8360105688 0.7590285192
C 3.3367791153 -1.5711169541 0.3112651838
C 4.2705999212 -0.9081353247 -0.4290086862
S -1.0292618150 -0.1027119876 2.4715206964
O -1.1127010279 -1.2982014211 3.3097311329
O -1.2313114488 1.2450470371 2.9987988505
N -2.1738553637 -0.3263915082 1.2238929790
C -2.2473098741 0.6858191291 0.2316951774
C -3.0616470826 1.8075346977 0.4041260374
C -3.1545101026 2.8109817506 -0.5442037133
C -2.4204071629 2.6894130582 -1.7203971615
C -1.6068252979 1.5824624641 -1.9491284035
C -1.5331067841 0.6141131697 -0.9672966662
F -0.7449972384 -0.4668757578 -1.1597637491
F -3.7935282014 1.8987329824 1.5277605602
H 5.2323256130 0.7226017996 -2.5008495077
H 4.8997031414 2.2425961258 -1.6264608924
H 3.3590805380 -2.6234230398 0.5689071034
H 5.1275940888 -1.4468569164 -0.8139375595
H -3.8006182948 3.6614145589 -0.3598386081
H -2.4871545149 3.4665839149 -2.4735611109
H -1.0309391536 1.4710788849 -2.8604393603
H 6.1348529065 1.0970454580 -1.0366524869
H -2.0854355899 -1.2686785184 0.8456774704
