33
CONF216
C 4.7891844126 0.6889293629 -0.4725318043
C 6.0138640169 1.5282125563 -0.1458947630
O 6.5374079080 1.1206560434 1.1225171097
C 3.6352240973 0.8897403078 0.4888426351
C 2.2811589013 0.3705235768 -0.0882927793
C 1.1142845935 0.2428380211 0.9516931475
C -0.3063689464 0.1842259216 0.2800163846
C -1.4134171241 -0.4040981352 1.2160670843
C -2.9120244489 -0.1309991450 0.8037784140
C -3.3429141237 -0.5680089945 -0.6317771759
C -4.8917758928 -0.6001279174 -0.8587150241
F -5.4517468390 0.5491092715 -0.4597370609
F -5.1253882819 -0.7651472069 -2.1676420898
F -5.4518145520 -1.6157175590 -0.1937285513
F -2.8699792904 -1.8080075828 -0.8901256529
F -2.8176517348 0.3023398662 -1.5232296316
F -3.6649955124 -0.8181316568 1.6986554713
F -3.1646228637 1.1861325691 0.9517276899
F -1.2703267104 0.1474668999 2.4465936503
F -1.2435053977 -1.7387794751 1.3161984685
F -0.6576727347 1.4394147532 -0.0783202095
F -0.2425704060 -0.5922958053 -0.8281466779
F 1.1378111570 1.3055980561 1.7871004200
F 1.3025963651 -0.8859534071 1.6747663923
F 1.8910936566 1.2155675285 -1.0789984967
F 2.4887869305 -0.8566001513 -0.6299830712
F 3.8418247149 0.2337355635 1.6760687902
F 3.4682696542 2.2156909625 0.7883713074
H 4.4481683323 0.9598074285 -1.4775022284
H 5.0408257331 -0.3754587053 -0.4798079300
H 5.7517043259 2.5940884257 -0.1375354639
H 6.7487299092 1.3632559129 -0.9454118472
H 7.3122415299 1.6662439648 1.3046709101
