39
CONF322
C 7.2721945660 1.6097943612 -2.0557249275
C 6.1549616464 2.3890898902 -1.3610513035
C 5.7931073646 1.8453781813 0.0245839857
C 5.2127455447 0.4308593025 -0.0067148554
C 4.6965261770 -0.0544944025 1.3558169548
C 5.8414538935 -0.4470234465 2.3052580680
C 5.4295298474 -0.5461480746 3.7743122958
C 3.7625720683 -1.2445506703 1.1795208538
O 2.5458644095 -0.8559915030 0.4553055190
C 1.5703979670 -0.3124089525 1.1822653971
O 1.5663473707 -0.1721082593 2.3859338393
C 0.4047720051 0.0714819284 0.3147027890
C -0.6963468982 -0.7736573537 0.2911148143
C -1.8053175341 -0.4472526722 -0.4755833435
C -1.8350018618 0.7341674454 -1.2240706350
C -0.7260143681 1.5960865479 -1.1884086011
C 0.3908857525 1.2559040942 -0.4172380003
Br 1.9071211206 2.3963160772 -0.3013751263
Br -0.7376364674 3.2124823827 -2.1744176311
Br -3.3561254011 1.1634557431 -2.2642552519
Br -3.2616390075 -1.6668452456 -0.4616511600
H 6.9698426623 0.5821324425 -2.2798341054
H 7.5540531005 2.0846361473 -3.0008617206
H 8.1656228983 1.5645469864 -1.4220673193
H 6.4587644818 3.4382847982 -1.2590897613
H 5.2560998369 2.3865389306 -1.9929706225
H 6.6850906583 1.8792955461 0.6641382110
H 5.0536011923 2.5139088304 0.4870824352
H 5.9623035113 -0.2859650804 -0.3686824497
H 4.3874739769 0.4154627905 -0.7301061529
H 4.1219819105 0.7569084214 1.8256775140
H 6.6388945449 0.2976736935 2.2107617170
H 6.2712384218 -1.3999961053 1.9656767140
H 4.6756365195 -1.3214941495 3.9423967462
H 6.2921344613 -0.7857667478 4.4037030747
H 5.0128209888 0.4053570811 4.1219429946
H 3.4636894528 -1.6867047487 2.1318177455
H 4.2159374629 -2.0086681751 0.5424308124
H -0.6848258422 -1.6905193287 0.8690132750
