48
CONF1
C -3.2424820359 1.9603752685 1.7219089546
Si -1.7915996776 1.1384314413 0.9294689069
O -0.5320325337 1.1987619398 1.9990523347
O -2.1508315029 -0.4240831944 0.5868599841
Si -1.8926414182 -1.6703518056 -0.4665696084
C -1.9119134032 -1.0780009064 -2.2292969031
C -3.1923927071 -2.9541206815 -0.1226344322
O -0.4053327353 -2.3317914458 -0.1708325919
Si 0.7958241501 -2.1546098065 0.9456120810
C 0.1187393006 -2.2938731702 2.6732380851
C 2.0867202709 -3.4453239166 0.5933291187
O 1.4298838748 -0.6227346718 0.8045947908
Si 2.1944678844 0.2980133452 -0.3516620287
C 3.3168995592 1.4662129480 0.5607437011
C 3.0972222343 -0.7786434516 -1.5688855792
O 1.0423446269 1.1170223132 -1.1948220704
Si 0.0001019099 2.3959518477 -1.1966132686
C 0.7210528018 3.8468560439 -0.2776635444
C -0.3987905457 2.8071727605 -2.9637094307
O -1.4056314686 1.9190311234 -0.4643797168
H -3.5625914334 1.4114047145 2.6130293844
H -4.0855437413 2.0044514506 1.0249715964
H -2.9925472249 2.9839212803 2.0194124588
H 0.2210737347 0.6204206688 1.7907369213
H -2.8439375861 -0.5511134853 -2.4601374673
H -1.0752977835 -0.3973447136 -2.4165009363
H -1.8199195857 -1.9277672242 -2.9148510718
H -3.0391404244 -3.8389510451 -0.7495418822
H -3.1559446916 -3.2676341922 0.9266071225
H -4.1940095772 -2.5607529313 -0.3273707693
H 0.9136411433 -2.1511424625 3.4135023837
H -0.3166008586 -3.2869288268 2.8298549029
H -0.6602281351 -1.5469608818 2.8581553814
H 1.6872214156 -4.4393185807 0.8238406594
H 2.9761052446 -3.2860024170 1.2122786511
H 2.3917327608 -3.4375688713 -0.4572099783
H 4.1188380219 0.9085684925 1.0569479758
H 3.7748103698 2.1872970455 -0.1245526150
H 2.7669167527 2.0239369437 1.3262845435
H 3.8669505856 -1.3811337344 -1.0760644899
H 2.4066346103 -1.4545194630 -2.0851484473
H 3.5852367384 -0.1522228987 -2.3239177804
H 0.8786929794 3.6084405583 0.7790255949
H 0.0391801360 4.7026845495 -0.3354541712
H 1.6817955296 4.1473926494 -0.7094703641
H 0.5020141232 3.1312248919 -3.4960289901
H -0.8109522425 1.9377330984 -3.4867695754
H -1.1337391660 3.6175896202 -3.0149278226
