37
CONF6
C 3.1374263384 -3.8134938262 1.0896244669
C 4.0029936970 -2.6870812789 0.5659280969
C 5.2359636937 -2.4280972313 1.4105170943
O 3.1463066733 -1.4860885667 0.5964115584
C 3.4379009029 -0.4973675189 -0.2612919048
O 4.3677013637 -0.5049971674 -1.0423274160
C 2.4323646889 0.6002069036 -0.1500071409
C 2.7582221064 1.9563357604 -0.2790528195
C 1.7772378851 2.9371944349 -0.2131423939
C 0.4626780571 2.5492181982 -0.0289910049
C 0.0750696239 1.2140995895 0.0993950137
C 1.0917069574 0.2610092943 0.0432594571
C -1.3189168715 0.8195211871 0.2996561816
N -2.3124539136 1.3539489594 -0.4290294573
N -3.4450958673 0.7793803635 -0.0168236019
C -3.2189195386 -0.1296939903 0.9699271656
C -1.8500588887 -0.1256937685 1.1968057508
Br -0.9349081759 -1.1184488822 2.5056611539
C -4.2546606743 -0.9380946796 1.6750650804
F -5.4850217386 -0.7840300995 1.1475905416
F -4.3345672673 -0.6035817767 2.9869646822
F -3.9585018126 -2.2585941290 1.6296865692
C -4.7040952406 1.1775861236 -0.6489392968
F -0.4641096847 3.5187724056 0.0593583570
Cl 4.4113753202 2.4946984973 -0.4511065087
H 2.8273309826 -3.6129439400 2.1199475419
H 2.2472053265 -3.9427800887 0.4682602245
H 3.7103080179 -4.7450546462 1.0750650366
H 4.2800092754 -2.8601702688 -0.4783596953
H 4.9486960665 -2.2200687417 2.4460467667
H 5.8095247399 -1.5841101397 1.0198618261
H 5.8756501608 -3.3157101567 1.3997073776
H 2.0240908443 3.9898196402 -0.2825024382
H 0.8313711740 -0.7873574634 0.1220143066
H -5.1554354116 0.3270693191 -1.1636329282
H -4.4562279427 1.9575483641 -1.3677541757
H -5.3944500747 1.5686358897 0.1008168466
