55
CONF260
C 4.5529704216 -4.2292912669 -1.7106431028
O 4.9751761998 -2.8600121110 -1.6309273700
C 4.0812583037 -1.9516124195 -1.1531720119
C 4.5324755060 -0.6280452837 -1.0890525247
C 3.6938541547 0.3649602632 -0.6093867904
C 2.3894763956 0.0731656717 -0.1909336890
C 1.9553373599 -1.2511015510 -0.2569825402
C 2.7853816576 -2.2636542715 -0.7308410139
C 1.5084110887 1.2022228159 0.2712720734
S 0.6876746306 0.7197660443 1.8693492907
C -0.6675272669 1.8762955486 1.9509052205
C -0.7028406410 2.8154554739 2.9853777106
C -1.7918683100 3.6669370656 3.1303339420
C -2.8450346276 3.6049817831 2.2205526782
C -2.8125548126 2.6884801851 1.1770210820
C -1.7360702469 1.8093088016 1.0386094647
N -1.7591516123 0.8519133023 -0.0147386567
C -2.8813155461 -0.1019433692 -0.0562056111
C -2.5543894701 -1.3359647758 0.7878964944
N -3.6418708084 -2.3160938074 0.7644161813
C -3.1560375699 -3.6113657842 1.2500320832
C -4.7705612271 -1.8781935158 1.5921449307
C -0.7222682094 0.6591099642 -0.8837344710
O -0.7279302219 -0.2262943231 -1.7345035517
C 0.4386314300 1.6454152969 -0.7570346413
O 1.0396941200 1.7305343386 -2.0626533287
C 1.7593269051 2.8507561772 -2.3317268421
C 2.3847182087 2.7604563808 -3.6879303192
O 1.8757972119 3.7735880476 -1.5533322137
H 5.4039663058 -4.7763400834 -2.1167754150
H 3.6916451768 -4.3355616782 -2.3799845770
H 4.3022199054 -4.6205932271 -0.7179509750
H 5.5424647643 -0.3974624920 -1.4124077956
H 4.0554918376 1.3888593977 -0.5609178269
H 0.9525464832 -1.5088097812 0.0676841533
H 2.4134125397 -3.2802123703 -0.7631571269
H 2.1337261949 2.0774476441 0.4688095463
H 0.1292772068 2.8655988494 3.6796235060
H -1.8106242909 4.3849588706 3.9434961072
H -3.6892250402 4.2803090024 2.3130125561
H -3.6226190460 2.6542259716 0.4557976570
H -3.0573470884 -0.3904828488 -1.0947129309
H -3.7676498240 0.4121212285 0.3185495729
H -1.6566636783 -1.8041674800 0.3683801768
H -2.3085785661 -1.0185525355 1.8215612679
H -2.7900794480 -3.5607737816 2.2933560649
H -2.3369445500 -3.9637204616 0.6148433714
H -3.9670109155 -4.3458215539 1.2094829186
H -4.4790504316 -1.7342954366 2.6502438655
H -5.1862353855 -0.9377326296 1.2199748630
H -5.5632308334 -2.6319413001 1.5537695665
H 0.0689392869 2.6350196059 -0.4743799287
H 1.6718039965 2.3756412922 -4.4203010539
H 2.7585430064 3.7388025936 -3.9872522229
H 3.2204575653 2.0537098297 -3.6348582373
