52
CONF94
C -2.1784277999 0.5338691273 0.2664565437
C -2.9259689429 0.7359940471 -1.0225567359
C -2.3395078624 1.1354932774 -2.2358468261
C -3.1014716173 1.3291770331 -3.3959740063
C -4.4680156173 1.0628698877 -3.3656051165
C -5.0650900541 0.6418292557 -2.1844763504
C -4.3049947870 0.4995392438 -1.0328283840
C -2.5710417085 1.8655258158 -4.6925680853
O -2.5699523715 1.2419022673 -5.7312710211
O -2.2275934996 3.1541340910 -4.5668589145
C -1.6809909253 3.7676025184 -5.7636766885
S -0.5513174173 1.3492590271 -2.3495098572
O -0.1682666418 1.3915650784 -3.7637522158
O -0.0937696830 2.4077258485 -1.4386284261
N 0.0911772782 -0.0664730693 -1.6722019453
C -0.2644464135 -1.3232612835 -2.1111552583
O -0.9575584350 -1.5411814986 -3.0920762840
N 0.2288503693 -2.3775333000 -1.3413975237
C 0.9394115728 -2.3776985539 -0.1540221154
N 1.2913073612 -1.2144492066 0.3863506841
C 1.9804604476 -1.3046855239 1.5520094776
N 2.2908971191 -2.4837746178 2.1440026680
C 1.8715816934 -3.5486330577 1.4910489035
N 1.1969462864 -3.5971486557 0.3385028197
O 2.1325623491 -4.7817659214 1.9828237096
C 2.7912016148 -4.8962369098 3.2457459408
C 1.7558124527 -5.1077697424 4.3342884384
F 2.3701450995 -5.2464920320 5.5309997611
F 1.0186176964 -6.2212923823 4.1209722429
F 0.8899770639 -4.0743909186 4.4320761898
N 2.3623697966 -0.1585144584 2.1281608231
C 3.0881520584 -0.1148260349 3.3943137198
C 2.0604829371 1.1204409911 1.4824067052
H -2.8722066195 0.6374305000 1.1030954767
H -1.7515883744 -0.4743977539 0.3182618069
H -1.3669010521 1.2510189540 0.3978642753
H -5.0558308082 1.2063888613 -4.2660539818
H -6.1305398828 0.4388856236 -2.1595420936
H -4.7810034796 0.1909189333 -0.1071494496
H -2.4198342878 3.7448915882 -6.5676716655
H -0.7778597136 3.2336023455 -6.0684754230
H -1.4484568610 4.7928256096 -5.4801455223
H 0.5887990172 -0.0078893977 -0.7655317598
H 3.4207047162 -5.7874134328 3.1958440045
H 3.3883098281 -4.0142024259 3.4846006001
H 2.5467753135 0.5222581997 4.1015636767
H 3.1778200407 -1.1170318987 3.8080824050
H 4.0885867132 0.3044401970 3.2373983092
H 2.5083925821 1.9149441129 2.0798754435
H 2.4785640114 1.1583149261 0.4714818219
H 0.9793037465 1.2877792625 1.4226634404
H -0.0286273182 -3.2915640705 -1.6914245586
