74
CONF193
C -0.3171857396 -1.0886674593 -0.0998734577
C 0.7085092196 -2.1942591406 -0.3029099543
O 0.0443363535 -3.3838183805 0.2497944777
C -0.9163838590 -3.0189575209 1.1396014315
O -1.5404387786 -3.8425458764 1.7665593248
C -0.9710441721 -1.5121938910 1.2059843105
C -2.3071738742 -0.8004309330 1.4304724152
C -3.4230922676 -1.2937706288 0.5164641765
C -3.6460161222 -0.7084279667 -0.7316516616
C -4.6502213803 -1.1921831336 -1.5723027698
O -4.9417734379 -0.6892425713 -2.8070863415
C -4.1468360278 0.4091518799 -3.2674742791
C -5.4469197257 -2.2655751449 -1.1602292202
O -6.4314874713 -2.7235041636 -1.9891204406
C -5.2269398802 -2.8379218336 0.0980657014
O -6.0773597200 -3.8695642061 0.3900713331
C -5.8961906759 -4.5390492972 1.6447440169
C -4.2241023962 -2.3573931746 0.9367128132
C -2.0653046313 0.6950257729 1.2683983462
C -3.0414888500 1.5566792232 1.8119955729
C -2.8820370224 2.9070611847 1.6299514983
C -1.8010856254 3.4287454590 0.9259235242
O -1.8851622267 4.7951797494 0.8807987029
C -3.0817827990 5.1487736133 1.6088483773
O -3.6941467340 3.9201139631 2.0606542661
C -0.8405115198 2.6164226379 0.3812618164
C -0.9762937078 1.2204387798 0.5590493428
C 0.1363293684 0.3543096820 -0.0034238757
O 1.2821836439 0.4470230416 0.8948582969
C 2.4349176537 0.9668174131 0.3257952468
O 2.9818566997 -0.0173332631 -0.5682216063
C 4.1751962979 0.4635412365 -1.1822680113
C 4.6645881666 -0.5497184994 -2.2037894813
O 5.9182879172 -0.0918685606 -2.7273890235
C 6.8878395440 0.0796982798 -1.6990672842
C 8.1716881909 0.5446743589 -2.3316443380
O 6.4668116416 1.0675584595 -0.7591237711
C 5.2571714944 0.6515225802 -0.1198936163
C 4.7976105619 1.6869956357 0.8807341815
O 5.7624003944 1.7985300440 1.9216361991
C 3.4335692512 1.2648362071 1.4490876940
O 2.9455008313 2.2543010695 2.3518222736
H -1.0638899168 -1.1506933883 -0.9016923158
H 0.9449675093 -2.4122935021 -1.3449672169
H 1.6237742313 -2.0229818438 0.2682399729
H -0.2973893923 -1.2404707716 2.0355826417
H -2.6258722279 -0.9841542680 2.4629408910
H -3.0496733314 0.1427052748 -1.0350895970
H -3.0886516683 0.1289517735 -3.3358311781
H -4.5266214820 0.6514213417 -4.2605111813
H -4.2560774919 1.2793665900 -2.6089693384
H -6.8749210214 -3.4571309322 -1.5374960061
H -6.6446614366 -5.3311975018 1.6682055105
H -4.8922132293 -4.9733467772 1.7120724923
H -6.0596684278 -3.8498924861 2.4811299395
H -4.0517251851 -2.8062126172 1.9062255027
H -3.8950902930 1.1554753292 2.3488429929
H -2.8100618227 5.7578491268 2.4776677497
H -3.7727902508 5.6704460360 0.9383630499
H -0.0038937605 3.0286884494 -0.1729642185
H 0.4364480102 0.7319105601 -0.9882769550
H 2.2229238503 1.8869007992 -0.2540270574
H 3.9901484208 1.4272148208 -1.6852535999
H 3.9755921018 -0.6361374332 -3.0476003595
H 4.7801586438 -1.5352997799 -1.7249758684
H 7.0056264810 -0.8804549089 -1.1637389385
H 8.0068814042 1.4928418064 -2.8508829503
H 8.5222009932 -0.2016829885 -3.0478443853
H 8.9333641417 0.6834209709 -1.5612809152
H 5.4222395634 -0.3099312813 0.3974362035
H 4.6804320650 2.6539662941 0.3592191046
H 5.3843419017 2.3809266185 2.5951876482
H 3.5602067251 0.3503230893 2.0409045267
H 2.7860756061 3.0684981109 1.8530404338
