38
CONF16
C -3.6407073473 -0.3921262862 -1.7251943002
N -2.2830280660 -0.5230358824 -2.2535424949
C -2.2538736147 -0.0827273889 -3.6479922640
C -1.3194040875 0.2547408345 -1.4694216681
C -1.1137128297 -0.2829723801 -0.0571607013
C 0.0004242237 0.4848139038 0.6749659795
C 1.3504681388 0.3376318173 -0.0068587711
C 1.9446569589 -0.9182864835 -0.1612114116
C 3.1763911787 -1.0568117271 -0.7902367633
C 3.8196357669 0.0795304241 -1.2680271534
Cl 5.3791212716 -0.0868512015 -2.0672857861
C 3.2589607290 1.3412994735 -1.1287466645
C 2.0241475904 1.4577022011 -0.4954447328
C 0.1116854809 0.0798704972 2.1345477157
C 0.3577671717 1.0459885750 3.1138584065
C 0.4927245767 0.6500873745 4.4374843538
C 0.3791017909 -0.7012175026 4.7472606757
C 0.1324916252 -1.5924503446 3.7093539675
N -0.0004877570 -1.2216437500 2.4303877219
H -3.7048597994 -0.8050033906 -0.7149333477
H -3.9817650204 0.6622767515 -1.6928161864
H -4.3335613208 -0.9544700818 -2.3593365258
H -2.9486669915 -0.6861906900 -4.2414166987
H -1.2473337540 -0.2147310749 -4.0586098939
H -2.5375577969 0.9822014159 -3.7657394484
H -1.6155225630 1.3253859362 -1.4185696425
H -0.3591222298 0.2189284796 -1.9991974345
H -0.8665174946 -1.3479218067 -0.1010557458
H -2.0290682487 -0.1891828410 0.5372935814
H -0.2526776729 1.5519423387 0.6591037664
H 1.4423502193 -1.8010513233 0.2209173506
H 3.6316953190 -2.0337201556 -0.9068376662
H 3.7730753291 2.2169519268 -1.5083535547
H 1.5777526788 2.4424347919 -0.3876655776
H 0.4427756646 2.0915128527 2.8338406934
H 0.6820744789 1.3834738258 5.2152092772
H 0.4759556733 -1.0585061684 5.7667152110
H 0.0346102254 -2.6578726342 3.9122508304
