41
CONF62
C 6.4774161359 -0.4213581800 2.8857021678
C 5.2152224969 -0.9231684347 2.2155490743
O 4.5586502815 0.1406522714 1.4716138529
C 3.7642326104 0.9717513762 2.1972470188
O 3.5060896104 0.8240714215 3.3845036598
N 3.3156026679 1.9940571449 1.4250765456
C 2.2854095257 2.9001475849 1.9079932353
C 0.8855493847 2.3229019208 1.8110272105
O 0.6032361740 2.1358815605 0.4154394184
C -0.5950494667 1.5778825373 0.0760923597
C -0.8072461723 1.3877042847 -1.2956951742
C -1.9949550331 0.8362394497 -1.7478384861
C -2.9726491616 0.4634333882 -0.8272543748
C -2.7730444334 0.6460693801 0.5308652378
C -1.5827221406 1.2107754967 0.9924360966
O -4.2006726839 -0.0271994898 -1.2637645521
C -4.2287598828 -1.2544959887 -1.8931075107
C -5.3917996220 -1.5491563158 -2.6052133231
C -5.5126744098 -2.7817569263 -3.2361668422
C -4.4817741902 -3.7188762096 -3.1657487576
C -3.3279300238 -3.4111305541 -2.4498260052
C -3.1910012030 -2.1818214752 -1.8074863684
H 7.1662451226 -0.0001262514 2.1477594043
H 6.9777992460 -1.2552885142 3.3881737416
H 6.2454943857 0.3417512696 3.6334013194
H 4.5101741464 -1.3398714464 2.9396028326
H 5.4395668943 -1.6767638698 1.4572416335
H 3.4748660382 1.9344954708 0.4309015824
H 2.3438316956 3.8245455767 1.3251964493
H 2.4885010617 3.1443014932 2.9545781817
H 0.8275177335 1.3617083219 2.3385912247
H 0.1628396140 3.0218681510 2.2537470367
H -0.0328762792 1.6862179969 -1.9947930805
H -2.1672372292 0.6908272637 -2.8096377105
H -3.5479674880 0.3519403174 1.2311766683
H -1.4459110912 1.3525285800 2.0572076066
H -6.1848114406 -0.8100776350 -2.6542922924
H -6.4181852741 -3.0081998253 -3.7906764932
H -4.5786474450 -4.6782176677 -3.6628946308
H -2.5204089316 -4.1337711648 -2.3821204339
H -2.2919202286 -1.9504721879 -1.2474490296
