41
CONF47
C 4.4192507490 -3.6066203296 -1.7133736319
C 4.3452967276 -2.2322337369 -1.0980580163
O 2.9961570078 -2.0971437069 -0.5443684665
C 2.7147374708 -0.9652047028 0.0618516666
N 3.5533971118 0.0318331130 0.1842160588
C 3.1394576057 1.1268558533 0.8356759258
C 1.9088497658 1.3315916132 1.3974845859
C 1.0085191042 0.2636082242 1.2539309864
N -0.2524118952 0.0753970921 1.6302854815
C -0.5101903115 -1.1704019185 1.1595518352
N 0.4579262006 -1.8098138816 0.5165065846
N 1.4492595663 -0.8791991108 0.5767419981
S -2.1714978546 -1.8774210851 1.2692106261
O -2.7174932470 -1.4947359123 2.5638015939
O -2.0978998881 -3.2472963869 0.7847928002
N -2.9980762887 -0.9839348858 0.0490355772
C -3.3706247552 0.3479165614 0.3404487345
C -2.6246504165 1.4611150574 -0.1137569658
C -3.0359835395 2.7574967562 0.2055188308
C -4.1736827301 2.9672077937 0.9684899112
C -4.9319464432 1.8861971351 1.3974843394
C -4.5429491264 0.5918593348 1.0728918244
Cl -5.5881815655 -0.7198038540 1.5336660295
C -1.4253353224 1.2633144893 -0.9633956911
O -1.1664092561 0.2550983441 -1.5994344086
O -0.6306015838 2.3529671448 -0.9884309254
C 0.5081190603 2.2540000517 -1.8687924133
F 4.0594969370 2.0948784639 0.9158737645
H 3.6798073036 -3.7188827703 -2.5099221417
H 4.2457476953 -4.3806514479 -0.9619936344
H 5.4154259914 -3.7533710026 -2.1401937922
H 5.0628210513 -2.0955693053 -0.2834229590
H 4.4943899539 -1.4334999452 -1.8309462543
H 1.6347143093 2.2422088972 1.9103402667
H -2.4392126109 -1.0369872898 -0.8059151110
H -2.4550461448 3.5969722936 -0.1536136552
H -4.4860338081 3.9753604374 1.2173256232
H -5.8414692295 2.0352197199 1.9675810930
H 1.1345932890 1.4018242999 -1.5917503413
H 0.1780764419 2.1319537564 -2.9036658642
H 1.0536522985 3.1885349509 -1.7416723628
