26
CONF521
C -2.5816641132 -0.1912445540 0.5845945678
C -1.6331775318 0.9795027076 0.8441845635
C -0.3342474207 0.9301944390 0.0298182859
C 0.5584654443 -0.2839238348 0.3592097739
C 1.9578270774 -0.1481802178 -0.2647205272
C 2.8439200107 -1.3664409751 -0.0236058102
O 2.4095227545 -2.4794813342 -0.8219650246
O 1.8722366420 0.0957309036 -1.6804145058
O 0.7854222602 -0.3712082218 1.7715261945
O -0.6996939980 0.9304338452 -1.3602934032
O -2.3036046340 2.2244557555 0.6190151917
O -3.1559635918 -0.1517482652 -0.7263285409
H -2.0609917519 -1.1458207241 0.7611125306
H -3.4160328971 -0.1301774983 1.2903562588
H -1.3620056477 0.9718250336 1.9053919818
H 0.2320903531 1.8463985229 0.2683017640
H 0.0728334305 -1.1952605298 -0.0236257219
H 2.4384201573 0.7327867908 0.1806658579
H 2.8673050055 -1.6182983051 1.0416087175
H 3.8596787089 -1.1332666055 -0.3574467358
H 1.8104373072 -0.7813835080 -2.0939396054
H 0.0769808957 -0.8907490188 2.1690739529
H 0.1277375624 0.7711958942 -1.8502081520
H -2.7128213601 2.1619213686 -0.2556390711
H 1.6784928458 -2.9154488473 -0.3669788190
H -2.4115799518 -0.0479885900 -1.3420043698
