15
CONF76
N -0.4715870078 1.1317474438 0.7135721051
C -0.3428611180 -0.3244363008 0.5789907487
C 0.6506493182 -0.8152207739 -0.4738201744
S 2.3980379813 -0.3489319531 -0.1206884455
S 2.5770187045 1.5757780373 -0.9033788011
C -1.7271356242 -0.9535718305 0.3006046898
O -2.7578007890 -0.1320189729 0.5459837101
O -1.8638565498 -2.0905882142 -0.0753532484
H -0.2893969238 1.5876112010 -0.1750391687
H 0.2093811134 1.4954385835 1.3688114366
H -0.0413809192 -0.7290381693 1.5547329053
H 0.3850414126 -0.4555241381 -1.4733900751
H 0.6365909464 -1.9098899858 -0.5036189556
H 2.9803596742 1.2469469955 -2.1501620035
H -2.3430605099 0.7216980828 0.8127555834
