46
CONF113
C 0.4915806587 2.2456300203 -3.6266204787
C 0.5205004947 1.3657511189 -2.4015602785
O -0.7631194186 1.5347346712 -1.7109519916
P -0.9557568950 1.0286656980 -0.2022563985
S 0.2303172764 1.7725312280 1.1611275393
N -2.5530311486 1.2356828841 0.1325078061
C -3.6622270680 0.8798702128 -0.7864110329
C -4.0135371129 2.0363462572 -1.7212497203
C -4.8695913143 0.4580413228 0.0462249999
O -0.7536429785 -0.5816460446 -0.4754672418
C -0.6079233100 -1.4688046034 0.5797743851
C -1.7491174694 -2.0372844285 1.1304957160
C -1.6322961479 -2.9409638084 2.1817212825
C -0.3762479182 -3.2630099694 2.6899010566
C 0.7609600740 -2.6873784507 2.1373961760
C 0.6663745868 -1.7911362633 1.0659811672
C 1.9045556073 -1.2684924887 0.4239696030
O 2.0447105301 -1.1177274750 -0.7755155726
O 2.8640536046 -1.0449936371 1.3354220918
C 4.1865741062 -0.6254632712 0.8374565848
C 4.1758604667 0.8715473577 0.5928361365
C 5.1746100271 -1.0517578515 1.9029226759
H -0.3333808466 1.9653368150 -4.2877657231
H 0.3842161109 3.2977729486 -3.3487656896
H 1.4305818684 2.1250379292 -4.1751994623
H 0.6306690143 0.3079078006 -2.6545913752
H 1.3253176032 1.6515024652 -1.7152734187
H -2.7600553632 1.9830104824 0.7846292121
H -3.3169923000 0.0236898300 -1.3789796527
H -4.8233315455 1.7394214991 -2.3952786049
H -4.3536025973 2.9000621451 -1.1388363148
H -3.1512950818 2.3354284676 -2.3214432818
H -5.6923774618 0.1638277516 -0.6117274449
H -4.6289426863 -0.3815378505 0.7035097207
H -5.2110579108 1.2956447644 0.6650809239
H -2.7180256612 -1.7692558144 0.7256383216
H -2.5257956142 -3.3897303158 2.6034473098
H -0.2815500636 -3.9657635172 3.5107575437
H 1.7427076359 -2.9425352558 2.5203360084
H 4.3662268374 -1.1651896827 -0.0973751638
H 3.4270144776 1.1436973961 -0.1551809783
H 3.9615225297 1.4071166970 1.5232893585
H 5.1597125851 1.1846677626 0.2303526938
H 4.9669797318 -0.5389268603 2.8473048768
H 5.1311465617 -2.1319707656 2.0665333053
H 6.1867054032 -0.7893567690 1.5818333244
