37
CONF112
C -3.4021856649 -0.8739616961 -2.3449314862
C -1.9006649974 -0.7979370897 -2.5043491591
O -1.4525530093 0.5782105327 -2.3197375951
P -0.7107735405 1.0394607481 -0.9957040222
O -0.3997805954 2.4783374979 -0.9405000519
O -1.6013869849 0.4335120602 0.1849631181
C -1.7918461011 1.1833969718 1.4318158956
C -1.9548287445 0.1804495184 2.5467976588
O 0.6035029440 0.0646369020 -1.0390016392
P 1.7333164969 -0.0670694349 0.1377139983
O 1.2496088474 0.4380859513 1.4430778651
O 2.1471896045 -1.6010891667 0.0652160162
C 1.5600169840 -2.5343998138 1.0197423978
C 0.1500161337 -2.9200993915 0.6245041964
O 3.0264819833 0.5779164845 -0.5111587245
C 3.0526820835 2.0285608932 -0.7470876065
C 3.5563428898 2.7583127549 0.4775303984
H -3.6952132825 -0.6027695125 -1.3277533273
H -3.7418827657 -1.8952275858 -2.5463776380
H -3.8976572924 -0.1987663729 -3.0473862704
H -1.3855879895 -1.4560918562 -1.7960815447
H -1.5863905425 -1.0700102014 -3.5159865650
H -2.6849977092 1.8029896641 1.2995065975
H -0.9251035266 1.8263707816 1.5970687943
H -1.0324729096 -0.3921399168 2.6707049440
H -2.1619315081 0.7095110747 3.4823128252
H -2.7860915229 -0.5015368972 2.3449187349
H 1.5889484881 -2.0830558656 2.0170153235
H 2.2322133739 -3.3953869669 0.9970508580
H -0.5243514643 -2.0596936584 0.6776313953
H 0.1323598136 -3.3260143193 -0.3911004632
H -0.2232489415 -3.6871736812 1.3110098413
H 3.7286792447 2.1449216753 -1.5975037124
H 2.0534159205 2.3704367691 -1.0395144839
H 4.5475144310 2.3967475610 0.7646911505
H 3.6259152523 3.8277372885 0.2535192279
H 2.8707454114 2.6228279854 1.3173834339
