48
CONF4
C -0.4622241752 -3.1321916184 4.1331764620
O -0.6275266695 -2.8312327643 2.7335973120
N -1.6336250462 -1.9048679597 2.5893720219
C -1.8974230257 -1.5860980296 1.3663232413
C -3.0475161316 -0.6815586631 1.1705879193
C -4.1710277569 -0.7716188925 2.0040879350
C -5.2554444751 0.0806735365 1.8434984752
C -5.2478500508 1.0398829493 0.8333547897
C -4.1460112299 1.1480721132 -0.0092372780
C -3.0683293844 0.2979903773 0.1712203149
O -2.0127578931 0.4114524351 -0.7457135157
C -0.8482310353 0.9543861182 -0.3278339152
C 0.1942774495 0.9862366459 -1.2455067412
C 1.4064757760 1.4993831811 -0.8082476433
N 1.5650675008 1.9623449272 0.4274999124
C 0.4945003202 1.9077864061 1.2195548299
N -0.7090791460 1.4259008921 0.9059354931
O 2.4347696783 1.4889035271 -1.6881554435
C 3.6274441822 2.0953614789 -1.2979771675
C 4.6926229733 1.2912313624 -0.9233041635
C 5.9169153451 1.8747985586 -0.6130793301
C 6.0664106449 3.2574391912 -0.6796738158
C 4.9979802054 4.0648739310 -1.0593662389
C 3.7773974891 3.4785185746 -1.3721768726
Cl 2.4242974361 4.4720198953 -1.8605896820
F 0.0434469039 0.5101974553 -2.4910690284
C -1.1852191268 -2.0974163271 0.1676812844
N 0.0943800384 -1.9739848022 0.1113915921
O 0.7431013929 -2.4393515067 -1.0430218052
C -0.0359406675 -3.3588759321 -1.8336439826
C -1.4104815478 -2.7872892859 -2.0607598859
O -2.0342415416 -2.5822093186 -0.7675287879
H 0.3374063514 -3.8734756050 4.1700374643
H -0.1696793181 -2.2336948803 4.6848912301
H -1.3849523468 -3.5499193906 4.5478846746
H -4.1829979659 -1.5369839665 2.7718491600
H -6.1152729056 -0.0152441558 2.4980501513
H -6.0963186595 1.7019254784 0.6966750422
H -4.1065440439 1.8895243073 -0.7999172537
H 0.6156057477 2.2942020416 2.2295364914
H 4.5455392061 0.2173178815 -0.8779270784
H 6.7511255199 1.2472833210 -0.3189695543
H 7.0187671081 3.7174739225 -0.4388551362
H 5.1069765053 5.1419674699 -1.1178345672
H -0.0997065661 -4.3222150293 -1.3107399645
H 0.5099762902 -3.4775605870 -2.7721610628
H -1.3598385188 -1.8238815910 -2.5783890342
H -2.0562439635 -3.4774784772 -2.6058008224
