60
CONF411
C 6.0952892692 3.5283328129 -3.4937961477
C 6.4254158078 2.2293484908 -2.7638021224
N 5.6037532939 2.0342389430 -1.5651619909
C 6.1015202044 2.6215934051 -0.3173031433
C 6.9929018166 1.6708257545 0.4810262771
C 4.4172931996 1.3727071210 -1.6933060041
O 3.9810879102 0.9906671473 -2.7873437579
N 3.7172289068 1.1590494785 -0.5066985926
C 2.4935396390 0.4677505007 -0.4370418955
C 2.2634483886 -0.3968709351 0.6258158290
C 1.0556362619 -1.0907181105 0.7794913732
C 0.0392191796 -0.8949434064 -0.1832768369
C 0.2651228254 -0.0126437067 -1.2462300570
C 1.4686275595 0.6657139021 -1.3696557626
O -1.1387467027 -1.5459694548 -0.0076816530
C -2.1654843818 -1.3895483621 -1.0019484882
C -3.3264860643 -2.2978409037 -0.6080058076
C -3.9853883086 -1.9075787410 0.7193873912
N -4.7014305785 -0.6369368196 0.5421085003
C -5.9035744897 -0.4194879763 1.3907119528
C -5.6080292113 -0.6445729197 2.8816045219
C -7.0296278820 -1.3490227908 0.9279439921
C -6.3289039028 1.0342396857 1.1658930852
O -4.2964351506 -2.2447481693 -1.6558941372
C 0.9605759059 -1.9971207901 1.9617371853
O 1.7383083895 -1.8447588066 2.9019361417
C -0.0438503068 -3.1163469226 2.0002172222
H 6.7515256030 3.6491601971 -4.3615751171
H 6.2352581040 4.3939041862 -2.8384226802
H 5.0584239203 3.5193554927 -3.8419603596
H 7.4735134137 2.2278070780 -2.4444785342
H 6.2804375307 1.3734979832 -3.4274700194
H 6.6705712651 3.5173037509 -0.5890624295
H 5.2592707945 2.9740480628 0.2875182460
H 6.4481682907 0.7739685762 0.7935414271
H 7.3660853138 2.1741210591 1.3782169672
H 7.8522847752 1.3547285463 -0.1180725435
H 4.2446234083 1.1631851865 0.3530448970
H 3.0395311223 -0.5661907109 1.3657951268
H -0.5078898719 0.1719509941 -1.9813407661
H 1.6078198371 1.3560581207 -2.1914291181
H -2.4940834971 -0.3421074752 -1.0505047342
H -1.7865009357 -1.6904760750 -1.9864342105
H -2.9609152169 -3.3298783554 -0.5423005802
H -4.7007167793 -2.6958449440 0.9716520027
H -3.2306397617 -1.8817504284 1.5184321296
H -4.0582360772 0.1280080030 0.7234549096
H -5.3178410234 -1.6821812508 3.0755151370
H -6.4947536941 -0.4251504669 3.4856978920
H -4.7945648776 0.0103834231 3.2139527220
H -7.9406922249 -1.1363118737 1.4958028596
H -6.7833315209 -2.4036482980 1.0838575613
H -7.2372145706 -1.1945548488 -0.1361176768
H -7.2290128461 1.2603196194 1.7451398280
H -6.5423142038 1.2119549929 0.1067629077
H -5.5383029461 1.7245671490 1.4825418876
H -4.8459585258 -1.4732942401 -1.4168098509
H -1.0323131139 -2.7110850264 2.2411787469
H 0.2524081879 -3.8236622558 2.7767185411
H -0.1356510613 -3.6135443862 1.0318428697
