38
CONF4
C -6.1692415825 -2.4639398340 -1.1840851345
C -6.3055143002 -0.9604741911 -1.3092186647
O -5.6989810541 -0.2836066722 -0.1776140724
C -4.3486883221 -0.1158906350 -0.2593876488
O -3.6655824646 -0.4374007790 -1.2086266174
N -3.9169916442 0.4763069458 0.9004459688
C -2.6132106647 0.8562061753 1.2479661774
C -1.5108865909 0.6483868766 0.4154284290
C -0.2625066297 1.0671967612 0.8517371492
C -0.0610475870 1.6827804672 2.0792845411
C -1.1696228001 1.8720326741 2.8970336503
C -2.4343951945 1.4689079364 2.4947920621
O 0.7745757103 0.9082887525 -0.0654199823
C 1.9451646425 0.3018728263 0.3564503503
O 2.1310452066 -0.1575561929 1.4566373807
N 2.8121201227 0.3226653790 -0.7000786688
C 4.1174552487 -0.1930621528 -0.7608150782
C 4.7991136076 -0.0495747771 -1.9758385067
C 6.0928135051 -0.5306828431 -2.1144762485
C 6.7266557697 -1.1609492384 -1.0475116856
C 6.0452391215 -1.3012936557 0.1567218982
C 4.7477393138 -0.8255640422 0.3152950690
H -6.6915814559 -2.9497496838 -2.0144176280
H -5.1180392898 -2.7596173437 -1.2202832135
H -6.6090947045 -2.8164298707 -0.2469046999
H -5.8451060737 -0.5918286195 -2.2301633775
H -7.3518008776 -0.6470205057 -1.2743900531
H -4.6377903805 0.6712740618 1.5775725366
H -1.6190059603 0.1763572653 -0.5499918178
H 0.9285593853 1.9916551241 2.3885015398
H -1.0448840644 2.3461828463 3.8647916534
H -3.2882580689 1.6291701168 3.1466669716
H 2.4556221688 0.7497028133 -1.5410963736
H 4.3109204315 0.4411601459 -2.8138066733
H 6.6059235535 -0.4110233514 -3.0632067198
H 7.7379728613 -1.5376238993 -1.1547226586
H 6.5266501842 -1.7913835834 0.9970465583
H 4.2264831674 -0.9409917252 1.2546235652
