59
CONF344
C 5.7007229391 -3.4189418005 -1.2063773821
C 6.3513153279 -2.8971735967 0.1071554554
C 5.9517690907 -1.4110120504 0.2078300787
C 4.6546363887 -1.2955931623 -0.6176144311
C 4.9710835013 -2.2058036847 -1.8142844677
C 4.3234153845 0.1303205646 -1.0334137211
C 3.9196220915 1.0253473474 0.1084713363
O 4.1109349685 2.2328927919 0.0855972843
N 3.2877046130 0.4340058649 1.2074790039
C 3.0457553881 -0.9400964804 1.3234203187
O 2.5017256128 -1.3968276021 2.3183736345
C 3.4510470115 -1.8181201215 0.1683727521
C 2.8465461634 1.3278321835 2.2990367452
C 1.5342122239 2.0397432793 1.9717881717
C 0.3573135548 1.0893306338 1.7535849883
C -0.9142488218 1.8608540460 1.4136799228
N -2.1081777506 1.0103050601 1.3104118359
C -3.3127693483 1.8480580438 1.2379207268
C -4.5692459158 0.9863275840 1.1596089239
N -4.4959537871 0.1008198367 -0.0027984076
C -3.2971925396 -0.7359988083 0.0424015571
C -2.0476510552 0.1355754242 0.1318521232
C -5.1028235361 0.4193630328 -1.1858204099
N -4.7610857665 -0.3051310679 -2.2798148598
C -5.4067905661 -0.0156659133 -3.4074271581
C -6.3799794042 0.9730190638 -3.4966701930
C -6.6486130268 1.6615079359 -2.3191578037
N -6.0298397831 1.4085244836 -1.1678877031
H 4.9910571514 -4.2227550069 -0.9873091708
H 6.4408520526 -3.8279304975 -1.8992599835
H 5.9743368889 -3.4558417509 0.9692769165
H 7.4381775956 -3.0148713755 0.1036502452
H 6.7151312564 -0.7795623308 -0.2626817258
H 5.8370475910 -1.0715723638 1.2434791988
H 5.6415910931 -1.6612411532 -2.4907948142
H 4.0738152395 -2.4775220456 -2.3802063299
H 5.1643225538 0.6134949309 -1.5390996556
H 3.4791286197 0.1231760746 -1.7391743022
H 2.5770500427 -1.8824918080 -0.4967155844
H 3.6175539465 -2.8179906999 0.5766200465
H 3.6410936173 2.0579732171 2.4673512160
H 2.7359700784 0.7091344764 3.1907230327
H 1.3144875416 2.7163473830 2.8074068139
H 1.6760619069 2.6671517350 1.0841572141
H 0.1881073440 0.4872969827 2.6545402430
H 0.6073224187 0.3934209261 0.9445842254
H -0.7578893485 2.4390177330 0.4799926851
H -1.1036336465 2.5925341234 2.2102043890
H -3.3607700387 2.4742602744 2.1366544298
H -3.2867925721 2.5220247391 0.3568707483
H -5.4579209346 1.6123233539 1.0947580147
H -4.6412871694 0.3589213719 2.0572538495
H -3.3635048993 -1.3729888479 0.9336421671
H -3.2546028797 -1.3707730493 -0.8413621256
H -1.1735742575 -0.5190790962 0.2055770865
H -1.9520164260 0.7275504337 -0.8018786326
H -5.1284092410 -0.6021359747 -4.2827443591
H -6.8914230154 1.1963669105 -4.4243880369
H -7.3933040779 2.4568262728 -2.2979131074
