43
CONF178
C 5.3131578806 -2.1466114068 0.5148712122
O 4.1583959032 -1.9220650309 -0.3056969154
C 3.5214999216 -0.7199375275 -0.2035500221
C 2.4065032425 -0.5699749678 -1.0302598051
C 1.7327543473 0.6395376943 -0.9441846533
C 2.1352637027 1.6892255128 -0.0797936322
C 3.2538542093 1.5159404094 0.7333825242
C 3.9402403139 0.3101217315 0.6679309540
N 1.2752337538 2.7738128582 -0.2096345021
C 0.3922751020 2.3729467383 -1.0902877724
N 0.6084654933 1.1156413028 -1.5838478359
S -0.9678994451 3.3826864802 -1.7099197375
O -1.4232594203 2.6811073425 -2.9852729504
C -2.2223643416 2.9793129565 -0.3441487129
C -2.6533282495 1.5531211249 -0.3692493289
N -3.6605289813 1.2980393929 -1.2237720076
C -4.0963903479 0.0420830580 -1.3337600777
C -3.5569570946 -1.0385018488 -0.6422979299
C -4.0718845797 -2.4330299570 -0.8201245791
C -2.5028078804 -0.7559653303 0.2332126569
O -1.9934996509 -1.8100661335 0.9399694695
C -0.5806854227 -2.0855541251 0.7815116638
C -2.0445518965 0.5575195950 0.4200016905
C -1.0235372665 0.8437651321 1.4827449305
H 5.6517114853 -3.1543422535 0.2728593132
H 6.1070563452 -1.4269674145 0.2841078413
H 5.0576921134 -2.0905316901 1.5792554357
H 2.0967366590 -1.3704965389 -1.6925406376
H 3.5816697913 2.3018640455 1.4057850257
H 4.8081433165 0.1683748028 1.2990056766
H 0.0411038821 0.6493747507 -2.2781599402
H -1.7313704442 3.3129062622 0.5723849284
H -3.0555333013 3.6448355897 -0.5838301534
H -4.9218976992 -0.1269773688 -2.0250957721
H -4.8555797931 -2.4573795304 -1.5806911473
H -4.4841386500 -2.8224557527 0.1167190502
H -3.2669611591 -3.1116803729 -1.1201506819
H -0.0057683306 -1.6747123763 1.6160464373
H -0.4786104134 -3.1728642888 0.7660809842
H -0.2127095339 -1.6693271962 -0.1610689820
H -0.0019830660 0.6411089593 1.1438486331
H -1.0613193882 1.8819615727 1.8128220374
H -1.2081923982 0.2041544122 2.3505246098
