43
CONF84
C -0.7778897572 2.6216270673 -5.7334334170
C 0.2256390648 1.7743198194 -5.0385159417
N 0.0034686587 0.5639971818 -4.6140778255
N 1.0839423489 -0.0283830205 -4.0199357791
C 2.1325464996 0.7494264674 -3.9909249857
S 1.8660851178 2.3275866474 -4.7106379761
S 3.6993875128 0.3323536727 -3.3259099436
C 3.2507407211 -1.2289069064 -2.4162818782
C 2.4372781879 -0.9583091575 -1.1935526637
C 1.1887679035 -1.4528051676 -1.0266258279
N 0.4392592782 -1.1370603551 0.1083689347
C 0.8050694200 -0.1862389886 1.1632958688
C -0.1714419123 -0.9401155933 2.1129868021
C -0.4325400312 -1.8731307827 0.9065204468
O -1.0876495751 -2.8652510108 0.7075218274
N -1.2899015163 -0.2318027599 2.6541116848
C -1.4802169057 -0.0930966071 3.9909678085
O -0.7137881111 -0.5115847521 4.8461382643
C -2.7959657692 0.6139861071 4.3458708980
N -2.7936468232 1.0261483454 5.7313465045
C -3.0672664838 0.3187253961 6.8415616069
N -2.8325112741 1.0773378995 7.8959101509
N -2.3930036159 2.2653537336 7.3985115344
N -2.3573835102 2.2455113683 6.1070968887
S 2.5840569016 -0.3249808727 1.5603570867
C 3.0901080261 -0.0454752857 -0.1865031325
C 0.4944594976 -2.3190290182 -2.0276817632
O 1.0162869847 -3.2251060130 -2.6420606841
O -0.7949738317 -1.9675007581 -2.1568283971
H -0.9473157311 3.5546378995 -5.1877229745
H -1.7175119098 2.0706324986 -5.8029736282
H -0.4377974396 2.8792892169 -6.7411340284
H 4.2298480264 -1.6354724004 -2.1391199497
H 2.7708610037 -1.9060019864 -3.1181749052
H 0.5327210084 0.8458776777 0.9227657853
H 0.3449110002 -1.4685284948 2.9203653721
H -1.9605408910 0.1717759335 2.0143036359
H -2.9550871242 1.4960014520 3.7199774316
H -3.6262948659 -0.0815066768 4.1848027441
H -3.4293590387 -0.6996661963 6.8377269223
H 4.1748126727 -0.1903379389 -0.2134415745
H 2.8993287693 1.0035033228 -0.4418517575
H -1.2074939790 -2.5678004453 -2.8015923708
