71
CONF173
C 1.7601411889 -2.7052807871 -0.0083690626
C 2.9831861391 -2.0756469326 -0.6125053684
C 3.5557104823 -0.9281374556 -0.0419709730
C 4.7095941190 -0.3329000506 -0.5726623463
C 5.2909614604 -0.9178690638 -1.7004351800
C 4.7344375780 -2.0500273388 -2.2858165182
C 3.5867037671 -2.6221708458 -1.7467285399
C 5.2924897671 0.9063678891 0.0416530629
N 2.9206342574 -0.3396521537 1.0879513029
C 3.3952045585 -0.3974368052 2.3541012653
O 4.4537758093 -0.9375258221 2.6775946168
C 2.5245831211 0.3139624327 3.3891048250
N 1.1672037691 0.5666124498 2.9267951705
C 0.3199962443 -0.6276723574 3.0402914642
C -1.0197877034 -0.3560977136 2.3754597994
N -1.6851914346 0.7630420295 3.0419399586
C -0.8402394404 1.9571923750 2.9861694788
C 0.5183757150 1.6849867684 3.6192907727
C -3.0600468265 1.0096525977 2.5796245174
C -3.2415454616 1.4427478265 1.1103078741
C -3.4319546883 0.2991814225 0.1088078895
C -3.1964545131 0.7611346595 -1.3427280835
C -1.7306258667 1.1179007529 -1.5480615483
C -1.3139199066 2.4507692238 -1.5609286323
C 0.0344235572 2.7885649346 -1.6703345236
C 0.9557415426 1.7632261149 -1.7810926815
C 0.5878080021 0.4280673775 -1.7947586409
C -0.7626414384 0.1160536736 -1.6707644050
F 2.2749654976 2.0763788724 -1.8918143822
C -3.6651974625 -0.2334015555 -2.3899101929
C -3.9593624305 0.2308891959 -3.6772229531
C -4.3619916026 -0.6348157152 -4.6881200355
C -4.4636660511 -1.9836242611 -4.3890455391
C -4.1836851481 -2.4901098270 -3.1336869952
C -3.7831265238 -1.6018112834 -2.1357919871
F -4.8601856088 -2.8406248763 -5.3680357476
H 1.4500674736 -3.5767188344 -0.5891702054
H 1.9560054189 -3.0263198520 1.0208868560
H 0.9191264694 -2.0028273133 0.0325582814
H 6.1832850600 -0.4682410021 -2.1266427804
H 5.1957118160 -2.4870749950 -3.1661637251
H 3.1534320235 -3.5081383886 -2.2020128521
H 5.7121228394 0.6908999230 1.0302592882
H 4.5248110923 1.6749465517 0.1790969860
H 6.0853123589 1.3114365025 -0.5907881119
H 2.0021210804 0.0875540064 0.9918477588
H 2.5708752722 -0.2793881996 4.3186490911
H 3.0210470287 1.2710967778 3.5972860592
H 0.8130119852 -1.4690054804 2.5413542645
H 0.1664493708 -0.9036009431 4.1007913710
H -1.6574566786 -1.2455638297 2.4489409385
H -0.8311670203 -0.1563723295 1.3018647519
H -0.6649495380 2.3020652515 1.9479299218
H -1.3387425381 2.7697743722 3.5287194594
H 0.3911576166 1.4696280096 4.6972536462
H 1.1464814751 2.5773919714 3.5205178020
H -3.4695728749 1.7914053930 3.2316987792
H -3.6435028295 0.0978112185 2.7698245617
H -4.1119247578 2.1075683375 1.0427833058
H -2.3808946825 2.0527309023 0.8154810367
H -2.7520166880 -0.5283909251 0.3343670195
H -4.4510032643 -0.0980021633 0.1986470541
H -3.7758074761 1.6816500690 -1.4937763094
H -2.0518668059 3.2435983739 -1.4765327254
H 0.3631087980 3.8221990715 -1.6745089260
H 1.3450470628 -0.3417098159 -1.9031738921
H -1.0650396384 -0.9275893080 -1.6766455700
H -3.8712065762 1.2924255741 -3.8932946336
H -4.5962572255 -0.2771667665 -5.6850198522
H -4.2790722054 -3.5532051019 -2.9405009952
H -3.5650080967 -1.9967926028 -1.1493768280
