47
CONF75
C -7.5395993976 -1.6285876534 1.1378971752
O -6.4569245880 -1.1437479295 1.9906154608
P -4.9416663663 -1.2245185379 1.4971328030
S -3.6962248533 -0.5443961045 2.8139346935
O -4.7078804461 -2.7221512045 0.9632593990
C -4.5280094123 -3.7987482655 1.9275477493
O -5.0232158024 -0.4411975427 0.0785530585
C -3.9001666256 0.0504617681 -0.5855626444
C -2.8265122390 -0.7760624676 -0.9041797566
C -1.7536054881 -0.2437854355 -1.6064277903
C -1.7496504137 1.1061576769 -1.9679796569
C -2.8365110130 1.9187679804 -1.6435881879
C -3.9222023792 1.3875167509 -0.9539745629
S -0.3993310248 1.8009599032 -2.9126261617
C 1.0253983950 1.3980282760 -1.9080454124
C 0.9649460150 1.3444453729 -0.5130744985
C 2.1131534929 1.0766388017 0.2215560008
C 3.3163298411 0.8789849361 -0.4428921108
C 3.3969605229 0.9387852716 -1.8278468295
C 2.2429389487 1.1922864246 -2.5619896891
O 4.4396792972 0.5603454703 0.3230815403
P 5.7238194433 1.5632707886 0.4249690231
S 5.3024354619 3.4516380545 0.4970858314
O 6.6814913304 1.1956364038 -0.7962838300
C 7.0981965797 -0.1867335935 -1.0204615398
O 6.4840083499 0.8900303675 1.6593779884
C 5.9301454251 1.0092378111 2.9998780641
H -7.6382297540 -0.9833074762 0.2620807315
H -8.4382648820 -1.5745353557 1.7512827144
H -7.3497987042 -2.6611195362 0.8347867831
H -4.4032166986 -4.7044260142 1.3348888312
H -3.6366678722 -3.6120748726 2.5318339449
H -5.4112293901 -3.8848528446 2.5669110730
H -2.8352403611 -1.8231010985 -0.6227020530
H -0.9162403898 -0.8814767326 -1.8699218052
H -2.8325585090 2.9687676134 -1.9160937761
H -4.7717951817 2.0059764986 -0.6861559932
H 0.0263562874 1.5127419712 0.0038286448
H 2.0828015261 1.0322673968 1.3050444051
H 4.3436494493 0.7717151660 -2.3307496574
H 2.2930586177 1.2211224764 -3.6457707609
H 7.7858217067 -0.4978499953 -0.2315730300
H 6.2258367895 -0.8448915650 -1.0520688126
H 7.6021588076 -0.1845063913 -1.9863307189
H 6.6267516949 0.4849764528 3.6531674681
H 5.8643134289 2.0630677602 3.2829111528
H 4.9444892853 0.5382434135 3.0417207382
