41
CONF30
C -6.1967058231 0.3489190201 1.5441032226
C -5.5645390003 -0.8908958403 1.6201778462
C -4.4458462796 -1.1531978714 0.8347794343
C -3.9420333976 -0.1805725653 -0.0338607607
C -4.5820107743 1.0581742608 -0.1040980106
C -5.7037445482 1.3222170157 0.6784813602
C -2.7109252390 -0.4605845101 -0.8540979011
C -1.4374636539 -0.4228709460 -0.0036284830
N -0.2887893613 -0.8175029311 -0.8222646194
C 0.9969235959 -0.5509562134 -0.4882682121
C 1.3596648505 0.2728638090 0.5986766832
C 2.6839763860 0.5562373622 0.8881603963
C 3.7101674011 0.0208847151 0.1215827772
C 3.3778188463 -0.8036445552 -0.9797394056
C 2.0543305492 -1.0731226510 -1.2657418238
C 4.4068938098 -1.4530855447 -1.8822061253
F 5.3822956530 -0.5884404496 -2.2563614362
F 3.8517218647 -1.9075143086 -3.0279217280
F 4.9991932843 -2.5138524718 -1.2950839617
S 5.3800659583 0.4681777435 0.6547790422
O 6.2723873735 -0.6766005495 0.4439381013
O 5.2362936908 1.0564563662 1.9937313319
N 5.9542561409 1.7119844065 -0.3178541487
S 0.0761518737 1.0004882571 1.5980911350
O 0.3769520700 2.4166482201 1.8391808816
O -0.2211309822 0.1142414846 2.7314593241
N -1.2476107025 0.9223286456 0.5503482282
H -7.0706441868 0.5536215613 2.1545340474
H -5.9456617306 -1.6562486735 2.2892727232
H -3.9593332948 -2.1237545451 0.8932083261
H -4.1985807114 1.8208656291 -0.7764254383
H -6.1923096498 2.2894966867 0.6119361295
H -2.7745268231 -1.4592767748 -1.3019237822
H -2.6106591421 0.2660753577 -1.6683206565
H -1.5478317985 -1.1058588521 0.8506260954
H -0.4555708390 -1.4472064684 -1.5934697461
H 2.9214676211 1.2012299956 1.7267138930
H 1.8020424566 -1.7048038426 -2.1093748278
H 6.0432620904 1.4226610108 -1.2890706812
H 5.3579399145 2.5343463816 -0.2445865804
H -1.1478853174 1.6320725557 -0.1788431423
