50
CONF30
C 2.6235642826 -0.0584979096 -2.6703540830
C 2.3291124901 -0.4505195184 -1.2408723767
C 1.2032554049 -1.2333648235 -0.9850355759
C 0.9834576320 -1.7444965553 0.3058911361
C 1.8704919534 -1.5211011210 1.3305218411
C 3.0079468654 -0.7153777263 1.1226533778
C 3.1988835931 -0.1163338516 -0.1611344661
C 4.2813478128 0.8437340638 -0.1944871932
N 5.1466648013 0.9601385324 0.8061962245
C 4.9341668220 0.2097760577 1.9144666953
N 3.8792931831 -0.5535160644 2.1598927060
N 5.9239215818 0.2641364178 2.8611401618
N 4.4710124656 1.6999697591 -1.2334447927
C 0.2137473571 -1.5586342154 -2.1015007223
N -1.0987078468 -1.9993125182 -1.6698654252
C -1.9367964179 -1.1774114683 -0.9294105588
C -1.6866380749 0.1971643114 -0.8113445610
C -2.5819416547 1.0003113715 -0.1000781824
C -3.7184656778 0.4530514042 0.5069608161
C -3.9562566983 -0.9248345432 0.3804644072
C -3.0731480326 -1.7406915177 -0.3241898943
O -5.0861144527 -1.3748347921 0.9957767899
C -5.3746188866 -2.7743471687 0.9045608713
O -4.5683454426 1.2451123342 1.2498563677
C -5.6262019626 1.8206159418 0.4600135445
O -2.4192767752 2.3431120359 0.0725751190
C -1.2496471445 2.9454652924 -0.4927667229
H 3.6950737531 0.0325877858 -2.8503438420
H 2.2476447427 -0.8169811902 -3.3588341147
H 2.1428527000 0.8888925544 -2.9517427113
H 0.1006849627 -2.3490310362 0.4896657144
H 5.6753899003 -0.0532308934 3.7851907829
H 6.5450580513 1.0568233701 2.8184232999
H 5.1277756702 2.4475060321 -1.0643344154
H 3.7066195724 1.9186462445 -1.8482894167
H 0.0916395332 -0.6815692729 -2.7485737387
H 0.6228326439 -2.3499632462 -2.7425469206
H -1.1816828398 -2.9838022226 -1.4670972499
H -0.7991415009 0.6278548584 -1.2516048571
H -3.2526437276 -2.8041851610 -0.4255507291
H -4.5784798228 -3.3720955012 1.3639116471
H -5.5121847132 -3.0823698242 -0.1387846437
H -6.3048281687 -2.9195795951 1.4547617524
H -6.2461731178 1.0337565146 0.0134055225
H -6.2323152337 2.4242398797 1.1393303990
H -5.2136546981 2.4581155207 -0.3313387499
H -1.3089033743 4.0028969913 -0.2328326871
H -0.3368997669 2.5124119031 -0.0656897533
H -1.2349537138 2.8353398467 -1.5836891372
H 1.7197041406 -1.9574430378 2.3126638511
