51
CONF58
C 3.4844755402 -0.0240544620 2.6664540360
C 4.5132348183 0.0360936073 1.5691687728
C 5.8522409347 0.0653005857 1.7872212827
C 6.5720851516 0.0795833944 3.0917285330
O 7.3526689088 1.2902211412 3.2440680049
C 4.0402312607 0.0544946895 0.1991686113
C 2.7399303610 0.0076580016 -0.1952764137
C 2.3454501911 0.0273905607 -1.5707818810
C 1.0697885859 -0.0092259002 -2.0762208716
C 0.8806542166 0.0187127488 -3.5695124142
C -0.0925750075 -0.0749617453 -1.2250990290
C -1.3740019004 -0.0986876015 -1.6819877969
C -2.6305952278 -0.1275891793 -0.9533779452
C -3.7818162406 0.0483152948 -1.6712205385
C -3.8300328929 0.1549810433 -3.1765446163
C -5.1371821940 0.2003771765 -1.0398284500
C -5.0934378803 0.4197484094 0.4635188018
C -4.1057991339 -0.5667627400 1.0615429841
C -2.6598729489 -0.3405221237 0.5711607624
C -2.0746668721 0.8769165589 1.3157116324
C -1.8840914616 -1.6160636244 0.9633174534
H 2.9098302140 -0.9551948098 2.6039890507
H 3.9280364954 0.0319032594 3.6598579356
H 2.7695517736 0.7998272380 2.5650710974
H 6.5036548516 0.1160792948 0.9141988532
H 5.8974570862 -0.0469060268 3.9459669737
H 7.3082969541 -0.7318691869 3.1258396730
H 6.7404674322 2.0308734746 3.1448001840
H 4.8096628263 0.1068791991 -0.5716916204
H 1.9675834406 -0.0506857813 0.5666226336
H 3.1625765855 0.0772607541 -2.2901554417
H 0.3420515574 -0.8704142763 -3.9186096667
H 0.2901532128 0.8893880300 -3.8796718985
H 1.8436829955 0.0589264981 -4.0826164339
H 0.0986515248 -0.0903155665 -0.1615753456
H -1.4840184966 -0.0450476919 -2.7593834595
H -4.8478212074 -0.0429039912 -3.5254874007
H -3.1626955279 -0.5458079935 -3.6840203650
H -3.5680583949 1.1665668749 -3.5134420708
H -5.6575655413 1.0265339530 -1.5447491740
H -5.7313740556 -0.6980134432 -1.2748389841
H -4.7865684092 1.4496747731 0.6810588359
H -6.0900750230 0.2853687775 0.8977898785
H -4.4191828622 -1.5834006881 0.7844524419
H -4.1067065716 -0.5200872478 2.1572503154
H -1.0494979181 1.0979969604 1.0130776567
H -2.6714984157 1.7747421255 1.1294452996
H -2.0741866509 0.6838968689 2.3947714048
H -2.2337043504 -2.4698425231 0.3729775849
H -0.8053467016 -1.5314166990 0.8280260215
H -2.0700470327 -1.8359389812 2.0209424129
