53
CONF10
C -0.6016267996 -1.7762137554 3.4214252421
O -0.5660910526 -0.6585137934 2.5181283798
C -1.7267981050 -0.3558414736 1.9332976131
C -1.9185793874 0.6987266092 1.1079111554
C -3.2661554706 0.8653683886 0.4957323653
C -4.3286774293 1.3363944869 1.2670472340
C -5.5998735540 1.4917693571 0.7208494712
C -5.8226279098 1.1772238192 -0.6137742824
C -4.7723208129 0.6967227515 -1.3902055719
C -3.4971742893 0.5368636952 -0.8527944230
C -2.3928237173 -0.0164151748 -1.7041377108
O -2.1343717794 -1.3983128856 -1.2934347747
C -0.9294460383 -1.7278334788 -0.8132122555
N 0.0942491375 -0.8983156901 -0.9234575829
C 1.2395789600 -1.2779111852 -0.3383516554
N 1.4555236220 -2.4300654649 0.3193888056
C 0.4102526203 -3.2530742811 0.3613192418
C -0.8274481786 -2.9824040930 -0.1861786776
C 0.6764575376 -4.5707650169 1.0662641935
F -0.4676785487 -5.2673298277 1.2634124081
F 1.5041946855 -5.3493424781 0.3401691252
F 1.2458750298 -4.3849815216 2.2746202222
N 2.3199927551 -0.4372776959 -0.3819389225
C 2.4412504890 0.7940373895 -1.0185517768
C 3.2745049726 1.7822230756 -0.4685314779
C 3.4794004132 3.0033720613 -1.0948318006
C 2.8352029594 3.2523684084 -2.2987715445
C 2.0129115949 2.2959540264 -2.8810801330
C 1.8276504833 1.0774953756 -2.2452081133
Cl 3.0600082192 4.8022159739 -3.0831632215
Cl 4.0933917542 1.4813420806 1.0472727845
C -0.8432891901 1.6627040340 0.8237876423
O 0.2940745825 1.6242304411 1.2443827832
O -1.3023879653 2.6627564530 0.0180593916
C -0.3333361356 3.6896074969 -0.2659177656
H -1.1260850751 -1.5006067173 4.3431305845
H -1.0898693929 -2.6391955299 2.9537359685
H 0.4370305211 -2.0210443393 3.6409932294
H -2.5584198544 -1.0382985665 2.1245383942
H -4.1442911590 1.5961008201 2.3050202527
H -6.4116252990 1.8631009237 1.3381387620
H -6.8094546343 1.2971802383 -1.0485866447
H -4.9457059561 0.4329082648 -2.4299339167
H -1.4731901128 0.5641683004 -1.6176124899
H -2.6953877020 -0.0660734891 -2.7534393532
H -1.6688562793 -3.6576707767 -0.1299371434
H 3.0531169687 -0.6926301367 0.2641727460
H 4.1216352511 3.7470878643 -0.6407523185
H 1.5278006188 2.4964864638 -3.8287874036
H 1.2010301912 0.3250651743 -2.7035196475
H 0.5445356253 3.2643015989 -0.7570803908
H -0.0203026919 4.1831346906 0.6584930858
H -0.8400410221 4.3942083912 -0.9257765359
