47
CONF5
C 4.3345001992 2.0951918819 -2.2723590048
C 3.7768248089 1.1094583471 -1.3264160347
C 2.5203065747 0.5973089119 -1.1158674662
C 2.6982310040 -0.3247826807 -0.0403889748
N 3.9482041751 -0.3736766377 0.3577518873
O 4.6306426821 0.5519652441 -0.4499764561
C 1.7125759608 -1.2101791231 0.6088769317
C 1.2491941112 -0.9774510609 1.9108062431
C 0.3508541439 -1.8309199577 2.5378732044
C -0.1201569212 -2.9397281305 1.8458333824
C 0.2925882450 -3.1968804846 0.5432797565
C 1.2003540051 -2.3341918850 -0.0535009096
Cl 1.7281733126 -2.6686211592 -1.6897161977
Cl 1.7732138188 0.4584345825 2.7667185111
C 1.3292121100 0.9271390792 -1.9161289813
O 1.4249997796 1.3622362408 -3.0644143168
N 0.1320375504 0.7006025111 -1.3002830416
C -1.1167359562 0.8981805122 -1.9553290651
C -2.1737720666 1.8810784292 -1.3366965294
N -3.1398063860 0.7696987458 -1.3440457830
C -2.1945851280 -0.1874763789 -1.6925263846
O -2.2363879035 -1.3943212387 -1.7232915309
C -4.0809624668 0.7060678913 -0.2461533894
C -3.2934136955 1.1470875924 1.0443423032
S -2.0288654093 2.3969572754 0.4217703155
C -2.5748220819 -0.0624072101 1.6400124118
C -4.1631524817 1.8225689464 2.1002242118
C -5.2728376378 1.6045021458 -0.5357298198
O -6.3884257786 1.1289434963 0.0383283897
O -5.2188415561 2.6256537980 -1.1843638595
H 5.2355301166 2.5495723244 -1.8550260481
H 4.5944147630 1.6020457448 -3.2155668138
H 3.5917984719 2.8634213170 -2.4921355833
H 0.0149097286 -1.6203349654 3.5460918655
H -0.8271790249 -3.6085421655 2.3248060974
H -0.0801311501 -4.0564116259 -0.0008817679
H -2.4451409540 2.7376375202 -1.9554501658
H -1.9367362687 0.2550668609 2.4690337431
H -1.9433233078 -0.5696843546 0.9056919585
H -3.3117049533 -0.7794622030 2.0200388360
H -3.5438575634 2.1253402890 2.9490855158
H -4.6698806170 2.7097894452 1.7114979281
H -4.9131016926 1.1139115870 2.4660384312
H -0.9403980281 1.0894756602 -3.0171233635
H 0.1187767896 0.4780219005 -0.3144780273
H -7.1162570038 1.7542636116 -0.1281459793
H -4.4249263141 -0.3248978522 -0.1183375470
