54
CONF520
C -3.2236546280 -3.0480770327 -1.6919854418
C -2.8261537817 -3.5349514543 -0.2958739736
C -4.0527189258 -3.8587419356 0.5582863043
C -1.8850927551 -2.5528227594 0.4373399206
C -0.5737436611 -2.4003120210 -0.3526557856
O 0.2008864548 -3.3551735880 -0.4417466447
N -0.3709495112 -1.2017676390 -0.9345304758
C 0.8056608275 -0.8678311502 -1.7169013088
C 0.4020951419 -0.3268683627 -3.1044531422
C -0.1158353281 1.0920074515 -3.1117866597
O 0.1806597918 1.9335997024 -3.9326926063
O -0.9788736041 1.3135845791 -2.0998332987
C -1.5392340751 2.6493053667 -2.0201503874
C 1.7401680891 0.0758051080 -0.9653959295
C 2.7355547589 0.7828819089 -1.6480213465
C 3.6057571226 1.6340386959 -0.9742585191
C 3.4746961482 1.7744648024 0.4010626820
C 2.5048988077 1.0796387464 1.1097479781
C 1.6438266991 0.2319044554 0.4183465234
Cl 4.5637416214 2.8577970738 1.2634453459
N -2.5458580137 -1.2923383592 0.7259067959
C -2.0995126711 -0.4764612190 1.7173865215
O -1.1225313876 -0.7142706366 2.4159949613
O -2.8781130396 0.6270172866 1.8180772429
C -2.4392927528 1.6482268557 2.7783299833
C -1.3578562210 2.5012669627 2.1408184166
C -3.6832544421 2.4337915528 3.1377733646
H -3.8431310839 -3.8041734661 -2.1835951824
H -3.8106732153 -2.1229990363 -1.6550119831
H -2.3470466746 -2.8694453767 -2.3228743298
H -2.2344340686 -4.4502185429 -0.4117094909
H -4.7038382584 -2.9854615945 0.6716358266
H -4.6392703945 -4.6507687354 0.0829236231
H -1.5916687633 -3.0132564789 1.3881702954
H -1.0566029821 -0.4737183972 -0.7916237286
H 1.3335048121 -1.8145751886 -1.8845939366
H 1.2454197678 -0.3689520370 -3.7947834625
H -0.3820708638 -0.9751914524 -3.5132708397
H -2.2393541899 2.6165771155 -1.1865873199
H -2.0552390846 2.8951178548 -2.9506104627
H -0.7450749131 3.3751017055 -1.8296030666
H 2.8527582836 0.6786599690 -2.7212698674
H 4.3712515512 2.1787625988 -1.5151327519
H 2.4155988142 1.1956383072 2.1841537012
H 0.8845173061 -0.3036571865 0.9782168291
H -2.0464278713 1.1262449074 3.6559429211
H -1.7570834625 3.0336952191 1.2717156073
H -0.5094539330 1.8880458388 1.8251795928
H -0.9984597384 3.2398881924 2.8639802348
H -4.1030650590 2.9174363951 2.2500068927
H -3.4234352606 3.2097919044 3.8633865113
H -4.4423103443 1.7837516867 3.5812508939
H -3.7609086184 -4.1991231681 1.5570425064
H -3.3664083256 -1.0134603800 0.2095148935
