65
CONF533
C -0.1635475333 4.1525862346 0.0298905717
C 0.3970768650 2.7773923544 0.3825600208
C 0.5764623779 2.5601267499 1.9039158784
C 1.5669714171 3.5369177503 2.5311806764
C 1.0299401125 1.1298938175 2.0983198434
O 2.1890051395 0.7714204634 2.1900133334
O -0.0196392346 0.2868714343 2.0942256950
C 0.2663612422 -1.1504523786 2.1134563443
C 0.3921567955 -1.6465893152 3.5446492178
C -0.8908069847 -1.4806846429 4.3754858832
C -2.1145247684 -1.7279560484 3.5483383759
C -2.1330493555 -1.8857107832 2.2112887871
C -0.8741491655 -1.8370283138 1.3682855106
C -1.1746452633 -1.2189219275 -0.0158562668
C -2.2707624178 -2.0326650151 -0.7400218735
C -3.4491148610 -2.2446296975 0.1666822513
C -3.3751753715 -2.1492554285 1.5039371083
C -1.7900421832 -3.3777344222 -1.3129141104
C 0.0866991964 -1.0230944655 -0.8619489035
C -0.1902216743 -0.3366990195 -2.2005687209
C 1.0682292564 0.1387142383 -2.9013666326
C 0.7919172235 0.9458391946 -4.1519120747
C 2.0851268373 1.2109975248 -4.9113486263
C 2.6978339425 -0.1180583175 -5.3081605580
C 2.7203366923 -1.1648291768 -4.2194803729
O 3.4396918970 -2.1435535320 -4.2796481497
O 1.8660777019 -1.0688157779 -3.1851047813
O 3.0554202869 1.8824314238 -4.0909873669
C -0.9809680854 -0.1229433516 5.0971791100
H 0.5282387350 4.9552098758 0.3003348040
H -0.3480599008 4.2218343204 -1.0466480344
H -1.1122044178 4.3320757578 0.5476756974
H -0.2753519399 2.0017533678 -0.0021563562
H 1.3689751789 2.6306755106 -0.1073245061
H -0.4074955925 2.6638439275 2.3778264896
H 2.5273849366 3.5030408874 2.0079522399
H 1.1806183045 4.5576411543 2.4809251418
H 1.7421961296 3.2926917406 3.5829484763
H 1.2132692726 -1.3067063995 1.5913448069
H 0.6460419027 -2.7116488488 3.4770671275
H 1.2338209700 -1.1466458136 4.0351796780
H -0.8683018065 -2.2467514334 5.1648617803
H -3.0615306514 -1.7719736062 4.0873720342
H -0.5342622456 -2.8719966714 1.2069801423
H -1.6042727477 -0.2236710075 0.1680076316
H -2.6221106488 -1.4299405579 -1.5892484783
H -4.3985452057 -2.4923683824 -0.3046259973
H -4.2685781676 -2.2901613161 2.1101007481
H -1.0261221856 -3.2384560634 -2.0841237996
H -1.3760252968 -4.0171125133 -0.5268699395
H -2.6307246526 -3.9126882224 -1.7661386842
H 0.7951299717 -0.3920992945 -0.3123153628
H 0.5898017397 -1.9839488451 -1.0227431178
H -0.7448941364 -0.9901071245 -2.8845678978
H -0.8149353369 0.5507363812 -2.0298692393
H 1.6796498022 0.7291511385 -2.2078094768
H 0.0887883679 0.4136296774 -4.8050665980
H 0.3200321623 1.8887648145 -3.8526425481
H 1.8828692848 1.8045677020 -5.8134347305
H 2.1129743990 -0.5542877498 -6.1278439352
H 3.7195923040 0.0055696688 -5.6760559633
H 2.6736643443 2.7224286617 -3.8049973115
H -1.8791666727 -0.0810660046 5.7221970728
H -1.0245081021 0.7013216914 4.3805750307
H -0.1086174957 0.0231247191 5.7430431805
