63
CONF109
C 2.7381304491 0.4934227099 1.1281921861
C 1.5061354981 -0.3844591760 0.9284668267
N 1.3021226405 -0.6897830666 -0.4941004277
C 2.4550060245 -1.4461701611 -1.0003264526
C 3.7338371532 -0.6197572267 -0.8995533645
C 3.9681194575 -0.2087962081 0.5539568634
N 5.1886046848 0.5796227702 0.7198739407
C 5.4887954182 1.8332881627 0.1927175916
C 4.7796084118 2.7083614004 -0.6212058531
C 5.3939433573 3.9149760490 -0.9701654482
C 6.6756983378 4.2387061980 -0.5219056870
C 7.3937200915 3.3622902928 0.2956202231
C 6.7842948657 2.1674951509 0.6403132158
N 7.2222007926 1.1114989932 1.4176793406
C 6.2614978781 0.1184030693 1.4826459939
O 6.3367765473 -0.9485422374 2.0870948285
C 0.0595444686 -1.4456702630 -0.7033026993
C -1.1950769596 -0.5841365431 -0.5840554474
C -2.4582657599 -1.3968561977 -0.8618608137
C -3.7474970562 -0.5594841268 -0.7825419765
C -4.9480394175 -1.3864729903 -1.2153800546
C -5.5682081060 -1.1416956357 -2.4424952569
C -6.6515467720 -1.9067208404 -2.8722784585
C -7.0988589417 -2.9230454184 -2.0480516982
C -6.5144940115 -3.2031022682 -0.8236402220
C -5.4365750749 -2.4240749908 -0.4152062788
F -8.1576830145 -3.6755761860 -2.4513988306
C -3.9922689464 0.0845053129 0.5723855339
C -4.6473226652 1.3188856911 0.6276409040
C -4.9393698898 1.9348852930 1.8411191390
C -4.5606154674 1.2904667481 3.0061673516
C -3.9077019772 0.0707632530 3.0032379563
C -3.6270237626 -0.5256543563 1.7757476060
F -4.8328395977 1.8832243383 4.1994710029
H 2.8859953277 0.6850843064 2.1966945800
H 2.5765741412 1.4569657630 0.6334125971
H 0.6270946049 0.1370303204 1.3183356730
H 1.6212168149 -1.3196609737 1.5155199712
H 2.5855072007 -2.3965269744 -0.4419102079
H 2.2693202007 -1.7067934705 -2.0481589780
H 3.6382740616 0.2655078758 -1.5375009972
H 4.5855017396 -1.2063871112 -1.2611410862
H 4.1452072491 -1.1185145726 1.1409905395
H 3.7849401563 2.4789166669 -0.9817444865
H 4.8564405851 4.6118643635 -1.6047936050
H 7.1239759638 5.1835685838 -0.8107178688
H 8.3905861006 3.6035153679 0.6491787841
H 8.1140075639 1.0377025536 1.8805004028
H -0.0102388866 -2.3030158559 -0.0030581255
H 0.0943101668 -1.8685708249 -1.7155206213
H -1.2635906078 -0.1396654543 0.4145531052
H -1.1263048058 0.2460772370 -1.2988376619
H -2.4049915236 -1.8270069922 -1.8700702592
H -2.5233795387 -2.2481292735 -0.1719891512
H -3.6480551399 0.2576787287 -1.5076954728
H -5.2021346549 -0.3395021454 -3.0770602722
H -7.1394243883 -1.7184066148 -3.8225559053
H -6.9001392243 -4.0082581571 -0.2075230734
H -4.9769908954 -2.6287497174 0.5470416173
H -4.9366889522 1.8103597881 -0.2974513308
H -5.4438511269 2.8940429375 1.8861180167
H -3.6214957729 -0.3971511256 3.9390427552
H -3.1063116186 -1.4777352705 1.7714804155
