35
CONF2
C -5.0567841539 0.1260253991 1.5522251684
N -4.4783271838 1.2762621295 0.8634666771
C -5.1437988424 2.5565524040 1.0808162592
C -3.2190736504 1.2706376820 0.3224884672
O -2.7184551393 2.2564876735 -0.2284051094
N -2.5499098605 0.0540664148 0.4184392005
C -1.2847095364 -0.2271533761 -0.1180841981
C -0.4983969233 -1.1902617454 0.5317115151
C 0.7400101623 -1.5561457051 0.0242885467
C 1.2089527362 -0.9433799164 -1.1321287572
C 0.4442878278 0.0080860019 -1.7909673460
C -0.8067731524 0.3617919095 -1.2952074357
O 2.4230609028 -1.3338621352 -1.6943041703
C 3.5818960526 -1.0328208804 -1.0172942997
C 4.7307362359 -1.6991974249 -1.4449315839
C 5.9525517799 -1.4313039219 -0.8423344002
C 6.0094108898 -0.4989995905 0.1884084932
C 4.8729062717 0.1711797904 0.6200889975
C 3.6486755787 -0.0954500127 0.0126848625
Cl 7.5573609235 -0.1629801284 0.9618058318
H -4.9619251147 -0.7835737393 0.9512009894
H -6.1228501474 0.3138064024 1.6956196609
H -4.6065663413 -0.0413460186 2.5422077026
H -4.6578002827 3.3236492093 0.4794674051
H -6.1948880489 2.4789728478 0.7846722243
H -5.0991894887 2.8486141315 2.1392288609
H -2.8630862341 -0.5980757513 1.1207199382
H -0.8660604375 -1.6608421006 1.4393702045
H 1.3440225784 -2.3048682600 0.5268175342
H 0.8231068094 0.4638431029 -2.7000147836
H -1.4079786813 1.0915966614 -1.8189900383
H 4.6593820486 -2.4233676925 -2.2494007742
H 6.8478759559 -1.9474227999 -1.1698742867
H 4.9331599554 0.9003531789 1.4201367219
H 2.7591763884 0.4291260540 0.3421658178
