41
CONF106
C -4.0690794247 2.7936424298 1.2404107670
C -3.9067918624 2.5955894913 -0.2659552689
N -3.5124739295 1.2305978330 -0.6441590169
C -4.5742489862 0.3135817910 -1.0525214094
C -5.0756119709 -0.5584618295 0.0981091463
O -5.9841500269 -1.5011101870 -0.4772814048
C -2.2261196023 0.8029804154 -0.5200730702
C -1.8523137018 -0.5356538108 -0.8228623785
C -0.5416286657 -0.9382240684 -0.7246788228
C 0.4747823396 -0.0531149952 -0.3137791915
C 0.1121093867 1.2764813585 0.0012575522
C -1.1918420099 1.6908653637 -0.0937467363
N 1.7477343609 -0.5775537756 -0.2520952825
N 2.6674006465 0.2183398479 0.1353938200
C 3.9450441041 -0.3527492616 0.1651518595
C 4.2613221495 -1.6588204237 -0.2625222016
C 5.5618534171 -2.1144770652 -0.1927826724
C 6.5572623728 -1.2686610841 0.3055943612
C 6.2713713027 0.0278414974 0.7330837182
C 4.9669853375 0.4783977698 0.6579325090
N 7.9272731075 -1.7526943197 0.3778654556
O 8.1620040592 -2.9012604718 -0.0041629280
O 8.7925322169 -0.9937727314 0.8197932979
H -3.1464405782 2.5561970421 1.7773499286
H -4.8695158740 2.1621334846 1.6346283019
H -4.3251678569 3.8378718257 1.4442555033
H -3.1764319859 3.3033081656 -0.6711767317
H -4.8533004964 2.8049459916 -0.7704820178
H -4.2250631743 -0.3292725414 -1.8680768507
H -5.4035818728 0.9059676399 -1.4478315774
H -4.2276388503 -1.0656528485 0.5807501219
H -5.5773070970 0.0650624514 0.8503282743
H -6.3659477227 -2.0222094747 0.2389071749
H -2.5933536476 -1.2607260077 -1.1315318215
H -0.2696388266 -1.9623614904 -0.9616727292
H 0.8745644264 1.9753729605 0.3248548926
H -1.4245634122 2.7153791008 0.1645832704
H 3.4795231308 -2.3007974402 -0.6487126825
H 5.8178429059 -3.1146706465 -0.5193450203
H 7.0609534135 0.6627029081 1.1143229743
H 4.7116538977 1.4821436041 0.9808763675
