39
CONF4
C 4.7378619960 0.9632579352 -1.3581176630
C 3.2220226257 1.0027560548 -1.1804672966
C 2.8137529655 1.1473384137 0.2842398265
C 1.3114586825 1.2153504569 0.4856270090
C 0.8633045209 1.2532181536 1.9645694797
O 0.3370769806 -0.0563001871 2.2041082768
C -0.2144229669 -0.4522914348 0.9669662020
C -0.2341285124 -1.9853102284 0.9344707282
N -0.8224040917 -2.4748840413 -0.2945134533
C -0.2865177936 -2.5188023316 -1.5367266220
N -1.1944344694 -2.9083390949 -2.4154639830
C -2.3009628923 -3.0811231031 -1.6385995974
N -2.1307944819 -2.8262800574 -0.3481372173
O 0.7145999857 -0.0065940029 -0.0112234088
C -1.5944084000 0.1579215014 0.7051226030
C -2.6468224009 0.1236802838 1.6258114236
Cl -2.4735396563 -0.6115880931 3.2078932470
C -3.8970520307 0.6562150646 1.3306701875
C -4.1048401978 1.2199967784 0.0800378693
Cl -5.6782129709 1.8868307271 -0.2965796507
C -3.0958595819 1.2572265229 -0.8718922645
C -1.8569989340 0.7247041099 -0.5439321971
H 5.2033344267 1.8819252107 -0.9850259068
H 5.1745318157 0.1228915909 -0.8080554997
H 5.0128891024 0.8525654929 -2.4109035033
H 2.7743630777 0.0893796167 -1.5878538075
H 2.8008610760 1.8379456511 -1.7556859987
H 3.2524652234 2.0656085266 0.6995879827
H 3.2063659341 0.3075234381 0.8734777013
H 0.8897144684 2.0653539996 -0.0708786147
H 0.0895487548 2.0138638329 2.1354093460
H 1.6935840978 1.4091001077 2.6575814247
H 0.7993397771 -2.3322576779 1.0201890745
H -0.8233959473 -2.3664483002 1.7696491120
H 0.7447682782 -2.2614415496 -1.7359195368
H -3.2556705159 -3.4084538091 -2.0284538294
H -4.6937749065 0.6194214125 2.0624974282
H -3.2763897516 1.6865216364 -1.8497792780
H -1.0612130277 0.7295181866 -1.2796996938
