43
CONF31
C 3.6488688972 -3.1559151862 -2.4719543836
O 4.3056346304 -2.6888373977 -1.3009428194
C 3.8178614545 -1.5547641231 -0.7157925440
C 2.7199123597 -0.8436525311 -1.1944375554
C 2.3611099368 0.2866724497 -0.4607862929
C 3.0511007554 0.7142051612 0.6979416779
C 4.1522200987 -0.0193152495 1.1476167578
C 4.5217158047 -1.1447076438 0.4383812466
N 2.4696568306 1.8634875654 1.2139669874
C 1.4727124221 2.0934835689 0.4069591978
N 1.3549128802 1.2094771040 -0.6331486436
S 0.2532951049 3.4156219551 0.5351193880
O -0.5587370837 3.2827008020 -0.7479590953
C -0.7558140552 2.5943812968 1.9289091384
C -1.3095284307 1.2942547872 1.4615566647
N -0.5375912278 0.2270071142 1.7063667076
C -0.9274650100 -0.9550847744 1.2356211785
C -2.0758721563 -1.1521380733 0.4707496615
C -2.4691654010 -2.5037028247 -0.0438506058
C -2.8635456702 -0.0234090594 0.2275847111
O -4.0229860151 -0.1828444236 -0.4996366547
C -3.8881844683 0.2274719372 -1.8686973563
C -2.5160979826 1.2302339388 0.7408417225
C -3.4160728392 2.4206269937 0.5631117358
H 4.1861463241 -4.0541466004 -2.7792104756
H 2.6002875274 -3.4114695111 -2.2667887296
H 3.6928601648 -2.4116173999 -3.2785314213
H 2.1700086735 -1.1415179280 -2.0776462348
H 4.6947647063 0.2903771836 2.0337588987
H 5.3664837271 -1.7485699687 0.7502776023
H 0.6145492090 1.2459272124 -1.3181084101
H -0.0422587776 2.4634187538 2.7464675416
H -1.5096819919 3.3443566845 2.1789051780
H -0.2833369778 -1.8032831842 1.4685479736
H -2.5227357858 -2.5195436349 -1.1373717334
H -3.4599185064 -2.7878415479 0.3235125009
H -1.7474815257 -3.2597301518 0.2746717274
H -3.5776659605 1.2770099408 -1.9421390842
H -3.1528526994 -0.3993158733 -2.3903862918
H -4.8697029076 0.0992927477 -2.3288610525
H -3.5992890010 2.9093035707 1.5257342087
H -2.9651417101 3.1586197809 -0.1066229041
H -4.3829766098 2.1134771152 0.1619971632
