50
CONF18
C 6.1574673560 1.7086437046 1.3167486264
C 6.0203877251 2.1678938991 -0.1194446308
O 4.6765591290 1.9225113030 -0.6200739888
C 4.4283876162 0.6675078595 -1.0758303765
O 5.2803225416 -0.2136801901 -1.1339662250
N 3.1403267589 0.5286817703 -1.5059470591
C 2.0760376284 1.4658386232 -1.1414865259
C 1.3457570836 0.9898357387 0.1286370239
C 0.8535129415 -0.4219091832 -0.0515994144
C -0.4371085525 -0.7874630016 0.0811026950
C -1.5148354271 0.1203866587 0.5560127006
C -2.7157130664 0.3410051545 -0.1482989862
C -3.0745402502 -0.2389291563 -1.5044114478
C -2.0552875142 -1.1513603045 -2.1968622428
C -1.7121742913 -2.3483115120 -1.3614250749
C -0.9032572610 -2.1687391525 -0.2289195098
N -0.5581353834 -3.1669848025 0.5970148686
C -1.0090693199 -4.3972540775 0.3093983129
C -1.8126883861 -4.6785869268 -0.7888285996
C -2.1684548611 -3.6335221484 -1.6361748557
C -3.6851624525 1.1787866909 0.4199814544
C -3.4734295920 1.7727842933 1.6514436744
C -2.3062013170 1.5565168902 2.3724057328
C -1.3471920126 0.7260977671 1.8126620376
Cl -4.7214619823 2.8214809501 2.3262883797
C 1.9238815388 -1.3731078781 -0.5184861860
C 2.6373328018 -0.8194049698 -1.7649308809
H 6.0264617571 0.6262819370 1.3964338578
H 5.4186086546 2.2050167680 1.9527872092
H 7.1562185515 1.9634941121 1.6855002810
H 6.7425119581 1.6755268941 -0.7755904746
H 6.1382066255 3.2507525257 -0.2029960452
H 2.4859078248 2.4645721719 -0.9988874270
H 1.3660601944 1.5012853759 -1.9772723449
H 2.0539830410 1.0346305024 0.9684497872
H 0.5269655226 1.6800197837 0.3424419615
H -3.3026373874 0.5976270485 -2.1762553831
H -4.0145937096 -0.7941439930 -1.3875827771
H -2.4818389355 -1.4734460570 -3.1517209713
H -1.1423209532 -0.5854933246 -2.4169549658
H -0.7121496785 -5.1912728883 0.9922363792
H -2.1492639941 -5.6929209182 -0.9752848789
H -2.7898554566 -3.8144178622 -2.5092493740
H -4.6093464553 1.3633133854 -0.1191301598
H -2.1529706700 2.0117492212 3.3440237461
H -0.4359721515 0.5264274766 2.3678181799
H 2.6740509674 -1.4964224992 0.2760488723
H 1.5176099552 -2.3607857093 -0.7460553611
H 3.4663316768 -1.4651956471 -2.0559745769
H 1.9276782080 -0.7599864085 -2.5993679207
