57
CONF181
C 1.3794844548 1.2388004338 -2.1638870041
C 0.0867919708 0.6254459421 -1.6340049010
C -0.8970224113 1.7361853108 -1.1972406259
C -2.1714928784 1.2465350114 -0.5622369435
C -3.2527916020 0.8195373248 -1.3412998338
C -4.4250143021 0.3646372669 -0.7438280899
C -4.5387459189 0.3377130134 0.6451699809
C -3.4739042705 0.7728785590 1.4297284643
C -2.2994774630 1.2197720946 0.8293420739
C -0.5504198167 -0.3009133262 -2.6602748599
C -0.8570703842 0.2045865874 -3.9288724421
C -1.4821893920 -0.5934963542 -4.8806099247
C -1.8141723630 -1.9132987677 -4.5814573921
C -1.5118762453 -2.4228297895 -3.3233176977
C -0.8848831709 -1.6235882502 -2.3685496958
O 0.3893412245 -0.2340780368 -0.4717956786
P 1.3207762267 0.1346878678 0.7545093642
O 1.1848394433 1.4772979725 1.3647572145
O 2.7939340647 -0.2339289287 0.2149481715
C 3.9511209274 0.3139980651 0.7808493560
C 4.8613354350 0.8956683555 -0.0911846571
C 6.0511990290 1.4048374804 0.4222041644
C 6.3160096971 1.3349107250 1.7883090752
C 5.3878304629 0.7465543044 2.6445773296
C 4.1964852609 0.2255739658 2.1455663697
O 1.0655285405 -1.1247170337 1.7251276100
C -0.1391652235 -1.2724589488 2.4321165943
C -0.3560882555 -0.5313245713 3.5857844005
C -1.5242216002 -0.7560239592 4.3104707236
C -2.4470500347 -1.7081860474 3.8831786575
C -2.2058997545 -2.4392106586 2.7221424348
C -1.0444138864 -2.2243463557 1.9852686991
H 1.1645375115 1.8465430253 -3.0452166904
H 2.0876429391 0.4549695334 -2.4427481174
H 1.8348418501 1.8919704477 -1.4125825462
H -1.1234653992 2.3158703183 -2.0984236065
H -0.3661016274 2.3968749558 -0.5056037955
H -3.1760814481 0.8484584994 -2.4243627089
H -5.2543154485 0.0383919251 -1.3644478804
H -5.4544926207 -0.0124723590 1.1118205014
H -3.5520796695 0.7591310868 2.5121204958
H -1.4704905706 1.5559348569 1.4454905301
H -0.6238276918 1.2345850978 -4.1796428748
H -1.7128212161 -0.1802989054 -5.8576885100
H -2.3038463784 -2.5363626153 -5.3231831794
H -1.7661467833 -3.4489468909 -3.0756704095
H -0.6633396853 -2.0345755383 -1.3918888872
H 4.6347451400 0.9423170321 -1.1508404538
H 6.7704330168 1.8601732579 -0.2510399207
H 7.2434114934 1.7353382491 2.1841509469
H 5.5897561777 0.6848709648 3.7091267456
H 3.4736270924 -0.2437250091 2.8047160189
H 0.3791672007 0.1983957372 3.9065377983
H -1.7081170711 -0.1849073505 5.2149012523
H -3.3544099237 -1.8783608431 4.4534605150
H -2.9233150493 -3.1802543053 2.3844810248
H -0.8340907143 -2.7851411002 1.0810427131
