34
CONF53
C -2.1223062962 0.1448245706 -1.6205548579
C -0.9795314336 0.1825090492 -0.8344427475
C -0.8430620317 -0.5854039179 0.3256116031
C -1.9310621827 -1.3929414400 0.6710066071
C -3.0903391833 -1.4623795866 -0.0931149734
C -3.1688652814 -0.6847993967 -1.2401336132
Cl -4.6183965110 -0.7561667720 -2.2144258478
Cl -1.8852438444 -2.3700384593 2.1351695265
C 0.3816041446 -0.4783045220 1.2050801781
C 0.1457769011 0.5554128999 2.3306458599
N -0.2573541785 1.8546684671 1.8271147447
C -1.5021038014 2.3736562458 1.7163554810
N -1.4616615284 3.5418053293 1.0983700075
C -0.1353291874 3.6897164174 0.8335335746
N 0.6378112387 2.6923154549 1.2489751336
C 1.6651149368 -0.1711721393 0.4480901120
O 1.8572964822 -1.2627913086 -0.4913735872
C 2.6939815091 -1.0105337994 -1.5177388917
C 2.8467313392 -2.2977041413 -2.3500004144
F 3.6581223083 -2.0459226047 -3.4091854358
F 3.4255989104 -3.2575260572 -1.5812897732
F 2.2024094678 -0.0267322654 -2.3481734613
F 3.9146491012 -0.5660137671 -1.0993400836
H -2.2009516450 0.7539297846 -2.5125513214
H -0.1701192921 0.8373390892 -1.1369417334
H -3.9096273545 -2.1050595651 0.2026090762
H 0.5330835103 -1.4402267359 1.7079794247
H 1.0540956113 0.6826014797 2.9290268305
H -0.6520387673 0.1956215707 2.9861649940
H -2.3822746898 1.8723509281 2.0979386527
H 0.2788465250 4.5528767254 0.3292777522
H 1.6313888047 0.7851541299 -0.0782830495
H 2.5119131902 -0.1492198202 1.1423774986
H 1.8718435400 -2.6518459436 -2.7077768583
