41
CONF168
C -2.9155889090 2.6614290783 -1.0675993129
C -2.5695756507 3.2214094017 0.3192462711
C -2.7437112233 4.7384198570 0.3407606095
N -1.2065232124 2.9010354485 0.7741082415
C -0.9659661255 1.4840392978 1.0337278206
C 0.5089814058 1.2711495640 1.3650337654
O 1.3392183183 1.6471396040 0.2586811740
C 0.8172398524 -0.1533628694 1.7945955860
O 0.4735163227 -0.9929131372 0.6832096679
C 1.0354698264 -2.2316089742 0.5841489739
C 1.6514652327 -2.8925940285 1.6460999972
C 2.1922640723 -4.1616105121 1.4416752142
C 2.1165591497 -4.7669659043 0.1934060819
C 1.4901099441 -4.0955073355 -0.8565123205
C 0.9420605563 -2.8282733866 -0.6855948673
C 0.2823368636 -2.0881655145 -1.8157731787
C 1.0802395233 -0.9481409280 -2.3949836602
C 2.3145797623 -0.5918307545 -2.0449749470
H -2.2501169251 3.0959913387 -1.8236870851
H -2.8151719991 1.5728652146 -1.1080881955
H -3.9462742179 2.9104612163 -1.3417009195
H -3.2576852918 2.7807335653 1.0557100951
H -2.5453531536 5.1365078847 1.3396598573
H -3.7583766252 5.0198093539 0.0421871166
H -2.0440666356 5.2096510966 -0.3603226920
H -0.5435828600 3.2068530108 0.0648322000
H -1.5744899319 1.1726442796 1.8949860192
H -1.2281322299 0.8194899674 0.1911665880
H 0.7869919357 1.9402565966 2.1887931358
H 1.2532186706 0.9513524531 -0.4143424678
H 0.2368210597 -0.4349614302 2.6844700630
H 1.8887123327 -0.2446329628 2.0134430147
H 1.7044370154 -2.4347965479 2.6269639854
H 2.6703985804 -4.6739353831 2.2706616705
H 2.5375119707 -5.7540881580 0.0349480982
H 1.4285554333 -4.5620158302 -1.8362808701
H 0.0549356581 -2.7938079741 -2.6255035168
H -0.6873785188 -1.6888013585 -1.4884794916
H 0.5691204804 -0.3903461976 -3.1800091491
H 2.8609978904 -1.1219804117 -1.2685279090
H 2.8162521605 0.2397417351 -2.5301346372
