65
CONF401
C -1.0669506759 4.5580841189 -2.1959831322
C -0.9501750430 3.2177159486 -1.4741798713
C -2.2495188054 2.8100450736 -0.7428081898
C -3.4267511979 2.6042314688 -1.6988311995
C -1.9456231431 1.5811947071 0.0853085785
O -1.6425709207 1.6049750251 1.2652803846
O -1.9889349511 0.4570023004 -0.6534470957
C -1.6437606937 -0.8017378868 0.0063007421
C -2.8806287633 -1.3952022464 0.6579935395
C -2.5147009661 -2.6838588503 1.4096809718
C -1.6059981502 -3.5422201859 0.5810337780
C -0.9587275496 -3.1322787709 -0.5267839871
C -1.0917794602 -1.7210282569 -1.0716968698
C 0.2554985971 -1.2489358990 -1.6636046213
C 0.6253318952 -2.1996942067 -2.8209664680
C 0.6240809297 -3.6251137454 -2.3398247544
C -0.0920416440 -4.0283069189 -1.2766289433
C 1.9347288677 -1.8311979829 -3.5236048673
C 1.3389584916 -1.1410380971 -0.5675856370
C 1.6371254824 0.3102453559 -0.1862709751
C 2.4551171238 0.4585105027 1.0793444249
C 2.8442167637 1.9020376736 1.3729764092
C 3.2552113136 2.1174635217 2.8361783791
C 3.4037495161 0.7708428873 3.5576803532
C 2.1203958724 0.0002657403 3.4207809255
O 1.5032209588 -0.5086344285 4.3356559588
O 1.6188407971 -0.0687008613 2.1711579615
O 2.2118553322 2.8897033291 3.4567002247
C -1.8898425067 -2.3977890330 2.7876590046
H -1.3698170858 5.3496137838 -1.5017644370
H -0.1036411548 4.8404334492 -2.6313112807
H -1.7997015748 4.5182971332 -3.0068391652
H -0.6865594397 2.4261610449 -2.1872286756
H -0.1369459871 3.2704891550 -0.7394106945
H -2.4945134365 3.5963097361 -0.0196717579
H -3.1593165158 1.9190851308 -2.5084506804
H -4.2924224699 2.1927054030 -1.1710056505
H -3.7253204463 3.5589155809 -2.1390320225
H -0.8825178042 -0.5875860099 0.7619416602
H -3.3291500864 -0.6699145829 1.3448773274
H -3.6135022119 -1.6167336061 -0.1276362647
H -3.4417897924 -3.2467985662 1.5880093469
H -1.4578773080 -4.5673940100 0.9209700886
H -1.8242474411 -1.7441536616 -1.8942116897
H 0.0989428366 -0.2533241546 -2.0987873078
H -0.1747233590 -2.0980036773 -3.5728159281
H 1.2370409210 -4.3433895629 -2.8818677776
H -0.0451250123 -5.0642695430 -0.9458842201
H 1.9206937308 -0.7827939258 -3.8396394148
H 2.8033972381 -1.9828268640 -2.8756298852
H 2.0737045671 -2.4546430569 -4.4127569408
H 1.0150318909 -1.6912060897 0.3236735151
H 2.2700087581 -1.6184914217 -0.8887744228
H 2.1824172559 0.8048427227 -1.0002331410
H 0.7083753965 0.8771377973 -0.0484821824
H 3.3474311644 -0.1798611585 1.0305630055
H 1.9986018922 2.5613992665 1.1497043983
H 3.6623300025 2.1730056492 0.6991578189
H 4.2050209322 2.6624072356 2.8986210648
H 3.6271481120 0.9061796782 4.6178593685
H 4.2252762297 0.2021156175 3.1030130880
H 2.4787544898 3.0681710674 4.3682628273
H -1.6244439298 -3.3313606845 3.2939822354
H -2.5953114025 -1.8505306234 3.4215589148
H -0.9775773506 -1.8005695144 2.6877236491
