27
CONF58
C 2.8262269275 -0.3370581754 0.1076864014
C 4.2836516416 -0.5093919670 -0.3199628594
C 5.2309177922 0.4534517203 0.3879658545
O 5.2970458790 0.2367834698 1.7995125578
C 1.9079395290 -1.2767173342 -0.6745994771
C 0.4739363420 -1.3333559269 -0.1930208464
C -0.2952913616 0.0233537970 -0.2446182232
C -1.8531410592 -0.0949106252 -0.1883941464
C -2.5859467594 1.2368919964 0.1785169893
F -3.9010977764 1.0781024535 -0.0282442208
F -2.1472348836 2.2429936460 -0.5930717065
F -2.3947965542 1.5559788259 1.4632364547
F -2.2069007083 -1.0157883451 0.7372858687
F -2.3077318316 -0.4851942540 -1.3993327758
F 0.0333287971 0.6608888533 -1.3992935738
F 0.1145441927 0.7960872335 0.7967140660
F 0.4207187057 -1.7870609519 1.0947702063
F -0.2249153741 -2.2233027390 -0.9688823409
H 2.7250052860 -0.5492554525 1.1784599278
H 2.5218597118 0.7047310898 -0.0499778399
H 4.6103394723 -1.5378821561 -0.1216361070
H 4.3721345757 -0.3446739156 -1.4029586080
H 4.9488211387 1.4950635472 0.1656272292
H 6.2509864927 0.3038807639 0.0201750181
H 2.2682734821 -2.3095536961 -0.5941895517
H 1.8958838270 -1.0175603935 -1.7376156078
H 4.4877800700 0.5739866031 2.1968891349
