42
CONF66
C 4.2409170273 2.3530915583 -0.6849470333
C 3.5787702708 1.0308214790 -0.2908041796
C 4.2051289343 0.4521687121 0.9772626388
C 2.0836969304 1.2656411550 -0.1170769672
O 1.3999318762 0.0140507482 0.1454897580
C 0.9276612713 -0.1873224896 1.3952386885
O 1.0883536011 0.5604470784 2.3325042387
C 0.2519039326 -1.5137209642 1.4976729157
C 0.5595403007 -2.2911411932 2.6137734998
C 0.0496000117 -3.5776194053 2.7387446125
C -0.7722877450 -4.0991659208 1.7439324347
C -1.0984842385 -3.3248540436 0.6375487635
C -0.6047330418 -2.0263462721 0.5118591250
C -1.0902080019 -1.2307990705 -0.6522931517
O -1.2672965353 -1.6881518507 -1.7593238415
O -1.3761008146 0.0379197110 -0.2899025294
C -1.8630825238 0.9068637264 -1.3447838888
C -3.3695950073 0.7766285441 -1.5368183933
C -3.7996432776 1.6959266308 -2.6814671725
C -4.1227925498 1.1004513398 -0.2471282631
H 5.3113824442 2.2101913223 -0.8581945585
H 4.1291632075 3.0959528866 0.1132834591
H 3.8047172621 2.7687190001 -1.5995160536
H 3.7103913375 0.3117788590 -1.1108747936
H 5.2780370480 0.2896312981 0.8350950397
H 4.0685538308 1.1351051520 1.8227298622
H 3.7533614316 -0.5079406472 1.2433070277
H 1.6386313183 1.6498090885 -1.0411712971
H 1.8879913280 1.9613562803 0.7051718770
H 1.2153572374 -1.8752054296 3.3711745626
H 0.3009042363 -4.1755281467 3.6085428045
H -1.1671603507 -5.1057301020 1.8337454922
H -1.7527092467 -3.7074302388 -0.1385276666
H -1.3277541324 0.6740194573 -2.2705983128
H -1.6044085626 1.9162891588 -1.0068828066
H -3.5748812119 -0.2619993627 -1.8248951092
H -4.8765472418 1.6150482508 -2.8552552101
H -3.2871777044 1.4430925189 -3.6152654363
H -3.5797091447 2.7435571193 -2.4431239457
H -5.2005369913 0.9712624481 -0.3860805372
H -3.9444880529 2.1399897024 0.0534267321
H -3.8043980400 0.4531427053 0.5744274992
