49
CONF51
C -3.9380686985 -1.0161366818 -0.6824107539
C -3.0059256478 -1.5044272359 0.4072215890
C -1.9372421659 -0.5708556011 1.0024877012
C -1.5631753022 -1.7820901090 0.1074001303
C -0.8371462088 -2.9098706456 0.8124699906
C -0.9967680662 -1.5306844515 -1.2736377696
C -1.7173944873 0.7982990674 0.5483683477
O -2.0089170494 1.3122354678 -0.5115112075
O -1.0483248099 1.5018868242 1.5396475745
C -0.7507530196 2.8799198966 1.2361609325
C -1.1232562495 3.6502450374 2.4217141139
N -1.4297694222 4.2592035720 3.3533114706
C 0.7048260531 3.0615392558 0.8387623823
C 1.2645281412 2.1359380290 -0.0399326001
C 2.5755626264 2.3164486657 -0.4682039302
C 3.3287561901 3.4090178083 -0.0489194523
C 2.7537176717 4.3282711640 0.8199226805
C 1.4472547002 4.1589558544 1.2722485126
O 3.1549038209 1.4690521433 -1.3917888987
C 2.9688003067 0.1012167347 -1.2694429755
C 2.9776293603 -0.5365626073 -0.0304416038
C 2.8819589336 -1.9244624892 0.0120807822
C 2.7796912077 -2.6671672890 -1.1629791218
C 2.7737856342 -2.0118979568 -2.3922970921
C 2.8647368800 -0.6240044578 -2.4523740047
C -3.7455239047 -2.3560558364 1.4232402306
H -4.7476297840 -0.4235811630 -0.2426260920
H -4.3900787143 -1.8860009822 -1.1727641560
H -3.4484516868 -0.4067775080 -1.4378568622
H -1.7253299671 -0.7137086394 2.0568691695
H -1.0062864042 -3.8501249951 0.2743009533
H 0.2398064845 -2.7129761523 0.8100719905
H -1.1538461654 -3.0446734467 1.8470221708
H 0.0867771192 -1.3807294822 -1.2042840040
H -1.4263948160 -0.6622376835 -1.7704642926
H -1.1706283048 -2.4116999691 -1.9023005631
H -1.3960685890 3.2037800438 0.4066986676
H 0.6976452825 1.2836765825 -0.3975296304
H 4.3476759273 3.5234377391 -0.4026108108
H 3.3330701360 5.1805046115 1.1594505645
H 1.0162531085 4.8808050300 1.9578536776
H 3.0689377553 0.0418904611 0.8828287810
H 2.8969143979 -2.4270251269 0.9742362320
H 2.7040076194 -3.7486356465 -1.1194693565
H 2.6920522358 -2.5803728958 -3.3134393093
H 2.8622112449 -0.0978918565 -3.4012583141
H -4.0759047004 -3.2907213539 0.9555654267
H -3.1431671224 -2.6043469015 2.2978820629
H -4.6354505456 -1.8206038351 1.7703961450
