19
CONF5
C -2.3279564958 -0.1214866125 -0.4859068566
C -1.5767048266 0.4891255088 0.6595292816
C -2.1491906111 0.8791626605 1.8015160569
C -0.1009307330 0.6854208689 0.5375566673
O 0.6175417663 1.1760776141 1.3794740039
O 0.3490808084 0.2393951594 -0.6680573979
C 1.7770939980 0.3706745376 -0.9009861804
C 2.5039255869 -0.8438649047 -0.3602431442
O 2.1162765569 -2.0436886823 -1.0245723407
H -2.2054267234 0.4716472921 -1.3972434517
H -1.9547743520 -1.1250367057 -0.7136673073
H -3.3921944548 -0.1905142908 -0.2506656896
H -1.5513647831 1.3161507405 2.5936568949
H -3.2171292735 0.7689414116 1.9582749404
H 2.1420081666 1.2884863569 -0.4300677547
H 1.8765916109 0.4255601542 -1.9878077499
H 3.5768855981 -0.7215337748 -0.5434566968
H 2.3493350276 -0.9145542735 0.7262310796
H 1.1669340334 -2.1499633727 -0.8935644609
