52
CONF32
C -1.5113189601 -1.2495437191 -3.0792375108
O -2.5499537093 -0.6463233677 -2.2955088583
C -2.1979727774 -0.1350991107 -1.0830841928
C -0.9007362059 -0.1594849638 -0.5647362398
C -0.6425059369 0.3929259878 0.6903007907
C -1.6708566382 0.9875775575 1.4221415417
C -2.9682719809 1.0143054253 0.9048366289
C -3.2412391839 0.4429046448 -0.3466255007
O -4.5254028481 0.4306897014 -0.8373247195
C -4.8395362052 1.6021230674 -1.6192074912
O -4.0378201802 1.5712362604 1.5368669287
C -3.8066521154 2.1594274239 2.8243161151
C 0.7566581974 0.3457543047 1.2942978284
C 1.0102046562 -0.9018923216 2.1444748998
C 1.1180568194 -2.1518104383 1.2891436847
C 0.9388611986 -3.2523992343 2.3241029417
O 0.0093435671 -2.6673479308 3.2994242176
C 0.0358916348 -1.3102395378 3.2240371108
O -0.6119847475 -0.6241495537 3.9792175454
C 2.4034661563 -2.1127099616 0.4997544636
C 2.5801745953 -0.7411470441 -0.1573361417
C 3.5573760615 -0.6387845442 -1.1720550611
C 3.7447753666 0.5833057029 -1.7660767146
C 3.0096698407 1.7009764076 -1.3882958670
C 2.0612108021 1.6349742977 -0.3996489363
C 1.8450588608 0.3898925615 0.2291904824
O 3.3908287709 2.7877859985 -2.1293290052
C 4.4335301402 2.3241256128 -3.0165528045
O 4.6255311621 0.9147640836 -2.7622932201
O 2.3528944980 -3.1794269996 -0.4615712751
H -0.7323809550 -0.5195871765 -3.3290033218
H -1.0650287496 -2.1009903671 -2.5521304909
H -1.9965506963 -1.5957834631 -3.9921659622
H -0.0866928146 -0.5830173354 -1.1390002107
H -1.4501872851 1.4177129449 2.3901894115
H -5.8725840974 1.4852474178 -1.9522997235
H -4.1754844759 1.6719888961 -2.4887211187
H -4.7472441097 2.5075526317 -1.0082843862
H -3.4400618621 1.4120677055 3.5375263417
H -4.7756397607 2.5364743214 3.1524180980
H -3.0920169882 2.9876820559 2.7553219225
H 0.8663790240 1.2291460932 1.9338442114
H 1.9669840167 -0.7554539421 2.6756279087
H 0.2740755214 -2.1786045759 0.5882338669
H 1.8730246663 -3.4868189165 2.8477152172
H 0.4754883640 -4.1644326007 1.9478910325
H 3.2502606330 -2.2831216931 1.1842365308
H 4.1442819435 -1.4972015380 -1.4804627976
H 1.4843852180 2.5070349271 -0.1084916747
H 4.1131370611 2.4642568458 -4.0542972103
H 5.3619568964 2.8612113720 -2.7947686699
H 3.2546180238 -3.4277746811 -0.6966010073
