33
CONF28
O -3.8356402829 3.2911460600 -2.2130381336
C -3.3795145869 2.1942731753 -1.5636287007
C -4.3463003839 1.2992568315 -1.1012718991
C -3.9320224050 0.1583095352 -0.4325062909
O -4.8533772223 -0.7218728507 -0.0110034926
C -2.5481478980 -0.1004692475 -0.2074500105
C -2.1100324435 -1.3415102438 0.3678735569
O -2.9026680310 -2.2222150867 0.7603912081
C -0.6200299129 -1.5542092093 0.4289649526
C 0.1090342177 -0.2259104317 0.5797299975
O -0.2750976687 0.6759053180 -0.5054123917
C -1.6077464647 0.8486455972 -0.6800852803
C -2.0104577515 1.9867397149 -1.3590003521
C 1.6037860449 -0.3554364180 0.5493906692
C 2.2603661747 -0.7645909904 -0.6117583552
C 3.6454762664 -0.9032461988 -0.6201721346
C 4.3797827392 -0.6455862082 0.5319960218
O 5.7411679303 -0.7557925546 0.6197639202
C 3.7242650124 -0.2403574823 1.7037924469
O 4.4225637641 0.0204796748 2.8469949010
C 2.3432616840 -0.0900275098 1.7029025897
H -3.0905099947 3.8367231133 -2.5016288074
H -5.3995074464 1.4876918148 -1.2726362018
H -4.3444446775 -1.4803888656 0.3919759772
H -0.3750209993 -2.2157310723 1.2643932053
H -0.3074704209 -2.0538567553 -0.4985381133
H -0.2040780220 0.2526814109 1.5179466940
H -1.2738350177 2.7050749452 -1.7030607324
H 1.6974394122 -0.9662646218 -1.5171187728
H 4.1637740523 -1.2134090978 -1.5237219634
H 6.1064970117 -1.0250317897 -0.2332088076
H 5.3650883180 -0.1177113983 2.6735313965
H 1.8533998961 0.2366901483 2.6155926913
