74
CONF275
C -0.4891440154 -0.5832771734 0.7902629984
C 0.3103829356 -1.5835189310 1.6116132693
O -0.4303777363 -1.6511404863 2.8814100934
C -1.1594386397 -0.5196552614 3.0622979037
O -1.7930919653 -0.3346545328 4.0759229521
C -0.9696043387 0.3791284044 1.8653560626
C -2.1226997170 1.2574411908 1.3746070662
C -3.4436918402 0.5102600043 1.2287363680
C -4.3250330650 0.4715717037 2.3108134851
C -5.5216885883 -0.2335649950 2.2002179479
O -6.4677136282 -0.3486218899 3.1819062547
C -6.1911669261 0.2764668311 4.4427846661
C -5.8547806462 -0.9006414076 1.0153257775
O -7.0281660710 -1.5907469726 0.8914481016
C -4.9749688948 -0.8477601089 -0.0711100947
O -5.3858563455 -1.5146666416 -1.1888708562
C -4.5086199553 -1.4891751640 -2.3222409241
C -3.7766715373 -0.1395545427 0.0380639324
C -1.6897824522 1.8946335212 0.0600799958
C -2.4149834441 3.0299897664 -0.3601165641
C -2.0878856491 3.5920504174 -1.5680737843
C -1.0807244000 3.0662777944 -2.3717650003
O -0.9649932215 3.8023168107 -3.5210907958
C -1.9413363661 4.8628287504 -3.4206004055
O -2.6497747703 4.6825577878 -2.1728510690
C -0.3634840640 1.9612360980 -1.9929880241
C -0.6747393325 1.3652229587 -0.7488883712
C 0.1830827589 0.1842122643 -0.3310425819
O 1.4693518513 0.7012088762 0.1210745751
C 2.5707685038 0.2378552978 -0.5857108734
O 2.8132457546 -1.1224160425 -0.1932152464
C 3.9372975904 -1.6538311468 -0.8886681735
C 4.1012266183 -3.1243810043 -0.5419878647
O 5.3013385681 -3.6019123891 -1.1662621111
C 6.4439406613 -2.8662710612 -0.7417198881
C 7.6562069638 -3.4378379949 -1.4263171517
O 6.3298053953 -1.4901141199 -1.1047209723
C 5.1961595002 -0.9034873969 -0.4596192822
C 5.0750405143 0.5639114999 -0.8328564144
O 6.2092721604 1.3304435082 -0.4410122129
C 3.7720884744 1.1294369042 -0.2373838394
O 3.5440084071 2.4703765304 -0.6529719235
H -1.3609014663 -1.0967121297 0.3653281649
H 0.3400761376 -2.5935086216 1.2017576129
H 1.3199328321 -1.2293240414 1.8306548302
H -0.1311339266 1.0411439534 2.1393678919
H -2.2803743407 2.0589327379 2.1053107925
H -4.0684184398 0.9836694276 3.2291785340
H -6.0895421620 1.3612390116 4.3255383639
H -7.0482358946 0.0525920582 5.0780182193
H -5.2793455572 -0.1363838050 4.8892323287
H -7.5055609752 -1.5088237711 1.7307732667
H -5.0042558274 -2.0817434765 -3.0916885280
H -4.3614403578 -0.4644191650 -2.6836558389
H -3.5378327439 -1.9370516676 -2.0785725977
H -3.1090088513 -0.0694336678 -0.8113073207
H -3.2110117241 3.4358506495 0.2558960036
H -1.4262049557 5.8293175602 -3.4069850270
H -2.6494689659 4.7833308662 -4.2516501123
H 0.4162292248 1.5516715555 -2.6266176094
H 0.3561935521 -0.4692509235 -1.1943269097
H 2.3907842907 0.2612505529 -1.6780502684
H 3.8050038684 -1.5480204142 -1.9783270062
H 3.2751404443 -3.7251313218 -0.9302974618
H 4.1591881561 -3.2444978203 0.5515600866
H 6.5138505230 -2.9298280449 0.3597020574
H 8.5486279537 -2.8911193023 -1.1137151203
H 7.5440442293 -3.3551154600 -2.5110363309
H 7.7718238625 -4.4895818127 -1.1552851520
H 5.3047159605 -0.9959344428 0.6367655819
H 5.0301055194 0.6453835469 -1.9282389133
H 6.2884247136 1.2793746532 0.5218177607
H 3.8601702960 1.1586722861 0.8568722023
H 3.5356248886 2.4912544514 -1.6203837031
