43
CONF7
C 0.7430858029 1.5206406859 1.3436170183
O 2.0463801998 0.8798018609 1.0762674711
C 1.8212455863 -0.1479117473 0.1897351314
C 2.7771685603 -0.8490545557 -0.5441190279
O 4.1343885797 -0.6951850250 -0.4519017620
C 4.6691395579 -0.3749600757 0.8475147784
C 2.2914662581 -1.7265814370 -1.5272229360
C 0.9317125767 -1.8565051053 -1.7991147709
C -0.0182588338 -1.1594604171 -1.0376216504
C 0.4716381210 -0.3811880476 -0.0077051021
C -0.3371187654 0.5191431606 0.8820172893
C -0.9626622392 -0.2369911422 2.0664452840
C -1.9600059206 -1.2886739210 1.5969962392
N -2.9436089610 -0.6979109626 0.6844810172
C -3.9821449809 -1.6648070550 0.3374703167
C -2.3038522059 -0.0898820233 -0.4994526722
C -1.4840115539 -1.0755247847 -1.3837647719
C -1.4591878980 1.1028710828 -0.0029914586
C -0.8592934127 1.9434424851 -1.0937287729
C 0.1720719687 2.7435381031 -0.8164662996
C 0.6833329879 2.8712732333 0.5957814158
O 1.9334086076 3.5549142197 0.6771333145
H 0.7230474896 1.6987004245 2.4216162082
H 4.5087322491 0.6778509419 1.0950559661
H 4.2143001002 -1.0096317273 1.6163160185
H 5.7391143906 -0.5808268849 0.7869467802
H 3.0226392149 -2.2737251424 -2.1152194366
H 0.6122168839 -2.4907753266 -2.6216211236
H -1.4710692855 0.4942625939 2.7079669539
H -0.1725779322 -0.7131234418 2.6587913338
H -2.4967050462 -1.6971306956 2.4614611682
H -1.4220094588 -2.1365582162 1.1287940444
H -3.5939147295 -2.5909908129 -0.1244596473
H -4.6945367343 -1.2085701969 -0.3582777109
H -4.5228213807 -1.9531723031 1.2457586962
H -3.1183168950 0.3065744987 -1.1189117693
H -1.5619189433 -0.7533264406 -2.4298644172
H -1.9531589426 -2.0661700687 -1.3502162872
H -2.1194405456 1.7253189276 0.6200026958
H -1.2721562292 1.8832030252 -2.0988644613
H 0.6303035000 3.3805512671 -1.5689176997
H -0.0278417861 3.4929060277 1.1599822416
H 2.6112199394 2.9236443196 0.3948138198
