46
CONF24
C -2.5944844416 3.3770257616 -0.0543753850
C -2.3627239739 1.8872687858 0.1298339663
C -2.3807013187 1.1367310181 -1.2030166535
O -1.6589390866 1.2899809700 -2.1601352140
N -3.4010711841 0.2083254522 -1.0814233777
C -4.0814694165 0.3239168368 0.1375221509
O -5.0142504279 -0.3327925191 0.5163555130
O -3.5176003433 1.3278975894 0.8396458232
N -3.7057544005 -0.7689013865 -2.0052348332
C -2.7286821011 -1.7762128389 -2.1919207553
C -1.8506638624 -2.1436866089 -1.1693572623
C -0.9504882735 -3.1851907608 -1.3788197334
C -0.9200813588 -3.8702979653 -2.5906506624
C -1.8042931260 -3.4998645190 -3.6033921528
C -2.7029005809 -2.4570493064 -3.4132775497
C -1.0897861990 1.5253645104 0.8728554795
C -1.0966013515 0.6198004965 1.9346832953
C 0.0901192276 0.2615463965 2.5646924008
C 1.2923405343 0.8059202897 2.1273649820
C 1.3181391343 1.7137656767 1.0696441344
C 0.1283003641 2.0650410338 0.4469820155
O 2.4268937807 0.4649652072 2.8341592197
C 3.6293772584 0.3342649873 2.1536474370
C 4.7638554918 0.8510428468 2.7698272170
C 6.0047180569 0.6737464204 2.1628917594
C 6.1067441374 -0.0060634909 0.9510385917
C 4.9585653882 -0.5191882903 0.3489695013
C 3.7124533045 -0.3571435307 0.9472393367
H -3.5457004327 3.5464952202 -0.5654719268
H -2.6074974399 3.8639853489 0.9234208120
H -1.7915379552 3.8058871005 -0.6566590795
H -4.0639893254 -0.3643361071 -2.8641456144
H -1.8620623429 -1.6287618448 -0.2140501579
H -0.2693248946 -3.4604479720 -0.5794315657
H -0.2163383914 -4.6811401126 -2.7459174196
H -1.7913268491 -4.0202740065 -4.5561168953
H -3.3842560991 -2.1654544878 -4.2076600961
H -2.0268870212 0.1843493568 2.2797215046
H 0.0896769886 -0.4393236896 3.3926766449
H 2.2565278547 2.1440686329 0.7373128799
H 0.1602869050 2.7672906644 -0.3784800705
H 4.6654847246 1.3814513615 3.7112424873
H 6.8932896466 1.0755734136 2.6396729823
H 7.0747954036 -0.1382779108 0.4792639059
H 5.0304224912 -1.0583960970 -0.5904947097
H 2.8174193199 -0.7629016364 0.4869673409
