59
CONF59
C 3.0222073023 3.6650882524 -1.2248255953
C 3.4913593976 2.4799806121 -2.0694914091
C 4.3922861307 1.4994563648 -1.3118059085
C 3.7050885746 0.8227954919 -0.1257204566
C 4.5619392763 -0.2798691421 0.4944120986
C 3.9203086754 -0.9139355344 1.7251635614
O 4.8683030423 -1.8904389182 2.2219345113
C 2.6115727175 -1.5642346234 1.4040676714
C 1.4548968197 -1.2347177026 1.9812177266
C 0.1194349797 -1.7785373463 1.5936041640
C -0.7420359350 -2.2496965775 2.7918234982
O -1.3142488349 -3.5263184842 2.4059814070
C -1.8377738689 -1.1894141026 2.9314186889
C -2.1425384607 -0.8026865304 1.4848091986
O -2.9576599109 -1.8051110438 0.8375466167
C -0.7335524576 -0.6791315384 0.8800890908
C -0.6175403302 -0.7415165731 -0.6413685678
C -1.3646667255 0.3441674659 -1.3581783436
C -2.1414736004 0.1313889407 -2.4211602836
C -2.8966925592 1.1631396374 -3.2045226701
C -4.3771104462 0.7976980374 -3.4198568410
C -5.2718477221 1.0498971811 -2.1970247339
C -4.8181911097 0.3566018990 -0.9395987738
O -4.6719065144 -0.9670792934 -1.0924869089
O -4.6199566176 0.9293343694 0.1197854768
H 2.3772096075 3.3435217796 -0.4009925234
H 2.4536507195 4.3786141397 -1.8298399929
H 3.8776239589 4.1968536698 -0.7920422733
H 4.0352530037 2.8548254092 -2.9454333578
H 2.6178165114 1.9364693763 -2.4550702537
H 4.7384618545 0.7236339065 -2.0078845353
H 5.2906322312 2.0261302356 -0.9599607798
H 2.7478622252 0.3981440072 -0.4579841707
H 3.4621723171 1.5659582448 0.6449865532
H 5.5382005580 0.1270448644 0.7884848133
H 4.7502367502 -1.0689704149 -0.2464655117
H 3.7585549479 -0.1361962960 2.4888851194
H 4.4503727254 -2.3358294538 2.9703204425
H 2.6365728737 -2.3308083525 0.6268028605
H 1.4498634926 -0.4569988509 2.7489420461
H 0.2607966735 -2.6328882959 0.9215981638
H -0.1495439321 -2.3792808288 3.7058922694
H -1.8717982887 -3.8275440422 3.1364287363
H -1.4310399171 -0.3158387624 3.4552942467
H -2.7121845532 -1.5468292404 3.4845163948
H -2.7074414843 0.1265011833 1.3905235463
H -2.5993195039 -2.6779528967 1.0730692356
H -0.3607525625 0.3015517294 1.2114183846
H -0.9574157777 -1.7205183951 -0.9999490927
H 0.4553567733 -0.6727134041 -0.8814287679
H -1.2466601916 1.3596035687 -0.9730395229
H -2.2511329282 -0.8937588278 -2.7821058638
H -2.4328979486 1.2542725739 -4.1969341184
H -2.8129836569 2.1463562263 -2.7239063555
H -4.4493707583 -0.2530137125 -3.7226163308
H -4.7793748641 1.3948600721 -4.2449344445
H -5.3240242105 2.1189647411 -1.9759382819
H -6.2893169352 0.7027482758 -2.4180106377
H -4.1655809405 -1.3237729391 -0.3150987016
