45
CONF1
C 2.5141960765 -1.7622358250 2.7587164247
C 2.1686768767 -2.0284832939 1.2965485720
C 2.7881217548 -1.0011946648 0.3490979973
C 2.3417522978 -1.1885751611 -1.1044469049
N 0.9294401681 -0.8917644733 -1.3255258255
C 0.4347771998 0.3889725389 -1.2945228614
C -0.9497013523 0.5997587837 -1.0981767841
C -1.5032422013 1.8705185067 -1.1890679052
C -0.7176311939 2.9875640556 -1.4428461372
C 0.6582860879 2.7978661801 -1.5806729015
C 1.2254819444 1.5266460414 -1.5026996881
C 1.5832950713 3.9340115679 -1.8183526922
O 2.7859525509 3.8344147369 -1.9269612477
O 0.9370340472 5.1245323342 -1.9041379777
S -3.2729706173 2.1002311660 -0.8930817590
O -3.5796501498 1.5240112049 0.4164871367
O -3.5816196176 3.4901050451 -1.2301138855
N -4.0868560817 1.1500117041 -2.0311647530
O -1.7685317888 -0.4974483139 -0.8957567993
C -1.6662792550 -1.1348118911 0.3430001158
C -1.9711401431 -2.4909740741 0.3640153640
C -1.8965468566 -3.1798546870 1.5704423535
C -1.5190521014 -2.5193265646 2.7362320679
C -1.2238933660 -1.1596466970 2.6925362208
C -1.2947781752 -0.4541683196 1.4960578341
H 2.0646979221 -2.5131493655 3.4153123516
H 3.5975988259 -1.7757290165 2.9198457549
H 2.1421980557 -0.7805525276 3.0711713287
H 1.0772760855 -2.0240683823 1.1863521441
H 2.5095349447 -3.0325975947 1.0099835231
H 3.8831314731 -1.0688997530 0.3941631063
H 2.5238373888 0.0138101955 0.6758466759
H 2.5031509067 -2.2283644033 -1.4130434251
H 2.9437622107 -0.5721149091 -1.7802778435
H 0.2902342439 -1.6007785958 -1.0018504966
H -1.1709543195 3.9675360746 -1.5059560468
H 2.2980037546 1.4464669533 -1.6281369592
H 1.6211148641 5.7943282305 -2.0558447661
H -3.8175961096 0.1740544038 -1.9330242936
H -3.9100505058 1.4907349042 -2.9721865358
H -2.2638132487 -2.9869694846 -0.5556911670
H -2.1335715513 -4.2384133318 1.5949787397
H -1.4614637208 -3.0597550515 3.6746711367
H -0.9419193038 -0.6349348052 3.5994377434
H -1.0902927901 0.6092367444 1.4595040701
