47
CONF84
C -4.8985001680 2.3536122125 -1.9808576372
O -5.3333381110 1.9961871102 -0.6324569975
P -5.8431463207 0.5198833910 -0.3116897648
S -6.3129356181 0.2806661121 1.5510532310
O -6.9676627713 0.3072133275 -1.4273699142
C -7.7026990908 -0.9475051588 -1.4824160426
O -4.7019013937 -0.4981488140 -0.8844356386
C -3.6138902089 -0.9037852458 -0.1108509135
C -3.4833884938 -2.2583154774 0.1573798042
C -2.3729788073 -2.7059914855 0.8652549091
C -1.4197612746 -1.7934695842 1.3233139265
C -1.5756339008 -0.4299762560 1.0597252417
C -2.6672580742 0.0168247116 0.3260968139
S -0.0727467475 -2.4199723813 2.3187135741
C 1.3133018420 -1.4168365011 1.7984769108
C 2.1722692642 -0.9152269119 2.7780917087
C 3.3084049980 -0.2013203077 2.4099145303
C 3.5560079967 0.0274982957 1.0648925584
C 2.7034126924 -0.4533834986 0.0761175247
C 1.5876399184 -1.1923362552 0.4462885143
O 4.6647143108 0.8052358284 0.7304068810
P 5.9230966036 0.1964532354 -0.1152476709
S 6.4030014645 -1.6300796822 0.3101941459
O 6.9933360757 1.3565998902 0.1336543141
C 7.5878685735 1.5214204422 1.4516306865
O 5.5685040328 0.3966345746 -1.6566927094
C 5.1568900517 1.7061467944 -2.1583901560
H -4.4752405700 3.3535561929 -1.8930821809
H -5.7556106489 2.3601226185 -2.6571835886
H -4.1373217345 1.6512532178 -2.3305262021
H -8.4107172492 -0.8375599234 -2.3030741561
H -7.0169572813 -1.7750931108 -1.6824511258
H -8.2346532840 -1.1090307054 -0.5411823043
H -4.2357142491 -2.9534407931 -0.1992620602
H -2.2512188521 -3.7665564799 1.0599519784
H -0.8442062876 0.2854051820 1.4200736413
H -2.7875496885 1.0730639355 0.1083865522
H 1.9569694533 -1.0808978725 3.8285205991
H 3.9904755314 0.1886966131 3.1575924122
H 2.9172840776 -0.2655154820 -0.9708884968
H 0.9279690899 -1.5878751990 -0.3187659283
H 6.8143713849 1.7702084537 2.1830541146
H 8.1100522669 0.6059055552 1.7416918302
H 8.2940318202 2.3452602293 1.3544827910
H 4.3347431794 2.1003953279 -1.5554447014
H 6.0069159655 2.3911739273 -2.1446135583
H 4.8237691318 1.5329001373 -3.1810314502
