47
CONF18
C -3.9954630213 0.3251007277 1.1276201110
C -2.8667429386 0.1949452754 0.1296054079
C -3.1132723389 -0.4736184171 -1.2015203875
C -2.3477359444 -1.2223474204 -0.1097411283
C -0.9116813602 -1.4746128806 -0.3236456832
O -0.1821792425 -0.8949470271 -1.0972676182
O -0.4893699058 -2.4782634489 0.5025070912
C 0.9417348153 -2.7596434943 0.4404663875
C 1.0847382789 -4.1698299468 0.7905089118
N 1.2246575978 -5.2813294345 1.0691588948
C 1.7025111526 -1.8458842446 1.3742997548
C 2.3462874772 -0.7327931022 0.8389283254
C 2.9902725355 0.1543709360 1.6982897765
C 3.0077274621 -0.0727230502 3.0725328812
C 2.3717041756 -1.1953985927 3.5885465877
C 1.7117776763 -2.0847301392 2.7481042519
O 3.6902365681 1.2485044474 1.2482605564
C 3.3060496646 1.8631784780 0.0662051050
C 4.3164883272 2.2192215277 -0.8185020382
C 3.9870572475 2.9070816890 -1.9822098815
C 2.6616621723 3.2267460191 -2.2609804735
C 1.6613068854 2.8634091021 -1.3626810066
C 1.9763297977 2.1854015421 -0.1907883504
C -4.4331207057 -0.9620009911 -1.6077993156
C -4.9475313803 -0.8623691932 -2.8349907739
Cl -6.5299795781 -1.4719666528 -3.2255739045
Cl -4.1236325070 -0.1232462557 -4.1746359349
C -1.8989053669 1.3556403613 0.1556450813
H -4.6184325350 1.1911159879 0.8787853268
H -3.5881628783 0.4774141484 2.1323070917
H -4.6382739263 -0.5570560484 1.1593252154
H -2.4711815868 -0.1179340338 -2.0015645019
H -2.8736142114 -2.0064313526 0.4244783297
H 1.2814414881 -2.6117705987 -0.5908994059
H 2.3276953319 -0.5505160656 -0.2291872834
H 3.5257361138 0.6307840532 3.7148672077
H 2.3906452188 -1.3754530213 4.6582544921
H 1.2156500912 -2.9614178456 3.1514026318
H 5.3421416975 1.9571849965 -0.5835655063
H 4.7724602699 3.1878231377 -2.6763639085
H 2.4084715330 3.7570182631 -3.1724892543
H 0.6261846182 3.1154508158 -1.5700604384
H 1.2038090432 1.9020055014 0.5154766405
H -5.0588423016 -1.4478616051 -0.8660642725
H -2.4429565120 2.2866019128 -0.0364382398
H -1.1142127177 1.2484306207 -0.5946148952
H -1.4294847673 1.4367160337 1.1430548370
