29
CONF2
C -0.5935232160 -1.4651799931 -3.1518286944
C -1.0309239519 -0.0418445884 -2.9038730044
O -1.1866050218 0.1863994703 -1.4622969604
P -0.0929291265 0.9628939815 -0.6104977590
S 1.7585845943 0.9375929362 -1.1657380226
O -0.7809195148 2.3910394612 -0.4220191774
C -0.0337912627 3.5581844585 0.0516217249
C 0.2417493290 3.4873632520 1.5364514319
O -0.4036602752 0.3464867582 0.8958653374
C -0.0014161375 -0.8823570380 1.3037029381
N 0.2743330337 -1.8151389051 0.4122237174
C 0.6490326701 -3.0165190804 0.8030216492
C 0.7617280352 -3.3639114418 2.1501721472
C 0.4694377213 -2.3902284754 3.1006962121
C 0.0858747738 -1.1281292672 2.6801317684
Cl -0.2758051608 0.1170507030 3.8358460167
Cl 1.2492432181 -4.9482042138 2.6645825886
Cl 0.9985870949 -4.1770003318 -0.4519888311
H -1.3003207326 -2.1708546771 -2.7070340795
H -0.5509930549 -1.6451203027 -4.2310118333
H 0.3964562231 -1.6438575139 -2.7254328946
H -2.0190205315 0.1654409434 -3.3220420399
H -0.3135344153 0.6784171801 -3.3093509427
H -0.6861288799 4.3976716533 -0.1981563997
H 0.8899696885 3.6334640563 -0.5311367481
H 0.9309289309 2.6727059728 1.7754368984
H 0.7011053302 4.4281938467 1.8563866118
H -0.6845194911 3.3421741438 2.0990955166
H 0.5470604415 -2.6167332956 4.1572753273
