27
CONF8
C -2.5833279619 -1.3114866570 -0.3418258343
C -1.0903489254 -1.6362599291 -0.2158600776
N -0.4945708377 -0.6258010788 -1.0938163320
C -1.3393725431 0.4523769394 -1.1748977303
N -0.8808481367 1.5770112520 -1.6974587625
N -1.7871638812 2.6082015057 -1.8892719936
O -3.0118045506 2.4343406563 -1.7456333249
O -1.2921415114 3.6699554731 -2.2257070648
N -2.5356348573 0.1223679284 -0.6283695149
C 0.9588300075 -0.4833692754 -1.1856913597
C 1.5961458764 -0.1115431307 0.1316016918
C 1.6356738450 1.2164832445 0.5605080490
N 2.1505930186 1.5946407598 1.7363251161
C 2.6415832855 0.6554492545 2.5159579704
C 2.6735427916 -0.7021787270 2.2046696985
C 2.1354635459 -1.0770890505 0.9829798148
Cl 3.3100278131 1.1723214959 4.0601067903
H -3.1372483618 -1.5172675884 0.5771189185
H -3.0420201599 -1.8663018035 -1.1723705018
H -0.7409153854 -1.5100274005 0.8206129727
H -0.8433025123 -2.6460778297 -0.5564738842
H -3.3333185369 0.6838245185 -0.8938692508
H 1.3618755697 -1.4384479569 -1.5415854088
H 1.1620081966 0.2772221546 -1.9428049223
H 1.2363661801 2.0075835354 -0.0713579389
H 3.1052544285 -1.4223095608 2.8886692898
H 2.1446535027 -2.1236184387 0.6878199923
