47
CONF58
C -3.2581366689 0.2004547969 2.5158367314
C -2.3957889332 -0.4791741047 1.4758065062
C -3.0037408939 -1.4799211817 0.5228188629
C -2.6625654259 -0.0733359388 0.0242552719
C -1.5556803544 0.0766940736 -0.9307774651
O -0.6835061892 -0.7294688779 -1.1753806885
O -1.6232161583 1.3063404863 -1.5312428050
C -0.5105704913 1.6147656698 -2.4216166915
C -1.0480314576 2.5465338707 -3.4104243436
N -1.4491561770 3.2850603729 -4.2017814328
C 0.6482500536 2.1981383989 -1.6486078255
C 1.7459887461 1.3848422522 -1.3760089904
C 2.7902864117 1.8698751442 -0.5958231625
C 2.7191870289 3.1799815821 -0.1212086953
C 1.6414690653 4.0016161198 -0.3971333711
C 0.5926379107 3.5046239211 -1.1617136430
F 3.7390049228 3.6478464537 0.6264161800
O 3.9218955476 1.1536046589 -0.3101251702
C 3.8022772218 -0.2196807917 -0.1118249301
C 2.7982247061 -0.7499742914 0.6930034458
C 2.7663895532 -2.1245345475 0.9069861301
C 3.7307521356 -2.9527248749 0.3346873929
C 4.7344620456 -2.3995194799 -0.4571378051
C 4.7741381239 -1.0266968247 -0.6892845501
C -4.4124545574 -1.8748741483 0.5863356327
C -4.8785993604 -3.1018415559 0.3513809323
Cl -3.8791523544 -4.4631842311 -0.0761282557
Cl -6.5780219793 -3.4856073954 0.4511872238
C -0.9798587819 -0.7361913689 1.9372636799
H -3.3725040918 -0.4537079286 3.3871646190
H -4.2513437311 0.4556678197 2.1415186530
H -2.7733900448 1.1246938967 2.8462549563
H -2.3099304183 -2.2393235821 0.1756951819
H -3.4860746579 0.6187344752 -0.1146125644
H -0.1997375645 0.7010626789 -2.9403730933
H 1.7858747238 0.3692984225 -1.7534408383
H 1.6311019970 5.0131567184 -0.0062841393
H -0.2634229095 4.1361548954 -1.3761750741
H 2.0561583455 -0.0986661503 1.1427591427
H 1.9862362906 -2.5464181056 1.5329637608
H 3.7008073521 -4.0232636151 0.5078935474
H 5.4900746305 -3.0372252477 -0.9047764658
H 5.5447464405 -0.5785466805 -1.3074550514
H -5.1506989338 -1.1202474924 0.8398714739
H -0.4841250558 0.2104807334 2.1808520342
H -0.3873553498 -1.2565328281 1.1833819030
H -1.0029004266 -1.3489660869 2.8446338918
