47
CONF43
C -4.3027035776 -1.1878771049 1.1387200777
C -3.2787337719 -0.6198688524 0.1817176790
C -3.4493609357 -0.8164593491 -1.3065647713
C -2.4118192882 -1.6449420584 -0.5503422632
C -0.9865967873 -1.3711954552 -0.8012423268
O -0.5176620155 -0.3817274385 -1.3172911689
O -0.2264704251 -2.4110848448 -0.3390922419
C 1.2125114849 -2.1882627547 -0.4115093976
C 1.8169199237 -3.5107246302 -0.5458736605
N 2.3192324288 -4.5454222725 -0.6459929298
C 1.6920502339 -1.4524167203 0.8194130499
C 1.9565103159 -0.0884534538 0.7265606144
C 2.3365754684 0.6059168569 1.8732005732
C 2.4389256232 -0.0447396902 3.0996402039
C 2.1656833473 -1.4057122824 3.1757591226
C 1.7992075429 -2.1184198240 2.0404906544
O 2.5576458500 1.9636656278 1.8724379290
C 3.0886647929 2.5572689586 0.7373923861
C 2.5086240656 3.7449031865 0.3098456487
C 3.0598219622 4.4150193396 -0.7779913804
C 4.1729512048 3.8980728652 -1.4339987733
C 4.7431028935 2.7068517411 -0.9910952813
C 4.2087980983 2.0306673753 0.0999089593
C -4.6130372206 -1.4939592548 -1.8837596850
C -5.2502974312 -1.1230235757 -2.9956793227
Cl -6.6294898992 -1.9937640093 -3.6040622239
Cl -4.7992102376 0.2500523763 -3.9604320396
C -2.6707014666 0.6822876995 0.6496092894
H -4.6738155462 -2.1678054670 0.8316570666
H -5.1590369355 -0.5093538001 1.2187154045
H -3.8609271303 -1.2945816055 2.1346953274
H -3.0067599234 -0.0301294476 -1.9102880820
H -2.6480688587 -2.6836448551 -0.3453251043
H 1.4327195172 -1.6026893302 -1.3113593307
H 1.8483685777 0.4310332222 -0.2188435596
H 2.7341539729 0.5245135310 3.9740650759
H 2.2540010530 -1.9159440239 4.1291317068
H 1.6028387436 -3.1841374630 2.0973074931
H 1.6397697464 4.1280035024 0.8334566146
H 2.6105307406 5.3431206753 -1.1161305814
H 4.5964974246 4.4213470081 -2.2843132230
H 5.6174270120 2.3032824242 -1.4915468387
H 4.6523603119 1.1077088344 0.4581197345
H -5.0035392866 -2.3728355171 -1.3811176051
H -1.9638598648 1.0916849070 -0.0731459071
H -2.1462609386 0.5378068223 1.6010820062
H -3.4675392984 1.4159688416 0.8111177864
