40
CONF48
C 2.3129889265 1.8618661035 2.8931289846
O 3.4658910823 1.9572881833 2.0295155754
C 4.2530808491 0.8574573267 2.0106076709
O 4.0781053946 -0.1146818330 2.7056050535
C 5.3316294707 1.0084364270 0.9680962637
S 4.8115322144 0.1338122462 -0.5793224092
C 3.2245315276 0.9033168724 -0.8437261031
C 2.0770144951 0.1790748343 -0.5207505319
C 0.7903314161 0.7005344445 -0.6898922167
C 0.7052775348 2.0139195236 -1.1703122724
C 1.8172565840 2.7676985153 -1.4961089103
C 3.0780345874 2.2051723802 -1.3413807961
Cl 4.4668374572 3.1782918908 -1.7524617058
F -0.5107114227 2.5833816737 -1.2974337809
N -0.3222637374 -0.0295421806 -0.2837748771
C -1.2609499945 -0.3087484725 -1.1040429738
N -2.4306879519 -0.9192939006 -0.6903950044
N -3.1430468392 -1.5126703398 -1.7568000039
C -2.8005509110 -1.0674188302 -3.0093680845
O -3.4067272997 -1.2778806101 -4.0318352135
S -1.2754416192 -0.0856224337 -2.8779564197
C -4.5405884099 -1.8341971450 -1.4472889328
C -4.5845662541 -2.7447322363 -0.2263967560
C -3.8284887434 -2.0986405306 0.9341991900
C -2.4021232631 -1.7556524196 0.5221600293
H 1.7919001954 2.8130321602 2.7871983863
H 2.6239478963 1.6999590154 3.9282920213
H 1.6736180837 1.0343423631 2.5727565347
H 6.2319822800 0.4866589170 1.2996853632
H 5.5464564007 2.0566255767 0.7507106439
H 2.1792251286 -0.8195784885 -0.1105871944
H 1.6917160440 3.7795633847 -1.8617000081
H -5.0950772958 -0.9025083762 -1.2576162012
H -4.9516147370 -2.3115974208 -2.3386662610
H -5.6290894343 -2.9284057383 0.0443611831
H -4.1314857741 -3.7111446237 -0.4787553481
H -4.3430781821 -1.1829359485 1.2501846993
H -3.7922377134 -2.7715580178 1.7966869447
H -1.8178908513 -2.6674540360 0.3226600015
H -1.8847383357 -1.1761683574 1.2874284581
