47
CONF13
C -0.3260917450 0.2936713306 2.9817307747
C -0.4511537266 1.3291090129 1.8878144492
C 0.0451168406 2.7416101667 2.1081169986
C 0.8666039827 1.7839581819 1.2514314549
C 0.9340465527 2.0051913938 -0.1986476148
O 0.2641010188 2.7630962892 -0.8651367459
O 1.8735167735 1.1699525971 -0.7487912700
C 1.8805819776 1.1503546251 -2.1919541604
C 3.1300199187 0.4852151280 -2.5659108054
N 4.0975499603 -0.0447773110 -2.9068909126
C 0.6852787561 0.4045040711 -2.7569584196
C 0.1567961621 -0.6730433210 -2.0472834584
C -0.9388453906 -1.3613241252 -2.5562307592
C -1.4713781515 -0.9543627603 -3.7836446301
C -0.9517200835 0.1093450690 -4.4923559005
C 0.1404941594 0.8011170251 -3.9731016478
F -2.5375223518 -1.6260877000 -4.2704256578
O -1.5706413631 -2.3974119954 -1.9276203945
C -0.9298487309 -2.9980608440 -0.8411945845
C 0.2416915939 -3.7213930528 -1.0343905782
C 0.8212148716 -4.3589509639 0.0586624714
C 0.2288302940 -4.2765953303 1.3185939258
C -0.9503456673 -3.5550393891 1.4867232530
C -1.5381473720 -2.9055536442 0.4024712827
C 0.6013767892 3.1868640689 3.3879748329
C 0.3983216386 4.3830516826 3.9405087110
Cl -0.5765591569 5.6387515659 3.2261274694
Cl 1.1008308325 4.8313321127 5.4744216898
C -1.6802444787 1.1555098123 1.0259600297
H 0.6052238624 0.3840656788 3.5439858122
H -0.3600013189 -0.7080547744 2.5397801805
H -1.1659038666 0.3847122424 3.6795644354
H -0.4883493572 3.4919516000 1.5327031888
H 1.7580078792 1.3510966006 1.6929631054
H 1.9029403946 2.1735054602 -2.5861783276
H 0.5826510472 -0.9668240267 -1.0944973013
H -1.4069387215 0.3923500214 -5.4352877980
H 0.5542890540 1.6465940432 -4.5127926087
H 0.6873604911 -3.7792923077 -2.0224160192
H 1.7356714281 -4.9273134827 -0.0779728562
H 0.6845777960 -4.7779259051 2.1660956083
H -1.4169509325 -3.4908660366 2.4645677531
H -2.4549206147 -2.3359941753 0.5120306925
H 1.2344872248 2.5009539797 3.9427396086
H -1.6499188761 0.1844308914 0.5184279594
H -1.7751528673 1.9398156501 0.2732647484
H -2.5709462518 1.1767609610 1.6626521118
