43
CONF33
C -1.6108516438 1.8571655043 0.9687147072
N -2.6152549709 0.9132552683 0.4823569474
C -2.6273305700 0.1988329055 -0.6721181895
C -3.7426873171 -0.6320815658 -0.6510012594
C -4.3291031601 -0.3296531772 0.5893989511
N -3.6585493229 0.6010754697 1.2636846809
Cl -5.7915897969 -0.9764905394 1.2293553064
C -4.2713783204 -1.5279570696 -1.7060627720
O -4.5655118153 -1.1644507509 -2.8242289844
O -4.4197893751 -2.7707643844 -1.2362287128
C -5.0133142166 -3.7223452011 -2.1630171887
S -1.3358594683 0.2811663795 -1.8951979129
O -1.5694998113 -0.8144751666 -2.8303990946
O -1.1962549260 1.6599561054 -2.3712914954
N 0.0682255148 0.0088517458 -1.0110403477
C 0.2568926451 -1.1314082556 -0.2468898003
O -0.5280337731 -2.0677029068 -0.2206939063
N 1.4199612212 -1.1442163183 0.5050103371
C 2.4055136756 -0.1764463916 0.6862822232
N 3.3972170851 -0.5494795857 1.4950032451
C 4.3532798683 0.3656840031 1.6881736207
C 4.3351230586 1.6285669772 1.0992159411
C 3.2460139624 1.8919882869 0.2794949807
N 2.2724111601 0.9955882652 0.0621241364
O 3.1800110227 3.0899371330 -0.3081795143
C 2.0382711738 3.3694192957 -1.1533121530
O 5.3892439434 0.0772799915 2.4828787531
C 5.4222424762 -1.2318373050 3.1013495456
H -0.7989054622 1.3206616738 1.4690423164
H -1.2196759137 2.4342674571 0.1299970133
H -2.1038600003 2.5236494148 1.6758855416
H -4.3768139729 -3.8261691308 -3.0442095546
H -5.0687308583 -4.6592343770 -1.6116451539
H -6.0090597940 -3.3822884647 -2.4554349042
H 0.7415029334 0.7865911458 -0.8784238371
H 1.5555220860 -1.9982670226 1.0307093726
H 5.1173146488 2.3560743400 1.2687142787
H 2.1957899899 4.3865562417 -1.5095431965
H 2.0047805758 2.6732725591 -1.9959048414
H 1.1113561451 3.3090555297 -0.5761099075
H 6.3403615619 -1.2393982796 3.6876175961
H 4.5531229698 -1.3702844232 3.7487183713
H 5.4478976707 -2.0139449907 2.3390094822
