45
CONF6
C 4.4949511231 0.5892439823 0.4938102239
C 3.4906852850 -0.2155128028 -0.3159359799
C 2.1173653335 -0.1458343836 0.3589370383
O 1.8305358550 -0.8851343662 1.2881726090
N 1.2864367880 0.8257230692 -0.1084181441
C -0.0058556248 1.0417949433 0.4627652118
C -1.0825640872 -0.0980434473 0.4945082369
N -1.1290485735 0.0397421509 1.9507219890
C -0.1767986299 1.0593567097 2.0093238881
O 0.2400077137 1.7238560988 2.9184385279
C -2.4155335412 -0.0101051790 2.5961195065
C -3.4319353324 0.6772755020 1.6087680544
S -2.7955097209 0.2417068988 -0.1007273476
C -4.8631204655 0.1674826302 1.7473718941
C -3.3787655472 2.1909503335 1.8268027655
C -2.8409521012 -1.4164262257 2.9880771181
O -3.5520361867 -1.6590017939 3.9327059239
O -2.3643690303 -2.3569340611 2.1438780780
O 3.4850247040 0.3313756560 -1.6414667209
C 2.8531376663 -0.3853295666 -2.6313144746
C 2.1439464881 -1.5688397048 -2.4208053066
C 1.5371150511 -2.1973626983 -3.5077372582
C 1.6260920538 -1.6620510227 -4.7861920063
C 2.3353770921 -0.4776752328 -4.9812993634
C 2.9468718032 0.1614837567 -3.9130980221
H 4.5106494606 0.2192564229 1.5214393813
H 5.4914905168 0.4881184465 0.0575221455
H 4.2161961884 1.6465611700 0.5038971923
H 3.7852396704 -1.2720355829 -0.3413541270
H 1.5792471499 1.3577256089 -0.9136834080
H -0.4369441374 1.9569595679 0.0472575202
H -0.7448671517 -1.0730469559 0.1353042716
H -2.3743686408 0.5680940760 3.5250363785
H -4.9378946315 -0.9022487208 1.5382059602
H -5.5188179290 0.6989007712 1.0518176763
H -5.2237081494 0.3489969333 2.7650424279
H -2.3536169580 2.5698635248 1.7972321031
H -3.9539575658 2.7043393465 1.0522837973
H -3.8077177783 2.4420211288 2.8043439328
H -2.6909721433 -3.2133010520 2.4638148858
H 2.0494905299 -2.0060149531 -1.4337580265
H 0.9863727919 -3.1175648470 -3.3407686997
H 1.1491880833 -2.1598342135 -5.6231502555
H 2.4156202330 -0.0483031018 -5.9748587340
H 3.5083125724 1.0796454106 -4.0490316575
