43
CONF17
C 0.7235369704 4.5761100629 1.9435684037
C 0.0367655311 3.7925526908 0.8824722125
N -0.7722148044 4.3969300822 0.0196583756
N -1.2206699438 3.4203923074 -0.8225016988
C -0.7110937753 2.2157431233 -0.5052839001
C 0.1340604036 2.3967967946 0.6005102618
C 0.9110382017 1.4249633591 1.3322502435
O 1.3705892646 1.6700502065 2.4513518688
C 1.1634662010 0.0572868942 0.7611471257
C 1.7703633105 -0.1978791010 -0.4704232204
C 2.0632649675 -1.4896642804 -0.8929070549
C 1.7352746857 -2.5447084822 -0.0512378766
C 1.1431181236 -2.3406188033 1.1884380181
C 0.8734017781 -1.0387651289 1.5810090669
Cl 2.1048152650 -4.1777328635 -0.5697907996
Cl 2.2889020496 1.1178817841 -1.5130875279
O -0.9832244563 1.1106810633 -1.2201708983
C -2.3331046867 0.5619159932 -1.0737405903
C -2.3672798463 -0.2301700173 0.2308926758
O -2.5107882543 0.3968097920 1.2749289431
C -2.1864815944 -1.6957569706 0.2114829306
C -2.4429929784 -2.4148243858 1.3893571646
C -2.2628095587 -3.7881390098 1.4238582720
C -1.8098661370 -4.4604885982 0.2868235477
C -1.5456781907 -3.7551295318 -0.8840029933
C -1.7394601216 -2.3792937130 -0.9279536535
C -2.1232979036 3.7524465921 -1.9120974504
H 0.3676752590 4.2840662676 2.9360980714
H 1.8017987483 4.3924739850 1.9253641369
H 0.5350432586 5.6417928256 1.7950016041
H 2.5510459285 -1.6637753094 -1.8441417892
H 0.8923546558 -3.1774272452 1.8289414465
H 0.4140043969 -0.8542806986 2.5466993684
H -2.5047973843 -0.0285694674 -1.9712334552
H -2.7873307384 -1.8790853329 2.2674036139
H -2.4709582881 -4.3403368711 2.3346276049
H -1.6629540100 -5.5356754258 0.3157811827
H -1.1850276630 -4.2767378146 -1.7642436452
H -1.5130581641 -1.8467459157 -1.8447389193
H -3.1511862718 3.8490847287 -1.5481967873
H -1.8018430159 4.6983416851 -2.3517670765
H -2.0705125271 2.9656756267 -2.6666836806
H -3.0723089834 1.3643713635 -1.0090304306
