38
CONF815
F -0.7972724689 1.5626697515 0.5934705375
C -1.3579235781 0.4288250367 0.1204450247
F -2.0624315318 -0.1576850963 1.1090902249
C -0.2389724551 -0.5380492080 -0.3736078002
F -0.7603026608 -1.7791690333 -0.4946472855
F 0.1898849208 -0.1124634263 -1.5849695114
C 0.9971290085 -0.6032457938 0.5929146662
F 1.7475196360 0.5063766853 0.4076168225
F 0.5482801152 -0.6255362590 1.8688378300
C 1.8998290492 -1.8664450825 0.3632430465
F 1.2946964070 -2.9374148236 0.9246592574
F 2.0283915852 -2.0800354335 -0.9659921630
C 3.3330614904 -1.7181110186 0.9789636075
F 4.0750806977 -0.9275968724 0.1749961318
F 3.2387959415 -1.1455974964 2.2015403795
C 4.0971650341 -3.0731528023 1.1487604156
F 3.5662741434 -3.8022603106 2.1356224602
F 4.0567130306 -3.7779965066 0.0094803811
F 5.3754966179 -2.8105225985 1.4511027786
S -2.5949221250 0.9161109213 -1.2782452609
O -2.8512937613 -0.3436715502 -1.9859536103
O -1.9701027490 2.0682749116 -1.9340128676
N -3.9589518094 1.3809602549 -0.5095816559
C -4.9820960029 0.3748988320 -0.1643824908
C -6.0851653071 0.3371556461 -1.2240771107
O -7.1326228210 -0.5483078740 -0.8275486902
C -4.1497242853 2.7746333619 -0.0421717963
C -3.8555238646 2.9658917262 1.4392878776
H -4.5249999752 -0.6139444895 -0.0674747898
H -5.4021948583 0.6434791686 0.8102248038
H -6.5389174632 1.3273048980 -1.3299993168
H -5.6560884483 0.0473705903 -2.1926818610
H -6.7887794232 -1.4500733798 -0.8641532967
H -3.5226803038 3.4265621828 -0.6538209691
H -5.1921306036 3.0269716352 -0.2648630330
H -2.7991052234 2.7956051927 1.6611603862
H -4.1009210515 3.9948298407 1.7188262866
H -4.4567448137 2.2961587700 2.0604153567
