38
CONF8
C 3.6604399160 -0.7693702147 0.4113424577
C 2.6595278950 -1.1720529322 -0.6545168010
C 2.9691394005 -0.6048380448 -2.0237107260
O 1.3403080707 -0.6215749342 -0.2951816006
C 0.6197179677 -1.2972105491 0.5944715928
O 0.9421732539 -2.3420669983 1.1205947471
C -0.7369067217 -0.6170568541 0.8936279815
C -1.6758065917 -0.7542250317 -0.3073818969
C -2.8924272442 -0.0690936814 -0.2700015906
C -3.8265873708 -0.2137133851 -1.2862258015
C -3.5344839946 -1.0592455851 -2.3509820482
C -2.3401926691 -1.7615466105 -2.4094134711
C -1.4156066742 -1.6039806514 -1.3794237035
Br -4.8072686702 -1.2581806420 -3.7638387175
C -0.4875300867 0.8392195727 1.2752061553
C -0.3582122970 1.1939960617 2.6163010018
C -0.0895942487 2.5106050377 2.9804347947
C 0.0529894956 3.4676372455 1.9862117863
C -0.0683415659 3.1386291550 0.6410832889
C -0.3381845190 1.8211091342 0.2942572997
Br 0.4153367477 5.2813910734 2.4749059228
O -1.3157550196 -1.2928178210 1.9999780488
H 3.3862097546 -1.1861199828 1.3830779972
H 4.6523916560 -1.1457170007 0.1438595609
H 3.7115809400 0.3209297715 0.4890404334
H 2.5561245587 -2.2617224405 -0.6910173657
H 2.2016075250 -0.8887378794 -2.7484544091
H 3.9329288096 -0.9880387677 -2.3704666372
H 3.0250562716 0.4869595896 -1.9818842287
H -3.1114978302 0.5848940201 0.5681061360
H -4.7680442660 0.3215925052 -1.2521476366
H -2.1308132176 -2.4221201761 -3.2422294369
H -0.4865720930 -2.1633613696 -1.4300538571
H -0.4825001794 0.4359828222 3.3802348701
H 0.0032111436 2.7849501160 4.0245865515
H 0.0408617339 3.8994272026 -0.1226167336
H -0.4378391785 1.5570960386 -0.7531472118
H -0.8654411833 -2.1516278839 2.0553733635
