50
CONF46
C 3.3253664331 -3.0199629846 1.3056865433
C 3.6584672190 -1.5157013253 1.2934595392
C 4.7415154907 -1.2719272504 0.2364015407
C 4.2226769780 -1.1020481178 2.6656212907
C 2.3789780729 -0.7268222753 1.0074606723
C 1.2894401771 -0.8369830636 1.8818647117
C 0.0945279219 -0.1763059626 1.6441756260
C -0.0251767581 0.6106562114 0.5078688471
C 1.0364095737 0.7762434435 -0.3646698469
C 2.2285252007 0.1009440357 -0.1064720055
O -1.2595885900 1.2497249814 0.2935473134
P -2.1306133296 0.9379313477 -1.0359543815
O -1.3924832744 0.9998668560 -2.3099899645
O -3.3686250113 1.9314128166 -0.8350986888
C -3.3897871496 3.2149553500 -1.3904581255
C -4.5714536332 3.6047623693 -2.0038837418
C -4.6651740342 4.8901932476 -2.5257809554
C -3.5865764735 5.7659095367 -2.4377113022
C -2.4108478431 5.3533620237 -1.8183656020
C -2.3038887452 4.0733986866 -1.2829815248
O -2.9211996791 -0.4298152056 -0.7097201678
C -2.2118076796 -1.5925070873 -0.3830190935
C -1.1475246802 -2.0378205668 -1.1580442762
C -0.4693299402 -3.1847889612 -0.7578505513
C -0.8650994062 -3.8844206957 0.3782232624
C -1.9561097154 -3.4381479878 1.1189689463
C -2.6357465272 -2.2843865673 0.7431724286
H 2.9149997618 -3.3292253656 0.3389449733
H 2.5872203678 -3.2634870444 2.0752376864
H 4.2286052108 -3.6076054607 1.5036454832
H 4.4099079333 -1.5773720060 -0.7612960693
H 5.0390922190 -0.2189839951 0.1976201886
H 5.6310942850 -1.8592051604 0.4844123125
H 4.4571108593 -0.0329194984 2.6790422467
H 5.1409754175 -1.6592883277 2.8813085909
H 3.5125432288 -1.3009892092 3.4732169654
H 1.3628114502 -1.4656713878 2.7630451294
H -0.7541607454 -0.2864403078 2.3097037454
H 0.9213860655 1.3928215521 -1.2480663040
H 3.0448731580 0.2294205832 -0.8068170497
H -5.3946672091 2.9022269301 -2.0660033971
H -5.5851853779 5.2041800785 -3.0077451787
H -3.6621900045 6.7662815547 -2.8498791920
H -1.5669548411 6.0312644561 -1.7440608182
H -1.3948078180 3.7492249662 -0.7886149283
H -0.8466282207 -1.4820781140 -2.0390447774
H 0.3740256514 -3.5322382124 -1.3455550742
H -0.3297861179 -4.7779034700 0.6814401275
H -2.2780469371 -3.9839280793 2.0000272289
H -3.4770945320 -1.9058076438 1.3129863042
