44
CONF12
C -1.2932600784 0.9392756518 2.2361288968
C -1.0941466775 0.8699013829 0.7226995940
C -2.0420810444 -0.1598959950 0.1053033524
O -1.7256808132 -1.2803559177 -0.2261443594
O -3.2795551420 0.3512814037 0.0259315129
C -4.3166880969 -0.5092385561 -0.5589845888
C -5.6315967042 0.0062174375 -0.0115634765
C -4.2175393521 -0.4307973157 -2.0712046989
N 0.2889089210 0.5834199402 0.3221523762
C 1.1995700348 -0.0331417786 1.2247510368
C 0.9614819914 -1.3219075051 1.7045034492
C 1.8611067866 -1.9089127788 2.5847001567
C 2.9976966776 -1.2154688910 2.9672263294
C 3.2449352082 0.0699956489 2.4929564095
C 2.3344918558 0.6673246153 1.6315531970
Cl 4.6778964608 0.9197597569 2.9934375349
F 3.8685976877 -1.7945897156 3.8077815669
C 0.6164064092 0.9380118235 -0.9753339794
O -0.1834368191 1.5366829909 -1.6850768519
C 1.9726961567 0.5768730566 -1.4919152722
C 2.6924657723 1.5665081921 -2.1643694085
C 3.9343954880 1.2740597232 -2.7139303895
C 4.4488965806 -0.0170286103 -2.6269566337
C 3.7158614822 -1.0149307628 -1.9908316699
C 2.4852726236 -0.7198145556 -1.4154735443
H -2.3064368359 1.2948416913 2.4358619870
H -1.1642669271 -0.0324832929 2.7185326680
H -0.5822389853 1.6417503857 2.6793780437
H -1.3534458223 1.8387960537 0.2846517072
H -4.1227280560 -1.5315445944 -0.2177854914
H -6.4542259545 -0.6025934766 -0.3975799327
H -5.7952328396 1.0433622644 -0.3190528916
H -5.6476098784 -0.0424352714 1.0804375516
H -4.9905407136 -1.0587862261 -2.5247941066
H -3.2415553347 -0.7799581729 -2.4150000233
H -4.3644253705 0.6000831580 -2.4072696240
H 0.0860833399 -1.8609039994 1.3587836762
H 1.7053427530 -2.9104370386 2.9700238495
H 2.5171915179 1.6701991875 1.2636114610
H 2.2643279689 2.5595167835 -2.2528099466
H 4.4979593020 2.0516047139 -3.2193576686
H 5.4156331805 -0.2475582884 -3.0628134775
H 4.1035028228 -2.0272463049 -1.9408158967
H 1.9159715564 -1.4994361043 -0.9213424353
