41
CONF266
C -1.8423371924 2.5019390452 -1.9366087475
C -1.8832056893 2.6786165034 -0.4230517189
C -1.5580948831 4.1221143842 -0.0415419702
N -0.9069246009 1.7594078898 0.1955412748
C -1.1679285306 1.4695912128 1.6098411737
C 0.1489562683 1.2059920587 2.3673647222
O 1.1379387086 2.1329752351 1.9386746284
C 0.6423585134 -0.2288151470 2.2640568098
O 0.8039246189 -0.5647437693 0.8812469529
C 1.3137265547 -1.7927683464 0.5739180548
C 1.5755779678 -2.7853779595 1.5210249531
C 2.0824073952 -4.0168019775 1.1082105627
C 2.3292581698 -4.2637023624 -0.2361171037
C 2.0688655403 -3.2622464053 -1.1702050158
C 1.5652210639 -2.0215019060 -0.7913070152
C 1.2760359745 -0.9566328823 -1.8115565925
C -0.1652030552 -0.8550612365 -2.2365547312
C -1.1794512567 -1.5728629192 -1.7599432384
H -2.5141090587 3.2155691485 -2.4222182498
H -0.8262126004 2.6770014646 -2.3090205573
H -2.1486733644 1.4917710319 -2.2263784880
H -2.9071082841 2.4456952865 -0.0757744263
H -1.5272425192 4.2622020293 1.0429778086
H -2.3135444306 4.8035129172 -0.4459523376
H -0.5799982407 4.4024977664 -0.4475692259
H -0.8731099160 0.8876173528 -0.3248055992
H -1.6325711631 2.3535560598 2.0582391538
H -1.8616240810 0.6262814789 1.7583254578
H -0.0291540094 1.3789791587 3.4382869051
H 0.9017111309 2.3008458586 1.0048548258
H -0.0902137621 -0.9025627804 2.7337028293
H 1.6042824599 -0.3243633048 2.7857387354
H 1.3896946584 -2.6130414173 2.5737400194
H 2.2824904135 -4.7821288083 1.8517376158
H 2.7250977245 -5.2212077122 -0.5574309678
H 2.2624975999 -3.4425260634 -2.2245371037
H 1.5877931414 0.0259306373 -1.4315376986
H 1.8850673055 -1.1401496970 -2.7061084271
H -0.3568096597 -0.1104936608 -3.0091480626
H -1.0296177667 -2.3253739834 -0.9898597071
H -2.1897706687 -1.4290938049 -2.1302554991
