44
CONF17
C -5.5111586673 -0.0210403951 1.1285423212
N -4.0572909341 -0.1477071089 0.9681277077
C -3.4310597202 1.1405400535 0.5910062085
C -3.7864255736 1.3417959497 -0.9091749693
C -3.9707077080 -0.1032697232 -1.4415693826
C -3.7021621581 -0.9926292658 -0.1949955008
C -2.2162517942 -1.3555553182 -0.0679521147
C -1.3712068062 -0.0872508303 -0.1104690510
C -1.9177414940 0.9983651918 0.8046648069
O -0.0055500277 -0.3750343057 0.3435859827
C 0.8618809989 -0.8522976802 -0.5559807680
O 0.5855210860 -1.0893065085 -1.7197805322
C 2.2376495264 -1.0436726584 0.0567805547
C 3.1415922516 -1.8607060395 -0.8835003712
O 3.4353608892 -1.1962947077 -2.1094663565
C 2.8548601472 0.2835044351 0.4480373416
C 3.6095094228 0.3779640030 1.6197624483
C 4.2292038846 1.5751675275 1.9693998126
C 4.0988358042 2.6950544380 1.1509448735
C 3.3453193694 2.6097056763 -0.0180288905
C 2.7281864426 1.4114055060 -0.3676695752
H -6.0327382087 0.3714294896 0.2394431798
H -5.9339032429 -1.0037142700 1.3622616354
H -5.7220407130 0.6496883593 1.9679723272
H -3.8166197142 1.9447967277 1.2254586309
H -4.7093653891 1.9188701255 -1.0101588858
H -3.0011202322 1.8903747960 -1.4379106981
H -3.2861909742 -0.3426542542 -2.2609148599
H -4.9877625526 -0.2593470609 -1.8106666588
H -4.3042638825 -1.9068209556 -0.1924917242
H -1.9182042682 -2.0306963990 -0.8768304208
H -2.0541020132 -1.8664292242 0.8880503478
H -1.2971827867 0.2817276301 -1.1375030289
H -1.7307705065 0.7261818342 1.8493758415
H -1.4107145162 1.9478121043 0.5994896308
H 4.0978964949 -2.0324495560 -0.3806818655
H 2.6681059201 -2.8354134847 -1.0690152803
H 3.7107984441 -0.4928476044 2.2621066719
H 4.8101035442 1.6336964007 2.8848605024
H 4.5784268563 3.6298534226 1.4240072665
H 3.2362240486 3.4782431613 -0.6603828673
H 2.1427010232 1.3568640799 -1.2814216809
H 2.0992716990 -1.6389061465 0.9683654236
H 2.5853863853 -1.0786556911 -2.5583753378
