39
CONF81
C -2.9373233511 -2.9623968482 0.5877944901
C -2.7440959803 -1.4963967327 0.9685941220
C -1.5320010748 -0.9085585029 0.2465041397
N -1.3122194786 0.5174535146 0.5426486543
C -0.6971823883 0.8355138628 1.8391217018
C 0.8020795509 1.0337667675 1.7533340667
O 1.4029905087 -0.2407079721 1.3809196775
C 2.6784236414 -0.1421471249 0.9260534965
C 2.9527427046 0.0528407915 -0.4341023370
Cl 1.6154115326 0.2165992037 -1.5450917926
C 4.2493275349 0.1077728111 -0.9288713410
C 5.2970193485 -0.0374654788 -0.0291366805
Cl 6.9416489546 0.0276452777 -0.6288084920
C 5.0858753478 -0.2381733582 1.3285315009
C 3.7748512458 -0.2846765623 1.7853451366
Cl 3.4777944441 -0.5432453445 3.4857463110
C -1.4186853873 1.5428379862 -0.3279770089
O -1.0249178959 2.6835090490 -0.1103477254
N -2.0303982046 1.2566586484 -1.6015576423
C -1.5703803982 1.7968479544 -2.7920803357
C -2.4717618133 1.4109311866 -3.7427200053
N -3.4939779873 0.6732402755 -3.1719806328
C -3.2023418906 0.5974271586 -1.8934071494
H -2.0491614934 -3.5523098192 0.8385327872
H -3.7901044885 -3.3947146540 1.1180672656
H -3.1184524216 -3.0661287029 -0.4875881869
H -3.6427843852 -0.9191478476 0.7234115526
H -2.6049872360 -1.4087096892 2.0523751085
H -0.6267443102 -1.4456745994 0.5496905101
H -1.6291969410 -1.0373287061 -0.8338217882
H -0.9244183136 0.0180783170 2.5284381517
H -1.1395720721 1.7527022837 2.2394009146
H 1.0578402661 1.7878392253 1.0031622893
H 1.1909795981 1.3427800628 2.7314122676
H 4.4319137386 0.2568420010 -1.9856838592
H 5.9147787513 -0.3546264019 2.0154148510
H -0.6633532826 2.3792006408 -2.8324773850
H -2.4457104007 1.6197091408 -4.8030160606
H -3.8039060944 0.1222126039 -1.1315705701
