47
CONF12
C -1.8729657908 2.5920081873 1.6034159293
C -2.5792659001 1.7645595288 0.5326701991
C -4.0980083647 1.7673225559 0.7128198601
C -4.8349211240 1.0129218795 -0.3699773950
O -4.4537560588 -0.3957348671 -0.2569644341
C -4.7661393635 -1.1819773770 -1.2849388205
O -5.3843473380 -0.8350753990 -2.2716541351
C -4.3029969674 -2.6248013082 -1.0866407154
C -5.4766726228 -3.4710096576 -0.6134878675
O -3.2738228051 -2.7597225071 -0.1057175771
C -2.0478968144 -2.2084479797 -0.3667177392
C -1.1026290192 -2.3502583632 0.6554592580
C 0.1751893649 -1.8376230934 0.5018451969
C 0.5007846251 -1.1683333225 -0.6734675980
C -0.4229332446 -1.0208812557 -1.6922549120
C -1.7072189801 -1.5465398475 -1.5467238929
O 1.8091008407 -0.7270001818 -0.9069692469
C 2.3416713154 0.2457815809 -0.1219063715
N 1.5725215346 0.9014393572 0.7338044389
C 2.1472584609 1.8572164058 1.4766543542
C 3.4912080674 2.1827960236 1.3760351615
C 4.2871151049 1.4834465312 0.4589173987
C 3.7095692485 0.4961132540 -0.3070587938
C 4.1069248577 3.2400965721 2.2300552709
F 5.0088097542 2.7223534677 3.1098969681
F 3.1940494482 3.9194466768 2.9589194027
F 4.7889015540 4.1553481296 1.4906191744
H -0.7915232884 2.6025224962 1.4417044012
H -2.0609299634 2.1823934713 2.6020762862
H -2.2262680649 3.6291366193 1.5944177845
H -2.2079705397 0.7328143447 0.5572150347
H -2.3373751478 2.1591200382 -0.4632493258
H -4.4687039910 2.8004516107 0.6936395450
H -4.3649437650 1.3542518238 1.6939384577
H -5.9218003286 1.0774695701 -0.2576435929
H -4.5587324348 1.3639427332 -1.3694634514
H -3.9512474649 -2.9850324937 -2.0623510557
H -6.2906685155 -3.4087152567 -1.3390369757
H -5.1608921283 -4.5128619837 -0.5224986218
H -5.8332955446 -3.1167562372 0.3577631774
H -1.3839940018 -2.8725264805 1.5638108570
H 0.9141439362 -1.9543081067 1.2872316187
H -2.4135869039 -1.4220528489 -2.3589316447
H 1.4999885653 2.3792533464 2.1761116945
H 5.3427875904 1.7129395265 0.3540705420
H 4.2766846602 -0.0777743268 -1.0301387938
H -0.1438909978 -0.5007168357 -2.6024074282
