44
CONF122
C -3.2778619885 0.2850460490 2.7655107807
N -3.8654119035 0.6618275691 1.4866477938
C -3.1284375008 1.6560960449 0.6878902280
C -4.0399310560 1.7711113454 -0.5508553278
C -4.6897974356 0.3617589655 -0.6692276282
C -4.0916974331 -0.4231152114 0.5158804262
C -2.7761477550 -1.1296785206 0.1233585994
C -1.8158927322 -0.1272084502 -0.4980876501
C -1.7151962914 1.1621325050 0.3079038061
O -0.4975478323 -0.7806245789 -0.5488398085
C 0.3608365949 -0.3902014718 -1.5054721209
O 0.1119579090 0.4405864951 -2.3558818604
C 1.7050830707 -1.0937991563 -1.3888983335
C 1.6624199421 -2.4018199791 -0.5844795831
O 0.7572716844 -3.3590081267 -1.1357237425
C 2.7144807505 -0.1342155611 -0.7877095127
C 2.4655262936 0.4802879102 0.4441832043
C 3.4065213738 1.3378509215 1.0070034046
C 4.6083593297 1.5895226194 0.3477119146
C 4.8630804549 0.9793660417 -0.8782013134
C 3.9201791368 0.1235990084 -1.4431233359
H -3.9407616458 -0.4291327513 3.2668241065
H -2.2763063783 -0.1721353097 2.7079145438
H -3.1995449963 1.1761334377 3.3984779775
H -3.0461899615 2.5986897002 1.2408041226
H -4.8038071784 2.5341177594 -0.3816976480
H -3.4766027706 2.0544676673 -1.4447881394
H -4.4758084601 -0.1233118190 -1.6259847174
H -5.7754911055 0.4277027995 -0.5635215403
H -4.7889978057 -1.1603493081 0.9295511087
H -2.9804297231 -1.9398920681 -0.5856905262
H -2.3174328428 -1.5779207570 1.0122515556
H -2.1038102930 0.0913939195 -1.5299180365
H -1.1272585348 0.9773956497 1.2145249089
H -1.1931159324 1.9299806016 -0.2731784659
H 2.6576525322 -2.8554818865 -0.6248452556
H 1.4262954935 -2.1903000735 0.4663855369
H 3.1995113888 1.8116580012 1.9616690311
H 5.3413931058 2.2590215856 0.7867347784
H 5.7961603881 1.1713546091 -1.3990293386
H 4.1201703153 -0.3486996473 -2.4008568726
H 1.5297864640 0.2936308200 0.9644243998
H 2.0098735616 -1.3222723689 -2.4156348783
H -0.1380488977 -3.0533930695 -0.9381860340
