22
CONF3
C -2.8410073935 -0.3027309345 -0.3800298707
C -2.7154878121 -1.1597066179 -1.4702897082
N -1.5461176417 -1.6291952066 -1.9061664803
C -0.4508006886 -1.2491531740 -1.2470528404
C -0.4587587247 -0.3992997507 -0.1374120661
C -1.6954035622 0.0848167172 0.3008332527
C -1.8074277826 1.0301568861 1.4765949943
F -0.7957619789 1.9281259904 1.4859073262
F -1.7960323904 0.3752052339 2.6502481442
F -2.9610618802 1.7362419015 1.4227537617
C 0.8287881863 -0.1354137449 0.5883716280
O 0.9888524309 -0.4322222690 1.7591973930
N 1.8062621469 0.4150605940 -0.1960456285
C 3.1357660614 0.6632060044 0.3316404045
C 4.1618252305 -0.0188201040 -0.4541154026
N 4.9589387860 -0.5472924433 -1.1010984280
H -3.8148062050 0.0645605425 -0.0794056916
H -3.5998774967 -1.4745061921 -2.0203529695
H 0.4947637298 -1.6577582713 -1.6021674876
H 1.5941554120 0.6844001833 -1.1436502309
H 3.1470985903 0.2883337977 1.3619054819
H 3.3660926807 1.7359909579 0.3603346136
