38
CONF2
C -4.8254570957 0.2221587395 2.7985310528
C -4.6213211452 0.4060756250 1.3189976189
C -5.6432078288 0.9382460647 0.5264488931
C -5.4524477617 1.0979902361 -0.8424209590
C -4.2515890652 0.7331549528 -1.4381117571
C -3.2229841665 0.1999264094 -0.6523348146
C -3.4114086450 0.0393103795 0.7255360947
N -2.0332661515 -0.1437964728 -1.3202280097
C -0.9054583529 -0.6930273633 -0.7982766918
O -0.6869944125 -0.9911849960 0.3589040219
O -0.0008362853 -0.8836324253 -1.8232713629
C 1.2584654312 -1.3745697422 -1.4610576226
C 1.5590989403 -2.6917129144 -1.7656244995
C 2.8414482980 -3.1495995802 -1.4664549476
C 3.7773656817 -2.3113507080 -0.8792970521
C 3.4472736734 -0.9801145487 -0.5788077310
C 2.1670506684 -0.5026154901 -0.8784254295
N 4.4461304766 -0.1957334582 0.0103429023
C 4.3678994747 1.1107419926 0.4096920481
O 3.3976405093 1.8432407095 0.3166015591
O 5.5586858592 1.4831274198 0.9385097083
C 5.6160277284 2.8511030831 1.4055957582
H -3.9087583754 -0.1144251339 3.2882841118
H -5.6084830695 -0.5195417732 2.9918190931
H -5.1462325173 1.1581799483 3.2673030388
H -6.5854883685 1.2268008228 0.9834998679
H -6.2456038724 1.5120760423 -1.4574330158
H -4.1065709003 0.8604338070 -2.5070117294
H -2.6182679485 -0.3697300907 1.3356157260
H -2.0173027408 0.0277831343 -2.3162643967
H 0.8134704193 -3.3325873004 -2.2222010697
H 3.1133678102 -4.1752564215 -1.6932628709
H 4.7722661494 -2.6815921952 -0.6503963535
H 1.8802534936 0.5169320218 -0.6655473296
H 5.3340607007 -0.6505144586 0.1711850187
H 5.4290376483 3.5428261306 0.5807752230
H 4.8841300750 3.0123566566 2.2007769281
H 6.6280064591 2.9785206746 1.7880099942
