56
CONF330
C -1.1933862254 -4.5269392952 -1.1606215682
C -0.5278967510 -3.7701928453 -0.0105480332
C -0.2341329580 -4.6514602946 1.2028876080
N -1.2971024621 -2.5706633183 0.3667143459
C -2.6109579162 -2.5376861407 0.7893486759
C -3.4978661867 -3.5686480188 1.1185408514
C -4.7696060287 -3.2180324292 1.5524206632
C -5.1621926966 -1.8725040656 1.6698060427
C -4.2883709390 -0.8480711503 1.3430801709
C -3.0033279018 -1.1716380787 0.8829430402
C -1.8779563028 -0.3778017063 0.4978791637
C -0.8540686835 -1.2637545996 0.1807208185
C 0.4962803189 -0.9646725351 -0.2638913291
C 0.7982505948 0.0359448890 -1.1016774803
C 2.1969009822 0.4358063797 -1.4386739170
C 2.4950449941 1.8533926113 -0.9526347382
C 3.9294772547 2.3034884112 -1.2275620979
C 4.2329088361 3.6236626631 -0.5252338541
C 5.6565772493 4.0434822319 -0.7815261866
O 6.6285299285 3.3417726905 -0.5905782157
O 5.7468751742 5.3081235284 -1.2449086271
O 4.1680141876 2.5311624779 -2.6237934872
O 2.3905552215 0.4281619745 -2.8770941866
C -1.8133622428 1.0880227067 0.5392047697
C -0.7859946121 1.7493859639 1.2283991207
C -0.7224768477 3.1370455756 1.2716660238
C -1.7131869192 3.8596645716 0.6269350943
C -2.7560212607 3.2540920667 -0.0510053726
C -2.7963192844 1.8627406486 -0.0915064286
F -1.6604774259 5.2183896145 0.6675769356
H -2.1426843544 -4.9773601247 -0.8617679402
H -1.3768186435 -3.8561729653 -2.0050880929
H -0.5287717883 -5.3294949837 -1.4935228980
H 0.4264811955 -3.3925504845 -0.3861569356
H 0.2539930155 -4.0696527608 1.9900335118
H 0.4355815820 -5.4633805923 0.9048025424
H -1.1428010496 -5.0977479201 1.6142357118
H -3.2202345509 -4.6130080276 1.0540518896
H -5.4717936551 -4.0035808871 1.8135109866
H -6.1614186267 -1.6377415036 2.0230597975
H -4.5903046532 0.1903923185 1.4402837837
H 1.3097296429 -1.5620676143 0.1482697611
H 0.0092564119 0.6367719994 -1.5518782032
H 2.9075315447 -0.2617918391 -0.9696648254
H 1.7915633597 2.5577142910 -1.4161520676
H 2.3175335931 1.8731500903 0.1289247238
H 4.6257761621 1.5367470455 -0.8507558835
H 3.5371084981 4.3985450100 -0.8568594586
H 4.1224431796 3.4914860792 0.5570837682
H 6.6889810290 5.5139373079 -1.3742577335
H 3.7830041225 1.7718125374 -3.0905859502
H 2.3126907069 -0.4852951628 -3.1811720765
H -0.0255353395 1.1652541225 1.7361186804
H 0.0705600270 3.6526840930 1.8028059119
H -3.5115339662 3.8577364268 -0.5423184172
H -3.5950481488 1.3713387052 -0.6382096557
