33
CONF117
C 4.4042751635 0.7454308033 4.1510206655
C 4.9923400220 1.8070628139 3.5988733477
C 4.8700159498 2.1873282910 2.1789327323
O 5.3876161422 3.1822132150 1.7025146263
O 4.1258157566 1.3221236637 1.4589132828
C 3.9526017674 1.6584240161 0.0610507460
C 3.1264266294 0.5640453493 -0.5864635178
C 1.6978629650 0.4990323499 -0.0841809786
C 0.7912105038 -0.3985626649 -0.9831412731
C -0.6060540623 -0.7602732592 -0.3707094822
C -1.6425485119 -1.2584795272 -1.4383088961
C -2.8585726857 -2.0246527243 -0.8123830659
C -4.0927857909 -2.1406879752 -1.7670461567
F -3.7086896585 -2.5823753659 -2.9731652809
F -4.9639130609 -3.0134612837 -1.2433891746
F -4.7037683938 -0.9595356083 -1.9060078162
F -2.4691760379 -3.2771574196 -0.4924361546
F -3.2679978179 -1.3877390755 0.3091229271
F -2.1117169548 -0.1872554880 -2.1191868033
F -1.0214305858 -2.0913689019 -2.3047635674
F -0.4342812100 -1.7404457646 0.5480730931
F -1.1235636541 0.3282648392 0.2413660866
F 1.4511149066 -1.5585316040 -1.2294379649
F 0.5976556224 0.2439013875 -2.1644502164
F 1.6299956216 -0.0060763690 1.1883380894
F 1.1407168990 1.7483420113 -0.0503659214
H 5.6112942164 2.4825690654 4.1815204742
H 4.9320594107 1.7074244562 -0.4234241692
H 3.4728883087 2.6376825521 -0.0194371438
H 3.0967135807 0.7626170174 -1.6632442942
H 3.5930989779 -0.4133212444 -0.4388733238
H 3.7823546549 0.0718793602 3.5704940978
H 4.5338683521 0.5288772990 5.2065411675
