44
CONF23
C 3.1018426417 1.5701651778 -1.5803893891
C 2.2397952661 0.7128257940 -0.6585326343
C 2.9831287455 0.2302205974 0.6414578935
N 2.3769985283 -1.0304625077 1.0174527125
C 1.9866050187 -1.9441510896 -0.0709648656
S 1.8062666234 -0.8813342380 -1.5641476019
C 0.7311974014 -2.3439533839 0.7692133637
C 1.1995392509 -1.2137127785 1.7321513981
O 0.7399269848 -0.6386045925 2.6900687703
N -0.5411276300 -2.1195571472 0.1482323931
C -1.7105268328 -2.4342400681 0.7662252616
O -1.7672974344 -3.1025035435 1.7956160960
C -2.9651655560 -1.8795148470 0.0475814419
C -2.8630039031 -0.3689132758 -0.0207756681
C -2.6970342920 0.3801139876 1.1481162835
C -2.5745564566 1.7632326604 1.1027892102
C -2.6052609016 2.4180821615 -0.1309897196
C -2.7741952321 1.6871911760 -1.3065863953
C -2.9003291197 0.3038282395 -1.2431987449
O -2.4654125129 3.7717953068 -0.2454603882
N -4.2208574805 -2.3002599562 0.6660404291
C 4.4758427836 0.0420772595 0.4224963415
O 5.1531952796 1.1613616298 0.7201091962
O 4.9850411714 -0.9789990191 0.0168651248
C 0.9641693781 1.4622980701 -0.2750089599
H 2.5279746883 1.8486682743 -2.4684962937
H 4.0064194809 1.0486567390 -1.9041728533
H 3.3864647572 2.4901102891 -1.0599556615
H 2.8221405230 0.9635378944 1.4376270235
H 2.6919146603 -2.7496748286 -0.2784647982
H -0.5613617624 -1.4400239338 -0.6052588758
H -2.9389414098 -2.2697038679 -0.9784125917
H -2.6484738475 -0.1200680983 2.1126484396
H -2.4380776706 2.3342312335 2.0175172969
H -2.7964328930 2.2066855245 -2.2592629636
H -3.0252785382 -0.2613312309 -2.1628013259
H -2.3496678828 4.1607544157 0.6322754048
H -4.2204954213 -3.3135415869 0.7481781965
H -4.2446614820 -1.9573756481 1.6229056962
H 0.3196320911 0.8790715698 0.3879871635
H 1.2268798456 2.3982051197 0.2316046955
H 0.3897530185 1.7025444477 -1.1735490921
H 0.7882988395 -3.3469779044 1.2002257101
H 6.0960304716 1.0184592601 0.5224763200
