39
CONF3
C 5.8431532702 1.5849682981 -1.8419853617
N 5.8508123266 1.0398004255 -0.4877398720
C 6.9850135751 1.4210375998 0.3475290709
C 4.7275315539 0.5359194523 0.1201944544
O 4.7225114424 0.1293774605 1.2872518336
N 3.5998522736 0.4830165338 -0.6895789400
C 2.3477755096 -0.0327549382 -0.3073708139
C 2.2076208847 -1.1321499254 0.5482919123
C 0.9435916343 -1.6179667639 0.8575496150
C -0.1915806545 -1.0338285980 0.3013748696
C -0.0658935411 0.0435281975 -0.5721154964
C 1.1987263507 0.5427954091 -0.8614353518
O -1.4054678134 -1.6194913612 0.6130026507
C -2.5560202186 -0.8465614551 0.5049930426
C -3.5903227880 -1.3158886539 -0.2883751188
C -4.7937133776 -0.6117754431 -0.3600697215
C -4.9429329133 0.5732765343 0.3629879128
C -3.8909020026 1.0389672047 1.1632440624
C -2.7029788379 0.3303603328 1.2389299907
O -6.0684974669 1.3455485418 0.3598276372
C -7.1637892887 0.9095084328 -0.4536169939
H 5.3289020369 2.5560779137 -1.9024368880
H 6.8782135197 1.7319600070 -2.1577715417
H 5.3833227428 0.8856200033 -2.5470427883
H 7.9170874892 1.1335767013 -0.1493028988
H 7.0019513790 2.5063223062 0.5214462309
H 6.9179332305 0.9089370889 1.3064894485
H 3.0832255901 -1.6028450659 0.9739050613
H 0.8308934787 -2.4664106620 1.5247413142
H -0.9432314015 0.4979934290 -1.0188477855
H -3.4596169192 -2.2356487198 -0.8491606154
H -5.5915862001 -0.9968933553 -0.9826198304
H -4.0247043309 1.9562626367 1.7274709340
H -1.8890733529 0.6862031996 1.8626857980
H -7.9464594137 1.6571073190 -0.3218019611
H -6.8746711925 0.8616092736 -1.5103536317
H -7.5324062188 -0.0702686185 -0.1268748808
H 1.2939597625 1.3903475919 -1.5347942046
H 3.5767772246 1.0838805376 -1.4987098231
