46
CONF13
C 4.5717936463 1.2607799680 -3.0842447386
C 3.1764414514 0.7355969792 -2.7661640699
C 2.1531611594 1.8600791941 -2.3555125611
N 1.1821184605 1.2205537535 -1.4991556247
C 1.6392307317 0.1500045583 -0.6057385404
S 3.2769596358 -0.3814245139 -1.2580172652
C 0.3343131776 -0.6416612105 -0.9667283967
C -0.0055210649 0.5880358023 -1.8434887640
O -0.8956736041 0.8993267615 -2.6000409285
N -0.5772347585 -1.0597457782 0.0523991760
C -1.2391495134 -0.1712516239 0.8339196675
O -1.0962327021 1.0459414224 0.7136468080
C -2.1592974489 -0.7796386050 1.8502141638
C -3.4968356622 -1.0283933497 1.5234070974
C -4.3720243780 -1.5460795578 2.4829878156
C -3.8837319190 -1.8029984240 3.7606347818
C -2.5588894220 -1.5610783647 4.1118996865
C -1.6942242825 -1.0426722994 3.1433016759
O -0.3796606767 -0.7581879733 3.3498105577
C 0.1609662633 -1.0153693121 4.6550812906
O -3.8417470823 -0.7284968542 0.2416620638
C -5.1995842185 -0.9721573899 -0.1570440337
C 2.8209749945 3.0616514600 -1.7045994391
O 2.9453784682 2.9273839247 -0.3755089499
O 3.2134342416 4.0210611161 -2.3319473539
C 2.6067843506 -0.0364776584 -3.9564370036
H 5.0191860295 1.7833178806 -2.2347107235
H 5.2263539365 0.4303588304 -3.3627521862
H 4.5164754473 1.9486543363 -3.9343362309
H 1.7285236693 0.4322515503 0.4460023436
H -0.7321171257 -2.0467694773 0.1965340565
H -5.4093540711 -1.7470585854 2.2495822664
H -4.5595018437 -2.2052824376 4.5090013117
H -2.2171141935 -1.7745006908 5.1162932840
H 0.0842847112 -2.0789560487 4.9066128110
H -0.3506414964 -0.4141609777 5.4148360946
H 1.2098277686 -0.7241082413 4.5993553619
H -5.8952014139 -0.3701394024 0.4379423393
H -5.4496594660 -2.0346226534 -0.0623047387
H -5.2549387951 -0.6722708497 -1.2035089575
H 2.5765845092 0.6164298647 -4.8363119006
H 1.5947522857 -0.4010375242 -3.7590285369
H 3.2406060459 -0.8980803032 -4.1809199059
H 0.5658864370 -1.4918248890 -1.6144576826
H 1.6562185744 2.2283494225 -3.2582653623
H 3.3945072432 3.7165735294 -0.0240338276
