48
CONF131
C -0.7177814740 -1.9635565912 -1.1478347329
O -1.2817314211 -1.3995487992 0.0519448707
N -2.3207133189 -0.5551188500 -0.2787431810
C -2.8072553114 0.0492238831 0.7549204022
C -2.3094771096 -0.0976620652 2.1430001419
C -3.1371239279 -0.6041144585 3.1506987639
C -2.6677475044 -0.7388173018 4.4511199452
C -1.3695973973 -0.3429276062 4.7696977102
C -0.5340624019 0.1733171921 3.7850103034
C -1.0094601274 0.2713158694 2.4860444812
O -0.2358259905 0.8722072134 1.4878464700
C 0.8758325954 0.2511133842 1.0409315695
C 1.5030066191 0.8239525312 -0.0599649545
C 2.6379852474 0.1913074693 -0.5477258394
N 3.1204082032 -0.9114382746 0.0152144579
C 2.4511677673 -1.3719588599 1.0736446539
N 1.3530668078 -0.8482446193 1.6166686397
O 3.2264135618 0.7331198149 -1.6396096238
C 4.4131390553 0.1540888072 -2.0877884110
C 4.3743012987 -0.6719514080 -3.2003692603
C 5.5598309400 -1.1929100510 -3.7092749146
C 6.7741610635 -0.8840664319 -3.1019032414
C 6.8136566612 -0.0512638966 -1.9870587482
C 5.6278659434 0.4699741458 -1.4834024132
Cl 5.6531473237 1.5231949208 -0.0874883480
F 1.0160962777 1.9314633492 -0.6420822665
C -3.9508194468 0.9373152505 0.4943639311
N -4.2820896691 1.7533995327 1.4449519031
O -5.3893214739 2.5790022883 1.2381115792
C -6.2664660572 2.1544144395 0.1732983152
C -5.4450354115 1.8670099894 -1.0535306679
O -4.5061912273 0.8111307957 -0.7274919583
H -1.4712775811 -2.5429383755 -1.6899121664
H -0.3120134251 -1.1725761869 -1.7868703015
H 0.0857096083 -2.6166731144 -0.8024634097
H -4.1530377005 -0.8920011352 2.9012519322
H -3.3191179806 -1.1406814070 5.2198857400
H -1.0058052663 -0.4289445660 5.7882663636
H 0.4735785337 0.5001524984 4.0148479907
H 2.8430244834 -2.2732868301 1.5411686217
H 3.4136200980 -0.8970735547 -3.6515367607
H 5.5316611196 -1.8399396866 -4.5792372120
H 7.7011009789 -1.2880327056 -3.4946691267
H 7.7552740777 0.1969760197 -1.5102990933
H -6.8151043297 1.2583941750 0.4911374983
H -6.9590566413 2.9832660717 0.0133858110
H -6.0534866739 1.4885647984 -1.8761534926
H -4.8844495022 2.7518224467 -1.3732766759
