76
CONF2
C -0.5706312683 -2.0551405644 -0.9651807852
C -1.8280253251 -1.3141509831 -0.5362808524
C -3.0639405745 -1.9839654888 -1.0738777340
C -4.3142928944 -1.8125681896 -0.6204563681
C -5.4379894486 -2.6071494358 -1.2345009777
O -6.3642647345 -1.7740840167 -1.9600016748
C -4.7619222801 -0.8297028404 0.4366561109
C -3.8547704363 0.3787263940 0.7011956031
O -2.9259743242 0.1617143068 1.7824977562
C -4.6480511752 1.6409681481 1.1194531805
O -5.5056424311 1.6499677749 1.9934300268
C -4.1597149747 2.7822222302 0.3447718603
C -4.6484205933 4.1709380420 0.5695912996
C -3.2731984691 2.3332933107 -0.5665283236
C -3.1015661408 0.8435277642 -0.5557087317
C -1.7199891121 0.2156891672 -0.8427492694
O -1.5275760490 0.4702411077 -2.2376192717
C -0.5232247883 0.7619845995 -0.0142754324
C -0.3422795574 2.2799189292 -0.0618328902
C 0.7940374165 0.1186469386 -0.4932815529
O 1.7779592468 0.3076517768 0.5650697803
C 3.0037925142 0.7790641167 0.2241709276
O 3.2929031156 1.0794084401 -0.9323763255
C 3.9036616385 0.8814743464 1.3748285409
C 3.4580587857 0.5023557063 2.6541993493
C 4.2757303447 0.5760912271 3.7656991439
C 5.5864057884 1.0432229030 3.6075525204
C 6.0643649103 1.4258473570 2.3697857305
C 5.2464093553 1.3604405790 1.2140607788
N 5.7350211073 1.7410719962 0.0107364309
C 7.0870026186 2.2228846496 -0.2014586742
C 0.7532285011 -1.3380571377 -0.8804069005
O 1.7806973965 -1.6581446825 -1.8409867130
C 1.6350103574 -1.2501001102 -3.1135576306
C 2.8207946127 -1.6201091017 -3.9445740041
O 0.6632012773 -0.6369804571 -3.5241932709
C 0.4740676522 -2.4865924274 0.0540457032
C 0.2789611134 -2.2521339932 1.5359532109
C 1.1873761260 -3.7957425429 -0.2272490210
H -0.6777495883 -2.7182276001 -1.8206667740
H -1.8977486558 -1.3648809954 0.5533783284
H -2.9182199997 -2.6997761304 -1.8825101150
H -5.0323298223 -3.3933596377 -1.8849770230
H -6.0377335938 -3.0840615166 -0.4498911799
H -5.8595188028 -1.3317444801 -2.6552339920
H -5.7391472403 -0.4480912966 0.1120952202
H -4.9542405802 -1.3535181478 1.3840193838
H -3.4530943443 -0.0017400596 2.5782076735
H -4.4299036823 4.4935253132 1.5937169532
H -4.1813561382 4.8705062140 -0.1269676779
H -5.7357662319 4.2220532090 0.4454942680
H -2.7922970895 2.9592343909 -1.3110309854
H -3.6893551651 0.4805895284 -1.4118614044
H -0.7327893450 -0.0001439941 -2.5582677746
H -0.6956222492 0.4723195203 1.0241742500
H 0.6118625266 2.5554583847 0.3989234653
H -1.1306384153 2.7944521986 0.4918141490
H -0.3390553139 2.6414744323 -1.0949895159
H 1.1409554643 0.6767612513 -1.3678139629
H 2.4420887307 0.1414082577 2.7588476930
H 3.9075866294 0.2775837484 4.7408751485
H 6.2453303201 1.1084799628 4.4687159563
H 7.0832360854 1.7826173604 2.2801219323
H 5.1051672799 1.6692360409 -0.7753208643
H 7.2898168502 3.1380357718 0.3702558145
H 7.8373099297 1.4713226801 0.0773214715
H 7.2044024407 2.4481924368 -1.2627334690
H 3.1669171101 -2.6267482736 -3.7011794417
H 2.5709444540 -1.5389122454 -5.0018203547
H 3.6334801276 -0.9223195848 -3.7128964688
H 1.2453533504 -2.3240121767 2.0456358409
H -0.3792753944 -3.0269166509 1.9451653181
H -0.1487071315 -1.2807770151 1.7812356115
H 1.2352913990 -4.0225653179 -1.2936059533
H 2.2089037012 -3.7711127120 0.1678737496
H 0.6486935857 -4.6070722990 0.2737596027
