39
CONF93
C -4.0470518706 -1.2068604585 0.3069956974
C -2.8478454343 -2.1496183630 0.2570630610
C -1.6205993457 -1.5137018746 -0.3992210646
N -1.1321223898 -0.3401494418 0.3506484123
C -0.5211428826 -0.6135717480 1.6603752962
C 0.8702370714 -0.0332857193 1.7784442967
O 1.6955365100 -0.6792027636 0.7680294019
C 2.9512973642 -0.1701723056 0.6778116778
C 3.2415234936 0.9283039617 -0.1417430362
Cl 1.9389899426 1.6823431973 -1.0271751262
C 4.5299338376 1.4270896575 -0.2837576014
C 5.5523720936 0.8028987052 0.4186021949
Cl 7.1862075346 1.4134149295 0.2545082104
C 5.3250512190 -0.2913170772 1.2426997698
C 4.0223656234 -0.7583405428 1.3620836711
Cl 3.7043877064 -2.1336043375 2.3891327834
C -1.5156066749 0.9366164646 0.1295412556
O -1.4816062659 1.8344994519 0.9629617446
N -1.9615625937 1.2441410342 -1.2038319002
C -1.3887519946 0.9068352797 -2.4216118517
C -2.1416528569 1.5472232476 -3.3652708762
N -3.1647121915 2.2650006881 -2.7698661660
C -3.0194291483 2.0753823050 -1.4780881829
H -4.9229344163 -1.7134298774 0.7223153716
H -3.8443284758 -0.3335811475 0.9369957151
H -4.3048881891 -0.8470098899 -0.6954095738
H -2.5987243698 -2.5002347488 1.2657278853
H -3.0947116251 -3.0424367701 -0.3299706400
H -0.7952062851 -2.2303783609 -0.4611248652
H -1.8743670245 -1.2143643008 -1.4162159312
H -0.4676750951 -1.6982698506 1.7786403757
H -1.1384165327 -0.2094111702 2.4709561828
H 0.8740050130 1.0487547336 1.6147679383
H 1.2753279451 -0.2533341123 2.7737676667
H 4.7261603230 2.2757671064 -0.9269787413
H 6.1349429540 -0.7685272070 1.7801307441
H -0.5065913705 0.2899006679 -2.4913297963
H -2.0002654130 1.5405849708 -4.4370983071
H -3.6381462968 2.4820460688 -0.6892456530
