39
CONF28
C -5.4925396299 0.6263621144 -1.5616957030
N -4.0553611863 0.8039022356 -1.3940114950
C -3.1006050571 -0.1466230019 -1.4518612995
C -1.8774455185 0.4935979318 -1.2906117332
C -2.2258209387 1.8582975514 -1.1404879320
N -3.5485893245 2.0299950194 -1.1941393353
C -1.3957420221 3.0674230851 -0.8918736344
F -0.5052926997 2.8532775296 0.1404419495
F -0.6343415317 3.3947438433 -1.9978180799
C -0.5244686782 -0.0937614920 -1.2936000654
O 0.4691655004 0.5511822810 -1.6271011044
N -0.4618003228 -1.3993129841 -0.8918689935
C 0.7469252277 -2.1380371667 -0.7991137839
C 1.8048498213 -1.7036312359 0.0217210063
C 2.9864954671 -2.4529354572 0.0387100384
C 3.0688971549 -3.6106871879 -0.7115156581
C 2.0270351836 -4.0738198304 -1.4955323456
C 0.8649774999 -3.3129476355 -1.5406503410
F 4.2182720621 -4.3298557494 -0.6635816698
C 1.7066186010 -0.5018914207 0.8781835654
C 0.6014962747 -0.3101574458 1.7105461715
C 0.5100894847 0.8262998678 2.5033260378
C 1.5263285042 1.7825675116 2.4843067323
C 2.6402937244 1.5861732939 1.6745379608
C 2.7282267419 0.4526531750 0.8796276586
Cl 1.4222361139 3.2312363056 3.4523157880
Cl -0.9026647339 1.0343084094 3.5104713514
H -6.0150749010 1.0947760503 -0.7251150791
H -5.7075900839 -0.4423992213 -1.5791994996
H -5.8156856593 1.0840801146 -2.5004319542
H -3.3511430119 -1.1845378203 -1.6235194202
H -2.0130394477 3.9356579919 -0.6403480146
H 2.1287621436 -4.9912514959 -2.0641649895
H -0.1931760292 -1.0456534992 1.7495881283
H 3.4277077556 2.3312390804 1.6604799600
H 3.8212369424 -2.1544997653 0.6637725315
H 0.0376949768 -3.6245120946 -2.1701211291
H 3.5893526564 0.3247145255 0.2322458457
H -1.3192785266 -1.8836715730 -0.6687828678
