32
CONF31
C 3.2789958484 0.6516723790 -2.9935657778
C 2.2982984376 0.6081043543 -1.8555377581
C 1.9737962651 -0.5948189702 -1.2258958501
C 1.0842327085 -0.6285224521 -0.1575410097
C 0.5032191271 0.5512802429 0.2982155040
C 0.8184374838 1.7638145884 -0.3159202461
C 1.7056539864 1.7838075839 -1.3822606237
N -0.4300872836 0.4878966848 1.3946633806
S 0.0899003571 1.1041664027 2.9052736362
C 0.0799758309 -0.4180368038 3.9282165670
F -1.1491376271 -0.9459276600 4.0707770898
Cl 0.6751247740 0.1427545809 5.5302518979
Cl 1.1417296359 -1.7343892545 3.2896354929
S -2.1247778407 0.8014473128 0.9595239284
O -2.1928166688 2.0017312012 0.1264380984
O -2.8513701089 0.6894207589 2.2166737121
N -2.5346344272 -0.4965769861 -0.0032432686
C -2.4706558851 -1.8161161709 0.6270501270
C -2.2152528550 -0.4582422732 -1.4338584621
H 3.4292813764 -0.3388193261 -3.4294349137
H 4.2538811258 1.0160011182 -2.6495320925
H 2.9391478833 1.3284991895 -3.7828008677
H 2.4250214178 -1.5199240898 -1.5731752143
H 0.8429076014 -1.5643057969 0.3330582176
H 0.3537156208 2.6784567258 0.0348062833
H 1.9438928518 2.7307091274 -1.8587197185
H -2.7699662664 -1.7429673304 1.6738321028
H -3.1759868100 -2.4729079767 0.1075298740
H -1.4647571526 -2.2554686119 0.5671894964
H -2.2401331995 0.5720087374 -1.7891756206
H -1.2311362789 -0.8948091401 -1.6508739663
H -2.9864996159 -1.0299377431 -1.9616002195
