49
CONF19
C -4.8303375968 -0.2464950806 0.6357071918
C -3.7623572231 -1.2896723578 0.3843308984
C -2.2692175693 -0.9110912147 0.4993034480
C -2.9269768584 -1.2375344344 -0.8604048764
C -2.4515986914 -2.5207906404 -1.5148408976
C -3.1367992305 -0.1382397546 -1.8800098030
C -1.8152211776 0.4327390848 0.8492723854
O -2.3061004693 1.5074727891 0.5712140136
O -0.6568029155 0.3411530837 1.5994606520
C -0.0612770482 1.6152786365 1.9392929049
C 0.7677864331 1.3546102012 3.1167640984
N 1.4407025532 1.1781752787 4.0385746636
C 0.7714227033 2.1712701813 0.8023547011
C 1.7847339885 1.3818434154 0.2595909512
C 2.5439986432 1.8895213672 -0.7895266297
C 2.2957328374 3.1644320207 -1.2994953830
C 1.2789221129 3.9337546773 -0.7491392327
C 0.5124054599 3.4459048021 0.3075487744
O 3.5306954615 1.1616936108 -1.4158246882
C 4.1765521983 0.1551145515 -0.7072683750
C 4.7800964898 0.4165014353 0.5201239087
C 5.4760642532 -0.6052237540 1.1584257070
C 5.5757508448 -1.8667615890 0.5724905132
C 4.9744355775 -2.1056870676 -0.6607595323
C 4.2662585781 -1.0947360897 -1.3070585945
C -4.1339452523 -2.6263688071 0.9971750854
H -5.7622550085 -0.5685336972 0.1567085222
H -4.5719335087 0.7418587054 0.2617681494
H -5.0200610624 -0.1619355528 1.7113182781
H -1.6313443699 -1.6950460698 0.8936874213
H -2.1843874715 -3.2953880722 -0.7952999911
H -3.2374729470 -2.9161199015 -2.1690412732
H -1.5705767859 -2.3168053538 -2.1326129049
H -3.9137680706 -0.4513340233 -2.5868532966
H -2.2134221867 0.0217072304 -2.4474631256
H -3.4297174013 0.8126876499 -1.4406346986
H -0.8424416802 2.3323842268 2.2161776547
H 1.9740179750 0.3863595259 0.6473947041
H 2.9015198434 3.5340862627 -2.1200166312
H 1.0837850197 4.9245864757 -1.1461384211
H -0.2839689070 4.0451682544 0.7359519554
H 4.7033442385 1.4032714312 0.9655150862
H 5.9497033258 -0.4095992605 2.1153134346
H 6.1225484205 -2.6579762408 1.0746728193
H 5.0495924747 -3.0844720332 -1.1238987991
H 3.7873196384 -1.2633266084 -2.2658850952
H -5.0155651419 -3.0356581770 0.4899978467
H -3.3319036892 -3.3627473197 0.9380154169
H -4.3879357863 -2.4900307976 2.0536905520
