55
CONF48
C 3.4848072106 -0.2133849827 -5.5370511316
O 3.9881392992 -0.9897883204 -4.4545972403
C 3.2469989109 -1.0290180341 -3.3103719555
C 2.0241196872 -0.3784443462 -3.1350750585
C 1.3537796574 -0.4892555001 -1.9212420655
C 1.8795437123 -1.2356679617 -0.8689544103
C 3.1013354222 -1.8871968481 -1.0667761810
C 3.7825976419 -1.7897214319 -2.2674450960
C 1.2012517466 -1.3423031950 0.4709783858
S -0.5676824457 -1.8572053852 0.2020497206
C -1.3294312012 -1.4024196392 1.7472740151
C -1.8663139393 -2.4043203304 2.5576203382
C -2.5663601535 -2.0864866294 3.7158222080
C -2.7034341644 -0.7542578755 4.0929444413
C -2.1564998127 0.2514938824 3.3067387145
C -1.4876528122 -0.0539860730 2.1193968023
N -0.9903616506 1.0025408040 1.3177660866
C -1.9252397510 2.0317013153 0.8425052868
C -2.5813816373 1.6206580705 -0.4734332664
N -3.3526197857 0.3875905084 -0.3566993607
C -4.6128658737 0.5884210162 0.3471275489
C -3.5808939399 -0.2154822813 -1.6645865858
C 0.2843982473 1.0333156352 0.8117044455
O 0.6658059653 1.8950178777 0.0335865184
C 1.2307921399 -0.0612236572 1.3234043354
O 2.5817187647 0.4141939402 1.2791290568
C 2.8458991956 1.4580680575 2.1122178828
C 4.2293742713 1.9829579480 1.8725001202
O 2.0474744784 1.8886919907 2.9095515186
H 4.2215363029 -0.3041615797 -6.3363547042
H 3.3799101904 0.8425362189 -5.2558168111
H 2.5178602131 -0.5968548149 -5.8882457821
H 1.5850913200 0.2160026957 -3.9264254419
H 0.4075157376 0.0240111270 -1.7955043628
H 3.5291577170 -2.4757173480 -0.2600053030
H 4.7299335094 -2.2947348089 -2.4209015287
H 1.7022660079 -2.1250088603 1.0509492785
H -1.7360375670 -3.4391513508 2.2593882858
H -2.9866578127 -2.8771466132 4.3282258925
H -3.2206515900 -0.4952474044 5.0109653015
H -2.2322312431 1.2884845594 3.6173053675
H -1.3622893225 2.9563309488 0.6925647268
H -2.6718243373 2.2070585237 1.6209311415
H -3.1965708585 2.4690220018 -0.8420167192
H -1.7807540276 1.4625500715 -1.2046840538
H -4.4339775466 0.9548046997 1.3629969376
H -5.1378670105 -0.3680605682 0.4361862611
H -5.2832685776 1.3057143129 -0.1681450062
H -4.1175781786 -1.1624400899 -1.5442952888
H -4.1737643111 0.4304510905 -2.3428111563
H -2.6198264461 -0.4322571418 -2.1421034828
H 0.9724372242 -0.3068387882 2.3585704285
H 4.9412492320 1.1653303416 1.7412777597
H 4.2157388311 2.5617161536 0.9432326167
H 4.5233015712 2.6291193596 2.6986301671
