29
CONF1
C 2.0097466121 -0.3429304412 1.2399282739
C 3.1818607112 0.4098886392 1.2652983272
C 3.5677881634 1.1117675105 0.1339631304
C 2.8015443097 1.0738553777 -1.0259822752
C 1.6383077782 0.3203740550 -1.0358740648
C 1.2225675555 -0.4015316637 0.0909983539
C -0.0941958752 -1.1719111080 -0.1007123427
C -1.2454032777 -0.1906274926 -0.3093866738
C -2.2389212231 -0.4556272828 -1.2521017628
C -3.2829413959 0.4398363896 -1.4517152469
C -3.3298685336 1.6040353748 -0.6960555414
C -2.3476811857 1.8935668120 0.2434180077
C -1.3060778124 0.9939036408 0.4253586501
Cl -4.6426187475 2.7373306872 -0.9427098718
C -0.4628754522 -2.1850066469 1.0662994456
Cl 0.8871277528 -3.3851762829 1.2755983659
Cl -0.7724895408 -1.3690390025 2.6374054333
Cl -1.9375685515 -3.1114346009 0.6401292735
O 0.0036435880 -1.9492372613 -1.2847220773
Cl 5.0384593893 2.0611545475 0.1643603101
H 1.7388481941 -0.8780388630 2.1385937107
H 3.7878432390 0.4451910687 2.1629521642
H 3.1091564765 1.6288533550 -1.9044022329
H 1.0319061081 0.2925547518 -1.9347509609
H -2.1946048157 -1.3633096947 -1.8397205176
H -4.0517847248 0.2352196448 -2.1874211694
H -2.3915068812 2.8130645749 0.8147835333
H -0.5256731378 1.2288545216 1.1404787135
H 0.8054120867 -2.4855807003 -1.2157112429
