47
CONF627
C 4.7428097778 -2.0900055321 -2.1656800566
C 3.6377690262 -1.5036904543 -1.3400655109
C 2.5704456526 -2.3249494518 -0.8694841788
C 2.5575106010 -3.7863916694 -1.1912104117
C 1.5370163123 -1.7811151629 -0.1216996788
C 1.5141315865 -0.4193275345 0.2017452948
N 0.5038371767 0.1727471588 0.9436865170
C -0.6497399762 -0.6222934005 1.4148289808
C -1.8290813432 -0.6743098668 0.4218594449
O -1.4328500312 -1.1452586331 -0.8638872922
C -2.5027345903 0.6842108323 0.2045265479
O -3.0010338329 1.1934447305 1.4406079467
C -3.6841272417 0.6223537664 -0.7681044027
O -4.2645724946 1.9321734847 -0.8798392383
C -4.7668804389 -0.3752182938 -0.3645458038
O -5.8785583136 -0.2972069840 -1.2627710143
C 0.5776596036 1.5017880332 1.2835183051
N -0.3882775848 2.0353758812 2.0148042278
C -0.3276464988 3.3571887272 2.3559601286
O -1.2086388594 3.9077127972 3.0140818691
N 0.7794358998 4.1118025246 1.9370968302
C 1.8298400283 3.6665152153 1.1725532279
O 2.7541323858 4.3939954788 0.8358890749
C 1.7240794214 2.2309979988 0.8084736984
N 2.6741393004 1.7127493106 0.0767631963
C 2.5962608570 0.3991348921 -0.2365438226
C 3.6299976960 -0.1689498083 -1.0104735150
H 5.2691414767 -2.8786100254 -1.6162980635
H 5.4655167657 -1.3217490766 -2.4463393141
H 4.3484855660 -2.5486197744 -3.0792572487
H 3.4654196519 -4.2736059568 -0.8177523450
H 2.5426947862 -3.9425285683 -2.2760852664
H 1.6884813628 -4.2812728279 -0.7548718314
H 0.7472009720 -2.4435325813 0.2017559335
H -0.3018575099 -1.6343095440 1.6204442402
H -0.9868385594 -0.1957019107 2.3604656545
H -2.5574541148 -1.3538623269 0.8877596377
H -1.3731204021 -2.1082172598 -0.8375879909
H -1.7689465783 1.3820026154 -0.2301462221
H -2.2249558974 1.5922656682 1.8884362834
H -3.3171517054 0.3686927114 -1.7667737044
H -4.3432336287 2.2660381020 0.0275069925
H -5.0880911467 -0.1833222009 0.6703676175
H -4.3868077700 -1.3996832497 -0.4284363328
H -6.0913765644 0.6442802351 -1.3376763223
H 0.7890515705 5.0866756355 2.2151021219
H 4.4289182033 0.4915866971 -1.3327035005
