56
CONF20
C -2.6173440173 1.4446574738 -1.3858668444
C -2.4643642526 0.0662121326 -0.6833007840
C -2.8796190575 -1.0699971554 -1.6389361291
C -4.3824601860 -1.1288181396 -1.8918138008
C -5.1461260533 -1.2620464924 -0.5943084262
O -6.2183812282 -1.8549760777 -0.5242532117
C -4.5718530441 -0.5657099951 0.5537244078
C -3.3984002525 0.1001209919 0.5161179611
C -2.9835439757 0.9867775743 1.6484936065
C -1.5668961098 0.6759772168 2.1322916638
C -0.5510162400 0.6966241077 0.9887574955
C -1.0160818036 -0.2333100571 -0.1521649657
C 0.0469882595 -0.4080003936 -1.2624011391
C 1.4279014655 -0.7863699388 -0.7049343723
C 1.8947108828 0.1453626009 0.4142342017
C 0.7968247987 0.1904545677 1.4958156365
C 1.4676809346 0.8953844719 2.6778272229
C 2.9429374129 0.4166497931 2.6055889061
C 3.0833441376 -0.3982109472 1.2948250781
C 4.4358665763 -0.2302987011 0.6178197283
O 5.0808540126 0.8041831027 0.6696466423
C 4.9826028698 -1.4007742102 -0.1739128290
O 6.1488727568 -1.0459232805 -0.8793418977
O 2.8436015805 -1.7981871788 1.5120777555
C 2.2597140997 1.5409152984 -0.1135300547
O 0.2210724002 0.7667199746 -2.0766625069
H -3.6576914009 1.7809265974 -1.3354038155
H -2.3592966149 1.3847810893 -2.4470221573
H -1.9929436490 2.2124004426 -0.9256275930
H -2.5658554818 -2.0266350978 -1.2004454293
H -2.3519216005 -0.9672836297 -2.5933996099
H -4.6513852450 -1.9599483078 -2.5494638413
H -4.7324407780 -0.2067876558 -2.3777424470
H -5.1954341550 -0.5249970899 1.4443656681
H -3.7048072953 0.9117560550 2.4677847581
H -3.0104587659 2.0270120527 1.2904818322
H -1.5558795880 -0.3208549584 2.5960114700
H -1.2788559419 1.3948845345 2.9068586772
H -0.4517337464 1.7266570339 0.6204057854
H -1.0950246253 -1.2336640787 0.3076980602
H -0.2660150163 -1.2401886232 -1.9082096524
H 2.1300018914 -0.7910123891 -1.5469079113
H 1.3632941783 -1.8075491926 -0.3162571568
H 0.6317964597 -0.8545802719 1.7972602592
H 1.4054427832 1.9838221710 2.5677168020
H 1.0031727819 0.6369339153 3.6328490527
H 3.6444790216 1.2534155205 2.5976044147
H 3.2106325017 -0.2190472625 3.4560894111
H 4.2014518415 -1.7654186707 -0.8575426068
H 5.1819059905 -2.2257755774 0.5282969331
H 6.3538195282 -0.1352002684 -0.6058670018
H 3.3507584434 -2.0676325797 2.2872682586
H 2.7340935412 2.1574562155 0.6527611496
H 1.3736699902 2.0554219541 -0.4820947094
H 2.9584717971 1.4614367626 -0.9512397500
H -0.5101327015 0.8122543694 -2.7001227912
