45
CONF462
C 9.9089488980 -0.3242280763 -1.6660675824
C 9.0554544547 0.4946646037 -1.0527961351
C 8.1006291697 -0.0172369371 -0.0485198556
O 8.0006919190 -1.1722413697 0.3137749266
O 7.3373875824 1.0006907440 0.4244162564
C 6.3176287568 0.6834466098 1.4005862930
C 4.9266411541 0.8814261858 0.8114553018
C 4.5180332088 -0.2016502785 -0.1582948207
C 3.1078548168 -0.0263985525 -0.8129865718
C 1.9120648493 0.1417476080 0.1817851102
C 0.5091560461 -0.1093116267 -0.4772836762
C -0.6802187807 0.4900920877 0.3566175283
C -2.0706133568 -0.1305733736 -0.0316581027
C -3.2864404164 0.7532664263 0.4249348237
C -4.6420393789 -0.0396509851 0.4517305067
C -5.9014033994 0.8926521087 0.4436762024
C -7.2206581640 0.1768740912 0.8874421101
F -7.3636249932 -0.9850660449 0.2348727390
F -8.2605571078 0.9686588834 0.5948947172
F -7.2178379771 -0.0562414747 2.2038218598
F -5.6961910794 1.9331650214 1.2841393810
F -6.0886292498 1.3631079302 -0.8072369646
F -4.7017331443 -0.8427481609 -0.6348590261
F -4.6743166910 -0.8035328450 1.5666045641
F -3.0418225333 1.2265320517 1.6672452423
F -3.4083063051 1.7928087892 -0.4302435541
F -2.1252252715 -0.2718406626 -1.3748162030
F -2.1765692853 -1.3471153800 0.5482742799
F -0.4572528968 0.2561659556 1.6690018062
F -0.7254862282 1.8246418135 0.1448929981
F 0.3235970224 -1.4436828935 -0.5963104821
F 0.4945853121 0.4527946105 -1.7061394714
F 2.0613495943 -0.7244201529 1.2092380985
F 1.9402137838 1.4075119868 0.6705650647
F 2.8652507240 -1.1125993714 -1.5911942069
F 3.1534399776 1.0720043211 -1.6071180060
F 4.5511876019 -1.4337872831 0.4329593434
F 5.3822652750 -0.2606148266 -1.2256521929
H 10.6083561531 0.0487746662 -2.4064776347
H 9.0233013484 1.5584009366 -1.2663904305
H 6.4536565652 1.3956424581 2.2171110770
H 6.4607530560 -0.3323290284 1.7741735938
H 4.8547506361 1.8515296822 0.3104533389
H 4.2165885346 0.8803822364 1.6444249800
H 9.9228018526 -1.3860477637 -1.4380829298
