43
CONF19
C -0.0854827781 2.7782599191 2.2747314129
C -0.4056566653 1.9156727564 1.0543914027
C 0.1126880001 2.5604439672 -0.2294681558
C 0.1876406342 0.5034625476 1.2689120551
C -0.1235341890 -0.4780134185 0.1740738438
C 0.8868130323 -1.0073665820 -0.6519891566
C 0.5263467682 -1.9322995046 -1.6371424199
N -0.7185120211 -2.3517847933 -1.8300511118
C -1.6816055012 -1.8442017941 -1.0667255615
C -1.4407854230 -0.9032497628 -0.0636119326
C -2.5585611540 -0.4057841842 0.8063684189
O -2.6299045696 -0.6264979649 1.9962462688
O -3.4404360964 0.3019171469 0.0979494032
C -4.5866866421 0.8006341525 0.8424505055
C -3.0477253927 -2.4158246786 -1.3782767374
F -3.7314810790 -1.5759301412 -2.2295134608
F -3.8049663124 -2.5290539441 -0.2364665251
C 1.5438440681 -2.6250757760 -2.5356709864
F 0.9951559713 -3.0163534282 -3.6990401960
F 2.6013111296 -1.8448958314 -2.8351730002
F 2.0280371188 -3.7391855355 -1.9263482235
C 2.2998989680 -0.6198580117 -0.4141678023
N 2.8489687990 0.4116288920 -0.9066801228
C 4.2717522785 0.4920292691 -0.5566341092
C 4.5535443255 -0.3452057525 0.7025984082
S 3.2722651749 -1.6709101553 0.6690598677
H -0.4878300273 2.3342397810 3.1912065351
H 0.9993659384 2.8841656778 2.3933588788
H -0.5132049289 3.7792839784 2.1607861095
H -1.4972365441 1.8312828452 0.9794948057
H 1.1982633711 2.6973360780 -0.1774686488
H -0.3508292918 3.5411801258 -0.3761003440
H -0.1068609712 1.9460041191 -1.1092463219
H -0.2027053531 0.0986107976 2.2089510242
H 1.2709281588 0.5992713316 1.3805907573
H -5.1914112675 1.3326752288 0.1104176232
H -5.1394769404 -0.0378896844 1.2714934113
H -4.2487052458 1.4745405741 1.6330630348
H -2.9734802421 -3.3992797314 -1.8513855024
H 4.8410971338 0.1115389901 -1.4166160556
H 4.5609504806 1.5355897675 -0.3995645094
H 4.4201382511 0.2333988514 1.6205319926
H 5.5480690234 -0.7945066196 0.6906654317
