44
CONF18
C 9.2001013382 -0.1470887534 1.5458909640
C 8.1831607640 -0.6387968596 2.3583901810
C 6.8811786340 -0.5506510230 1.9023036317
C 6.5354688638 0.0166864183 0.6749089621
C 7.5966574630 0.5027476225 -0.0930981601
C 8.9167836272 0.4254693363 0.3089869500
F 7.3194937905 1.0417293701 -1.2953549276
C 5.1221688118 0.1898344244 0.2187303099
O 4.7047466843 1.2824343619 -0.1521620888
N 4.3653132368 -0.9539989884 0.2476436211
C 2.9888448506 -1.1260269074 -0.0469995475
O 2.4765016143 -2.2216573218 0.1293049918
N 2.3525163416 -0.0215243231 -0.5157449640
C 0.9746778951 -0.0221368924 -0.8179733806
C 0.4401693311 -0.8971416553 -1.7633725732
C -0.9069495756 -0.9155930186 -2.0787293131
C -1.7334060218 0.0049656563 -1.4494214061
C -1.2387835339 0.9256363708 -0.5316414031
C 0.1119985443 0.8939300827 -0.2134084849
O -3.0635012338 0.0324483693 -1.8469880959
C -4.0401429922 -0.0505888501 -0.8971411932
C -5.3024750983 0.4610368332 -1.2257603701
C -6.3585132875 0.3683974949 -0.3346279351
C -6.1558149287 -0.2406491931 0.9023088794
C -4.9065834692 -0.7552241262 1.2400914131
C -3.8542286452 -0.6641380261 0.3406692611
C -7.2860416414 -0.2827664740 1.8831049798
F -7.3951324801 0.8828669283 2.5822206727
F -7.1369265874 -1.2670510690 2.7989531223
F -8.4838042750 -0.4753205789 1.2783820725
Cl -5.5462504504 1.2180720804 -2.7803744614
F 1.2610145356 -1.7412566222 -2.4166558133
F 5.8873960897 -1.0098803402 2.6951468452
H 10.2292890202 -0.2107747955 1.8814794042
H 8.3850628827 -1.0786690599 3.3279710554
H 9.6982462208 0.8048678801 -0.3388970727
H -1.2953411604 -1.6143615398 -2.8104426294
H -1.9013579418 1.6464315917 -0.0656676606
H 0.5172154150 1.5909883739 0.5127749157
H -7.3268106817 0.7730505071 -0.6061946920
H -4.7495517939 -1.2373501117 2.1978364446
H -2.8834690511 -1.0755897507 0.5927710519
H 2.8710064004 0.8545872768 -0.5081905859
H 4.8053555849 -1.8099304997 0.5589133375
