27
CONF7
C -4.8811414592 0.7381368128 -0.6049075444
C -4.5305382374 -0.0742523200 0.4697948545
C -3.1937811982 -0.3474329459 0.7281433022
C -2.1902564592 0.1889754768 -0.0870609454
C -2.5451370491 1.0080050614 -1.1698263950
C -3.8822650964 1.2750793884 -1.4191980081
N -0.8669159329 -0.1508690001 0.2645510820
N 0.0270841470 0.3395338807 -0.4983080919
C 1.3427703560 0.0541847761 -0.2184854888
C 1.8635547257 -0.7506707304 0.8557873570
N 3.1786021188 -0.9618401929 1.0173433919
C 4.0350649740 -0.4004336436 0.1630747584
C 3.6333051458 0.4107560805 -0.9234027911
C 2.2880162990 0.6192487065 -1.0921469014
N 5.3644757120 -0.6157541050 0.4121285718
N 1.0394393047 -1.3315031578 1.7466080756
H -5.9248814167 0.9537092406 -0.8089176420
H -5.3007636544 -0.4955245714 1.1080869994
H -2.9026875927 -0.9786621095 1.5620522882
H -1.7643504279 1.4210245492 -1.7969190743
H -4.1542863979 1.9095475929 -2.2574453027
H 4.3666149065 0.8526748589 -1.5885757109
H 1.9086401256 1.2286129183 -1.9061753412
H 6.0211526098 -0.4614666642 -0.3330955773
H 5.5808650226 -1.3558513776 1.0599568123
H 1.4461404499 -1.8887897126 2.4786039695
H 0.0412783155 -1.1864388123 1.6277096381
