44
CONF147
C -5.2038975460 1.5190634576 -0.0899882035
C -3.9771301959 0.8150552201 -0.6553168783
C -3.5201005438 -0.4348716233 0.1855215547
N -2.0939107039 -0.5578219584 -0.0526355221
C -1.3906720562 0.5476782450 -0.7276607840
S -2.5116682823 1.9858110168 -0.5784538058
C -0.2215320752 0.3595242974 0.2871441118
C -1.0575970512 -0.8259700940 0.8287227825
O -0.9232579572 -1.6550237413 1.6972519498
N 1.1213785249 0.1442780778 -0.1661776703
C 1.4630271066 -0.9210922225 -0.9048184040
O 0.6235738132 -1.7715282046 -1.2514389302
C 2.9238707167 -1.0168850591 -1.3569517127
C 3.8894556912 -0.1756180268 -0.5611818682
C 4.5044376610 0.9364943475 -1.1362950072
C 5.3857370439 1.7173515152 -0.3903713886
C 5.6559499096 1.3909160099 0.9352017246
C 5.0416830587 0.2811855585 1.5158656723
C 4.1632754962 -0.4978847520 0.7720557719
C 3.4220727696 -2.4712974520 -1.5191414481
O 4.5987619767 -2.7514830601 -1.4449854153
O 2.5034992325 -3.3834958732 -1.8191230470
C -3.8085805299 -0.2449783706 1.6717645989
O -3.1004128915 0.3616561705 2.4430756028
O -4.9786358883 -0.8131512332 2.0034585188
C -4.2268205956 0.3732827182 -2.0980901935
H -5.4690125948 2.3639995106 -0.7312815792
H -6.0507577142 0.8257857212 -0.0770109289
H -5.0361438515 1.8929870539 0.9239174995
H -4.0773292939 -1.3060842577 -0.1752435895
H -1.1283208605 0.3358964531 -1.7675660457
H -0.2238586050 1.1587656555 1.0329157311
H 1.8373758323 0.8066595138 0.0986319750
H 2.8969728950 -0.6425428036 -2.3934738789
H 4.2937213367 1.1916374657 -2.1710613130
H 5.8604542306 2.5796515243 -0.8477691205
H 6.3422631418 1.9983546760 1.5167187983
H 5.2489363141 0.0225854368 2.5494787601
H 3.6865956094 -1.3628190604 1.2264753040
H 1.6009962235 -2.9446247714 -1.7371748003
H -5.1631459718 -0.6209474641 2.9400232492
H -3.3671615517 -0.1546929389 -2.5199280317
H -4.4433504529 1.2445464231 -2.7207972047
H -5.0907406672 -0.3003521224 -2.1258093368
