45
CONF4
C 2.7753441903 -3.8001289919 0.9527491548
C 2.3952726059 -2.3245727336 0.8542510781
C 2.9912041454 -1.6544264619 -0.3852031926
C 2.6101541086 -0.1838245854 -0.5272398733
N 1.1705105326 -0.0649986325 -0.7051004199
C 0.4719593666 1.0946080831 -0.6156182466
C -0.9428292161 1.0678761124 -0.7053008126
C -1.6808960687 2.2418042205 -0.6414292191
C -1.0747433101 3.4808553848 -0.4673169846
C 0.3157782516 3.5124100762 -0.3416722860
C 1.0770390596 2.3455163747 -0.4177054620
C 1.0423818484 4.7911211211 -0.1421765893
O 2.2491113577 4.8839429731 -0.0194311830
O 0.2199593658 5.8607064625 -0.1090375968
S -3.4793081577 2.1556388431 -0.7355205535
O -3.9536579828 1.2241267637 0.2978557460
O -3.9744394969 3.5388011461 -0.7647640775
N -3.8935753022 1.4735550480 -2.2128991588
O -1.5804146394 -0.1295988551 -0.9485469753
C -1.5562516807 -1.0935571301 0.0634288466
C -1.7339443433 -2.4101973312 -0.3455563004
C -1.7291097164 -3.4184038809 0.6138007490
C -1.5438607884 -3.1108833592 1.9605171267
C -1.3717521945 -1.7835297008 2.3466427036
C -1.3803076414 -0.7612124003 1.4010229104
H 2.4090731033 -4.3547061417 0.0815483563
H 3.8630524294 -3.9247830807 0.9957727981
H 2.3469591567 -4.2612563006 1.8481385551
H 2.7387882797 -1.7884291180 1.7488123774
H 1.3021158329 -2.2314031151 0.8394430474
H 2.6775394903 -2.1970491445 -1.2885430273
H 4.0851608005 -1.7183928731 -0.3488611608
H 3.1516395162 0.2693506351 -1.3721038511
H 2.9034505027 0.3614826482 0.3806145233
H 0.6819095424 -0.8814932289 -1.0371211169
H -1.6722846921 4.3803403998 -0.4194522205
H 2.1549127008 2.4237195426 -0.3471398073
H 0.7675464174 6.6519558252 0.0256337066
H -3.5243645651 0.5267773275 -2.2876973898
H -3.5580098911 2.0491507837 -2.9834728441
H -1.8673064230 -2.6309723363 -1.3995499194
H -1.8650722861 -4.4493253938 0.3026514269
H -1.5347702861 -3.9005950838 2.7042196262
H -1.2315274650 -1.5341167816 3.3936906423
H -1.2524361350 0.2741171014 1.6985278780
