46
CONF2
C 2.4416919081 -0.2175313377 -3.5276762895
C 1.9110397739 0.6782426391 -2.4414094696
C 1.8983143020 0.2275794906 -1.1155175704
C 1.3852699338 1.0316385644 -0.1014765974
C 0.8918882015 2.3223448593 -0.3713983398
C 0.9149607166 2.7517177700 -1.6939436928
C 1.4088731887 1.9466796262 -2.7218639470
C 0.3812316519 3.1888421673 0.7419527393
O 1.3134034067 0.6548533036 1.2148161764
C 1.6501347632 -0.6878480489 1.5659444894
C 0.7643498254 -1.7671851206 0.9822682189
C 1.3486354557 -3.0226857321 0.7918205757
C 0.6215651041 -4.0949245354 0.2902477544
C -0.7147324371 -3.9180464725 -0.0584506293
C -1.3044487275 -2.6722743801 0.1061225526
C -0.5866535911 -1.5942327439 0.6410861197
C -1.3282001816 -0.3245482907 0.8183067317
N -1.5709668265 0.2538039952 1.9399756202
O -1.0214244138 -0.3986440837 3.0228556382
C -1.3116602598 0.3416158816 4.2245375649
C -1.9102911195 0.3393786346 -0.4098115249
O -1.7286085360 -0.1439769103 -1.5317227762
N -2.6145721087 1.4676341436 -0.2033335049
C -3.1171074156 2.2558224047 -1.3169491219
H 2.4400753311 0.2917006512 -4.4943438101
H 1.8315217246 -1.1234222841 -3.6174119757
H 3.4656219551 -0.5389866110 -3.3086020498
H 2.2744468675 -0.7655657238 -0.8970051441
H 0.5334673199 3.7430766007 -1.9251903366
H 1.4028186856 2.3112582999 -3.7449254786
H -0.3917218504 2.6746391352 1.3225085900
H -0.0363133759 4.1163366807 0.3427667920
H 1.1836022971 3.4441137483 1.4440744453
H 1.5692925685 -0.7044483233 2.6577465473
H 2.6951311404 -0.8958931471 1.2998345871
H 2.3996949101 -3.1538426181 1.0363920356
H 1.1010379920 -5.0596133729 0.1576137505
H -1.2928386835 -4.7419600286 -0.4640339126
H -2.3434379970 -2.5240045154 -0.1693902800
H -0.8624840427 1.3385265898 4.1755433872
H -0.8587409269 -0.2363703149 5.0315274676
H -2.3928802168 0.4181554376 4.3751713302
H -2.6961798126 1.8195073319 0.7382949843
H -3.5984369121 3.1506585035 -0.9196090365
H -3.8473485283 1.6881349875 -1.9034634482
H -2.2990209437 2.5526856597 -1.9838792736
