40
CONF7
C 4.0942532236 0.0752239290 0.9105809848
O 3.9062486322 -1.0805772527 1.7620569004
C 2.7629074658 -1.7624751877 1.6444806324
C 2.5749106239 -2.8659334042 2.4661260497
C 1.3642285579 -3.5368440421 2.3030634913
N 0.4294212120 -3.1637031835 1.4224595738
C 0.7300683658 -2.0891921057 0.6920139750
N 1.8483222491 -1.3639826476 0.7491392632
N -0.2612910764 -1.7145991669 -0.2111100167
C -0.3298542832 -0.6512333124 -1.0977819311
O -1.3535271297 -0.4189769852 -1.7282621927
N 0.8242643533 0.0991042146 -1.2203392897
S 0.7885860925 1.6194491835 -1.9737080728
O 2.0517501041 2.2309014141 -1.5513555217
O 0.4966900094 1.4500085118 -3.3989112445
C -0.5502709014 2.4596439382 -1.2277806333
C -0.6806652255 2.8714106759 0.0970691292
N -1.8605892861 3.4356070486 0.3543462350
C -2.5329529411 3.3868418860 -0.8131958400
N -1.7709800470 2.7801383257 -1.8192444469
C -2.2583987482 2.5954383682 -3.0845992086
C -3.5225497933 3.0321519294 -3.3689576239
C -4.3121375794 3.6611136849 -2.3845374724
C -3.8222507648 3.8395330371 -1.1121457072
Cl 0.5042718051 2.6622119075 1.3303729092
O 1.1487871663 -4.6046739692 3.0791388918
C -0.1055849556 -5.3108461311 2.9231177774
H 5.0750426247 0.4648700927 1.1801105368
H 3.3214510759 0.8241568187 1.1053983171
H 4.0785839918 -0.2175469604 -0.1428327279
H 3.3186398764 -3.1825799820 3.1846757802
H -1.1026193311 -2.2764780769 -0.1819941120
H 1.5684924112 -0.0762474663 -0.5235567395
H -1.6065047074 2.1088302203 -3.7945888664
H -3.9042125700 2.8827393619 -4.3714684160
H -5.3103823041 4.0024064655 -2.6341818930
H -4.3982363826 4.3137251538 -0.3264764626
H -0.1992953311 -5.7041991214 1.9081494628
H -0.0578859820 -6.1251262920 3.6451909061
H -0.9467294906 -4.6502904036 3.1462427070
