25
CONF2
C -0.0864896215 -1.2447153811 0.8080741499
C 1.1985754941 -0.7130593088 0.2098499399
C 1.4575590157 -0.8706107796 -1.1558432101
C 2.6206035482 -0.3588055711 -1.7229939332
C 3.5443844872 0.3237546426 -0.9315183169
C 3.2958978442 0.4859676283 0.4288940792
C 2.1304773253 -0.0299311531 0.9944568573
C -1.2766300072 -0.3962282223 0.4147648366
C -1.4723252039 0.8578396667 1.0027886809
C -2.5432284411 1.6617545791 0.6241012442
C -3.4359452174 1.2242685012 -0.3542129239
C -3.2501234876 -0.0226500896 -0.9453169409
C -2.1775531804 -0.8267188547 -0.5617994762
H 0.0062226456 -1.2647326129 1.8989230953
H -0.2502519904 -2.2732200731 0.4696485763
H 0.7398827078 -1.4002710543 -1.7775383921
H 2.8086669473 -0.4941395835 -2.7840003170
H 4.4523303111 0.7227066868 -1.3731614005
H 4.0109432242 1.0124368893 1.0541555436
H 1.9424160759 0.0959204776 2.0574573519
H -0.7781454896 1.2042649084 1.7644959249
H -2.6835504890 2.6306825987 1.0940865945
H -4.2720497578 1.8505417301 -0.6496223071
H -3.9424892045 -0.3739779127 -1.7046154250
H -2.0391774197 -1.8010776061 -1.0229371210
