45
CONF163
O 2.8062843527 0.1614213988 -3.2316498545
C 1.9994699260 -1.0139616037 -3.2805620864
C 1.6276659101 -1.5339515304 -1.9048480549
O 2.8313685536 -1.9868469500 -1.2214733432
C 3.0781622592 -1.1889728453 -0.0851859939
O 3.9021421385 -0.0831520609 -0.4659678449
C 3.8490280338 -2.0348994371 0.9201241828
O 3.1395696785 -3.2049029486 1.3121644598
C 1.6945728438 -0.7040105343 0.3629695654
O 1.8642539119 0.4500965636 1.1641255015
C 0.9803440809 -0.4947016635 -0.9815671426
O -0.4314944525 -0.7426932377 -0.9600705802
C -1.2025091013 0.3507264951 -0.5718011501
O -1.0249329761 0.5477094649 0.8328119350
C -1.7573195766 1.6877774070 1.3135887285
C -1.3586566172 1.8768634473 2.7653088706
O 0.0490340635 2.1108642222 2.8911748980
C -3.2566399776 1.4825567291 1.1222965239
O -3.6901389525 0.4186438381 1.9693125178
C -3.5358717820 1.1731959997 -0.3480385433
O -4.9249944909 0.8596798658 -0.4585220676
C -2.6670692636 0.0260603919 -0.8504363333
O -2.9221942894 -0.0976049778 -2.2495170808
H 3.4496107162 0.0469086634 -2.5115004308
H 1.0805412177 -0.7567370107 -3.8204111601
H 2.5078393123 -1.8193062757 -3.8315449849
H 0.9603535624 -2.3976358577 -2.0133180133
H 3.5724397886 0.6969527198 0.0101938204
H 4.0164500224 -1.4393240391 1.8224150824
H 4.8246471386 -2.2784429405 0.4745490661
H 2.9813667009 -3.7226592886 0.5111360113
H 1.1983358941 -1.5172898955 0.9110046017
H 0.9891795978 0.7765241750 1.4431381124
H 1.1700213525 0.5262637374 -1.3402175139
H -0.8925715210 1.2647235395 -1.1133301297
H -1.4619909814 2.5807451841 0.7358817272
H -1.9425344722 2.7006505207 3.1965345838
H -1.5692486183 0.9641830821 3.3279487574
H 0.2373924755 2.9902806446 2.5375284968
H -3.7723356032 2.4196154076 1.3868583497
H -4.5755579253 0.1701377958 1.6683292468
H -3.2984483712 2.0715869386 -0.9416879880
H -5.0691918855 0.4918529304 -1.3412823647
H -2.9232974494 -0.9002762374 -0.3166735724
H -2.5330749279 -0.9286517063 -2.5506549169
