30
CONF9
O 5.3397589511 0.8228211433 -0.9665432953
S 5.1096356186 0.0943359562 0.4551640428
O 6.0873061373 -0.9816889433 0.5144305794
O 4.9390131217 1.0687721802 1.5266911704
C 3.4313550159 -0.7991483518 0.1679943942
F 3.4574576311 -1.3274348305 -1.0663882977
F 3.3861424533 -1.7822674900 1.0788776210
C 2.1989767088 0.1431552490 0.3316079583
F 2.0421690956 0.4119433969 1.6447998452
F 2.4534660271 1.2934506768 -0.3344533298
C 0.8682854914 -0.4767410492 -0.2286433311
F 0.8216974571 -1.7809680552 0.1217469584
F 0.8852558534 -0.3796642013 -1.5761763958
C -0.4179660975 0.2395713776 0.3179557475
F -0.6378058108 -0.1793919698 1.5838430652
F -0.2005572587 1.5736120210 0.3215555965
C -1.6982661723 -0.0575778012 -0.5423659903
F -1.6983441391 -1.3645590055 -0.8869660479
F -1.6501237928 0.6973520864 -1.6622348920
C -3.0341702019 0.2571738265 0.2203202420
F -3.2799992835 -0.7440283676 1.0945153128
F -2.8856398641 1.4140023449 0.9050795284
C -4.2666065177 0.4070002398 -0.7365371665
F -4.2169777594 1.6218194713 -1.3222752659
F -4.2138727655 -0.5494201637 -1.6918783731
C -5.6481101156 0.2818865636 -0.0121075592
F -5.8892064043 -0.9841736630 0.3429302897
F -5.6717269194 1.0582842526 1.0803791189
F -6.6126605447 0.6828644535 -0.8500036289
H 5.0158405859 1.7452669119 -0.9417981792
