37
CONF5
C -4.2630653601 -0.5148780562 -0.5177964386
Si -2.4107486516 -0.7186679149 -0.3513950598
C -1.9695005062 -1.3560200353 1.3576606687
C -1.7470790030 -1.8804290734 -1.6623240441
O -1.7449322554 0.7846816990 -0.5630124445
Si -0.2550548952 1.4575422021 -0.4174894255
C 0.0959074699 2.4576913716 -1.9489536336
C -0.2151957014 2.5059130141 1.1279267626
O 0.8410824931 0.2361414615 -0.3135529235
Si 2.2425053038 -0.3078806481 0.3680575354
C 3.6816110192 0.6438680890 -0.3646448493
C 2.1941328054 -0.0661855761 2.2274384621
C 2.3725937033 -2.1277841370 -0.0475753859
H -4.6515497282 0.1679819160 0.2451632522
H -4.5219775408 -0.1024120205 -1.4987240643
H -4.7818463184 -1.4733299420 -0.4083642153
H -0.8862985175 -1.4888576133 1.4534894458
H -2.2936421465 -0.6540601765 2.1340003156
H -2.4445972372 -2.3221784594 1.5606669090
H -2.1734064957 -2.8846552232 -1.5607445911
H -1.9854157838 -1.5148387900 -2.6671067615
H -0.6577454657 -1.9634579777 -1.5836776974
H -0.6533152157 3.2436019920 -2.0895583692
H 1.0811343554 2.9333254636 -1.8955822840
H 0.0797116612 1.8138661276 -2.8345592322
H -0.9944756609 3.2743304951 1.0882801373
H 0.7480482520 3.0122851607 1.2540519489
H -0.3952206257 1.8926078417 2.0174003392
H 4.6399745862 0.2875659944 0.0288070141
H 3.7052327120 0.5370703183 -1.4545234061
H 3.6058158836 1.7127307722 -0.1349059520
H 1.3215355920 -0.5569145121 2.6722685410
H 2.1531086799 0.9952191054 2.4936742993
H 3.0892489813 -0.4911491351 2.6956419361
H 3.2918283819 -2.5655222638 0.3564809341
H 1.5256472147 -2.6866208681 0.3656261242
H 2.3759474214 -2.2805803052 -1.1321437576
