45
CONF94
C -7.5704867300 0.6265864512 0.5967736058
C -8.9147233758 -0.0804690890 0.3833136406
O -9.9977097524 0.7829033430 0.7153189517
C -6.4046094477 -0.2341682250 0.1663008783
C -5.0207606519 0.4330347236 0.4334423025
C -3.7952285854 -0.2717294399 -0.2439762860
C -2.4196421109 0.1291093109 0.3987748517
C -1.1910503001 -0.1927627191 -0.5254444295
C 0.1699218580 -0.2327747790 0.2583231881
C 1.4207028555 -0.0913121763 -0.6818808971
C 2.7516639105 -0.5809491169 -0.0055315642
C 4.0370658835 -0.0241224153 -0.7176983227
C 5.3295386327 -0.8389595616 -0.3827430396
C 6.7045509044 -0.1387931565 -0.6886761230
C 6.9487477632 0.3794947224 -2.1388180852
F 8.2263236393 0.7661385356 -2.2452409963
F 6.7127344054 -0.5888031699 -3.0328917132
F 6.1622927736 1.4289063750 -2.4090673902
F 7.6549872791 -1.0692726629 -0.4337021597
F 6.8734504168 0.8969901711 0.1593916349
F 5.2981409940 -2.0043870870 -1.0618900199
F 5.3372983752 -1.1028661947 0.9466377852
F 3.8501578168 -0.0698490476 -2.0586208565
F 4.2136902011 1.2587977402 -0.3347110379
F 2.7649458055 -0.1669253007 1.2809418768
F 2.7804935978 -1.9309757138 -0.0393469275
F 1.2130777059 -0.8235375820 -1.7986111726
F 1.5590378665 1.2099571675 -1.0206806463
F 0.1897654001 0.7820340580 1.1509522382
F 0.2541908016 -1.4097321291 0.9175891690
F -1.1093035041 0.7588819699 -1.4824090298
F -1.3837782387 -1.3964104911 -1.1084180291
F -2.2739993953 -0.5461381918 1.5617349389
F -2.4249159666 1.4569147985 0.6536589499
F -3.7742377392 0.0723938761 -1.5529125371
F -3.9370991273 -1.6107054050 -0.1418180834
F -5.0718429730 1.7114047822 -0.0191160630
F -4.8269947667 0.4615214506 1.7787358395
F -6.4290161024 -1.4286211568 0.8334881311
F -6.4791330571 -0.5124472565 -1.1733759577
H -7.4332678711 0.8757584991 1.6554065992
H -7.5554965214 1.5573242843 0.0240817376
H -9.0411457501 -0.3274692570 -0.6740570822
H -8.9544191655 -1.0156053009 0.9569601787
H -10.0210307828 0.8884743399 1.6726463324
