50
CONF1
C 1.9548825757 -2.4851284673 -0.8299350516
C 2.1391377235 -0.9872660948 -0.8233914024
C 1.3613561568 -0.2053903669 -1.6794890618
C 1.6412290157 1.1668858977 -1.8224810620
C 2.6777357005 1.7714001779 -1.1564460109
C 3.4663352780 1.0261656054 -0.2562017084
C 3.1483340170 -0.3513752719 -0.0401746962
C 3.9084847198 -0.9569796276 1.0340623815
N 4.9473820998 -0.3438572061 1.5906988333
C 5.2284276171 0.9175722020 1.1846384700
N 4.5063278253 1.6595541741 0.3566473864
N 6.3785027501 1.4581029465 1.6944203056
N 3.6017798425 -2.1721902986 1.5570897054
C 0.2248794216 -0.7875382000 -2.5026794961
N -0.7837922898 -1.4962740548 -1.7268654360
C -1.7593928754 -0.8472919445 -0.9946831979
C -1.6641301864 0.5218332718 -0.7040714298
C -2.6524642516 1.1327918597 0.0723711849
C -3.7369696984 0.4008497680 0.5691015444
C -3.8285177781 -0.9659288115 0.2583092774
C -2.8506095743 -1.5927947612 -0.5103719079
O -4.9244815164 -1.5998797000 0.7648699115
C -5.0680765966 -2.9963249519 0.4844812969
O -4.6847493893 1.0020192891 1.3713413418
C -5.7875767126 1.5442291032 0.6204458084
O -2.6378589092 2.4556087374 0.4039973117
C -1.5267464850 3.2377936175 -0.0490563208
H 2.9030247934 -3.0016923017 -0.6704086744
H 1.2361212020 -2.8254385450 -0.0741746679
H 1.5604885760 -2.8120676668 -1.7931590455
H 1.0286752316 1.7554764277 -2.5022136574
H 6.4736248868 2.4592309377 1.6267114664
H 6.7512913215 1.0298983203 2.5269344995
H 2.6801098799 -2.5545249389 1.4390903905
H 4.0731442474 -2.4072144220 2.4179948427
H -0.2315129634 0.0309513895 -3.0804191331
H 0.6198117358 -1.4997995639 -3.2364328423
H -1.0408701260 -2.4054144019 -2.0760969443
H -0.8239503088 1.0947616118 -1.0651988466
H -2.9155603616 -2.6478822805 -0.7474544129
H -5.1448835607 -3.1769115186 -0.5943508149
H -5.9940947579 -3.3009024271 0.9733908295
H -4.2291779376 -3.5701387838 0.8959715234
H -6.3072308187 0.7501791034 0.0705826049
H -6.4692114305 1.9957357009 1.3449262557
H -5.4366449525 2.3096873746 -0.0823014066
H -1.7021139293 4.2449657960 0.3305238382
H -0.5818996702 2.8518979344 0.3527081922
H -1.4785647643 3.2609685378 -1.1444535495
H 2.9141173713 2.8197810453 -1.3062129451
