44
CONF38
C -4.6463015707 -0.1358744928 2.9662479287
C -3.5640097647 -0.3345066866 1.9350828563
C -4.0050891744 -0.9762142634 0.6316768649
O -3.0548644505 -0.4662219354 -0.3197824127
C -2.5236367689 0.7551179560 0.1928974578
O -3.1112553998 0.9577910165 1.4641733159
C -2.9374912771 1.9114500858 -0.7412966420
N -4.3796516786 2.0149313433 -0.8471023461
C -5.2371884552 2.6097720854 0.0075616622
N -6.4900356812 2.4017061059 -0.3777671013
C -6.3336414121 1.6445253562 -1.5012515708
N -5.0746795140 1.3804821877 -1.8254850313
C -0.9990868152 0.6509537802 0.2650854080
C -0.1840212396 1.5831606568 0.9189894859
C 1.1982873463 1.4593841694 0.9580191843
C 1.8006818501 0.3872024937 0.3082622680
C 1.0313516714 -0.5523285376 -0.3709540450
C -0.3486871506 -0.4057957956 -0.3794101497
O 3.1762628681 0.3663315581 0.3297707412
C 3.8335252906 -0.8498145185 0.2273662499
C 4.8907085400 -0.9293984864 -0.6705518735
C 5.6379147116 -2.1005950507 -0.7491418872
C 5.3017775855 -3.1705492329 0.0708658424
C 4.2454959895 -3.0958909763 0.9728305029
C 3.5076235055 -1.9208090588 1.0548488672
Cl 6.2386376154 -4.6570677357 -0.0294082008
Cl -0.8501755615 2.9824948795 1.7602318799
H -4.2551772593 0.3938823965 3.8386496062
H -5.4754509219 0.4375284205 2.5401695079
H -5.0221786844 -1.1092816644 3.2954718121
H -2.7066864123 -0.8813106948 2.3561657688
H -3.9365245812 -2.0668939963 0.6359176258
H -5.0229567680 -0.6612991502 0.3597316927
H -2.5431089592 2.8573713699 -0.3645820430
H -2.5285156933 1.7218161040 -1.7359363698
H -4.9061681250 3.1745762835 0.8685347637
H -7.1617778823 1.2855977521 -2.0993574884
H 1.8094012874 2.1846111060 1.4820936749
H 1.4966530291 -1.3823167843 -0.8899664686
H -0.9528876843 -1.1347593085 -0.9048705449
H 5.1277752202 -0.0785096860 -1.2998585131
H 6.4657574762 -2.1764430774 -1.4446540325
H 4.0053352265 -3.9378287486 1.6118727922
H 2.6874054765 -1.8397381827 1.7602440149
