45
CONF71
C 6.1873418313 -3.2747685605 0.5103721300
C 5.0423160261 -2.9807554652 1.1466084335
C 4.1695226282 -1.8540350378 0.8559116053
C 3.0204264226 -1.6540156782 1.5655471729
N 2.0963156011 -0.6922320263 1.1867441152
C 2.1173283665 0.1132633366 -0.0318892621
C 1.1686160126 1.1283176500 0.6794461929
C 1.2112469253 0.1362437768 1.8700405654
O 0.7559247102 0.0997000734 2.9871870124
N -0.0851514013 1.4701377530 0.0903341751
C -1.0430038188 0.5359817322 -0.1029024915
O -0.8769248786 -0.6444411283 0.2059266800
C -2.3436169894 1.0189037855 -0.7369896844
N -3.0085954296 0.0095381852 -1.2024384199
O -4.1982122324 0.3566979602 -1.8092070526
C -4.8324526987 -0.8208805607 -2.2950752107
C -5.4674540761 -1.6163855254 -1.1711866348
O -5.5204205434 -1.2751080865 -0.0125662900
O -5.9849962123 -2.7571372233 -1.6568768479
C -2.7500140046 2.4302325961 -0.7795906076
C -4.0382628626 2.8943035728 -0.8694973450
S -4.0637276235 4.6287130727 -0.8173692902
C -2.2981515283 4.6174207689 -0.6972115671
N -1.7793502272 3.4184799571 -0.6898898547
N -1.5913841764 5.7664363887 -0.5658662562
S 3.8163964450 0.6901638800 -0.3689456376
C 4.5296607863 -1.0043019667 -0.3377416402
C 2.6325755441 -2.4734669174 2.7533229158
O 3.3744798473 -2.7593489054 3.6697380739
O 1.3493537371 -2.8667602717 2.6739803165
H 6.6012728163 -2.6705786474 -0.2898056868
H 6.7468687256 -4.1602549856 0.7922240010
H 4.7141236263 -3.6516283205 1.9339494780
H 1.6923229611 -0.4065766209 -0.8953109903
H 1.6976164502 2.0480009580 0.9487888424
H -0.3002893788 2.4377046949 -0.1620278128
H -5.6198925115 -0.4819028045 -2.9759169684
H -4.1309945932 -1.4510819601 -2.8526640291
H -6.4124878419 -3.2421649224 -0.9296516154
H -4.9609275582 2.3420228749 -0.9395154288
H -2.0216295077 6.6288940721 -0.8624567402
H -0.5985074023 5.6980785916 -0.7390106412
H 4.2614275459 -1.5265528186 -1.2641079870
H 5.6109976910 -0.8447593128 -0.3576870316
H 1.1303142997 -3.3600973367 3.4841380222
