41
CONF83
C 4.6110809686 -1.6137887505 1.5169870535
C 5.2066634499 -0.6376309131 2.5097299646
O 4.1931376639 0.2708753883 3.0238258368
C 3.9003583427 1.3419761100 2.2393134293
O 4.4810930400 1.6192969388 1.1983414717
N 2.9029056204 2.0777390655 2.7926491852
C 2.2882223593 3.1726783703 2.0584268111
C 1.2969714216 2.7065579365 1.0082721106
O 0.2178915925 2.0625049815 1.7031700280
C -0.7831673207 1.5105982048 0.9574374977
C -0.8444662857 1.5578164495 -0.4387522855
C -1.9201109224 0.9686541446 -1.1000615073
C -2.9177427888 0.3338355344 -0.3738027015
C -2.8625996629 0.2823198993 1.0147557878
C -1.7978595234 0.8737766760 1.6798285294
O -4.0343011756 -0.1963247678 -1.0152540523
C -3.8583280487 -1.2790785557 -1.8519981154
C -4.9038056946 -1.5437637633 -2.7368002070
C -4.8200385095 -2.6428673520 -3.5837441846
C -3.7010119644 -3.4748273215 -3.5572292803
C -2.6660727775 -3.1984854128 -2.6676198945
C -2.7343748285 -2.1031448043 -1.8089012262
H 3.7953601680 -2.1810447900 1.9745291140
H 5.3832869453 -2.3194886478 1.1944792871
H 4.2314757870 -1.0919015049 0.6346150489
H 6.0181633975 -0.0531596869 2.0684202577
H 5.5767796688 -1.1512335465 3.3999521857
H 2.3961126250 1.6725473559 3.5647068849
H 3.0711905158 3.7536465732 1.5624755895
H 1.7849792969 3.8254397114 2.7780742879
H 0.9208345517 3.5689585474 0.4410129662
H 1.7738901399 1.9996322185 0.3167126726
H -0.0767563570 2.0525675978 -1.0205230145
H -1.9800179147 1.0043849275 -2.1833608852
H -3.6527969116 -0.2166898559 1.5661041234
H -1.7375496366 0.8476073926 2.7629110372
H -5.7677473510 -0.8872203269 -2.7487994229
H -5.6344748209 -2.8464468813 -4.2722411726
H -3.6376243092 -4.3295178214 -4.2224020516
H -1.7920338677 -3.8417732488 -2.6329548717
H -1.9275158677 -1.8950259877 -1.1151277731
