47
CONF41
C 5.2885755227 -1.0879913468 -1.6488653458
C 3.9986780417 -0.7412878438 -0.9681823420
C 3.1545204967 -1.7664095662 -0.4486388606
C 3.5547127163 -3.2022539171 -0.5879067743
C 1.9583646026 -1.4491239578 0.1770112133
C 1.5494430826 -0.1185085203 0.3248455597
N 0.3752976929 0.2524833174 0.9620022377
C -0.5027072659 -0.7665708819 1.5820314292
C -1.5867872001 -1.3284587579 0.6553831561
O -0.9447110265 -1.8600964174 -0.4981378943
C -2.6950767321 -0.3189559246 0.2897590606
O -3.2827473648 0.2071125042 1.4725052067
C -3.8313476539 -0.9915928975 -0.4989876152
O -3.3345195375 -1.5373973191 -1.7378736650
C -4.9870107043 -0.0443221340 -0.7959760265
O -4.5759041509 1.0002134922 -1.6910861689
C 0.0428854812 1.5782775110 1.0903454222
N -1.0757398184 1.9039889959 1.7164090996
C -1.4234392725 3.2203885218 1.8461557324
O -2.4638313205 3.5749964391 2.3945561468
N -0.5590301353 4.1982516520 1.3278217894
C 0.6246544314 3.9779720228 0.6651227679
O 1.3185406600 4.8878821179 0.2352808439
C 0.9618534094 2.5370922852 0.5320726592
N 2.0731757999 2.2213937387 -0.0756561836
C 2.3907101794 0.9106690259 -0.1889908145
C 3.5991847108 0.5672998427 -0.8303594149
H 5.9503799498 -1.6462721492 -0.9775817849
H 5.8083170802 -0.1857500076 -1.9761365478
H 5.1132515384 -1.7242014796 -2.5236016373
H 3.6830731596 -3.4687962142 -1.6432488603
H 2.8089423932 -3.8662771988 -0.1482647613
H 4.5189216118 -3.3852474463 -0.0998975098
H 1.3336496045 -2.2597130065 0.5215078480
H 0.1327811775 -1.5828898850 1.9248443444
H -0.9632935824 -0.3194515785 2.4630460179
H -2.0682520221 -2.1302011965 1.2443282974
H -1.6435839355 -1.9640134918 -1.1721803078
H -2.2572321769 0.4809217032 -0.3324339469
H -2.6439753139 0.8761657098 1.8007487993
H -4.2107265760 -1.8402534226 0.0847941442
H -3.2582238814 -0.7865445304 -2.3484709044
H -5.3974938600 0.3608675165 0.1340776178
H -5.7692002683 -0.6045510180 -1.3178055898
H -4.1229888776 1.6773021206 -1.1728049851
H -0.8502179306 5.1617455367 1.4477489419
H 4.2081278206 1.3821084688 -1.2093097120
