42
CONF117
C 3.3065480322 0.6033366568 0.1279219156
C 1.8351661141 0.2999477522 0.3776460637
C 1.6428589110 -0.5005111916 1.6880219055
C 0.2744271005 -1.1076968165 1.7953477981
C -0.0918302367 -2.2279429310 1.0316442171
C -1.3569580329 -2.7973340123 1.0455034753
C -2.3139570029 -2.2216612203 1.8682776404
C -2.0272594582 -1.1275338808 2.6690204169
C -0.7417032699 -0.5983149586 2.6167675642
Cl -0.4242108238 0.7747357575 3.6621945821
Cl -3.9311784429 -2.8918990336 1.8875750411
Cl 1.0928375366 -2.9771876300 -0.0281689064
N 1.0367799213 1.5372148686 0.3735357271
C -0.2992966048 1.6463927954 0.0594527002
O -1.0185712115 2.5362943165 0.5131442054
C -0.8279265320 0.6674941648 -0.9172221903
C -2.0658097221 0.0543012708 -0.7866841488
N -2.2286169855 -0.7343598228 -1.8675732271
N -1.1973449605 -0.6645836922 -2.7211147470
C -0.3375507925 0.1870556837 -2.1528910097
C 0.9121191162 0.5710030454 -2.8642954934
F 0.6441025460 0.8953281889 -4.1762357710
F 1.7962700103 -0.4981438062 -2.9170339404
C -3.3393618115 -1.6401940555 -2.1318650661
O 1.4858751741 2.4578495378 1.3297340701
C 1.9266694949 3.6710090154 0.6821623937
H 3.4341732170 1.1814179312 -0.7913432435
H 3.7395417305 1.1628461719 0.9615815314
H 3.8505393365 -0.3390799325 0.0236759864
H 1.4545295332 -0.3033788863 -0.4463882473
H 2.3920981349 -1.2974461663 1.6955338393
H 1.8502168491 0.1497623697 2.5392022253
H -1.5885189834 -3.6557437430 0.4278250103
H -2.7794197518 -0.6925121635 3.3147941390
H -2.8072997731 0.1186413071 -0.0040419697
H 1.4315626726 1.4159638406 -2.4009694744
H -4.1339550922 -1.4266869599 -1.4162210843
H -3.0080191042 -2.6757982897 -2.0154108597
H -3.7024215342 -1.4812225936 -3.1492153951
H 2.7598556677 3.4683329024 0.0018440960
H 2.2566768287 4.3175830340 1.4980245164
H 1.0983619821 4.1427207679 0.1442960040
