40
CONF128
C -3.7780730170 -0.0615489089 2.9878462715
C -4.0315120096 0.1741020998 1.5172374134
O -2.8022907753 0.0481818127 0.7233589076
P -2.1692276129 -1.3677770825 0.3087034124
S -3.4198687409 -2.8256552087 -0.0204740928
O -1.1983721349 -0.9248358960 -0.8898614249
C -1.7631770839 -0.2853946028 -2.0941307248
C -0.8839300443 -0.6596790873 -3.2605252775
S -0.7726437458 -1.9555956626 1.7680486010
C 0.1613294817 -0.3419183190 2.0712708047
C 0.9693052724 -0.5814272095 3.3384080487
Cl 1.8416577115 0.9540391960 3.7941841386
N 0.9462567066 0.0681151576 0.9426348268
C 0.6397183160 1.2267185175 0.1944130600
O -0.1961700413 2.0496486686 0.5022180440
C 1.5406686195 1.1960516093 -0.9776086355
C 1.6574283515 2.0876048945 -2.0287480229
C 2.5905444532 1.7823204049 -3.0238549485
C 3.3721600662 0.6266722714 -2.9517461319
C 3.2500428601 -0.2652560717 -1.8819935530
C 2.3212986857 0.0432115830 -0.9042683586
C 1.9485408445 -0.6997932148 0.3219028660
O 2.3807860674 -1.7530589541 0.7441919655
H -2.9861987291 0.5965044006 3.3577786112
H -4.6969883861 0.1578844613 3.5406146019
H -3.4996967614 -1.1004887812 3.1842653668
H -4.3552615500 1.1985239057 1.3222778468
H -4.7730285155 -0.5212181698 1.1120727143
H -1.7716075277 0.7928264803 -1.9084283776
H -2.7907995963 -0.6363644147 -2.2361938093
H -0.9019815603 -1.7394653761 -3.4306699048
H 0.1484600667 -0.3419192794 -3.0884338786
H -1.2537397481 -0.1572074464 -4.1596402899
H -0.5874605427 0.4371396284 2.2416495315
H 0.3027959228 -0.8291543967 4.1654673683
H 1.7286291385 -1.3525810435 3.2087341524
H 1.0455245382 2.9817779663 -2.0824434263
H 2.7096941326 2.4522508696 -3.8688493359
H 4.0859933335 0.4181466306 -3.7417187939
H 3.8546288944 -1.1640365018 -1.8234271788
