44
CONF1
C -5.0029394458 0.9130705010 -1.0814825807
N -3.6133953416 0.4890822415 -0.9104826970
C -3.4533084166 -0.9733256044 -1.0419780795
C -3.9899737538 -1.5643620525 0.2936046622
C -3.7627024972 -0.4220186076 1.3173621111
C -3.1239065151 0.7129275815 0.4649651510
C -1.5938559737 0.6056646766 0.4331395538
C -1.1849886262 -0.7972571736 -0.0058515037
C -1.9572279571 -1.2565368367 -1.2336292429
O 0.2316746943 -0.8213365440 -0.3628411901
C 1.1099469944 -0.8994262965 0.6477879703
O 0.8021894745 -1.0063610379 1.8195316107
C 2.5385779897 -0.8251516799 0.1358156177
C 3.5259939484 -1.1535557134 1.2680428935
O 3.3224021018 -2.4483362293 1.8104229620
C 2.8216771406 0.5428357359 -0.4451490291
C 3.4523396918 0.6763718535 -1.6820172182
C 3.7543064867 1.9360123052 -2.1903189845
C 3.4263933955 3.0782074884 -1.4666925172
C 2.7964756682 2.9541468205 -0.2313326216
C 2.4981393754 1.6948908088 0.2770868692
H -5.7187373625 0.4359654865 -0.3880798232
H -5.0684744534 1.9969364640 -0.9406936170
H -5.3241956320 0.6899820976 -2.1042087415
H -4.0090384017 -1.3344177532 -1.9136010320
H -5.0519099282 -1.8095138446 0.2060682560
H -3.4711168089 -2.4880541226 0.5676035295
H -3.1141705385 -0.7196533258 2.1468192103
H -4.7090345340 -0.0907567722 1.7533879647
H -3.4149792470 1.7106563975 0.8095492842
H -1.1708846880 0.8218442420 1.4197014168
H -1.2018074602 1.3333940784 -0.2858729024
H -1.3205511684 -1.5007316072 0.8219227080
H -1.6045924766 -0.7046016687 -2.1109907876
H -1.7839881492 -2.3250613138 -1.4043549240
H 2.6412488365 -1.5786658529 -0.6537449925
H 4.5409967603 -1.1338656325 0.8589207241
H 3.4566668549 -0.3750028631 2.0419066482
H 2.4847688066 -2.4082198116 2.2906212315
H 4.2430691773 2.0247518647 -3.1553646233
H 3.6588246193 4.0608873872 -1.8639503604
H 2.5355154425 3.8408616295 0.3376344722
H 2.0022647694 1.6036018405 1.2403138319
H 3.7041834735 -0.2134736008 -2.2519431695
