55
CONF28
C 0.4725690805 0.1387102748 2.4428024039
C 1.9433911482 -0.2399045315 2.5458767972
N 2.6435134280 0.1163575628 1.3069173073
C 2.5231357102 1.5615263011 1.0800767007
C 1.0563391529 1.9493505692 0.9713977078
N 0.3433573499 1.5759628463 2.1911262281
C -1.0231391369 2.0938743946 2.2522020370
C -1.9449581721 1.8375037205 1.0294286000
C -2.3317985583 0.4083570617 0.8609934153
C -2.0710844286 -0.4257812095 -0.1671725777
C -2.4141544469 -1.8578646540 -0.0616692422
C -3.6464156795 -2.2858674458 0.4482953398
C -3.9245789873 -3.6367217326 0.6176989404
C -2.9763452847 -4.5935594933 0.2586203253
C -1.7590562900 -4.1964292831 -0.2823672932
C -1.4837573508 -2.8372332990 -0.4429669889
S 0.1134814837 -2.3830824213 -1.0854458056
C -0.2657525095 -0.8285034894 -1.8469879942
C -1.3241135779 -0.0289723480 -1.3749946882
C -1.6189081629 1.1427314863 -2.0745422753
C -0.8207740641 1.5601858496 -3.1363602074
C 0.2703450531 0.7971691546 -3.5467246156
C 0.5323846219 -0.4091246156 -2.9128561440
C -1.1809882644 2.8334976742 -3.8348067376
F -1.3900081921 3.8507385743 -2.9558988377
F -2.3340560448 2.7152415640 -4.5516865158
F -0.2269628531 3.2474078113 -4.6975608560
C 4.0406992979 -0.3305672905 1.3145265023
C 4.5733319960 -0.4105724912 -0.1122000839
O 3.6833543856 -1.1782195164 -0.9312606021
H -0.0319161707 -0.1017727281 3.3863655116
H 0.0113643093 -0.4717234385 1.6474019047
H 2.3966033969 0.2674133532 3.4199492637
H 2.0270198349 -1.3218779137 2.6993649991
H 2.9994734043 2.1296962127 1.9026518818
H 3.0301523541 1.8282927590 0.1468188147
H 0.9739786642 3.0340893063 0.8276798561
H 0.6372439583 1.4580346998 0.0709432141
H -1.4961404761 1.6912317050 3.1568724065
H -0.9603545186 3.1838487380 2.3746615149
H -1.4716918250 2.2452981787 0.1343359250
H -2.8533886996 2.4323420576 1.2021746589
H -2.8235074020 -0.0330744267 1.7286233268
H -4.3886268770 -1.5387934145 0.7124855455
H -4.8842096646 -3.9437747325 1.0206012006
H -3.1887064128 -5.6506247429 0.3812412751
H -1.0240942413 -4.9370362346 -0.5823200354
H -2.4790894950 1.7332747074 -1.7771494069
H 0.8959107839 1.1216567978 -4.3698141277
H 1.3529183083 -1.0322698288 -3.2535972639
H 4.0672379068 -1.3344992916 1.7550680025
H 4.6913973344 0.3236565904 1.9242537785
H 4.7123266500 0.5942982840 -0.5385824932
H 5.5475785864 -0.9103245483 -0.1135066973
H 2.7994691691 -0.9535730924 -0.5896890760
