36
CONF166
C 3.2311374395 2.4818070384 -0.5090978598
C 1.9089682136 3.0083216116 -1.0573290047
C 0.9902140734 1.9758012727 -1.6404447767
C 1.2216328324 0.6641434773 -1.7248930848
C 0.2637956700 -0.3293389762 -2.3051921873
C -0.1608031919 -1.4195111073 -1.3093462974
C -0.9905053840 -0.9727260406 -0.0917636915
C -1.8080684556 -2.2279143415 0.2775166843
C -2.1774075626 -2.8449074144 -1.0714446643
C -1.0205771181 -2.4871586876 -1.9800335248
O -0.8122111218 -2.9565721215 -3.0833684864
C -0.1502593480 -0.4499619769 1.0670454414
C -0.9794906437 0.0753146486 2.2093171672
O -2.1100031202 0.5126633762 2.1167329369
O -0.2934811769 0.0408860697 3.3686366563
C -0.9790651367 0.5943445933 4.5204403290
H 3.0672300165 1.7551986052 0.2939844004
H 3.8293441200 3.3026783285 -0.1032624031
H 3.8189916927 1.9904186374 -1.2914565599
H 2.1037600604 3.7730176218 -1.8230939285
H 1.3656214859 3.5400498103 -0.2624458323
H 0.0393442833 2.3567522314 -2.0184536584
H 2.1577751252 0.2521295018 -1.3464945046
H 0.7251987615 -0.8350192132 -3.1640582316
H -0.6333025591 0.1845672039 -2.6729420523
H 0.7380144660 -1.9504708612 -0.9509735545
H -1.6808311849 -0.1828781349 -0.4181102751
H -2.6769600096 -1.9906680919 0.8954511010
H -1.1686374121 -2.9193662877 0.8408729387
H -3.0669844632 -2.3565779209 -1.4959782144
H -2.3668122194 -3.9215266334 -1.0676093372
H 0.5319450360 -1.2238870675 1.4349280965
H 0.4761096817 0.3886881173 0.7338066799
H -0.2826273006 0.4850075167 5.3507746311
H -1.8991773358 0.0384797078 4.7151003796
H -1.2118779231 1.6482149034 4.3501083019
