22
CONF710
C 2.4205853639 0.3209913002 -0.2391469873
C 1.0090780225 -0.2380752195 -0.3832548859
C 0.0673137253 0.3746154468 0.6562671781
C -1.3249497171 -0.2622171558 0.6730278922
C -2.0284833892 -0.2370334547 -0.6810510468
O -3.3545255772 -0.7652808905 -0.5693563824
O -2.1415810915 0.4075929455 1.6477929216
O -0.1105869488 1.7754610654 0.3794300684
O 1.0052822289 -1.6575297988 -0.1671840732
O 3.3108127542 -0.2277706421 -1.2184388259
H 2.7867975540 0.1218701722 0.7789262073
H 2.4069939328 1.4030584610 -0.4025529860
H 0.6357800559 -0.0034063363 -1.3914466426
H 0.5020133352 0.2428398756 1.6578819979
H -1.2400712904 -1.2984066925 1.0131978871
H -2.0513478882 0.7907840435 -1.0743086490
H -1.4976516173 -0.8728181231 -1.3960484438
H -3.7575088183 -0.3115568839 0.1847024481
H -2.0241740393 1.3567784210 1.4867223475
H 0.4875626762 2.2793868332 0.9429233281
H 1.3539087391 -2.0788345342 -0.9623196344
H 3.5447521852 -1.1204488170 -0.9357636185
