21
CONF3
C 0.6100261005 -1.2763129386 0.1047116556
C -0.1584523686 0.0526050413 0.1648619619
C 0.7826024691 1.2603910014 0.0423850509
O 1.6173159581 1.2393637413 -1.1315717168
C -1.2694828208 0.1006092466 -0.8982134590
O -0.7864512514 0.2011551898 -2.2500365005
C -0.8789719601 0.1476169724 1.5275891405
O -0.0008512234 0.1093759477 2.6581841118
O 1.1709950559 -1.5713632275 -1.1889179209
H -0.0771925999 -2.1013278772 0.3277108360
H 1.4072613236 -1.2780909413 0.8622380657
H 0.1871193631 2.1863091655 0.0663917398
H 1.4665219930 1.2715575993 0.8960969919
H 1.0062902530 1.2389977904 -1.8859272570
H -1.9152919848 -0.7845548122 -0.7935760381
H -1.8856060604 0.9924234355 -0.7355855154
H -0.2542794654 -0.5972819088 -2.3974860951
H -1.4016093415 1.1095201248 1.5832604904
H -1.6318461005 -0.6505331613 1.5964348044
H 0.2315584353 -0.8102898257 2.8321131964
H 1.7803445375 -0.8401702723 -1.3806635477
