47
CONF104
C -3.0946749754 -0.1882609187 -1.0668897197
C -2.6107766099 -0.0957843454 -2.4949583409
C -2.5235660063 -1.4353547019 -3.1929871390
C -2.9696571346 1.0873106913 -3.3590914146
C -3.8050563345 2.1845715153 -2.8694645931
C -4.6067216233 2.9355340989 -3.6247671091
Br -5.6855518300 4.3126330877 -2.8684040702
Br -4.7909182432 2.7487533930 -5.5111343398
C -1.5161096341 0.9016253855 -2.8788693823
C -0.9174492060 1.7908056531 -1.8765444384
O -1.4761854204 2.4624161759 -1.0357196622
O 0.4497726671 1.7563809750 -1.9980984384
C 1.1579140140 2.5005684006 -0.9762418472
C 2.5017209585 2.7149675242 -1.5137771452
N 3.5749559988 2.8992288161 -1.8976638868
C 1.2080530650 1.7469180132 0.3372478257
C 0.8620617903 2.3916925280 1.5218944675
C 0.9065057975 1.6827065854 2.7195986267
C 1.2865045936 0.3455685128 2.7430079961
C 1.6361318687 -0.2814297763 1.5462056560
O 1.9614903609 -1.6182038008 1.4729825336
C 2.5894911726 -2.2205341196 2.5557036980
C 3.7151757353 -1.6515132821 3.1457484247
C 4.3499951705 -2.3336018658 4.1790629737
C 3.8728074943 -3.5711324585 4.6092532764
C 2.7517863360 -4.1289675448 3.9991981108
C 2.1002880513 -3.4536999243 2.9696652696
C 1.6045262854 0.4117636253 0.3411797515
H -3.1051207674 0.7703663870 -0.5495011738
H -2.4460207203 -0.8693177519 -0.5058377662
H -4.1085910245 -0.6017920755 -1.0573596627
H -3.5091959448 -1.9130957357 -3.2002791754
H -1.8284634315 -2.0936001803 -2.6609098246
H -2.1819053597 -1.3309639010 -4.2263010687
H -3.0765992190 0.8683527984 -4.4169311794
H -3.7882963853 2.4140174297 -1.8100875062
H -0.8217693538 0.5610989807 -3.6389653603
H 0.6840912346 3.4779458337 -0.8299605787
H 0.5482329751 3.4301840836 1.5065380692
H 0.6258533666 2.1717223433 3.6467292572
H 1.3054030303 -0.2069846119 3.6758162651
H 4.0863853951 -0.6925281584 2.7990601831
H 5.2288612812 -1.8974754982 4.6434751125
H 4.3750091117 -4.0984581631 5.4135076161
H 2.3752468906 -5.0929942255 4.3264301179
H 1.2238662086 -3.8711248729 2.4851679452
H 1.8804980634 -0.0975156389 -0.5767292164
