37
CONF135
C -1.9512253178 -0.4426207600 -3.2959064018
C -3.0644239779 0.1991054300 -2.4952110051
O -2.9735065537 -0.1259774192 -1.0734771571
P -1.8404343811 0.5697543330 -0.2044887684
O -1.3734622977 1.9101865736 -0.6231717429
O -2.4847037561 0.4043834696 1.2351859455
C -1.8307991198 1.0210239160 2.3954406153
C -1.3495504498 -0.0620306623 3.3314540306
O -0.6382034649 -0.5454284727 -0.2539183639
P 0.9463044540 -0.1863397525 -0.0692767538
O 1.2182663974 0.5655408593 1.1768652727
O 1.5860983236 -1.6350984184 -0.2326395036
C 1.3495151186 -2.6317846287 0.8076266895
C 2.3573687594 -2.5006142485 1.9290365951
O 1.3966780534 0.4706779260 -1.4407028781
C 1.7716593748 1.8899504881 -1.4741094784
C 3.2315268948 2.0578166316 -1.1213532286
H -2.1257921214 -0.2614338474 -4.3615387769
H -1.9232114460 -1.5223537886 -3.1262198845
H -0.9765239203 -0.0210502294 -3.0339186236
H -3.0615122229 1.2887246174 -2.6032848048
H -4.0433726852 -0.1872571921 -2.7880902591
H -2.5991441986 1.6473627851 2.8572977081
H -1.0048004954 1.6557938247 2.0607415269
H -2.1724960935 -0.7194737233 3.6247143521
H -0.5607570589 -0.6510355058 2.8578434923
H -0.9303074751 0.3990749052 4.2314520019
H 1.4430794360 -3.5903332743 0.2908131861
H 0.3188104829 -2.5405446198 1.1714892568
H 2.1936232618 -3.2995054795 2.6598718780
H 3.3753941861 -2.5896003735 1.5404888850
H 2.2553692913 -1.5356669582 2.4314778495
H 1.5603465445 2.1924754849 -2.5024729531
H 1.1122471762 2.4464829051 -0.8040171016
H 3.8649437857 1.4656720814 -1.7877159991
H 3.5102818265 3.1119659552 -1.2227493612
H 3.4127144736 1.7521568454 -0.0875358428
