37
CONF38
C -4.9353763732 -0.6426853571 -1.3347391143
C -4.0654060002 -0.7415365841 -0.1028503066
O -2.8505192048 0.0004798550 -0.3577479357
C -2.0125831629 0.0988381762 0.7429925331
C -0.8136470879 1.0355494105 0.4349761768
C 0.2081974049 0.0208809634 -0.0229362763
C 1.4164635112 0.1738033932 -0.6781159793
C 2.1837332132 -0.9724630164 -0.8906644750
C 1.7743990826 -2.2333035542 -0.4721665944
C 0.5524482858 -2.3846244606 0.1860126457
C -0.2047615346 -1.2423161992 0.3954639618
O -1.4142020656 -1.2153233224 1.0328605908
O 3.3839126255 -0.8474424623 -1.6178346665
S 4.8075258525 -0.7409043277 -0.7536444788
O 4.7606263316 -1.6786112820 0.3728552674
O 5.8320135466 -0.8862130354 -1.7892146884
C 4.7754224790 0.9417413452 -0.1364832670
C -1.1255729449 2.1148619983 -0.5982231132
C -0.3338120938 1.6727869054 1.7517999704
H -5.1863317559 0.3999982066 -1.5506522901
H -5.8644800264 -1.1969214631 -1.1732296916
H -4.4260538125 -1.0699433346 -2.2035456453
H -4.5658773866 -0.3091114025 0.7754741507
H -3.8139458999 -1.7858006584 0.1199666091
H -2.5691586914 0.3714851043 1.6491246242
H 1.7658784691 1.1419947067 -1.0234043886
H 2.4044096908 -3.0926097499 -0.6721605462
H 0.2078512234 -3.3598425833 0.5118563672
H 3.9251818235 1.0427410406 0.5413928784
H 5.7164854492 1.0898278759 0.3995023823
H 4.6947208557 1.6153370008 -0.9915131975
H -1.9453978323 2.7518749822 -0.2523689284
H -0.2421094160 2.7455221461 -0.7383570962
H -1.4012050603 1.6806414425 -1.5610545636
H 0.5915502465 2.2290385244 1.5759854821
H -1.0914267886 2.3640349221 2.1356958260
H -0.1389526622 0.9082152068 2.5106748596
