33
CONF6
C 6.3116644113 2.1810027551 1.5268512119
C 5.1567731178 1.9136603948 2.1321561124
C 4.6258006490 0.5350727792 2.1605341693
O 5.1432584318 -0.4413213917 1.6631345710
O 3.4467127282 0.5006644004 2.8384449068
C 2.8161200244 -0.7928132452 2.9221249085
C 2.1285286943 -1.2081191161 1.6249759076
C 0.9424821636 -0.3364297753 1.2663715727
C 0.1738390239 -0.8615996076 0.0137636737
C -1.2016405768 -0.1660646835 -0.2722251789
C -1.7099226194 -0.3844158982 -1.7411665266
C -3.2405481503 -0.0993201536 -1.9154463222
C -3.6811610049 0.1203379935 -3.3999076114
F -5.0201599123 0.1182312884 -3.4559973104
F -3.2382249975 1.2928082943 -3.8651918000
F -3.2140965763 -0.8669055864 -4.1774635574
F -3.9388209280 -1.1499753013 -1.4345147681
F -3.5777165829 1.0131729398 -1.2228975598
F -1.0198406197 0.4384513268 -2.5639131052
F -1.4772957466 -1.6661376121 -2.1062392642
F -2.1227557809 -0.6730910934 0.5807187968
F -1.0897440218 1.1622785863 -0.0586786259
F -0.0606620308 -2.1891002346 0.1819442609
F 0.9842269274 -0.7022621506 -1.0647533933
F 0.0477966613 -0.2860022341 2.3050409333
F 1.3402624023 0.9409272410 1.0061735015
H 6.7128090228 3.1879297873 1.4966985210
H 4.5631015574 2.6802981450 2.6192646844
H 2.0966515398 -0.7018649928 3.7379494662
H 3.5685959221 -1.5460929688 3.1732219119
H 2.8407838590 -1.1983477285 0.7956340610
H 1.7715505495 -2.2348256056 1.7487112752
H 6.8754686145 1.3857545543 1.0485947251
