26
CONF5
C -2.8679492935 -1.6445716186 -1.0242409676
C -2.2685606502 -0.9532994094 0.1886986977
C -0.9919386076 -0.1442323017 -0.1616455666
C -0.0994051303 -0.0002904402 1.0765029951
C 1.1137093687 0.9436722966 0.9883872735
C 2.1335428343 0.6770507601 -0.1182544940
O 1.6768065579 1.1723828925 -1.3737617566
O 0.6513412315 2.2955842819 0.9034285891
O -0.9219201690 0.4750642302 2.1579219007
O -0.2328588273 -0.7914760019 -1.1985457857
O -3.2786223760 -0.0814977064 0.6948394550
O -2.9399679491 -0.7701438200 -2.1612072432
H -2.2490622370 -2.4920267038 -1.3300493355
H -3.8627337793 -2.0215761441 -0.7522469106
H -2.0198247349 -1.7298959310 0.9323967070
H -1.3177363485 0.8542140397 -0.4936787534
H 0.2561976540 -1.0014218461 1.3583137409
H 1.6237802324 0.8501439383 1.9576656247
H 2.3759578240 -0.3939948331 -0.1657554443
H 3.0486838250 1.2298788312 0.1169275713
H 0.6594695843 2.5084406825 -0.0441699991
H -0.8260678246 -0.8149933907 -1.9669098741
H 1.0129666968 0.5233703066 -1.6679798677
H -3.4647840695 -0.0059010477 -1.8908237192
H -0.8479912429 1.4426109058 2.1133294650
H -2.8871939755 0.3367585492 1.4758712876
