41
CONF130
C -3.9196303315 2.5413144961 -1.5930957438
C -4.2449189760 1.0507570446 -1.4978062063
N -3.7187788880 0.4100124930 -0.2822963132
C -4.7032218487 0.1075071007 0.7543340932
C -5.2078829978 1.3410034254 1.5048355934
O -4.1625188753 2.0984115696 2.1136633099
C -2.3865568183 0.1967632297 -0.1180889253
C -1.8283792133 -0.2377661343 1.1166250961
C -0.4798388615 -0.4704434732 1.2374115680
C 0.4049703256 -0.2830497498 0.1558847111
C -0.1371469720 0.1532205372 -1.0754072207
C -1.4810193568 0.3885169980 -1.2081925143
N 1.7328255474 -0.5447199013 0.4046348766
N 2.5381727403 -0.3551009200 -0.5697766669
C 3.8744603869 -0.6427947178 -0.2732715164
C 4.3482223591 -1.1255505220 0.9648507412
C 5.6934677258 -1.3745581216 1.1425646839
C 6.5783599306 -1.1442817832 0.0844884997
C 6.1356144077 -0.6686652770 -1.1500589335
C 4.7869769202 -0.4216846717 -1.3210664770
N 7.9949943222 -1.4079694498 0.2761761786
O 8.3689514299 -1.8236468507 1.3756416008
O 8.7610250853 -1.2047033697 -0.6689724297
H -4.3321023556 2.9427635916 -2.5236793672
H -2.8411418584 2.7190983879 -1.5933137629
H -4.3548327843 3.0927750065 -0.7559991951
H -3.8767466435 0.5175572105 -2.3817449243
H -5.3290507704 0.9112520461 -1.4836040025
H -4.2928879835 -0.6208939199 1.4555491690
H -5.5668003826 -0.3723326729 0.2751156950
H -5.7136649758 2.0227075092 0.8141417224
H -5.9488570893 1.0079194460 2.2458026521
H -3.8106083745 1.5889012719 2.8538864458
H -2.4521069857 -0.3749512101 1.9887791427
H -0.0691030781 -0.7953223870 2.1886883003
H 0.5189766819 0.2980074131 -1.9258473061
H -1.8515146486 0.7130552111 -2.1713943333
H 3.6511269163 -1.3004615171 1.7746531387
H 6.0694512623 -1.7456103329 2.0879487780
H 6.8411291303 -0.4987284123 -1.9533010195
H 4.4105869033 -0.0511500898 -2.2687596308
