34
CONF9
C 6.3856729315 2.1039470751 -0.6677272744
N 6.1480337766 1.1626699213 0.4315471602
S 4.7897375351 1.2184854280 1.3780340987
O 4.4266240148 2.6181728969 1.5745075109
O 4.9797600701 0.2486270112 2.4498218069
C 3.4163947141 0.4915616843 0.2525304786
C 1.9816437404 0.7117406381 0.8230527132
C 0.9075784744 -0.2349736330 0.1800229395
C -0.5658342934 0.2580722135 0.4069410636
C -1.6316848000 -0.8729153059 0.1847911459
C -3.0833449706 -0.3155737615 -0.0296610251
C -4.1956139829 -1.3959767093 0.1959059291
C -5.5840816080 -1.0145141427 -0.4150555384
F -5.9309249213 0.2265974849 -0.0459901861
F -5.5574137655 -1.0851294154 -1.7496928537
F -6.5042516070 -1.8752498929 0.0399967933
F -3.8096220713 -2.5649295300 -0.3667131863
F -4.3675981620 -1.5763919647 1.5219125564
F -3.2966744031 0.6993574814 0.8377573648
F -3.1860232737 0.1542979190 -1.2933305039
F -1.2838900164 -1.5912229842 -0.9068168063
F -1.6356913888 -1.6811120836 1.2678813182
F -0.8194981528 1.2667783558 -0.4571244459
F -0.6817294488 0.7148647439 1.6727960898
F 1.1381520940 -0.3031030355 -1.1521630485
F 1.0438236114 -1.4678343995 0.7168474271
F 2.0127908538 0.4886923459 2.1539514413
F 1.6264781950 1.9943366804 0.5901016843
F 3.5242404976 1.0871619273 -0.9559666342
F 3.6683389799 -0.8277348236 0.1094594939
H 7.4603734063 2.2986143054 -0.7278335566
H 5.8815204155 3.0436849484 -0.4349650021
H 6.0251725792 1.7283576052 -1.6308805159
H 6.5261115500 0.2263984191 0.3478176873
