33
CONF90
C 4.6116684820 -0.0287048872 -1.5595942504
C 5.9852770202 -0.1782099298 -0.8914048684
O 6.4314964121 1.0087898648 -0.2500274329
C 3.4690080094 -0.1157433841 -0.5722800702
C 2.0682298329 0.0514073170 -1.2378099596
C 0.8692916619 0.2395097480 -0.2428677590
C -0.5241135958 -0.0483351103 -0.9008986818
C -1.8144060228 0.5776193601 -0.2372155575
C -2.0988639750 0.2188906931 1.2545601386
C -3.3552530399 0.9409343872 1.8581618495
C -3.8589934176 0.3126552381 3.2002285401
F -2.8458446429 0.1652047914 4.0645826510
F -4.7707597422 1.1340241964 3.7378953923
F -4.4300030053 -0.8773550933 2.9864021046
F -4.3876166462 0.9046220048 0.9874762783
F -3.0326408719 2.2289727559 2.1037449151
F -2.2704048191 -1.1202013853 1.3483620184
F -1.0317000017 0.5802703378 2.0020148448
F -2.8435480062 0.1204328818 -0.9893695275
F -1.7560889915 1.9225496088 -0.3520974653
F -0.5105279916 0.4548368717 -2.1611255244
F -0.7009013230 -1.3848852394 -0.9669001261
F 0.8908002723 1.5138350857 0.2087721210
F 1.0283088536 -0.6075995020 0.7987314954
F 2.1140199420 1.1382362658 -2.0483416395
F 1.8426871318 -1.0493636895 -2.0018250548
F 3.4930788918 -1.3227328411 0.0668620999
F 3.5820862623 0.8532451698 0.3998624175
H 4.5657234364 0.9292916969 -2.0835842482
H 4.4647097387 -0.8296964315 -2.2929615326
H 6.7192738464 -0.3835110807 -1.6757904129
H 5.9848729152 -1.0368171443 -0.2048820053
H 5.8682547749 1.1730907294 0.5138343651
