44
CONF1
C -3.9850627402 -1.6935768321 0.8687308905
N -3.1905774221 -0.4659766322 0.8505827430
C -2.1441279975 -0.4595174804 1.8953853700
C -1.0301586758 -1.4060886345 1.3681961394
C -1.1839486670 -1.3318510514 -0.1711484516
C -2.3686036446 -0.3479602927 -0.3737144047
C -1.9244129196 1.1152304604 -0.4806884641
C -1.1545517292 1.5971504117 0.7516942750
C -1.6792308783 0.9934277916 2.0520450831
O 0.2583827088 1.1991455371 0.6459033241
C 1.0484276866 1.9547118103 -0.1291034567
O 0.6986349620 2.9744670605 -0.6904875821
C 2.4363904734 1.3411909455 -0.2357369067
C 3.4090442938 2.3265977328 -0.8994444535
O 3.5226771450 3.5414081757 -0.1748743291
C 2.3359498261 0.0386094449 -0.9992869477
C 2.7510923326 -1.1641981478 -0.4277277150
C 2.6379556642 -2.3592669365 -1.1315676754
C 2.1086372639 -2.3653321004 -2.4183322720
C 1.6933103963 -1.1696218241 -2.9978505779
C 1.8042947375 0.0239868149 -2.2929462755
H -3.3973375817 -2.6232347378 0.7654219658
H -4.5419372555 -1.7491379002 1.8101332697
H -4.7138519964 -1.6627461776 0.0519114948
H -2.5666696455 -0.8022977041 2.8465792911
H -0.0373182487 -1.0988486588 1.7035471477
H -1.1976434783 -2.4245586218 1.7305996309
H -0.2741767425 -0.9904654693 -0.6683278396
H -1.4298409934 -2.3126902064 -0.5884048735
H -2.9729448746 -0.6000267095 -1.2523716337
H -2.8207609981 1.7378234458 -0.5790787817
H -1.3133959277 1.2769388798 -1.3751336702
H -1.1678253283 2.6898432814 0.7971672760
H -2.5413891062 1.5878034698 2.3738983423
H -0.9063983455 1.0783718815 2.8237124615
H 2.7831090726 1.1333143679 0.7828641478
H 3.0969843134 2.5064027289 -1.9380523883
H 4.4047883475 1.8726560079 -0.9198333681
H 2.6821080518 4.0039553570 -0.2898857384
H 3.1564873630 -1.1644687252 0.5799834333
H 2.9610119804 -3.2877537410 -0.6715604782
H 2.0178873301 -3.2975243058 -2.9662143099
H 1.2750703565 -1.1668385678 -3.9993824881
H 1.4599221082 0.9509462329 -2.7437243250
