33
CONF10
C -4.7429528759 2.1988081641 -0.4073078583
C -3.5677820535 1.4248104878 0.1746642639
C -4.0896763263 0.4280603066 1.2068835054
O -4.2419328563 0.7019394761 2.3729967713
O -4.4174654856 -0.7594365241 0.6573860257
O -2.8988601437 0.8067800706 -0.9181945965
C -1.7127523965 0.1690528641 -0.6708637367
C -1.0994443184 0.0897651810 0.5818369356
C 0.1122324055 -0.5856130588 0.7107681665
C 0.7011492649 -1.1656751572 -0.4014231498
C 0.0951752709 -1.0920611647 -1.6499642957
C -1.1141331312 -0.4278734348 -1.7829062378
O 1.8771939968 -1.8988180112 -0.2712609865
C 3.0420120938 -1.2164628524 -0.0658142270
C 4.1678959644 -1.9640826104 0.3037963713
C 5.3973155739 -1.3523767809 0.5043726639
C 5.4996443184 0.0235266328 0.3378122284
C 4.3997503376 0.7861830492 -0.0285381933
C 3.1746307354 0.1613533595 -0.2299885338
Cl 7.0495727052 0.7995899776 0.5964650114
Cl 4.0262394202 -3.6890045859 0.5106314297
H -5.2947457327 2.6951711198 0.3944631117
H -5.4120203947 1.5191048297 -0.9409183613
H -4.3711215511 2.9518991205 -1.1056814987
H -2.8925663178 2.1069351406 0.7081816566
H -4.7600633087 -1.3151440874 1.3759612033
H -1.5454553654 0.5312686370 1.4651869897
H 0.5978073778 -0.6635026642 1.6778703772
H 0.5720491132 -1.5617578057 -2.5032275613
H -1.6133742261 -0.3604994710 -2.7429881635
H 6.2571278269 -1.9450554697 0.7902335506
H 4.4954257102 1.8572512794 -0.1596945134
H 2.3091243637 0.7458641724 -0.5200170462
