28
CONF50
O -3.1963567858 2.2329073754 0.5021138644
C -2.6458220170 0.9864908668 0.9342412832
C -2.1218664329 0.1523738435 -0.2108615205
O -0.9934666765 0.8352891607 -0.8228621452
C -0.0389899068 -0.1077622694 -1.2690300565
C -0.6005728793 -1.4945884901 -0.9599968417
C -1.5677725650 -1.2202666658 0.1866634056
O -2.5581221620 -2.2371390923 0.2512965999
N 1.2584346092 0.1445574608 -0.5603763479
C 1.3324970520 0.8351174092 0.6148576374
C 2.4988251674 1.0411524549 1.2714296906
C 3.7292350328 0.5271523542 0.7346454057
O 4.8503830889 0.6471045594 1.2296362621
N 3.5654643424 -0.1661686980 -0.4735813380
C 2.3899760733 -0.4047838314 -1.1534280555
O 2.3409740731 -1.0496763104 -2.1948956387
H -2.4722259338 2.7606002514 0.1418070798
H -1.8512376820 1.1411922269 1.6793380571
H -3.4614498000 0.4343474989 1.4149650721
H -2.9071718223 0.0191787770 -0.9697926755
H 0.1711036978 0.0433976660 -2.3305534340
H 0.1776599307 -2.2202157788 -0.7193031491
H -1.1711760774 -1.8542685314 -1.8230083234
H -1.0276705401 -1.1411116176 1.1426361061
H -3.0105661905 -2.1656621689 1.1011693689
H 0.3892718765 1.2223703667 0.9801568155
H 2.5218087572 1.5976344014 2.1983123500
H 4.3988343678 -0.5592226053 -0.8955794727
