33
CONF2
C 4.9740725607 0.6939034222 -0.6123862778
C 6.2847429013 0.9943013259 0.1254505639
O 7.3754417889 1.0578979578 -0.7878294330
C 3.7958084666 0.6334895782 0.3332367978
C 2.4324012075 0.4493454188 -0.4007209090
C 1.2185378586 0.0878099306 0.5221842057
C -0.1739734531 0.3516397425 -0.1541292299
C -1.3551689115 -0.4001622332 0.5582980068
C -2.7635341991 0.1962591465 0.2077429506
C -3.9446366404 -0.7783935454 0.5419159937
C -5.3408863832 -0.0795387751 0.6291151412
F -5.4243631835 0.6941766084 1.7159219992
F -5.5582779676 0.6673672640 -0.4625055291
F -6.2887141233 -1.0236653234 0.7045487182
F -3.7153413106 -1.3751097061 1.7347480903
F -4.0203801021 -1.7221325088 -0.4198135736
F -2.9358847532 1.3409486014 0.9062424895
F -2.8071455654 0.4763519432 -1.1146438885
F -1.1815216764 -0.3222198917 1.8963597900
F -1.3325594196 -1.6983659826 0.1808718448
F -0.4247245831 1.6801223272 -0.1208656091
F -0.1223650128 -0.0584498298 -1.4414267609
F 1.2855362264 0.8215098700 1.6537575691
F 1.2980608366 -1.2256793074 0.8404377872
F 2.1567818772 1.6029897091 -1.0625487504
F 2.5760880185 -0.5450367642 -1.3145032063
F 3.9373243870 -0.4107456732 1.2117663342
F 3.7248321097 1.7803947568 1.0731346844
H 4.7883929097 1.4707923678 -1.3607998876
H 5.0424731987 -0.2670944330 -1.1316020853
H 6.4603174541 0.2484948980 0.9127197803
H 6.2317213425 1.9775163015 0.5988165198
H 7.5640655428 0.1665461054 -1.1009790052
