40
CONF11
C 3.4974581171 1.2387895370 -3.0389123004
O 3.9675113328 0.8297552461 -1.7258630092
C 3.5518366827 -0.3679926598 -1.3136955352
O 2.8361774573 -1.1087412654 -1.9579612044
C 4.0944815166 -0.7624112523 0.0472030350
S 4.4987345488 0.5692164537 1.2243251139
C 2.8983581289 1.2492091041 1.5936098728
C 1.7084084632 0.8022940309 1.0160148901
C 0.4644040299 1.3691080507 1.3321780443
C 0.4636321078 2.4321296564 2.2437209528
C 1.6163149390 2.9037342726 2.8380361811
C 2.8263156603 2.3058893779 2.5103568452
Cl 4.2908945900 2.9073683181 3.2650031073
F -0.7133592915 3.0142512579 2.5650105702
N -0.7275550501 0.9882707799 0.7353846003
C -1.0405372113 -0.2468440124 0.5878194391
N -2.1284828715 -0.6414996218 -0.1517944183
N -2.5301861187 -1.9653252347 0.1068732929
C -1.6290043722 -2.7311213431 0.7778438031
O -1.6920738265 -3.9313209775 0.9658567329
S -0.2602505284 -1.6795674882 1.3361633954
C -3.4425959349 -2.5582893863 -0.8871961398
C -4.6476060917 -1.6498975611 -1.0791857460
C -4.1805305505 -0.2432752440 -1.4423397108
C -3.2471926986 0.3017935558 -0.3715147016
H 3.9249016609 2.2270772118 -3.1995273002
H 2.4060983887 1.2823893952 -3.0437316227
H 3.8490897951 0.5353218000 -3.7964765862
H 5.0525022056 -1.2705026951 -0.1212159277
H 3.4120947680 -1.4915522292 0.4921953612
H 1.7181840647 0.0141705388 0.2740160068
H 1.5666578990 3.7209154640 3.5483552062
H -2.8959718616 -2.6861534992 -1.8319623713
H -3.7229154284 -3.5391385427 -0.5006235493
H -5.2747425965 -2.0691839295 -1.8713214278
H -5.2400181984 -1.6248460829 -0.1568433354
H -3.6614731567 -0.2572286133 -2.4082600662
H -5.0314475079 0.4386612583 -1.5308763135
H -3.7791589748 0.4465106325 0.5799688964
H -2.7989552824 1.2480355910 -0.6739290876
