32
CONF7
C 1.9428530373 0.9700849336 -1.2730509677
C 1.4147531992 0.1412992538 -0.1039837737
C 1.0359126712 0.9895898226 1.1519674609
C -0.3878325474 0.5219765570 1.5021416945
C -0.2889112768 -0.9336988536 2.0069820562
C -0.0075759170 -1.7368039968 0.7056472731
C 0.0897703412 -0.6459489025 -0.3906799959
C -1.0283446761 0.3515604382 0.0993956907
C -1.1808930329 1.6682887626 -0.6734690433
C -2.4310677383 -0.2745673405 0.1272251305
C -0.0435097577 -1.1942834577 -1.7975974990
O 2.4543115666 -0.8222031651 0.2142973450
H 1.1967631635 1.6438995351 -1.6948190136
H 2.7892045587 1.5787607834 -0.9304103215
H 2.2968363833 0.3096491423 -2.0705163214
H 1.0694360425 2.0599881966 0.9274167011
H 1.7436973313 0.8013926487 1.9655672334
H -0.9240512485 1.1956851297 2.1786756423
H 0.5136008437 -1.0421979847 2.7435712937
H -1.2190291944 -1.2551978511 2.4856131574
H -0.8263846512 -2.4210598524 0.4668521589
H 0.9030025152 -2.3317206952 0.7645746177
H -1.3648134965 1.4752058531 -1.7366990688
H -0.3271054002 2.3397756626 -0.5937809115
H -2.0519187379 2.2082188094 -0.2856418172
H -3.1192604906 0.4030768064 0.6447224947
H -2.4799903069 -1.2417554286 0.6273621687
H -2.8067505764 -0.4049950318 -0.8940981931
H 0.7901249253 -1.8658766878 -2.0332860931
H -0.0559251444 -0.3986248386 -2.5491204381
H -0.9708228316 -1.7688087525 -1.8964435269
H 3.2739205620 -0.3207097980 0.3115845643
