46
CONF2
C -1.1804377293 0.1375845314 1.0569671212
C -1.7952382288 -0.2968289716 2.3958819225
C -3.3123448503 -0.4196187277 2.0996637832
C -3.4861914905 -0.1768622951 0.5698497501
O -4.5531009958 -1.0146803541 0.0996483934
C -3.8344453943 1.2231362546 0.3078297450
C -4.1550763283 2.3638155613 0.0780374261
C -2.0722544177 -0.5383598468 -0.0023148396
C -1.9441790257 -2.0693788458 -0.0069709573
C -1.7221434056 0.0216881322 -1.3806855574
C -0.2230035796 -0.1363927124 -1.6836689391
C 0.6597979320 0.4781830253 -0.5824047844
C 2.1536719861 0.3730830484 -0.8594281925
C 3.0820696961 0.2379146646 0.1900699357
C 2.6467950241 0.1285823611 1.6340708118
C 1.2005094983 0.5559481073 1.8590379698
C 0.3027968366 -0.0892788250 0.8074273593
C 4.4497154170 0.1825889212 -0.0887185624
C 4.9196459038 0.2636430772 -1.3946780683
O 6.2750825632 0.2026471431 -1.5887538177
C 4.0147999931 0.4071891246 -2.4451991916
C 2.6543714809 0.4611440304 -2.1640023678
H -1.3517667687 1.2218027935 0.9563769737
H -1.3822870897 -1.2606225578 2.7138016240
H -1.5925752895 0.4226231985 3.1932318563
H -3.6913195971 -1.4213836748 2.3190145740
H -3.9120340014 0.2913111332 2.6714361650
H -4.6881415645 -0.8208475073 -0.8381156839
H -4.4248370425 3.3777552140 -0.1111670921
H -2.5975312890 -2.4923494627 -0.7749985448
H -0.9218208295 -2.3805680187 -0.2291149888
H -2.2271876498 -2.5132358708 0.9502071765
H -1.9737504185 1.0892072599 -1.4088963395
H -2.3127430157 -0.4726703614 -2.1632050792
H -0.0224468374 0.3497332228 -2.6430148182
H 0.0407894649 -1.1939822112 -1.8104195721
H 0.4093088237 1.5529806189 -0.5413060610
H 2.7627027443 -0.9181595923 1.9500537618
H 3.3296642229 0.7119295890 2.2621402651
H 1.1084406382 1.6490524302 1.7887816936
H 0.8854460454 0.2685447894 2.8681837893
H 0.5113780419 -1.1705495119 0.8103481819
H 5.1646801857 0.0780096107 0.7234380608
H 6.4644036290 0.2768650635 -2.5334555216
H 4.3696328882 0.4777192260 -3.4702205637
H 1.9711529401 0.5810871145 -2.9977361105
