33
CONF2
C -2.3431195080 1.3580461138 -1.6527916370
C -2.8448050164 0.5163719340 -0.4781230796
C -3.0453832562 -0.9286663115 -0.8987896901
O -3.9807349729 -1.5415920377 -0.1296868024
O -2.4400138883 -1.4948442313 -1.7770107442
C -1.8800421173 0.5374610924 0.6972467550
C -2.2613219336 1.0770712436 1.9246459215
C -1.3719459598 1.0973994513 2.9976551949
C -0.0972427820 0.5717252196 2.8556604085
C 0.3064615583 0.0437343236 1.6245128419
C -0.5892894717 0.0266588888 0.5533949959
C 1.6691360032 -0.5637362379 1.5265361210
O 2.1882929996 -1.0682573325 2.5118047804
C 2.3869328063 -0.5480428392 0.2175530687
C 2.2191132861 0.4811202247 -0.7154361712
C 2.9655423227 0.4900340438 -1.8884322532
C 3.8679758909 -0.5371722062 -2.1477649774
C 4.0413018175 -1.5643065634 -1.2211617383
C 3.3157867361 -1.5625554974 -0.0389056174
H -1.4012777227 0.9600920683 -2.0376783949
H -2.1844787596 2.3893217454 -1.3269204643
H -3.0682310781 1.3519999575 -2.4714079779
H -3.8102699661 0.8943716822 -0.1268870385
H -4.0131111624 -2.4684038437 -0.4156778514
H -3.2634285651 1.4787294184 2.0446110931
H -1.6832482190 1.5200859324 3.9474749269
H 0.6031269652 0.5568005310 3.6835679361
H -0.2932647661 -0.4223189018 -0.3900481002
H 1.5251012524 1.2892280768 -0.5085680467
H 2.8429761751 1.2995524386 -2.6006558426
H 4.4410468518 -0.5353890177 -3.0695208159
H 4.7473283536 -2.3634433580 -1.4227423855
H 3.4510863377 -2.3410758916 0.7042671042
