54
CONF126
C -3.4118406073 -3.2056934646 1.9882525667
C -3.6059762944 -2.0668900014 2.9880095787
C -4.0249234689 -0.7384319293 2.2718494780
N -2.7913645646 -0.1785324291 1.7336999729
C -1.6241445219 -0.2377132029 2.6310100014
S -1.9660185696 -1.6179323579 3.7986180939
C -0.7281587943 -0.4806542722 1.3645176817
C -2.0581716927 -0.4693561444 0.5977291055
O -2.4011825047 -0.6401534443 -0.5570575088
N 0.2487751133 0.4876512337 0.9840969215
C 1.5827561049 0.1877689732 0.9789043672
O 2.0303838790 -0.8752609338 1.3699586997
C 2.5234557816 1.2973285253 0.4772943988
C 1.8715821213 2.5752517870 -0.0095037150
C 1.1185077821 2.6094314795 -1.1902368346
C 0.5073297508 3.7900701549 -1.6000721921
C 0.6428862680 4.9508178040 -0.8436416454
C 1.3942709278 4.9260226322 0.3269396846
C 2.0048984872 3.7463616809 0.7402062854
C 3.4565062165 0.7298071674 -0.5894681250
O 4.6306460122 0.9587400463 -0.6652494159
O 2.7434253266 -0.0307768689 -1.4708745166
C 3.4290237009 -0.6031099722 -2.5537097186
C 3.9618023014 0.2006394652 -3.5498986806
C 4.5708596612 -0.4105522211 -4.6407801999
C 4.6367825750 -1.7990870499 -4.7237130670
C 4.0934192618 -2.5836459398 -3.7106028580
C 3.4839368690 -1.9859750250 -2.6114694729
C -5.2043884697 -0.9603751224 1.3096644660
O -6.2947574765 -1.1586198880 1.7893199718
O -5.0122654401 -0.9541369912 -0.0079896646
C -4.5908978881 -2.4595341607 4.0828954424
H -3.0066009300 -4.0833636958 2.4973264108
H -2.7184136120 -2.9401891617 1.1850147650
H -4.3742697626 -3.4807380544 1.5404882567
H -4.4003018564 -0.0466510200 3.0341383370
H -1.4171946968 0.6878415947 3.1765367803
H -0.2638564413 -1.4721515995 1.3814657368
H -0.0474954809 1.3779913105 0.6105251148
H 3.1742843601 1.5316665516 1.3246376685
H 1.0109384663 1.7092463129 -1.7872034837
H -0.0739533139 3.8015157162 -2.5163299916
H 0.1675363751 5.8708789955 -1.1671431796
H 1.5099317345 5.8276172704 0.9196396005
H 2.5945619550 3.7334048089 1.6521489954
H 3.9066666457 1.2800731274 -3.4642977359
H 4.9964376229 0.2028895000 -5.4280257602
H 5.1126502143 -2.2689820970 -5.5777522941
H 4.1441575932 -3.6656744819 -3.7717113641
H 3.0563345390 -2.5706706480 -1.8045052015
H -4.0722757147 -0.8095571697 -0.2891225874
H -4.2238358724 -3.3363271174 4.6241805373
H -5.5559403393 -2.7067082025 3.6323247710
H -4.7365200323 -1.6455724811 4.7972500434
