60
CONF37
C -3.5377829857 -1.8880233553 1.7900008359
C -3.2146166097 -2.5221384719 0.4799268473
C -2.0921312985 -2.3339803537 -0.3256822239
N -2.2194693133 -3.1799645399 -1.3943098624
N -3.3514722290 -3.8933547730 -1.3237592763
C -3.9574009484 -3.5155303920 -0.1873181691
C -5.2454921870 -4.1262940543 0.2458679098
C -1.3663937739 -3.2968013470 -2.5668803261
C -0.9718774587 -1.4376728133 -0.1294091404
C 0.3399274378 -1.7962543169 -0.0916638768
C 0.6452240090 -3.1822180475 -0.0886525224
N 0.9402344733 -4.3042576819 -0.0713929745
C 1.4754835896 -0.8560525445 0.0029663648
C 2.5500827827 -1.1262450172 0.8527101045
C 3.6141480717 -0.2351841368 0.9559801692
C 3.6495626908 0.9461878043 0.2094801645
C 2.5758752095 1.1912716892 -0.6603365241
C 1.5109294221 0.3115675059 -0.7687078348
C 4.7959364775 1.9535372286 0.3007142056
C 5.4475471865 2.1091490741 -1.0873103381
C 4.2349926379 3.3143489131 0.7574032759
C 5.8775036511 1.5168380410 1.2958757765
O -1.2852336728 -0.1240783550 0.1750449513
C -2.0004778342 0.6003816446 -0.7670857311
O -2.2093892062 0.1647656923 -1.8708562879
C -2.3983256359 1.9596758169 -0.2240392425
C -3.2492728656 1.7722977405 1.0441741302
C -1.1178664285 2.7484804845 0.1136990383
C -3.2020527338 2.6974913059 -1.2969096114
H -3.8026326132 -2.6506101973 2.5300908115
H -2.6923959249 -1.3151495955 2.1770310858
H -4.3932070583 -1.2083193375 1.7046675598
H -5.6004739521 -4.8380474339 -0.5023310158
H -5.1277198503 -4.6541997192 1.1989186059
H -6.0132301916 -3.3591684579 0.3927137401
H -0.7462484441 -2.4029854400 -2.6488303388
H -0.7238821775 -4.1797969544 -2.4919651256
H -1.9999246809 -3.3789646524 -3.4520031178
H 2.5513356483 -2.0331620060 1.4507549478
H 4.4214384552 -0.4790445328 1.6359171885
H 2.5700774050 2.0850323959 -1.2761461729
H 0.7132745747 0.5210120929 -1.4738471892
H 6.2691878757 2.8314176898 -1.0311462799
H 4.7312321395 2.4685074502 -1.8316377350
H 5.8518417145 1.1520355327 -1.4332850185
H 5.0477149604 4.0456611892 0.8252357252
H 3.4900792028 3.7001163221 0.0551332240
H 3.7652806699 3.2274126805 1.7429088776
H 6.6684588175 2.2727089427 1.3207222277
H 6.3322086273 0.5645082587 1.0042169917
H 5.4765923267 1.4163689570 2.3098611518
H -3.5670152989 2.7571143162 1.4003330540
H -4.1434218783 1.1777052427 0.8326726479
H -2.6797408428 1.2827381490 1.8375627155
H -0.5324560572 2.2490187192 0.8894495804
H -0.4893953263 2.8743895585 -0.7736927868
H -1.4055482289 3.7403902817 0.4756844721
H -4.1117111231 2.1482125699 -1.5552677053
H -2.6116663196 2.8353948749 -2.2067123279
H -3.4862439130 3.6817596638 -0.9136628299
