44
CONF58
C 4.6688520062 -0.1435867214 -2.1497478106
C 3.3158533927 0.5373907885 -1.9764807601
C 3.1874916378 1.3650302631 -0.6430058585
N 1.7830196988 1.3685890957 -0.3086826649
C 0.9906906423 0.1746116757 -0.6207511791
S 1.9853570560 -0.7827109196 -1.8403744080
C -0.1636649962 1.1233455171 -1.0981010702
C 0.7968134140 2.2698208882 -0.6933566309
O 0.7824249223 3.4766015664 -0.7424090021
N -1.4663630270 1.0429751436 -0.5159846769
C -1.6720995486 1.2518092985 0.8095743018
O -0.7703830068 1.6105042687 1.5645561289
C -3.0868343935 0.9460982025 1.3064491288
C -3.1706548904 -0.5542591736 1.5629366459
C -4.0088924161 -1.3615983708 0.7944113919
C -4.0967132640 -2.7325143828 1.0224719925
C -3.3309948739 -3.3112024353 2.0343972390
C -2.4807704298 -2.5179365022 2.8094502634
C -2.4061928985 -1.1533280009 2.5703996638
O -3.3718835460 -4.6471119786 2.3167586173
N -3.3655335208 1.8027362008 2.4606613567
C 4.0650252750 0.8233704173 0.4753142099
O 3.4488646534 -0.1184071561 1.2069211305
O 5.2033093926 1.1927477240 0.6620076401
C 3.0238397235 1.4614550987 -3.1593956869
H 5.4579424462 0.6148206721 -2.1785756335
H 4.6900501936 -0.6912530247 -3.0959974525
H 4.8833095184 -0.8458364251 -1.3399521221
H 3.5202738984 2.3904564847 -0.8317814795
H 0.7448240495 -0.4548810049 0.2381435543
H -2.2362592980 0.7376338610 -1.0928213797
H -4.6105648505 -0.9154024292 0.0067380839
H -4.7611785990 -3.3489191125 0.4225987364
H -1.8882561201 -2.9815509514 3.5917156354
H -1.7417774318 -0.5456355100 3.1784647813
H -3.9993274381 -5.0825363305 1.7243812579
H -2.5684606916 1.7676170628 3.0907835493
H -4.1553429907 1.4185446421 2.9693031135
H 2.9746187160 0.8810425889 -4.0841299006
H 2.0751736558 1.9919622329 -3.0390003611
H 3.8257120069 2.2029844698 -3.2525820969
H 4.0702167426 -0.4352640463 1.8857212511
H -3.7962121263 1.1862024203 0.5041201675
H -0.2528291458 1.1023431035 -2.1878387833
