41
CONF15
C -2.8534439442 -2.5782905399 -0.1233210647
C -1.7662657069 -2.0215919633 -1.0396488619
C -0.6862718515 -1.1551857340 -0.3393212019
C -0.0413283172 -1.9698291930 0.7873770039
O 0.7156835127 -2.9079250645 0.6338057325
C -0.5558812431 -1.4495925171 2.0778212882
C -0.3528814868 -1.9424874475 3.3600960672
C -0.9420341729 -1.2581656691 4.4189359597
C -1.7125157445 -0.1087001578 4.1971601046
C -1.9122282230 0.3827280976 2.9108910608
C -1.3258825046 -0.3055316066 1.8561195313
C -1.3687944964 0.0001911839 0.4064644970
O -1.8662020854 0.9760991957 -0.1148408948
C 0.3062081596 -0.6661576709 -1.3977411283
C 1.4184136685 0.2203121549 -0.8356871379
C 2.5781605974 -0.3995948731 -0.1657255285
O 1.5280815662 0.2130464595 0.6021598985
C 1.6074211129 1.5645077899 -1.4657127457
C 1.6184013850 1.6734792818 -2.8581673787
C 1.8274382818 2.9158842266 -3.4393355234
C 2.0190731898 4.0594232130 -2.6733441901
C 2.0035063335 3.9368997358 -1.2882267670
C 1.8036723741 2.7011654796 -0.6826710955
Cl 1.8508259545 3.0430778854 -5.1904674148
H -3.4185077908 -1.7796667933 0.3678921009
H -2.4371981548 -3.2258117279 0.6550489222
H -3.5609491178 -3.1738897998 -0.7065558576
H -1.2418917520 -2.8458135257 -1.5377031724
H -2.2207191371 -1.3975548042 -1.8181941221
H 0.2504737464 -2.8302636741 3.5185821825
H -0.8031015124 -1.6142818464 5.4348667024
H -2.1555902560 0.4037077791 5.0452275234
H -2.5026963975 1.2738345294 2.7245881825
H -0.2652251199 -0.0973945339 -2.1371916144
H 0.7349399800 -1.5406436513 -1.8996460876
H 3.5241971127 0.1403539191 -0.1458028292
H 2.6230766450 -1.4859797748 -0.0879878631
H 1.4768553716 0.8019942134 -3.4877398178
H 2.1734441544 5.0188965958 -3.1522332058
H 2.1439444028 4.8216935526 -0.6757902253
H 1.7857914552 2.6070566824 0.3966593783
