28
CONF33
O -1.3625119868 2.2870714429 -0.8947525870
C -2.3795432667 1.3594220454 -1.2805904175
C -2.0612434710 0.0001990965 -0.7072379876
O -0.8623424235 -0.5285069627 -1.3104505567
C -0.1377374290 -1.2988191620 -0.3693051228
C -0.9794360777 -1.3394549169 0.9080592141
C -1.8056377926 -0.0561561303 0.7974585027
O -3.0629885258 -0.0879434285 1.4609814015
N 1.1975080867 -0.6716222982 -0.1483837721
C 1.4629137438 0.6365021508 -0.4586357294
C 2.6718023016 1.2029745151 -0.2426431316
C 3.7531251007 0.4361367901 0.3299401212
O 4.8839375041 0.8245778305 0.5722012104
N 3.3844752610 -0.8989484076 0.6156859160
C 2.1586178272 -1.5028426060 0.4293039960
O 1.9198223478 -2.6590332207 0.7431206074
H -1.5586163071 3.1379509861 -1.2989939494
H -3.3625428800 1.6593262157 -0.8870789104
H -2.4461634176 1.2771449808 -2.3749682866
H -2.9096938943 -0.6662681854 -0.9334532845
H 0.0635919593 -2.2943505748 -0.7736342751
H -0.3622590146 -1.4164129842 1.8047485553
H -1.6582225128 -2.1982951707 0.8734621244
H -1.2194271049 0.8212464838 1.1045769222
H -2.9139746838 0.0428183557 2.4030352331
H 0.6323494698 1.1814836508 -0.8933423321
H 2.8568107194 2.2364114782 -0.4991412578
H 4.0973870649 -1.4846113713 1.0300377909
