61
CONF540
C -2.0402808655 3.6025493769 4.3652386603
C -3.2588386269 2.6821152780 4.2909085936
C -3.4063709580 1.9529544268 2.9519414130
C -2.2487133599 0.9955916613 2.6802394301
C -2.4279807724 0.2001348646 1.4062513378
O -3.4254157641 0.4087195039 0.6751568695
N -1.5056127020 -0.7298665889 1.0721037779
C -0.2318680204 -0.9070740724 1.7887873241
C 0.9455487278 -0.5135459326 0.9253260566
C 2.0395567840 -1.3649586187 0.7809410769
C 3.1134887884 -1.0088551333 -0.0318060272
C 3.1018284124 0.1989601428 -0.7316310469
C 2.0189172341 1.0698826542 -0.5532688315
C 0.9549563539 0.7174836097 0.2624431448
C 4.1912412821 0.5435547852 -1.6748625301
C 5.5138598080 0.5955386366 -1.2255166259
C 6.5466209639 0.9844575194 -2.0726727372
C 6.2715215764 1.3327075982 -3.3928152851
C 4.9667575918 1.2643585285 -3.8659790605
C 3.9252435964 0.8606585958 -3.0242575676
C 2.5756987081 0.7348773041 -3.5796884084
N 1.7341935881 -0.2609415213 -3.2828794703
N 0.6666312906 0.0696266452 -3.9840588044
N 0.7944657487 1.1837994731 -4.6839004441
N 2.0115144107 1.6209879680 -4.4472156026
C -1.7246578141 -1.6965982731 -0.0326514860
C -2.9704478262 -2.5945457265 0.1871132682
C -3.0796833026 -3.6228197266 -0.9408357403
C -2.8765606481 -3.2896369668 1.5461184428
C -1.7280677254 -1.0678025964 -1.4337237446
O -1.0290232289 -1.5171935213 -2.3290786241
O -2.5613725337 -0.0633596901 -1.6480258503
H -2.0448605871 4.3199761031 3.5365796465
H -1.1014673971 3.0415281516 4.3174513795
H -2.0356791052 4.1696264015 5.3013251012
H -4.1664085911 3.2739369905 4.4593457351
H -3.2153107602 1.9438583859 5.1026201855
H -3.4724539950 2.6857343711 2.1392700944
H -4.3454485890 1.3896709129 2.9464871384
H -1.3052106969 1.5502845722 2.6087742727
H -2.1327876074 0.2999153768 3.5218233543
H -0.2432283698 -0.3098863042 2.7011682317
H -0.1417430895 -1.9556335127 2.0923866630
H 2.0449728879 -2.3243174198 1.2913639729
H 3.9441547096 -1.6963115586 -0.1620437199
H 2.0064705903 2.0221138505 -1.0757970918
H 0.1168951764 1.4003841335 0.3740580098
H 5.7235688520 0.3535554784 -0.1879429977
H 7.5643647964 1.0262391986 -1.6978749091
H 7.0719077903 1.6430926259 -4.0563922306
H 4.7473632667 1.4991038937 -4.9025609132
H -0.2081658280 -0.4529341525 -3.8910627600
H -0.8496783989 -2.3528719038 -0.0243677962
H -3.8648711988 -1.9634348242 0.1718490200
H -2.1747367821 -4.2390910414 -0.9950995357
H -3.2328378361 -3.1521914376 -1.9167262553
H -3.9306035184 -4.2831965602 -0.7508922359
H -1.9860047151 -3.9275349546 1.5917087555
H -2.8308258769 -2.5729627106 2.3715075296
H -3.7560673319 -3.9222519572 1.6983712620
H -3.0384581947 0.1518377083 -0.7678686753
