45
CONF13
C 0.0810565480 0.9341913579 5.2656385449
O 0.9001231925 -0.1246910722 4.7324604009
C 1.1948260907 -0.0747042320 3.4230317651
C 2.0175306334 -1.0769903869 2.9181107283
C 2.2932295119 -0.9949348550 1.5569899829
O 3.0740611882 -1.9284663998 1.0179993684
C 3.2917373515 -1.8810216065 -0.4126779360
N 1.8140351281 -0.0100092205 0.7861025493
C 1.0161285076 0.8743495202 1.3846633466
N 0.4623223489 1.8915669296 0.6192075020
C 0.3295411940 2.0286766307 -0.7699913550
O -0.3957338451 2.8850663496 -1.2357790480
N 1.0661105969 1.1278542995 -1.5205480625
S 0.6250373179 0.7813875639 -3.1305747730
O 0.8526262449 1.9517894747 -3.9696854029
O 1.2883391579 -0.4884041286 -3.4099924834
C -1.1371530637 0.5524575342 -2.9699589806
C -1.8407087401 -0.1586068294 -1.9955011168
C -3.1864755486 0.1381467561 -2.2704003078
N -3.3074002279 0.9481796077 -3.3204066657
N -2.0583050253 1.2038785222 -3.7303831572
C -1.8602399329 2.1429439660 -4.8308191399
C -1.3593964269 -0.9726692224 -0.9015156706
N -1.9847236771 -1.0204960360 0.2841698506
N -1.2350805546 -1.8906772993 0.9438616853
C -1.4913867342 -2.2780998045 2.3204438380
N -0.2105668284 -2.3659341858 0.2427754278
N -0.2735950628 -1.7944845191 -0.9322279623
N 0.6746475819 0.9036465518 2.6773195841
H -0.9003618739 0.9499889294 4.7836016746
H 0.5643442876 1.9046446809 5.1258022063
H -0.0172191643 0.7051262956 6.3267116079
H 2.4203486620 -1.8637703799 3.5400415953
H 2.3454270606 -1.9840538509 -0.9503807980
H 3.9400840062 -2.7312499576 -0.6210826177
H 3.7898203270 -0.9489904031 -0.6944442160
H -0.1324219354 2.5287628104 1.1299672861
H 1.5186604077 0.3617183244 -0.9997434456
H -4.0617424488 -0.2223273690 -1.7491206359
H -1.4133804367 3.0660540963 -4.4553793645
H -1.2030676821 1.7112445867 -5.5870351718
H -2.8479293275 2.3363234736 -5.2482008806
H -2.4698450798 -2.7594702784 2.3910826729
H -0.7020642577 -2.9686704271 2.6172251732
H -1.4712397891 -1.3892753900 2.9560069988
