53
CONF115
C -5.5910971997 -0.6493295416 -2.1040348037
O -4.2587052310 -0.0768157703 -1.9843742482
C -3.6141742639 -0.3627368559 -0.8529822291
O -4.0580606711 -1.0303266621 0.0553051756
C -2.2370199002 0.3311982880 -0.7999121952
C -2.4001686164 1.6208399658 0.0448312416
C -2.0730090247 1.1446218113 1.4408309603
C -1.3781275453 -0.0751149190 1.4113241795
C -1.2451867171 -0.4747953578 0.0222814032
N -0.2708178072 -1.1593194330 -0.4581957672
N -0.1996335870 -1.2367620373 -1.8244389044
C -1.2756588664 -0.6723041518 -2.6456637394
O -1.6955993951 0.5718798841 -2.0883754468
C 0.9934811670 -1.6003385388 -2.4187546886
O 1.0633081061 -1.8729992230 -3.6037772517
N 2.1208771821 -1.5808504731 -1.5487379261
C 2.3249197890 -0.4286467794 -0.7194098475
C 2.1264794386 0.8351443509 -1.2687765541
C 2.2048806046 1.9629405523 -0.4580714916
C 2.5097465413 1.7951598103 0.8816674569
C 2.7575652205 0.5467250280 1.4363859291
C 2.6494521083 -0.5754686227 0.6283787875
O 2.6421436994 2.9445259898 1.6951957400
C 1.5282398269 3.3323966998 2.3552109685
F 0.4956692932 3.6130001104 1.5253712780
F 1.8256184434 4.4396698680 3.0444433571
F 1.0796930868 2.3994426880 3.2259585276
C 3.1002097718 -2.5648487075 -1.7317693279
O 2.8934285662 -3.6380539212 -2.2553362048
O 4.2761269611 -2.1589764958 -1.2320036134
C 5.3320731841 -3.1520157793 -1.2795820280
C -0.9045861102 -0.6651893015 2.5793096745
C -1.1485431920 -0.0315667053 3.7923822808
C -1.8492559305 1.1743610424 3.8027681535
C -2.3194271184 1.7864814393 2.6427342088
Cl -2.1375446492 1.9643760907 5.3450761049
H -5.9499465659 -0.3324880860 -3.0816637485
H -5.5325667139 -1.7380299918 -2.0438255454
H -6.2317863813 -0.2629910135 -1.3086474306
H -1.6513124534 2.3454491185 -0.2978592585
H -3.3899412826 2.0749671875 -0.0466849319
H -0.8897409669 -0.4813019954 -3.6461365870
H -2.1154406364 -1.3796908226 -2.6872665197
H 1.8948669360 0.9421609901 -2.3239590872
H 2.0423414345 2.9556677396 -0.8621500979
H 3.0050313501 0.4567050339 2.4880443726
H 2.7919287832 -1.5652114843 1.0469542697
H 5.5543356544 -3.4120386725 -2.3166493747
H 5.0333095381 -4.0440560704 -0.7247089879
H 6.1898896119 -2.6738213029 -0.8092163975
H -0.3677047101 -1.6074572658 2.5495837422
H -0.8046945147 -0.4676549748 4.7231140610
H -2.8458676450 2.7334874842 2.6858120707
