71
CONF150
C 7.2521077195 0.6326032928 1.6337768220
C 6.8646210819 -0.8138538266 1.7404587246
C 5.5626613282 -1.2584298066 1.4569866775
C 5.1873448658 -2.6026691635 1.6308556688
C 6.1501929935 -3.5101277227 2.0714243461
C 7.4542169206 -3.0963054452 2.3269849224
C 7.8018778906 -1.7608418930 2.1653167524
C 3.7833558916 -3.0511612828 1.3373910615
N 4.5730735653 -0.3383673981 1.0240094006
C 4.6278659415 0.4004164446 -0.1139986051
O 5.5626123733 0.3871255427 -0.9133449710
C 3.4288693491 1.3275666656 -0.3075586060
N 2.2186879924 0.8454165854 0.3471975064
C 1.5615786145 -0.1903077178 -0.4610770717
C 0.3541530317 -0.7417254723 0.2769763969
N -0.6051693695 0.3283513579 0.5623159292
C 0.0520122011 1.3659147611 1.3626963959
C 1.2634546179 1.9222493019 0.6299845283
C -1.7863629423 -0.2162191515 1.2396369926
C -2.9195877448 0.7965287655 1.4107599940
C -3.2927322732 1.5615398429 0.1386089235
C -3.6778902723 0.6521671037 -1.0393663981
C -4.8800637436 -0.2211935266 -0.7155304753
C -6.1150144629 0.3491951371 -0.3897745654
C -7.2177111781 -0.4426112061 -0.0871737547
C -7.0649996374 -1.8193686033 -0.1195358997
C -5.8665302723 -2.4283899866 -0.4424686511
C -4.7753576441 -1.6131607495 -0.7403717080
F -8.1382810348 -2.6004863882 0.1773085659
C -3.9134880713 1.4104866635 -2.3366053870
C -3.6260839676 0.7771418840 -3.5507784057
C -3.8601927858 1.4018162857 -4.7716239074
C -4.3908757242 2.6805816584 -4.7574893125
C -4.6881876546 3.3491458366 -3.5839964399
C -4.4446559870 2.7024651304 -2.3732576414
F -4.6216288078 3.3051199557 -5.9436681599
H 6.4347103438 1.2868228973 1.9526479106
H 8.1283318910 0.8364577929 2.2537508300
H 7.4890246939 0.9001672244 0.5989759027
H 5.8725487251 -4.5518090000 2.2050570057
H 8.1958950586 -3.8139988290 2.6637869935
H 8.8131540718 -1.4325932944 2.3889120649
H 3.6837143375 -4.1265216923 1.4989619164
H 3.5072226492 -2.8290371091 0.3008442289
H 3.0522721725 -2.5443397350 1.9786734464
H 3.6714360002 -0.3113023484 1.4932621533
H 3.7157851068 2.2931569272 0.1307556266
H 3.3065477602 1.4866878218 -1.3921730649
H 1.2428989214 0.2194569639 -1.4386599770
H 2.2751272086 -0.9999574398 -0.6535201304
H 0.6951943002 -1.2385784923 1.2085974708
H -0.1354317854 -1.4996039612 -0.3463417310
H -0.6500867961 2.1853664453 1.5467222824
H 0.3716742800 0.9672171050 2.3471847946
H 1.7532938809 2.6742090566 1.2588831116
H 0.9301266943 2.4183770449 -0.3016674235
H -1.5209185199 -0.6267908999 2.2346539680
H -2.1412436436 -1.0636739765 0.6399639941
H -3.7941472837 0.2465402974 1.7808398260
H -2.6661006539 1.5203268623 2.1936623994
H -4.1217018429 2.2371179345 0.3787019869
H -2.4531325367 2.1904796424 -0.1800469450
H -2.8334681502 -0.0210027390 -1.2261920442
H -6.2267256451 1.4293691918 -0.3743736480
H -8.1781215721 -0.0070174371 0.1669655296
H -5.7897632349 -3.5102312491 -0.4592729889
H -3.8259939361 -2.0746039463 -0.9975173695
H -3.2110201147 -0.2272702782 -3.5416497193
H -3.6338948465 0.9141062944 -5.7137085681
H -5.0971412646 4.3532873419 -3.6172424421
H -4.6739392329 3.2285729043 -1.4530485567
