44
CONF8
C 3.4467118535 -0.7868460608 -1.4428605895
C 2.6811568076 0.4765726068 -1.6421663522
N 1.7943233084 0.7987805001 -0.6871766297
C 1.0897488628 1.9191148182 -0.8870030948
N 1.2460706361 2.7293737622 -1.9439769210
C 2.1720995891 2.3256777088 -2.8085899462
N 2.9153764320 1.2087178156 -2.7297225039
O 2.4245427149 3.0629344792 -3.8856038739
C 1.6695514138 4.2892987450 -4.0526334558
N 0.1207964048 2.2994890748 0.0307628277
C -0.5932612876 3.5645692929 -0.2265379079
C -0.3417615223 1.5355235104 1.1329458511
O -1.3336096538 1.8715831024 1.7597875113
N 0.4088067435 0.4250391857 1.4467820908
S -0.1308720423 -0.7225694218 2.5726658943
O 0.8312828583 -1.8246234675 2.4299373984
O -0.3070198239 -0.0714051620 3.8726319393
C -1.7409526305 -1.2899625372 2.0065391230
C -2.8622673810 -0.8376279157 2.6915133690
C -4.1152758387 -1.3395134949 2.3530485106
C -4.2331524638 -2.3014165130 1.3558391627
C -3.1030074649 -2.7616153310 0.6861933316
C -1.8416420637 -2.2508550101 0.9926922993
C -0.6767528753 -2.6877634046 0.1615605232
O -0.0015860807 -1.9306534005 -0.5051642811
O -0.5262539517 -4.0147955338 0.1976787969
C 0.5492061632 -4.5404614092 -0.6274001168
H 4.0775275319 -0.6929519299 -0.5522606277
H 2.7504558349 -1.6107648522 -1.2584317612
H 4.0699893923 -1.0048173709 -2.3093767033
H 2.0464063712 4.7226467351 -4.9780108825
H 1.8481309704 4.9615206315 -3.2104449114
H 0.6030351999 4.0684949942 -4.1356130517
H -1.1977306246 3.7919759013 0.6473447635
H -1.2370984101 3.4698041232 -1.1050810969
H 0.1326281402 4.3597100305 -0.3984527633
H 1.1114609900 0.1273129567 0.7336871068
H -2.7503759489 -0.1102124770 3.4861039208
H -4.9939588930 -0.9840992336 2.8801826503
H -5.2076876138 -2.7024943751 1.0982802657
H -3.1946560040 -3.5122255871 -0.0915328000
H 0.3681741615 -4.2949432233 -1.6760963546
H 1.5028561798 -4.1179876944 -0.3028040524
H 0.5285839190 -5.6175339658 -0.4707594675
