21
CONF60
C -1.6324223966 0.5355983199 0.8233177909
C -2.5783779123 -0.2822403590 -0.0502435876
O -3.8561224526 -0.1833878992 0.5847220040
C -0.3273597694 0.9705501530 0.1889593820
C 0.7010315632 -0.1697981657 -0.0634732170
C 1.9670190552 0.2276593198 -0.8932009431
C 3.1511965888 -0.7863534981 -0.7713549283
F 4.0725480555 -0.4928281079 -1.6994550973
F 3.7245141572 -0.7101386543 0.4349035826
F 2.7209139960 -2.0406702035 -0.9739751008
F 1.6231530199 0.2966360113 -2.1988831948
F 2.4289040208 1.4336175090 -0.4960598639
F 1.0963206653 -0.6519224446 1.1435116623
F 0.0752400850 -1.1731464142 -0.7350664015
F 0.2723545895 1.8794869322 1.0164024253
F -0.5500739082 1.5925215832 -1.0108973974
H -1.4080841228 0.0115470432 1.7572717649
H -2.1423369155 1.4693401012 1.0863592113
H -2.6070273733 0.1363591272 -1.0662087999
H -2.2547180276 -1.3280277768 -0.1117788795
H -4.4766727226 -0.7348023809 0.0973393887
