51
CONF201
C -0.0161273818 2.9424203127 0.1745836136
C -1.2686884177 2.1181939978 0.2323831625
C -1.9426954026 1.9449629060 1.3791204732
C -3.2053100356 1.1791167998 1.5051817765
C -3.2081532003 -0.3675867876 1.6858675495
C -3.6659523409 0.5738442969 2.7929198198
C -2.8498711874 0.7437123345 4.0541444893
C -5.1600880116 0.5575552468 3.0463825139
C -1.9145165300 -1.0637003302 1.6620133962
O -0.9040161182 -0.7730721017 2.2749489586
O -1.9703835360 -2.1040947972 0.7853424768
C -0.7044053959 -2.7913303527 0.5204288631
C 0.1373840607 -2.0259202622 -0.4393860159
C 0.1003161581 -2.1409095727 -1.7959483382
O 0.9810093502 -1.2705748081 -2.3718085902
C 1.5975806656 -0.5820900293 -1.3517973744
C 1.1143599905 -1.0119443348 -0.1559092957
C 2.6268856498 0.4120075059 -1.7518835810
C 3.7983946672 -0.2261311357 -2.4727557869
C 4.6564588936 -1.0915738026 -1.7879636635
C 5.7250541614 -1.6943856851 -2.4436410549
C 5.9478130844 -1.4429034480 -3.7974666933
C 5.0961654266 -0.5843333815 -4.4869388559
C 4.0271050970 0.0201078922 -3.8266094570
C -1.6766401414 1.4868888963 -1.0661353870
H 0.2375598828 3.3670835965 1.1493636186
H -0.1222479586 3.7613678852 -0.5482368552
H 0.8266815328 2.3291594739 -0.1703457782
H -1.5527034116 2.4103524209 2.2825008533
H -4.0016209141 1.4889509755 0.8299554630
H -3.9940908699 -0.8830804356 1.1440275015
H -1.7779755868 0.7510816926 3.8638791544
H -3.1319731588 1.6838290017 4.5419558208
H -3.0668800293 -0.0739133824 4.7501974739
H -5.4265300819 -0.2631393594 3.7215369990
H -5.4701738200 1.4983373872 3.5151370209
H -5.7231490995 0.4363281066 2.1163397679
H -0.1837457909 -2.9584716608 1.4661083958
H -1.0121064898 -3.7470991794 0.0933920629
H -0.4653267204 -2.7653942037 -2.4712400625
H 1.4057360202 -0.6483880564 0.8176991278
H 2.9717350142 0.9085098925 -0.8389242466
H 2.1774721072 1.1801290622 -2.3929927889
H 4.4821592258 -1.2924959489 -0.7337656880
H 6.3866771392 -2.3608163076 -1.8984286762
H 6.7811504941 -1.9134770169 -4.3097974274
H 5.2620870198 -0.3830656026 -5.5409834791
H 3.3638037313 0.6897801698 -4.3675158162
H -0.8640132923 0.8475672498 -1.4368588231
H -1.8476831392 2.2529167510 -1.8330104895
H -2.5765203206 0.8756877266 -0.9733595363
