46
CONF147
C 6.8853664765 3.8981298635 0.0632644782
C 6.0854939694 2.6185760898 0.0972394513
O 4.6867111259 3.0022293547 0.2589132904
C 3.7759565527 2.0321762226 0.3310134730
N 4.1567753874 0.7645321539 0.2499719636
C 3.1408061949 -0.1257228129 0.3381526000
N 1.8418431831 0.2101037695 0.4943633973
C 1.6115232993 1.5231256382 0.5607046923
N 2.5222192522 2.4950534011 0.4861919208
N 0.3068479830 1.9609846392 0.7190985557
C -0.8883347518 1.2527027409 0.8317182989
O -1.9541525859 1.8402350349 0.9266230435
N -0.7557763217 -0.1193985532 0.8154622936
S -2.0653413997 -1.1788532836 0.9556452827
O -1.4447839120 -2.5041220853 0.8240580528
O -2.8390352068 -0.8421383469 2.1548500819
C -3.0686064382 -0.8050553335 -0.4975498026
C -2.4381118125 -0.3279429934 -1.6412457110
C -3.2055479354 0.0271886577 -2.7455266755
C -4.5922509554 -0.0737901128 -2.6934364340
C -5.2143792168 -0.5544664185 -1.5470517126
C -4.4593433337 -0.9466900238 -0.4413642226
C -5.1957920364 -1.5262873924 0.7229922556
O -6.1485538958 -0.9960743707 1.2527289000
O -4.7081631371 -2.7311130988 1.0444089469
C -5.3029092342 -3.3553570649 2.2122556110
N 3.4426238967 -1.4260425976 0.2656460592
C 2.4488206260 -2.4874034265 0.3487971657
H 7.9445811700 3.6527914464 -0.0556965654
H 6.5806391654 4.5290889129 -0.7762504222
H 6.7632790613 4.4603597652 0.9931161659
H 6.1849993999 2.0464531433 -0.8301236288
H 6.3706972770 1.9782881891 0.9373880642
H 0.1880352613 2.9656531238 0.7425196246
H 0.1937270167 -0.5075006887 0.6668624768
H -1.3600030623 -0.2136019985 -1.6692181223
H -2.7149946670 0.3995647829 -3.6382430351
H -5.1926494075 0.2198460882 -3.5477257602
H -6.2942964562 -0.6488952239 -1.5021890963
H -5.1532210031 -2.7160246500 3.0854060276
H -4.7776033421 -4.3017192690 2.3296085723
H -6.3695460112 -3.5200787935 2.0453506522
H 4.4149917271 -1.6624626655 0.1452551526
H 2.9672294123 -3.4438143943 0.2738229299
H 1.9097192072 -2.4492674296 1.3015542293
H 1.7205091758 -2.4132603816 -0.4664198193
