47
CONF6
C 3.7893693939 -4.1775419239 -1.4435062872
C 3.8998497955 -2.7198196998 -1.2380158072
C 3.0476872688 -1.7640188803 -0.7483567943
C 3.7908038826 -0.5434858149 -0.8443591975
N 4.9897498564 -0.7533184539 -1.3445028791
O 5.0519359333 -2.1346642809 -1.6103639715
C 3.4071726955 0.8131816725 -0.4268990918
C 3.6797805914 1.9080254239 -1.2545297591
C 3.3252854914 3.1909404156 -0.8502857592
C 2.6983627760 3.3905558761 0.3777308680
C 2.4309060178 2.3029958876 1.2073305071
C 2.7822143873 1.0183112829 0.8092897317
C 1.6671198967 -2.0178789187 -0.2920458527
O 1.3521610087 -3.0587401534 0.2858899227
N 0.7709302447 -1.0286571083 -0.5827185481
C -0.5652755502 -1.0316294307 -0.0850244227
C -1.0656244641 0.1933853509 0.7551912747
N -2.0967046140 0.4133094113 -0.2671260188
C -1.7231423985 -0.6729474341 -1.0488975579
O -2.1800834729 -1.1269629035 -2.0709999424
C -3.4144025075 0.8030897538 0.1776048037
C -3.6637314219 0.0220265426 1.5218509313
S -1.9726210521 -0.0470769007 2.3386367724
C -4.6349009772 0.7186114951 2.4691917607
C -4.1519623876 -1.3893240871 1.1949588292
C -3.4790671282 2.3118083120 0.3560832380
O -2.5387451212 3.0085319800 0.6641175799
O -4.7231777903 2.7714194717 0.1402510464
H 2.7415470351 -4.4768370439 -1.4152697314
H 4.3196114001 -4.7099286609 -0.6459232146
H 4.2365979105 -4.4606429107 -2.3998657346
H 4.1560520859 1.7455257683 -2.2156348223
H 3.5337010433 4.0358022779 -1.4988182144
H 2.4186644339 4.3920172445 0.6887775847
H 1.9495180373 2.4548992259 2.1681856700
H 2.5835290319 0.1734140908 1.4617366799
H 1.0894402197 -0.2152955133 -1.0912400775
H -0.7648930486 -1.9844473627 0.4138744692
H -0.3419749548 1.0058040970 0.8606935550
H -4.1605917742 0.4923754683 -0.5602950771
H -5.6195207842 0.7905755331 1.9962475409
H -4.2968125866 1.7216487951 2.7422777582
H -4.7425776534 0.1307927769 3.3849207924
H -3.4799652937 -1.9074596744 0.5054273967
H -4.2187088482 -1.9814573520 2.1112292173
H -5.1472229677 -1.3372742102 0.7385967520
H -4.7302843496 3.7303608020 0.3080092959
