35
CONF379
C 0.0670259162 2.2137473820 0.4749589770
C 0.2069998758 1.5110980083 1.8110223439
O 1.5660807815 1.1173078024 1.9266555940
C 1.8148094923 0.2229411708 3.0031704613
C 1.4069476532 -1.2082403360 2.6976030351
O 2.2238383195 -1.7168274330 1.6483747029
C 1.5266473550 -2.4656636767 0.6613776323
C 0.8503510233 -1.5480096811 -0.3501155735
O 0.1553877270 -2.3909866552 -1.2664893551
C -0.2628477531 -1.7566755081 -2.4650280599
C -1.4780094859 -0.8583639473 -2.3202617290
O -1.0918518739 0.3990633840 -1.7769307815
C -2.1933663272 1.2877087386 -1.6366014593
C -1.7189446738 2.6090422921 -1.0640260883
O -1.3194473866 2.5064901666 0.2955406211
H 0.6596161559 3.1419229133 0.4618000411
H 0.4384781997 1.5477606802 -0.3112808586
H -0.0806210583 2.1766467307 2.6419555131
H -0.4773462738 0.6482825104 1.8197770672
H 1.3044555796 0.5603551932 3.9217128615
H 2.8953884057 0.2545174161 3.1778799843
H 0.3422839752 -1.2579275285 2.4297448463
H 1.5445622148 -1.8189026986 3.6059915558
H 0.7809319783 -3.1371563275 1.1149755518
H 2.2708600002 -3.0873016696 0.1534570901
H 1.6095431732 -0.9420488533 -0.8683303107
H 0.1593676353 -0.8556309502 0.1505033456
H -0.5213056455 -2.5710612020 -3.1514046545
H 0.5634947690 -1.1777218129 -2.9091738735
H -1.9324293921 -0.7103204265 -3.3166144360
H -2.2251800978 -1.3480784749 -1.6735768405
H -2.9549276313 0.8517958797 -0.9690253651
H -2.6633466662 1.4701700981 -2.6206067908
H -0.9079602438 3.0185091826 -1.6853151130
H -2.5594852292 3.3135570343 -1.0956254100
