43
CONF4
C -1.3527082084 2.1390642810 -0.1770940609
C -1.5710326309 1.0127078330 0.8337030074
C -1.5672773595 -0.3658304305 0.2276129601
C -2.8326616176 -0.9171421933 0.3298639744
C -3.1193367173 -2.1685094314 -0.1991396336
C -2.0882346022 -2.8625441365 -0.8263550273
C -0.8010418159 -2.3384511189 -0.9176013560
C -0.5233901266 -1.0740880819 -0.3798624107
N 0.7496195239 -0.4816795743 -0.3812060590
C 1.8851497114 -0.8861695535 -1.0486219679
O 1.9206082293 -1.8606494376 -1.7905430704
C 3.0899293592 -0.0586089637 -0.8389424653
C 3.4017534876 0.9697639371 0.0502206001
N 4.6712112374 1.3639411569 -0.1857030331
N 5.2232947571 0.6526350936 -1.1967036494
C 4.2891707458 -0.2072090872 -1.5953919977
C 4.5804746221 -1.1508989113 -2.7075297232
C 5.4616792800 2.3918414224 0.4662464578
Cl 2.4617340429 1.7055404173 1.3049815224
C -3.7432716867 0.0286846358 1.0698269186
O -2.8758207187 1.1412264693 1.4214644094
C -4.8818387589 0.5449421720 0.1898271897
C -4.2748786431 -0.5766528632 2.3665808264
H -2.0703710567 2.0446426283 -0.9963723196
H -1.5000976829 3.1050948570 0.3132813978
H -0.3431944843 2.1182774418 -0.6016321076
H -0.8306768672 1.1026214894 1.6482512676
H -4.1133598104 -2.5980539963 -0.1234156007
H -2.2790506180 -3.8434578582 -1.2499714311
H -0.0127561442 -2.8977466534 -1.3986600240
H 0.8278824780 0.3582870011 0.1694484071
H 4.5218231325 -2.1863808268 -2.3633387480
H 3.8433912565 -1.0502251565 -3.5081282498
H 5.5803606280 -0.9450402626 -3.0955596633
H 6.3763098878 1.9456523750 0.8651175482
H 5.7266197885 3.1653069061 -0.2599222449
H 4.8857233206 2.8342815677 1.2784421459
H -4.4842302612 0.9839754458 -0.7286798499
H -5.5579215099 -0.2727647347 -0.0803042127
H -5.4525494003 1.3073749605 0.7281898886
H -4.9399210821 -1.4195517964 2.1534092263
H -4.8356072130 0.1776130455 2.9265065994
H -3.4455064727 -0.9318199837 2.9834318460
