46
CONF23
C 5.6225728974 -4.1250791570 1.4611594367
C 4.2028154312 -3.6088500837 1.4856903626
O 4.0518706095 -2.7563718389 0.3208095239
C 2.8608920313 -2.1913005274 0.1136200198
N 2.8089179603 -1.4238850560 -0.9764521926
C 1.6029601642 -0.8843729979 -1.1993176524
N 0.5029275411 -1.1001285950 -0.4362712761
C 0.7179777998 -1.8375160715 0.6417651736
N 1.8766279031 -2.4239204454 0.9885387447
N -0.3211668241 -2.0321994423 1.5335145859
C -1.6221517565 -1.4981643161 1.5520343492
O -2.2855225850 -1.5444464158 2.5680087256
N -2.0439978972 -0.9925206676 0.3339742273
S -3.4863640488 -0.1010320500 0.1714378573
O -3.5151562765 0.2665272999 -1.2471761207
O -4.5779941897 -0.8332285778 0.7977273671
C -3.1799158413 1.3943169348 1.1243962465
C -3.6776345712 1.4551283288 2.4200626185
C -3.5107067704 2.6235440508 3.1561434643
C -2.8733371320 3.7202233423 2.5862913031
C -2.3886915673 3.6535523590 1.2837709566
C -2.5207028199 2.4809043108 0.5413959892
C -1.8884364053 2.4172260558 -0.8154506353
O -0.9440387309 1.7092459408 -1.0946883660
O -2.4478487329 3.3040767932 -1.6482661533
C -1.9144108113 3.2972507342 -2.9923903874
N 1.4354922456 -0.0652961060 -2.2537140539
C 2.5429512619 0.3652848245 -3.0897950240
H 6.3380081686 -3.2998428758 1.5060148470
H 5.7886482059 -4.7758297407 2.3245684755
H 5.8116990784 -4.7007749764 0.5514245184
H 3.4686740986 -4.4191971605 1.4310348039
H 3.9939321045 -3.0211905552 2.3856834379
H -0.0685851534 -2.4975327764 2.3935994345
H -1.2930988679 -0.7764147520 -0.3460831617
H -4.1897833873 0.5926416062 2.8302063819
H -3.8907817692 2.6771088065 4.1705013462
H -2.7556666417 4.6369195062 3.1545286330
H -1.8965932859 4.5108447589 0.8366789782
H -2.0519980496 2.3081621066 -3.4364999473
H -0.8521295180 3.5552789447 -2.9812100937
H -2.4889066158 4.0472399620 -3.5342548919
H 0.5784400818 0.4702994661 -2.2466550683
H 2.1383811959 0.9102093447 -3.9453882636
H 3.2412192130 1.0147833012 -2.5467486541
H 3.1006119711 -0.5016739999 -3.4512771805
