61
CONF77
C -7.1364643394 0.8352564248 -2.8416266354
C -6.2585092266 0.1167031009 -1.8188174595
C -4.8342317131 -0.1074338747 -2.3282089490
C -3.9418914908 -0.8379269563 -1.3313135050
C -2.5296828935 -1.1285179918 -1.8517030247
C -1.7494553051 -1.3658502851 -0.5532355872
N -2.2689678385 -0.3334113212 0.3443356136
C -3.6804843131 -0.0598561104 -0.0256474579
C -2.0680109734 -0.6368379973 1.7585558692
C -0.2505429266 -1.2527584809 -0.7831121738
O 0.4115769494 -2.2279827280 -1.1874685642
N 0.2719055413 -0.0445043073 -0.5468917810
C 1.6502743942 0.3420597628 -0.7995691259
C 2.5215206219 0.2713485063 0.4650456320
C 3.0951043056 -1.1074952520 0.7901328965
C 3.9087811907 -1.0342034699 2.0957885781
C 3.0906323397 -0.3674486408 3.2085402550
C 2.4426261559 0.9504216869 2.7544244948
O 1.7215392744 0.7777108022 1.5467538694
S 3.6493970267 2.3615990432 2.6897164523
C 2.4186833942 3.7186550754 2.6500190173
O 2.0622325929 -1.2516367735 3.6578963098
O 5.0968840699 -0.2653268370 1.9253367341
O 2.1108312192 -2.1233637538 0.9948347717
C 1.6682574907 1.7633490760 -1.4101131118
C 0.8060874439 1.8701862986 -2.6594960062
O 3.0188391733 2.1532016280 -1.6850314076
H -7.2046357831 0.2578836497 -3.7703537672
H -8.1522712198 0.9856004948 -2.4629298698
H -6.7206102631 1.8180738466 -3.0898920886
H -6.2275085141 0.6989923778 -0.8886353289
H -6.7045556246 -0.8535915257 -1.5629212877
H -4.3742402154 0.8619347480 -2.5703524097
H -4.8727247927 -0.6810416985 -3.2645196755
H -4.4088009987 -1.7990398067 -1.0754006423
H -2.4853860339 -1.9837692321 -2.5299917801
H -2.1239155013 -0.2477685610 -2.3667225536
H -1.9385196608 -2.3904988382 -0.1848959213
H -4.3648164062 -0.3778850035 0.7731214561
H -3.8256077388 1.0201408044 -0.1747958353
H -1.0025921192 -0.8047784203 1.9556493528
H -2.6265619749 -1.5343300089 2.0804284455
H -2.3919691235 0.2110710092 2.3705593650
H -0.3700327074 0.6279116332 -0.1371715888
H 2.0629529315 -0.3513740871 -1.5449441798
H 3.3820521558 0.9362242840 0.3095411361
H 3.7744159627 -1.3895864506 -0.0315842874
H 4.1431989343 -2.0598249968 2.4155988680
H 3.7424968125 -0.1717740527 4.0663469105
H 1.6917298598 1.2302979457 3.5003327788
H 1.7850420594 3.6294830542 1.7642180884
H 1.8050194815 3.7117003660 3.5549368294
H 2.9766431215 4.6564513093 2.5976153000
H 1.6509570614 -1.6285603737 2.8608649455
H 5.6440936498 -0.6997974593 1.2583105846
H 1.6141324286 -2.2606904885 0.1606637752
H 1.3182259907 2.4716560848 -0.6475905612
H 1.1277450413 1.1347345735 -3.4071017723
H -0.2492435874 1.6920220211 -2.4376510388
H 0.9043236940 2.8716412329 -3.0870573031
H 3.3244518854 1.6404559886 -2.4460890778
