46
CONF21
C 2.8102959493 1.4440221272 0.8088164282
C 2.0651595117 0.4494040747 1.6767801961
O 2.0673310141 -0.8263708479 1.0497736945
C 1.4634536826 -1.8331023117 1.8621433744
C 1.2196367327 -3.0801966993 1.0262511806
O -0.0437796420 -3.1110893847 0.3784093191
C -0.2162713281 -2.1136428445 -0.6220749959
C -1.6364701006 -2.1872897364 -1.1246912721
O -2.6106379518 -1.9294243523 -0.0875829378
C -2.3878549223 -0.8675711184 0.7452670925
C -2.3382237392 -1.1118492480 2.1124353884
C -2.1773646821 -0.0689194860 3.0212445949
C -2.0500307141 1.2320409866 2.5522198681
C -2.1008083241 1.4964118087 1.1840187473
C -2.2836672429 0.4566870842 0.2707783513
O -2.4138831870 0.6074551223 -1.0782620269
C -2.0975985075 1.8686367513 -1.6746806442
C -0.6163445150 2.1718431043 -1.6650851290
O 0.0380660328 1.2051115169 -2.4821551573
C 1.4360027679 1.4327452802 -2.6348411259
C 2.2745943287 0.9407871169 -1.4736720758
O 2.1046596710 1.8278292162 -0.3658099011
H 3.8029158708 1.0413434174 0.5505469697
H 2.9533280858 2.3631915078 1.3892759005
H 2.5677755366 0.3937844164 2.6599397453
H 1.0292356711 0.7944453346 1.8399238487
H 0.5030145455 -1.4785281540 2.2706068286
H 2.1326443116 -2.0705481281 2.7071240680
H 2.0419931078 -3.1885380266 0.2981207987
H 1.2237370993 -3.9574235036 1.6814082279
H 0.4718338938 -2.2837662191 -1.4692045403
H -0.0081681560 -1.1097670043 -0.2258369739
H -1.7588844827 -1.4851496361 -1.9564936327
H -1.8685781595 -3.2023287510 -1.4587470769
H -2.4220051861 -2.1434054796 2.4376863604
H -2.1426605015 -0.2768465778 4.0853994261
H -1.9170975575 2.0559648738 3.2458303048
H -2.0149717562 2.5203710383 0.8412858380
H -2.4491447900 1.7754033208 -2.7059330520
H -2.6560753341 2.6822210779 -1.1911672592
H -0.4663266184 3.1858831962 -2.0765465470
H -0.2111431217 2.1574022091 -0.6469546323
H 1.7317612199 0.8736275534 -3.5301457354
H 1.6353601681 2.5021178101 -2.8138293181
H 1.9794294928 -0.0811903851 -1.2074557947
H 3.3357635252 0.9282189602 -1.7811734133
