25
CONF3
C 2.6991896235 0.0334982957 0.1603870427
C 1.7438982187 0.7930842974 0.8089660169
C 0.5877797239 1.1735176056 0.1275081041
C 0.3835821996 0.7963662307 -1.1994760079
C 1.3403030696 0.0330920718 -1.8445172755
C 2.5111200481 -0.3625168323 -1.1759551979
N 3.4396233738 -1.1667667220 -1.8037629940
S -0.6597339117 2.1026349310 0.9832687779
O -1.5290214818 2.7390110873 -0.0073470794
O -0.0453937322 2.8258944568 2.0972299809
N -1.6643869563 0.9244052049 1.7791657245
C -2.2692491455 -0.0879853777 1.0407537343
N -2.1951082559 -1.3450502760 1.3787278757
C -2.9647448277 -2.1139907320 0.5425167144
C -3.6204630471 -1.4524281955 -0.4498742439
S -3.3023166616 0.2534882219 -0.3434586467
H 3.6033762705 -0.2596567850 0.6856216378
H 1.8971634879 1.1113128372 1.8344883814
H -0.5114140557 1.1160860655 -1.7202988305
H 1.1863790881 -0.2606950449 -2.8786148151
H 4.3688242155 -1.1740876690 -1.4158553919
H 3.4231965712 -1.1768144299 -2.8105071896
H -1.1798552567 0.5406370449 2.5875321531
H -3.0007421875 -3.1858384903 0.6974199203
H -4.2420061592 -1.8571977007 -1.2357814980
