19
CONF2
C 2.4639898584 -0.6340300007 0.0545673756
C 2.4273443135 0.7365725194 -0.2042514720
C 1.2042935758 1.4003823521 -0.3304479653
C 0.0249240944 0.6777942225 -0.1888567786
C 0.0616638917 -0.6980233264 0.0707555531
C 1.2781177591 -1.3604897426 0.1906934062
C -1.3395431627 -1.2510278379 0.1575788511
C -2.1941507396 0.0149238190 0.3897892062
C -1.4036713426 1.1515487418 -0.2956996494
H 3.4205996147 -1.1379224708 0.1567725634
H 3.3557237952 1.2915238300 -0.3022060435
H 1.1788950063 2.4685345124 -0.5298405597
H 1.3098878113 -2.4275643649 0.3948535430
H -1.4582008251 -2.0021514588 0.9444471692
H -1.6081631133 -1.7314283262 -0.7938361540
H -2.2519352401 0.2163974619 1.4653190055
H -3.2141164704 -0.0839470846 0.0095371496
H -1.6872046343 1.2385301867 -1.3541207071
H -1.5684541922 2.1303772670 0.1649456066
