39
CONF108
C -3.3361776717 2.3722709986 -1.0162873366
C -2.5977375272 2.4277783604 0.3186768584
C -1.1515920930 1.9347234611 0.2124478136
N -1.0637453456 0.5296991433 -0.2151540425
C -1.5614713619 -0.4748953979 0.7306779117
C -0.5169720333 -1.5268690158 1.0350587613
O 0.5880763438 -0.8462308511 1.6808267967
C 1.6571371107 -1.6437361050 1.9356553985
C 1.8166336379 -2.2603276682 3.1827466402
C 2.9312041264 -3.0304027104 3.4891790294
C 3.9059902769 -3.1925877317 2.5134253644
C 3.7952061693 -2.6066560973 1.2592168191
C 2.6694519723 -1.8393986269 0.9870667781
Cl 2.5149987716 -1.0863102911 -0.5766281379
Cl 5.3160709436 -4.1590240356 2.8771386700
Cl 0.5772547612 -2.0419453125 4.3897616913
C -0.9566823831 0.1077887454 -1.5068545221
O -1.3593536179 -0.9687416577 -1.9146973435
N -0.2771801276 1.0011474881 -2.3972131765
C -0.5862110295 1.1335854093 -3.7402533275
C 0.3769742695 1.9521013587 -4.2574919855
N 1.2954617785 2.3035567295 -3.2866543881
C 0.8831609461 1.7230793450 -2.1888404687
H -2.8040278867 2.9445768758 -1.7840349085
H -3.4346927515 1.3424426980 -1.3755932688
H -4.3442142055 2.7857228388 -0.9244311180
H -3.1432449996 1.8515305648 1.0759112296
H -2.5611596721 3.4602317776 0.6874784463
H -0.6212811586 2.5621730354 -0.5046387455
H -0.6333125210 2.0241421035 1.1741790403
H -2.4573069915 -0.9704085722 0.3374124200
H -1.8237341696 0.0391171708 1.6592453211
H -0.1703109668 -2.0179951258 0.1195123285
H -0.9331497368 -2.2788296972 1.7188069983
H 3.0320380590 -3.4913534188 4.4631064030
H 4.5649452047 -2.7386745598 0.5099369036
H -1.4406226463 0.6330668295 -4.1662154111
H 0.4680887817 2.3078574345 -5.2734905558
H 1.3814877328 1.7377948930 -1.2289888760
