119
CONF791
C -9.6414713029 -1.4461484880 3.5288982348
C -9.9570250728 0.0452895924 3.4329205310
C -11.3663087066 0.2711099043 2.8817024283
C -8.9211743607 0.7626328274 2.5436969225
C -9.2287233635 2.2658949025 2.4816684622
O -9.1947534016 2.9334767157 3.5231838716
N -9.4871648885 2.8328956994 1.2853536854
C -9.7276078892 4.2895363277 1.1784287504
C -9.7199189049 4.5091297943 -0.3171160380
C -8.5589836438 5.2011234518 -0.9781649809
C -9.9241454049 5.8543700292 -0.9291992452
C -10.2762954225 3.2292434213 -0.8972500114
C -9.5939103572 2.1555157841 -0.0225835874
C -8.2460423447 1.7510403857 -0.5480857115
N -8.0510505953 0.9679677391 -1.5992525954
C -6.6893204063 0.8419804779 -1.7137796520
C -6.0434669447 1.5488651492 -0.7143982092
N -7.0683517062 2.1332621399 0.0063102871
C -4.6444230828 1.6426477528 -0.3471824376
C -3.7005781693 0.8241165171 -1.0061068320
C -2.3870422532 0.8788823058 -0.6065511090
C -1.9477668650 1.7099574302 0.4379444026
C -2.8663102482 2.5262975103 1.0851652621
C -4.2003387853 2.4881996036 0.6856668857
C -0.5086546982 1.5112619298 0.6312189672
C -0.0528504138 0.5519011048 -0.2866717805
C -1.2119445349 0.0940806906 -1.1358393405
F -1.4171632345 -1.2724338902 -1.0442277829
F -0.9950751945 0.3268739027 -2.4835880886
C 1.2647733315 0.1553799597 -0.3471248172
C 2.1889455863 0.7287893158 0.5484675859
C 1.7285955672 1.6870951507 1.4676450808
C 0.3941453622 2.0851551836 1.5185524769
C 3.6084453621 0.3244741632 0.5216408037
C 3.9520479979 -1.0021008210 0.2309802157
C 5.3015548325 -1.3203620262 0.2122975699
C 6.3179256802 -0.3716677120 0.4705555164
C 5.9698743553 0.9478141101 0.7608416678
C 4.6226664705 1.2766621422 0.7828388249
N 7.5638950208 -0.9663110384 0.3662347909
C 7.3152273843 -2.2239759445 0.0570989929
N 5.9758058361 -2.4954993222 -0.0406134256
C 8.3362497966 -3.3020540395 -0.1538653352
C 8.6556612898 -4.1085762241 1.1352683749
C 9.5656710069 -5.2907691244 0.7298270287
C 10.9368789114 -4.6050986921 0.4317822847
C 10.6001480640 -3.1170702275 0.6354204128
C 9.6460858309 -3.1622891268 1.8328026126
N 9.6671741807 -2.7450521985 -0.4560582200
C 10.0295337105 -2.0317253406 -1.5368336229
O 11.1627675893 -1.5481850719 -1.6703647060
C 8.9945852746 -1.8299306000 -2.6523274947
C 9.5091101731 -2.4771251658 -3.9571484595
C 9.7839415961 -3.9656087066 -3.7317501890
C 8.5021797846 -2.2783943646 -5.0888210998
N 8.7733646773 -0.3969539581 -2.7822104871
C 7.5315497682 0.1423992291 -2.7962029379
O 6.4820222772 -0.4813202664 -2.8830896686
O 7.6009232551 1.4991253354 -2.7208383960
C 6.3295342593 2.1776563291 -2.8204026437
N -7.5616787988 0.6536048483 3.0570526803
C -6.6098345203 -0.1102018580 2.4687774172
O -6.7841652404 -0.8700909888 1.5256914202
O -5.4106704352 0.0760446183 3.0829140447
C -4.3254634213 -0.7208103848 2.5591517948
H -8.6353033401 -1.6218964361 3.9207568148
H -10.3560364143 -1.9398439581 4.1949292620
H -9.7129858195 -1.9185543245 2.5422234739
H -9.8898707999 0.4935001828 4.4330192332
H -11.4511257565 -0.1326635935 1.8654683954
H -12.1045793619 -0.2382170497 3.5081168879
H -11.6293820293 1.3339660732 2.8503758578
H -8.9254309253 0.2957256358 1.5550370996
H -10.7013152523 4.5361497573 1.6239283120
H -8.9501965616 4.8486809609 1.7067828331
H -7.7815356817 5.6090476086 -0.3393056664
H -8.2200002306 4.8102721450 -1.9328970513
H -10.4958060678 5.9047819132 -1.8507729386
H -10.0545484241 6.6983149529 -0.2584641552
H -11.3607503613 3.1744414701 -0.7455793498
H -10.0565392021 3.0928645646 -1.9575721330
H -10.2210533377 1.2610769154 0.0455668076
H -6.2420865290 0.2427284871 -2.4947305059
H -6.9712945705 2.7298762671 0.8142964135
H -4.0091184793 0.1508924401 -1.7993132910
H -2.5614299256 3.1841625695 1.8927171916
H -4.9042426453 3.1339117718 1.2002369085
H 1.5911513314 -0.5691501690 -1.0867228001
H 2.4290076252 2.1151412516 2.1774578739
H 0.0723089762 2.8218901406 2.2477589730
H 3.1925563747 -1.7557371836 0.0519307700
H 6.7325129638 1.6978594283 0.9459058241
H 4.3365869361 2.3053917748 0.9757950704
H 5.5663273275 -3.3849609706 -0.2861335785
H 7.9869558533 -3.9801792588 -0.9425148513
H 7.7558162814 -4.3870092915 1.6856248112
H 9.6479497320 -5.9990269667 1.5585928280
H 9.1670694608 -5.8290103879 -0.1351773167
H 11.7068817227 -4.9158319274 1.1442716989
H 11.3033329182 -4.8001042906 -0.5791959420
H 11.4451300136 -2.4318858858 0.6783225972
H 10.1111791470 -3.6145642431 2.7122586667
H 9.2229848606 -2.1875089136 2.0844554735
H 8.0299735547 -2.2803956827 -2.4060388249
H 10.4493744930 -1.9742081400 -4.2182083107
H 10.1130229652 -4.4364216800 -4.6629440499
H 10.5613521820 -4.1309174216 -2.9788218960
H 8.8720997393 -4.4767717890 -3.3992013443
H 7.5597617666 -2.7888634660 -4.8585668647
H 8.8965789437 -2.6965289049 -6.0203552254
H 8.2862159277 -1.2191666456 -5.2562288010
H 9.5680927991 0.2168466855 -2.6731599068
H 5.8625586002 1.9755541363 -3.7880395657
H 5.6630349783 1.8640456519 -2.0126466208
H 6.5631336269 3.2382221874 -2.7272943211
H -7.3002222354 1.2470775823 3.8315617873
H -4.1638953877 -0.4998024518 1.5009294715
H -3.4509289033 -0.4313206261 3.1416831839
H -4.5348797064 -1.7857627027 2.6895278001
