45
CONF1066
O 3.6508987792 0.1156043814 3.4273219360
C 2.5454517663 -0.4202740473 2.7004020718
C 2.2271622785 0.4104113941 1.4697929582
O 3.3756095093 0.4523888188 0.5813860778
C 3.1115517408 -0.3545378253 -0.5576331120
O 3.3468992898 -1.7271970585 -0.2927907959
C 3.9898476406 0.1251799958 -1.7049394291
O 5.3471675158 -0.2816754583 -1.5115900500
C 1.6011166915 -0.2005945611 -0.7909334578
O 1.0733403605 -1.2137597788 -1.6268508327
C 1.0556783856 -0.1502506838 0.6526490723
O -0.0651079705 0.7191013684 0.8515155611
C -1.3052850153 0.1736559383 0.5106592128
O -1.4263665929 0.1782821119 -0.9011225600
C -2.6510195337 -0.4412441286 -1.3211833271
C -2.5359600459 -0.5976633511 -2.8246567830
O -1.4752369419 -1.4930341157 -3.1609134505
C -3.8382083536 0.3835623484 -0.8432746453
O -3.8328214502 1.6451775015 -1.5070157163
C -3.7589890379 0.5663976197 0.6837010640
O -4.7244236005 1.5353271312 1.1097545930
C -2.3880757104 1.0598388148 1.1281063926
O -2.3389584439 0.9966571635 2.5513052261
H 4.4106141975 0.1035678238 2.8301293757
H 2.7341473583 -1.4616018680 2.4022125511
H 1.6810071785 -0.4001655617 3.3739245433
H 2.0155587073 1.4444625642 1.7638574815
H 4.2906162168 -1.8860478242 -0.4578269899
H 3.8989006235 1.2132757459 -1.8046662611
H 3.6480970001 -0.3513834995 -2.6286534548
H 5.7220384989 0.2633730652 -0.8071585528
H 1.4061737836 0.7633828029 -1.2734817852
H 1.5089997318 -2.0427562242 -1.3759981480
H 0.7888204683 -1.1682004792 0.9749562414
H -1.3919048904 -0.8627231739 0.8919020910
H -2.7288168546 -1.4439426548 -0.8661499016
H -3.4628858340 -1.0260191423 -3.2199080315
H -2.3831187540 0.3895279511 -3.2822672074
H -0.6921608065 -1.2272322732 -2.6479210996
H -4.7647565217 -0.1688833216 -1.0756384796
H -4.4056345788 2.2258196160 -0.9840201960
H -3.9484125670 -0.4054767402 1.1641982208
H -5.5948643114 1.1162487689 1.0959116378
H -2.2326470355 2.0884187173 0.7685786191
H -1.4840425647 1.3550022396 2.8234632393
