49
CONF80
C -4.5661487706 -0.4356354666 -0.7736824115
C -3.7803154993 -1.2037118596 0.2683894116
C -2.6133347650 -0.5281392975 1.0121650714
C -2.3811494421 -1.6630399934 -0.0169744084
C -1.8685526394 -2.9665812471 0.5634150406
C -1.7218470039 -1.3465685762 -1.3428483396
C -2.1707384171 0.8390815127 0.7522654999
O -2.2400964118 1.4912796295 -0.2687192827
O -1.5910654673 1.3556475615 1.8981310003
C -0.9852209443 2.6521601935 1.7187532381
C -0.7868639885 3.1822828107 3.0688080193
N -0.6024936388 3.6302846923 4.1171239789
C 0.3337316693 2.5683798022 0.9731158093
C 1.2168514848 1.5308519917 1.2619737105
C 2.4142586298 1.4496618114 0.5612472289
C 2.7469731025 2.3967991988 -0.4072860786
C 1.8546375880 3.4278404223 -0.6777803959
C 0.6437799099 3.5189076607 0.0045483663
O 3.2787192304 0.4384518022 0.9271554523
C 4.0218848194 -0.1952776197 -0.0582295531
C 3.4501768423 -0.5776857594 -1.2696927742
C 4.2270732319 -1.2750993079 -2.1899462657
C 5.5530217372 -1.5944673963 -1.9011704092
C 6.1038595305 -1.2126018327 -0.6798461847
C 5.3418264420 -0.5071329358 0.2479976096
C -4.6921019831 -2.0480405053 1.1392775851
H -3.9495686694 0.2022137636 -1.4025824977
H -5.3140427149 0.1958722623 -0.2819218578
H -5.0995075798 -1.1484950983 -1.4130720878
H -2.4895125115 -0.8297028562 2.0470451985
H -0.7744654519 -2.9453108058 0.6093871991
H -2.2435396212 -3.1653762590 1.5676558860
H -2.1615139235 -3.8008801621 -0.0847554665
H -2.0145142470 -0.3836604631 -1.7565762950
H -1.9781123891 -2.1295151049 -2.0657619709
H -0.6324620383 -1.3459413721 -1.2231510651
H -1.6708391976 3.3205168685 1.1841269452
H 0.9813907847 0.7821819535 2.0112053841
H 3.6891186439 2.3240702806 -0.9397168757
H 2.1062630148 4.1661366051 -1.4321851707
H -0.0579276698 4.3155056115 -0.2210694616
H 2.4149035979 -0.3342597770 -1.4853070840
H 3.7871826393 -1.5773856795 -3.1352352628
H 6.1515727454 -2.1401386423 -2.6230332431
H 7.1350106861 -1.4581798128 -0.4460234768
H 5.7557716006 -0.1987189213 1.2023093286
H -5.4991081788 -1.4250268336 1.5392113984
H -5.1474469762 -2.8437229286 0.5383364550
H -4.1755168275 -2.5078289205 1.9825925751
