54
CONF22
C -5.8284570451 2.3786716631 -0.1945107545
C -4.3846908473 1.9082840867 -0.3151288080
C -4.2336874663 0.4880242249 -0.9761033617
N -2.9952355419 -0.0520484937 -0.4469841373
C -2.3555385696 0.6304754990 0.6916395949
S -3.6615532644 1.6953665530 1.4040159523
C -2.0630573193 -0.7742168960 1.3080771975
C -2.6991616805 -1.3281797690 0.0107199630
O -2.9195050539 -2.4242840185 -0.4490474360
N -0.7333553138 -1.1510169905 1.6757958185
C 0.2676627808 -1.2068647269 0.7668656256
O 0.0943106821 -0.9961949770 -0.4310951630
C 1.6476617531 -1.5296624325 1.3611466915
C 2.1747038415 -0.3801504218 2.1979172322
C 2.8793233092 -0.6544210366 3.3710401463
C 3.3862761450 0.3858686346 4.1466529436
C 3.1867411087 1.7079386435 3.7580398408
C 2.4780706683 1.9862982024 2.5900073735
C 1.9745697080 0.9481338908 1.8134252285
C 2.5417221363 -1.9485875480 0.2033976890
O 2.5828103875 -3.0707820953 -0.2397062336
O 3.2653442624 -0.9110847065 -0.2770611417
C 4.0747443740 -1.1649274797 -1.4008109651
C 3.5235128188 -1.0277987195 -2.6654166116
C 4.3473118679 -1.2186779110 -3.7722984875
C 5.6928387656 -1.5391903115 -3.6002149266
C 6.2210214900 -1.6698848408 -2.3173696559
C 5.4088558439 -1.4824628900 -1.2008258852
C -5.4137749305 -0.4161090229 -0.6325332762
O -5.5245042184 -1.0541710726 0.3898050468
O -6.3364233761 -0.3822705074 -1.6073105202
C -3.5576792639 2.9148344156 -1.1166343565
H -5.8512046183 3.3744034570 0.2563326478
H -6.4335902433 1.7059268901 0.4195096221
H -6.2747549659 2.4476805837 -1.1915303961
H -4.1970723599 0.6241246666 -2.0623853534
H -1.4620786524 1.1996995146 0.4203588974
H -2.7415387002 -0.9777933448 2.1411161427
H -0.5294786760 -1.3167909416 2.6508492756
H 1.5457383897 -2.4182159605 1.9934197768
H 3.0307722268 -1.6857609785 3.6770900868
H 3.9331371017 0.1612417372 5.0570689472
H 3.5780365639 2.5191584945 4.3638544076
H 2.3156281293 3.0149215335 2.2835050368
H 1.4264777124 1.1734034734 0.9026719565
H 2.4736715536 -0.7765577004 -2.7746699039
H 3.9342157606 -1.1148065534 -4.7704568556
H 6.3300988591 -1.6853824440 -4.4661894508
H 7.2687181895 -1.9177134736 -2.1807930369
H 5.7978838366 -1.5784961839 -0.1925040056
H -7.1007092425 -0.9178999854 -1.3295220248
H -3.5704698622 3.8868756566 -0.6177362762
H -3.9953731343 3.0276935291 -2.1149373357
H -2.5189665975 2.5933780889 -1.2322622825
