42
CONF76
C -5.9719290086 0.9785350389 3.2497552365
C -6.1593395022 1.3772811763 1.7881173283
C -5.0385657331 0.8697432379 0.9156142346
O -5.2361474313 1.2480714014 -0.4301656549
C -3.9386931239 1.1478557545 -1.0137728842
C -3.0037688376 1.6157423341 0.1185745970
O -3.7894013905 1.4623094161 1.3060142554
C -1.7422901944 0.7814135228 0.2404044897
O -1.0404404239 0.9468622092 -0.9909457899
C 0.1510826232 0.2919785376 -1.1426485754
C 0.7979162328 0.4849352172 -2.3654059906
C 2.0151364077 -0.1303086954 -2.6138247574
C 2.5855111439 -0.9490862229 -1.6444494315
C 1.9442614809 -1.1541768452 -0.4304347330
C 0.7264373011 -0.5298175863 -0.1713703000
O 3.7603627839 -1.6128400457 -1.9620105095
C 4.8464878440 -1.4789540889 -1.1234369985
C 5.0383628426 -0.3722883144 -0.2980973419
C 6.1923753921 -0.2986571615 0.4763069884
C 7.1483339666 -1.3088452981 0.4301237095
C 6.9444089728 -2.4047484803 -0.4053834535
C 5.7957608030 -2.4972953997 -1.1811221054
H -6.8078309991 1.3344032527 3.8577338749
H -5.0497344296 1.4045199273 3.6532049659
H -5.9186586773 -0.1100072270 3.3587348640
H -6.1993622006 2.4662437255 1.6787441168
H -7.0955132248 0.9681049046 1.3918102410
H -4.9404697820 -0.2331661092 0.9822407958
H -3.7152848902 0.1065903897 -1.2975728675
H -3.9038265227 1.7805501449 -1.9016033755
H -2.7405363368 2.6752735496 0.0063001752
H -2.0108511016 -0.2742270724 0.4004744422
H -1.1341148217 1.1266418595 1.0879087772
H 0.3339416744 1.1254028492 -3.1073973759
H 2.5305237056 0.0122813654 -3.5572612696
H 2.3974283758 -1.7996975192 0.3146381454
H 0.2395004528 -0.7011675091 0.7805882352
H 4.2974750111 0.4185929186 -0.2672683816
H 6.3445613438 0.5645148799 1.1167295442
H 8.0444712548 -1.2419956209 1.0372547659
H 7.6828618629 -3.1988974284 -0.4511748693
H 5.6195583309 -3.3436190892 -1.8359270278
