44
CONF99
C -4.6770486283 0.3295424402 1.9817176384
C -3.3115197031 -0.1900474021 1.6109252782
C -2.9986014171 -1.6078824264 2.0660730721
O -2.0929341143 -2.1047696705 1.0576012912
C -2.1432816082 -1.2106197773 -0.0610470381
O -3.2290899876 -0.3439595337 0.1709152609
C -2.4534989165 -2.0517810377 -1.3153608435
N -2.3119899359 -1.2895568266 -2.5418281764
C -1.2382681988 -1.2207453396 -3.3548562001
N -1.4426308093 -0.3246173208 -4.3125082460
C -2.6897975074 0.1427163513 -4.0211596265
N -3.2563342015 -0.4076649494 -2.9546035011
C -0.8344368343 -0.4260577231 -0.2011163738
C -0.8959987694 0.9539763761 -0.4218193685
C 0.2389391877 1.7315528957 -0.5915529224
C 1.4874013783 1.1199200804 -0.5571153848
C 1.5984696023 -0.2545994019 -0.3702072457
C 0.4395114169 -1.0023271194 -0.1992336850
Cl 0.6724445405 -2.7416301175 -0.0208250375
O 2.5811186922 1.9217786086 -0.7886060629
C 3.8075388369 1.5670523032 -0.2472376850
C 3.9400223775 1.2720697622 1.1070637603
C 5.2003753710 0.9985893329 1.6253331713
C 6.3027692700 1.0358403022 0.7778293864
C 6.1770124907 1.3390470256 -0.5720607575
C 4.9121092307 1.6033364418 -1.0888159431
Cl 7.8998656129 0.6937695084 1.4359546045
H -5.4549880349 -0.3463740287 1.6144950636
H -4.8374344641 1.3256531671 1.5610122820
H -4.7573013471 0.4002948361 3.0705307412
H -2.5214397727 0.5004190963 1.9413818969
H -2.4998109504 -1.6465061127 3.0382273288
H -3.9053145376 -2.2267786676 2.0817362850
H -1.7569711545 -2.8909489844 -1.3619010191
H -3.4753856677 -2.4299893374 -1.2351054963
H -0.3586403838 -1.8364068420 -3.2145718351
H -3.1968768227 0.8981764972 -4.6083466355
H -1.8713674460 1.4259866895 -0.4478770178
H 0.1663754540 2.8016134501 -0.7510323901
H 2.5670482513 -0.7400630600 -0.3690329816
H 3.0689620752 1.2583153753 1.7537568797
H 5.3205742846 0.7697908010 2.6780912231
H 7.0479167591 1.3644002097 -1.2169259042
H 4.7825053550 1.8394843129 -2.1394202354
