42
CONF22
C -2.6343248499 -2.0741968863 -1.6379799192
C -2.2379017991 -0.8103852123 -0.9552491525
C -3.0270166551 0.2633527894 -0.6693013270
C -2.2281043251 1.2660442661 0.0297272028
C -0.8944495526 0.7985592550 0.1336580425
C -0.8587351159 -0.5271722193 -0.5151711822
C 0.1558161709 -1.4076285323 -0.6977729548
C 1.5857025423 -1.2197388068 -0.4794824284
C 2.3515803580 -2.2850909293 0.0216137403
C 3.7209324740 -2.1522291882 0.2156158214
C 4.3344162896 -0.9528135733 -0.1211140558
C 3.6129687396 0.1009619719 -0.6779124939
C 2.2428439506 -0.0330985732 -0.8461601823
S 6.1381551658 -0.8020670940 0.0790908960
O 6.6490085731 -2.1750339879 0.5168184997
C 6.0894967254 0.2334305190 1.5968684733
C 0.0343049969 1.5298440801 0.8631749820
C -0.3416133345 2.7477536576 1.4393194258
C -1.6439607742 3.1902661713 1.2752373611
C -2.6178075025 2.4771781445 0.5887257678
F -1.9955762941 4.3799341422 1.8320486495
C -4.4742664827 0.4489720809 -0.9620804189
C -5.3573277245 0.2649710670 0.2548661861
O -5.0034153565 -0.1614239785 1.3318427649
O -6.6298997731 0.6281948914 -0.0144421708
H -2.4213053428 -2.9436754971 -1.0049306143
H -3.7004706550 -2.0876420016 -1.8713316342
H -2.0788408983 -2.2136262278 -2.5725796617
H -0.1179266735 -2.3969879004 -1.0616529705
H 1.8608679384 -3.2209124375 0.2729459502
H 4.3146596525 -2.9688030738 0.6138684756
H 4.1131947872 1.0151501785 -0.9856331064
H 1.6753667008 0.7737838618 -1.2976081115
H 7.1272759675 0.4029425975 1.8937174493
H 5.6004466821 1.1818609829 1.3587158816
H 5.5401236313 -0.3141446892 2.3669693240
H 1.0489813073 1.1774787586 1.0043446692
H 0.3633513924 3.3426449632 2.0089694093
H -3.6324399950 2.8565221104 0.5241346380
H -4.8300553489 -0.2557458754 -1.7215303404
H -4.6711898734 1.4500030972 -1.3661521338
H -7.1628659942 0.4725675791 0.7838629725
