63
CONF16
C 1.6209871652 -1.5684123413 1.0481300159
C 0.4405822723 -2.4664470498 0.6940134265
N 0.0580221244 -2.2901979642 -0.7122564644
C 1.1682295162 -2.7042891672 -1.5760398449
C 2.3857907055 -1.8134382173 -1.3459385078
C 2.8023645220 -1.8670773325 0.1247162935
N 3.9447284495 -0.9976450091 0.4042514844
C 4.0104619904 0.3904709268 0.3120978415
C 3.0874600422 1.3546264212 -0.0758848817
C 3.4936193018 2.6921489459 -0.0493020517
C 4.7808750708 3.0566390159 0.3494975273
C 5.7137272744 2.0916062581 0.7377537780
C 5.3096901722 0.7671541913 0.7122957280
N 5.9819799026 -0.3981647772 1.0311253408
C 5.1651537806 -1.4995715849 0.8526259196
O 5.4545282822 -2.6784122921 1.0487144587
C -1.1752831729 -3.0212698583 -1.0344812601
C -2.4196497268 -2.3228622015 -0.4862157735
C -2.6856319632 -0.9682335734 -1.1533736672
C -3.4052467742 0.0179840594 -0.2141272183
C -2.4720188553 0.4433677839 0.9106289380
C -2.6640269040 -0.0142795756 2.2154610027
C -1.7782229342 0.3217608688 3.2391881469
C -0.6996885925 1.1287030044 2.9281008595
C -0.4760817017 1.6178534113 1.6513105258
C -1.3711974245 1.2658346915 0.6467833253
F 0.1771388953 1.4599000842 3.9148432847
C -3.9813568031 1.2329790956 -0.9195879486
C -5.0582512693 1.9074909661 -0.3332023423
C -5.6049519762 3.0472002278 -0.9132945119
C -5.0505101889 3.5053679392 -2.0970538252
C -3.9878129946 2.8730783397 -2.7151335307
C -3.4577995213 1.7309931818 -2.1151522635
F -5.5770578490 4.6189934818 -2.6757422863
H 1.9155638418 -1.7337082294 2.0906177994
H 1.3118180797 -0.5228477120 0.9505919496
H -0.4058393285 -2.2096030775 1.3385384010
H 0.7016655326 -3.5258125873 0.8980153874
H 1.4445579603 -3.7639513251 -1.3942940892
H 0.8494618047 -2.6244036921 -2.6211538210
H 2.1337182954 -0.7875429657 -1.6352000389
H 3.2172742948 -2.1465697994 -1.9769242133
H 3.1602700953 -2.8808723947 0.3421605520
H 2.0841649078 1.0962759965 -0.3907744672
H 2.7870380662 3.4597583394 -0.3477742798
H 5.0649420559 4.1037547452 0.3583070518
H 6.7169031272 2.3638337604 1.0482347697
H 6.9341021267 -0.4707513610 1.3529351137
H -1.1315563005 -4.0626480487 -0.6609382240
H -1.2540367338 -3.0782077409 -2.1280502708
H -3.2837330994 -2.9828256722 -0.6274972855
H -2.3165778751 -2.1924758037 0.5968123129
H -1.7308006501 -0.5301983481 -1.4657503845
H -3.2888166536 -1.1110569105 -2.0582285517
H -4.2477482718 -0.5124533579 0.2484489928
H -3.5150129033 -0.6508750422 2.4404585667
H -1.9198159372 -0.0356683116 4.2535013581
H 0.3813827744 2.2524172256 1.4528669741
H -1.2058804169 1.6421095052 -0.3588640092
H -5.4784154392 1.5338234463 0.5970022418
H -6.4431426700 3.5692341811 -0.4642906235
H -3.5858497503 3.2625889701 -3.6443666062
H -2.6261843572 1.2298617906 -2.5991352361
