45
CONF7
C -2.1775567982 -3.3910740175 -4.6263752248
C -2.8461771339 -2.3307163669 -3.8129705408
C -2.3604150397 -1.8290624000 -2.6743471592
C -3.0591087729 -0.7959551739 -1.8954486207
C -2.3080146136 0.3575365638 -1.1895962270
C -3.0339526467 -0.7258663227 -0.3939395942
C -2.2552374398 -1.7429677112 0.4073744345
C -4.3054800336 -0.2669840924 0.2873748428
C -0.8406487326 0.4430929896 -1.2391150731
O -0.0396512292 -0.4670864992 -1.2631270874
O -0.4576485637 1.7568247463 -1.2570981751
C 0.9725168483 1.9744959451 -1.2793461928
C 1.5999408240 1.6617212011 0.0493092187
C 2.5356269810 0.6455999297 0.2123045355
C 3.0692305319 0.3548802225 1.4620096540
C 2.6994224461 1.0592517894 2.6016588661
C 1.7710149783 2.0830742788 2.4323965745
C 1.2381034658 2.3786069807 1.1876456215
F 0.3494815325 3.3788787404 1.0776838438
F 1.3817769407 2.8051071621 3.4940655723
C 3.3148074161 0.7932180924 3.9558156178
O 4.3096211078 1.7510608943 4.2932544149
C 5.4778906671 1.6409655740 3.4891081539
F 3.9724465667 -0.6384541801 1.5568202463
F 2.9501838127 -0.0656310401 -0.8429213127
H -1.9727008178 -3.0364508345 -5.6438310703
H -2.8171248275 -4.2765423263 -4.7259120742
H -1.2310891923 -3.6999955649 -4.1746077180
H -3.7967569990 -1.9541590510 -4.1940206745
H -1.4070630392 -2.1876618820 -2.2979217407
H -3.9871036960 -0.4573758345 -2.3526221658
H -2.7994244159 1.3237445935 -1.2246671566
H -2.0365038325 -1.3436137712 1.4038408395
H -1.3103764863 -2.0162167863 -0.0594846915
H -2.8616466142 -2.6468376616 0.5315008957
H -4.8522059803 0.4591650989 -0.3213282109
H -4.0801154482 0.1974143706 1.2537708938
H -4.9641591158 -1.1238043317 0.4679611708
H 1.4299932492 1.3686030765 -2.0637532591
H 1.0756404913 3.0362847554 -1.5120655631
H 3.7296797050 -0.2241189593 3.9764194651
H 2.5464820752 0.8784206339 4.7280278328
H 5.9178040269 0.6348612996 3.5603412561
H 5.2689712883 1.8619727165 2.4319598887
H 6.1895272919 2.3757928188 3.8705227986
