26
CONF3
C 2.6193996675 -0.9811572687 0.6828329772
C 1.4708170045 -0.0883881224 0.3422832550
C 1.2629852682 1.1204859048 0.8760523724
C 0.0398942604 1.9121711481 0.4865669271
C -0.7720897646 1.1554914301 -0.5724846864
C 0.2055789613 0.6211567678 -1.6527869914
C 0.4594649182 -0.5662533740 -0.6782795312
C -1.0029349959 -0.3333965761 -0.1386797796
C -2.0518019298 -1.0280492791 -1.0080244061
C -1.3102851006 -0.6319381501 1.3213701693
H 2.2589237650 -1.9331463763 1.0944308929
H 3.2875755941 -0.5188898406 1.4143931948
H 3.2017506465 -1.2295708511 -0.2137179418
H 1.9500189162 1.5406004777 1.6076447392
H 0.3312368885 2.8976239507 0.0952758256
H -0.5800065174 2.1121215021 1.3733296281
H -1.6505704689 1.7252466222 -0.8969480997
H 1.0738382530 1.2422265184 -1.8892824479
H -0.2981147377 0.3262656959 -2.5736182300
H 0.7026887195 -1.5518476659 -1.0896004573
H -3.0541262686 -0.6712621456 -0.7439835648
H -2.0287378820 -2.1102011711 -0.8363201250
H -1.9100057532 -0.8571793842 -2.0772453987
H -1.3449067065 -1.7150528833 1.4876480645
H -0.5672861188 -0.2107250987 2.0006760630
H -2.2933061215 -0.2263320422 1.5884674502
