47
CONF10
C 5.3659373426 -0.0232515938 1.0275370292
C 4.5960753401 1.3051662459 1.0156265718
C 3.6787470620 1.4149137572 -0.1548995195
N 4.0010281836 2.1180966913 -1.2485544434
N 2.9619397972 2.0143556192 -2.0943746924
C 3.0852139152 2.5627045409 -3.4410142593
C 1.9699696427 1.2225713339 -1.6016297227
C 0.6856726819 0.9945127417 -2.3122501484
O 0.1361297492 1.8964272627 -2.9544148886
N 0.1903462537 -0.2546391109 -2.1826827305
C -1.1288219102 -0.6513665726 -2.6635354723
C -2.0808136937 -0.9495070692 -1.5275921903
C -2.7877411479 -2.1514642007 -1.4828064280
C -3.6790334543 -2.4137645720 -0.4476559201
C -3.8949425491 -1.4908663948 0.5842674667
C -3.1757494069 -0.2914063803 0.5324513577
C -2.2851555604 -0.0247758212 -0.5046963282
C -4.8821255569 -1.8215270342 1.7065025702
C -4.4071868882 -3.0892813443 2.4426650292
C -6.2750471554 -2.0769969805 1.0995393331
C -5.0045599036 -0.6867498335 2.7305086721
C 2.4172507668 0.8275186289 -0.3424411618
Cl 1.5593155694 -0.1130200498 0.8343016189
H 5.9798872311 -0.1195249201 0.1270178103
H 6.0225213006 -0.0763008603 1.9008650384
H 4.6781493251 -0.8734679216 1.0644327626
H 4.0116590241 1.4004880235 1.9377265132
H 5.2970249077 2.1447514208 0.9851073934
H 2.1166704402 2.9371437397 -3.7693058342
H 3.4382411868 1.7914130363 -4.1333485536
H 3.8104069483 3.3759585590 -3.4003096140
H -1.5057183928 0.1727415452 -3.2767280225
H -1.0293640801 -1.5321538917 -3.3066107199
H -2.6395775132 -2.8911754108 -2.2656058155
H -5.3592299877 0.2393163950 2.2660042358
H -3.3037437241 0.4569914033 1.3058537400
H -1.7410841879 0.9165971980 -0.5112267987
H -4.3489015287 -3.9482163162 1.7676445087
H -5.1082605324 -3.3366106256 3.2473903622
H -3.4171333675 -2.9307062960 2.8833874919
H -6.2594966344 -2.9124657595 0.3936615379
H -6.9892249553 -2.3179782100 1.8946398746
H -6.6340794987 -1.1875588224 0.5706817729
H -5.7274826957 -0.9753710257 3.4999128067
H -4.0493393877 -0.4841487235 3.2259997341
H -4.2086585987 -3.3615514938 -0.4470633831
H 0.7142133156 -0.9317904768 -1.6472413552
