18
CONF2
C 0.5450181259 1.2576772126 0.4131345357
C 1.1199720744 0.0110480988 0.1592155909
C 0.3318628279 -1.0748034678 -0.2422235074
C -1.0341819267 -0.8947238201 -0.3844798485
C -1.6181803270 0.3469694090 -0.1325853794
C -0.8237271852 1.4257041906 0.2672441134
O -1.3861773473 2.6396287236 0.5138104821
O -2.9605326136 0.5619977724 -0.2621700101
O -1.9148275286 -1.8776759525 -0.7717302048
C 2.5811354225 -0.1156649041 0.3292080419
O 3.3254277439 0.7764941356 0.6730416999
O 3.0371661481 -1.3731713279 0.0561677915
H 1.1660030544 2.0894783676 0.7226792997
H 0.7855549438 -2.0398585877 -0.4381722847
H -2.3382940650 2.5711202052 0.3625665131
H -3.3771747985 -0.2642414438 -0.5410120588
H -1.4340653283 -2.6982026939 -0.9233723072
H 3.9950201708 -1.3417762140 0.1986774321
