37
CONF81
C -2.0894507939 -2.2796810123 -2.7219542222
C -1.6410469833 -0.8604878437 -2.9947473662
O -0.5957123588 -0.4273737127 -2.0654249982
P -0.9904708800 -0.1403435935 -0.5479894726
O -2.3372098330 0.4158843431 -0.2950023312
O -0.6260069784 -1.4925451442 0.2144353980
C -1.4071116234 -1.9322327742 1.3807123289
C -0.4999039591 -2.7882962409 2.2278847927
O 0.2425645724 0.8635825245 -0.2108864355
P 0.9168300311 1.1123337174 1.2585170298
O 0.0607747003 0.7172142592 2.3949646120
O 2.2941977106 0.3374458658 1.1884066146
C 3.1793446183 0.4315804562 0.0207848166
C 3.1474288299 -0.8721232915 -0.7410971625
O 1.3435600445 2.6423035034 1.1604165856
C 0.3975073399 3.6888006593 1.5695401621
C -0.7295446371 3.8621462924 0.5760060926
H -1.2382560867 -2.9660493267 -2.7292906710
H -2.7934468883 -2.5875621941 -3.5017111840
H -2.5994532362 -2.3573730169 -1.7570185873
H -1.1708585335 -0.7711617258 -3.9763103338
H -2.4742397589 -0.1535066889 -2.9306894913
H -2.2677132509 -2.4919923241 1.0002717376
H -1.7567364140 -1.0543378648 1.9278436418
H -0.1278551557 -3.6465553445 1.6611885378
H 0.3474737592 -2.1992012543 2.5879911296
H -1.0593650846 -3.1585982897 3.0925612541
H 4.1704175368 0.6399123189 0.4317182213
H 2.8771868978 1.2767819950 -0.6055487892
H 2.1521990737 -1.0619843313 -1.1513882196
H 3.8608820473 -0.8229254891 -1.5700561252
H 3.4267847287 -1.7049911815 -0.0902717099
H 0.0247402234 3.4382653004 2.5675771414
H 1.0180454696 4.5850199640 1.6341190552
H -1.3316334614 4.7258913132 0.8763143495
H -0.3388390967 4.0451560050 -0.4289549517
H -1.3850817546 2.9870038304 0.5470889523
