48
CONF355
C -2.9907113871 1.8980341656 -2.4704524654
C -1.4887514595 1.9268955653 -2.7380024915
C -0.6557602203 1.7152995449 -1.4715272722
C 0.8457868415 1.7948041942 -1.7507961898
O 1.3288863301 2.2643653571 -2.7590148669
O 1.5501581510 1.3580843649 -0.7023920784
C 3.0039381806 1.3815012001 -0.8282558608
C 3.5619497662 0.7325233465 0.4187507160
C 3.1741670566 -0.7479948826 0.5422230732
C 3.6315844809 -1.3445209552 1.8353755700
C 4.4621528790 -2.3796677277 1.9506967231
N -1.0022074855 0.4881545945 -0.7343658912
C -1.7703371922 0.6645211362 0.5162840584
C -0.9714896156 1.3254562031 1.5791158976
C -1.0025111974 2.5777501069 2.1134368807
C 0.0537969769 2.6409994172 3.0755030601
C 0.6587016210 1.4245233579 3.0599105123
O 0.0455482600 0.6050081648 2.1527540046
C -0.6007476634 -0.6777768671 -1.2809994448
O -0.0102016913 -0.7562913306 -2.3526554594
N -0.9066932761 -1.8906406531 -0.5669417659
C -1.3780057118 -3.0275039631 -1.2047315674
C -1.3653738928 -4.0113779855 -0.2583356297
N -0.8681987074 -3.5268801405 0.9389888108
C -0.6009133650 -2.2582807171 0.7257596513
H -3.3121800111 0.9203576997 -2.0964245917
H -3.2787424681 2.6577873668 -1.7356488528
H -3.5411701443 2.0961761613 -3.3942045885
H -1.2154072958 1.1714573905 -3.4794651561
H -1.1986077168 2.8991856927 -3.1477582251
H -0.8576831018 2.5429739037 -0.7770805451
H 3.3266952393 2.4224065030 -0.9281024189
H 3.2808611268 0.8325569906 -1.7348080312
H 4.6534906810 0.8294301674 0.3869182777
H 3.2145012227 1.2869298931 1.2996379311
H 3.5862995825 -1.3126034809 -0.3028924904
H 2.0801409707 -0.8216122504 0.4834661028
H 3.2450867357 -0.8675486327 2.7379396271
H 4.7580221750 -2.7642347997 2.9223576192
H 4.8694187457 -2.8761977193 1.0724401599
H -2.6316924769 1.3040817031 0.3018550043
H -2.1576265999 -0.3038646795 0.8385321500
H -1.6981568088 3.3606020866 1.8477598964
H 0.3251922215 3.4821074083 3.6960316291
H 1.4867317609 0.9922104803 3.6001291945
H -1.6796369404 -3.0080404499 -2.2402750713
H -1.6878306100 -5.0375131063 -0.3665662094
H -0.1669512263 -1.5674702943 1.4349978378
