38
CONF4
C 3.0756660923 2.8837199800 2.2360686222
C 1.9545654512 3.6867115821 1.6149289380
C 1.0581458983 4.3704846161 2.6270719552
O 1.1431891034 2.7039434263 0.8565746028
C 0.4567348291 3.1414620076 -0.1849536619
O 0.4115975167 4.2894200289 -0.5851649094
C -0.2827968387 2.0004607276 -0.9271688465
C -1.1675754888 1.1865016853 0.0109807617
C -1.4826682471 -0.1382608611 -0.2878504960
C -2.3799884731 -0.8553257922 0.4990144297
C -2.9590642646 -0.2247530515 1.5914314488
C -2.6758415283 1.0978741275 1.9082805501
C -1.7809955890 1.7973934447 1.1060877815
Br -4.1882821427 -1.2034089665 2.6917575140
C 0.8068802505 1.1686039451 -1.6137414690
C 1.0497157245 1.3292968114 -2.9760449443
C 2.0579737951 0.6072284689 -3.6114220986
C 2.8211512861 -0.2743513908 -2.8606224401
C 2.6064897893 -0.4515040958 -1.4986304317
C 1.5974652256 0.2779908974 -0.8816490937
Br 4.2075448883 -1.2821107457 -3.7233412934
O -1.1436493895 2.6043884421 -1.8835654530
H 3.7315086780 3.5570978726 2.7951424169
H 2.6765621538 2.1347780093 2.9270732320
H 3.6678797238 2.3810259264 1.4666687108
H 2.3430789818 4.4061139093 0.8883664942
H 1.6486774931 5.0882273518 3.2042387772
H 0.6342478267 3.6343961049 3.3173593384
H 0.2456032275 4.9107234234 2.1343936067
H -1.0293371446 -0.6266297867 -1.1441013221
H -2.6194377303 -1.8848339925 0.2596287747
H -3.1413153408 1.5779870763 2.7610501086
H -1.5714371079 2.8354079961 1.3476324723
H 0.4416365440 2.0153012742 -3.5536647734
H 2.2375046049 0.7333312211 -4.6728227713
H 3.2101819681 -1.1463518473 -0.9265328460
H -0.8680136004 3.5353661563 -1.9536284496
H 1.4235162884 0.1397377024 0.1798956925
