42
CONF86
C -5.2438230843 0.0850916831 3.8779114664
C -4.8286358432 1.0226937170 2.7459585608
C -4.1220604231 0.2920066293 1.6323425771
O -4.9997746612 -0.6164326544 0.9815171992
C -4.3685670428 -0.8685424533 -0.2796785581
C -3.6940230591 0.4764450187 -0.6294756132
O -3.7127330651 1.2085903612 0.6115259327
C -2.2903062974 0.3510001401 -1.1819215332
O -1.4939274341 -0.3559738383 -0.2236936181
C -0.1776733905 -0.5663797079 -0.5156671099
C 0.4379809806 -0.1734344093 -1.7080615257
C 1.7912331677 -0.4436748263 -1.9032128056
C 2.5183438967 -1.0912258715 -0.9149127527
C 1.9122299401 -1.4848338580 0.2732641261
C 0.5632562799 -1.2257558288 0.4711737346
O 3.8549395727 -1.4237887371 -1.1259079594
C 4.7856994756 -0.4060994618 -1.1541789610
C 6.0449695960 -0.7460525505 -1.6504155327
C 7.0492855634 0.2144470076 -1.6808505331
C 6.8061470190 1.5102678998 -1.2245104867
C 5.5450322168 1.8339610556 -0.7309908687
C 4.5265445901 0.8829944049 -0.6898109104
H -5.7053197942 0.6491123206 4.6929352307
H -4.3764653405 -0.4460744304 4.2841321720
H -5.9658801284 -0.6590048143 3.5298822398
H -4.1420290515 1.7896911497 3.1214161580
H -5.6980134466 1.5364518223 2.3197776832
H -3.2368065199 -0.2583525237 2.0008520345
H -3.6253445431 -1.6713422067 -0.1853900349
H -5.1366197086 -1.1552434300 -1.0000065398
H -4.2862520106 1.0397071827 -1.3609083168
H -1.8679473689 1.3485571787 -1.3596643727
H -2.3248191477 -0.1958391265 -2.1358400138
H -0.1164541029 0.3305029909 -2.4898446435
H 2.2794493691 -0.1461669839 -2.8260638607
H 2.4970803710 -1.9912552704 1.0342212231
H 0.0693790557 -1.5257976488 1.3896621349
H 6.2207214273 -1.7566435502 -2.0047204800
H 8.0277339805 -0.0522387772 -2.0686286252
H 7.5918216247 2.2578036346 -1.2532081665
H 5.3435658738 2.8373004176 -0.3680269055
H 3.5480626641 1.1415802648 -0.3009816393
