49
CONF46
C -4.2214493646 0.5478265618 0.6597557794
C -3.6069945291 0.5417449265 2.0436535332
C -2.0821358002 0.7158747903 2.2145920943
C -2.7918993289 -0.6261792912 2.5111346536
C -2.8121632112 -1.0348271659 3.9717348652
C -2.5610164951 -1.8162683633 1.6043363965
C -1.1701457418 0.8872269089 1.0873864226
O -1.2329448810 0.4224023200 -0.0325957284
O -0.1227024246 1.7076302547 1.4678807094
C 0.8902527947 1.8887115328 0.4518371096
C 1.5883098640 3.1232914240 0.8114556397
N 2.1692576963 4.0864636210 1.0732041070
C 1.8528423237 0.7192200541 0.3956832483
C 2.5036757253 0.3005423869 1.5566052089
C 3.3642320310 -0.7904797823 1.4975894019
C 3.5918503578 -1.4481386227 0.2927099059
C 2.9404881988 -1.0116241660 -0.8579764137
C 2.0607905889 0.0686489973 -0.8163518187
O 3.1492861188 -1.7489647993 -2.0034903504
C 3.0806203110 -1.1180480158 -3.2386548793
C 3.7519852488 0.0778685636 -3.4815206225
C 3.7091136091 0.6252121216 -4.7603952831
C 3.0144303362 -0.0182583772 -5.7839097752
C 2.3580849204 -1.2192557070 -5.5239057442
C 2.3843923106 -1.7747121993 -4.2467787418
C -4.4551730101 1.3212656221 3.0306019630
H -4.3649466278 1.5802578945 0.3225598038
H -5.2079236114 0.0723151399 0.7075413086
H -3.6230974748 0.0304850956 -0.0869420700
H -1.7843601517 1.2730954115 3.0966029330
H -3.6793332524 -1.6775244854 4.1638545876
H -1.9099950631 -1.6094765546 4.2066406292
H -2.8569904137 -0.1858000596 4.6546800933
H -1.6370035771 -2.3288718672 1.8937050026
H -2.4836500171 -1.5532173014 0.5515774408
H -3.3884916940 -2.5245717969 1.7271576261
H 0.4171266812 2.0347433642 -0.5260315139
H 2.3344931306 0.8189570721 2.4950066425
H 3.8737951715 -1.1276419774 2.3942959874
H 4.2654161307 -2.2964641381 0.2329629733
H 1.5363820057 0.3892646718 -1.7102516372
H 4.2985852348 0.5688719000 -2.6829013251
H 4.2312284843 1.5562479640 -4.9576965599
H 2.9883158784 0.4132076506 -6.7790727939
H 1.8165847748 -1.7276958325 -6.3154550834
H 1.8757388555 -2.7071501297 -4.0252159111
H -5.4146142274 0.8120232470 3.1787467904
H -4.6627559858 2.3191692880 2.6300493897
H -3.9774923131 1.4426016310 4.0032730285
