29
CONF23
C 2.4603226277 1.4511612618 -0.7515987226
C 2.6958406812 0.0608876459 -0.2320946430
C 1.8028723599 -0.6440752600 0.4739095753
C 0.4210242873 -0.2232652839 0.8750519024
C -0.6404383031 -0.8475556370 -0.0408745324
C -2.0890046180 -0.4864502715 0.3307667555
C -3.0627303185 -1.2418721054 -0.5843645508
C -2.3153732520 0.9989044654 0.1780068061
C -2.5271645370 1.8561072051 1.1710663659
O -2.2672825770 -0.9161971830 1.6862512348
C 4.0468333863 -0.5060472437 -0.5696020295
H 2.6068104190 1.4786753300 -1.8387225529
H 3.1877277720 2.1520559858 -0.3224621665
H 1.4583480054 1.8256291584 -0.5362521647
H 2.0873197328 -1.6531417824 0.7747796882
H 0.3150085344 0.8649546554 0.8640636071
H 0.2230638858 -0.5441360416 1.9033298503
H -0.5512150602 -1.9409776266 -0.0181336922
H -0.4582731827 -0.5331569244 -1.0757279787
H -2.9153626480 -2.3192047715 -0.4670766373
H -2.9029085639 -0.9761096734 -1.6340825861
H -4.0994987960 -0.9959273690 -0.3290822018
H -2.2985794088 1.3570377206 -0.8516821279
H -2.5235333734 1.5307152537 2.2072274237
H -2.6906608861 2.9112301023 0.9783510831
H -3.1816696774 -0.7292882988 1.9313329736
H 4.8468378244 0.1256261535 -0.1623020393
H 4.1978696584 -0.5388329867 -1.6562084654
H 4.1738145300 -1.5167465003 -0.1737678560
