31
CONF8
C -2.6981328878 -1.7209289928 0.5574000798
C -2.1419597851 -0.3652725059 0.1781908327
C -2.2850201370 -0.0262700925 -1.3273206886
C -0.9275600123 0.5147009730 -1.6798677129
C -0.4513807223 1.1722500026 -2.8038321166
C 0.9020405524 1.5214259586 -2.8627956187
C 1.7613296831 1.2060559076 -1.8100483104
C 1.2769118006 0.5500891594 -0.6839510178
C -0.0691609659 0.2120078259 -0.6249525058
O -0.6625309410 -0.4238110693 0.4124210586
O 2.1179794170 0.3120814426 0.3999516371
C 2.4292548665 -1.0112903386 0.6513753353
O 2.1230296228 -1.9259176394 -0.0981557499
N 3.1066479996 -1.1240834582 1.8063296597
C 3.5016011191 -0.0105795673 2.6646465439
C -2.6713537313 0.7532795671 1.0608156274
H -2.2452536877 -2.5062311982 -0.0542849054
H -3.7796206884 -1.7287687101 0.3905383102
H -2.5097007994 -1.9339220912 1.6137723250
H -3.0917019167 0.6931814368 -1.4949599251
H -2.5080919040 -0.9254760797 -1.9148495560
H -1.1180101605 1.4120719822 -3.6266097579
H 1.2919457874 2.0401260551 -3.7321092306
H 2.8131791175 1.4715866328 -1.8468154382
H 3.4375019829 -2.0500200277 2.0250480563
H 4.1950124767 0.6659454428 2.1538407292
H 2.6280351964 0.5603292587 2.9919090329
H 3.9980090742 -0.4252122269 3.5431766358
H -2.4427115084 0.5513178284 2.1111207765
H -3.7569369097 0.8304806507 0.9459235454
H -2.2233515472 1.7108541645 0.7755287453
