57
CONF5
C 1.6863685850 -0.7401565323 0.7117534773
C 2.5335445901 -0.9957130031 1.9617067888
C 3.9754805598 -1.1095693293 1.4317978521
O 4.9413556442 -0.3947416233 2.2243105962
C 3.9502542851 -0.5984515875 -0.0698668373
C 4.0731867705 -1.7827488892 -1.0219950799
O 5.0780085366 0.2403419745 -0.3391834259
C 2.5809393390 0.1499511920 -0.1745937979
C 2.7479778107 1.5695857783 0.3944816007
C 1.9350035884 0.2262834466 -1.5598784291
C 0.4976659415 0.7630885317 -1.4698017901
C -0.3857575063 -0.0465336822 -0.5012414259
C 0.2686568112 -0.2059377350 0.8923429844
C -0.5679006922 -1.1418464674 1.7667529641
C -2.0114176833 -0.6658968758 1.8735083754
C -2.6583357703 -0.4960095722 0.4990012522
C -4.1342691400 -0.0886059114 0.6640519157
C -4.6991070364 0.2581351017 -0.6633071361
C -3.9652595810 0.4969532769 -1.8101839139
C -2.4739421717 0.4051483477 -1.8517386431
C -1.8554424024 0.4673834317 -0.4284736125
C -1.9364549955 1.9148635369 0.0800936241
C -4.9292845468 0.8146066994 -2.7889094298
N -6.1725844828 0.7754532228 -2.2912245454
N -6.0018397744 0.4345966250 -0.9929493965
H 1.5804830767 -1.7015067578 0.1847076034
H 2.4533841058 -0.1439580046 2.6510573808
H 2.2311754321 -1.8878435979 2.5159000274
H 4.3199340659 -2.1489107034 1.4385373287
H 4.4863183586 0.3111842756 2.7011944296
H 4.1143937768 -1.4365132070 -2.0588761955
H 4.9988480463 -2.3236757691 -0.8015937409
H 3.2381208996 -2.4828076538 -0.9252984242
H 5.4152344466 0.5155776504 0.5294860568
H 3.3354451793 2.1772767829 -0.2992545875
H 3.2673886078 1.5830175236 1.3563893021
H 1.7847721513 2.0618548747 0.5411212573
H 2.5284107360 0.8586741354 -2.2334989385
H 1.9006023523 -0.7762270450 -2.0029343811
H 0.5166264259 1.8162974118 -1.1711323923
H 0.0583081633 0.7376396742 -2.4724718792
H -0.4488466554 -1.0695028500 -0.9131845687
H 0.3144510694 0.7729176581 1.3902777085
H -0.1235659583 -1.2200896777 2.7660150482
H -0.5457998590 -2.1502893172 1.3263015583
H -2.0462795635 0.2894511456 2.4141013365
H -2.6044141299 -1.3775933173 2.4622604375
H -2.6450342025 -1.4778439461 -0.0012218313
H -4.6910280466 -0.9101632182 1.1310670768
H -4.2117586956 0.7686806781 1.3482850327
H -2.0698351831 1.2143336276 -2.4699612694
H -2.1646776157 -0.5361103281 -2.3296828044
H -1.5508476395 2.0221218217 1.0975606510
H -1.3646665540 2.5850716325 -0.5677232724
H -2.9721588643 2.2684386576 0.0758970525
H -4.7768658560 1.0693890694 -3.8308137293
H -6.8049638394 0.3409286004 -0.3889652409
