26
CONF2
C 2.0769879399 2.0882072138 -1.7159241939
C 1.9562866927 0.6933236374 -1.1139720145
N 0.8673808596 0.6194286789 -0.1213606847
C 1.2765032822 0.9148507349 1.2664464204
C 1.7182552639 -0.3399873858 2.0122237774
C -0.3806818970 0.2998297193 -0.4799969361
S -0.8627173947 -0.0447998403 -2.0579541684
S -1.5413545180 0.2952077980 0.9097358726
C -3.0730320367 -0.3296466742 0.1589733011
C -3.1577649671 -1.8227674824 0.0548609291
C -2.3003801843 -2.7540006039 0.4435661263
Cl -4.6872714399 -2.3040947003 -0.7157778067
H 2.2742235829 2.8361290728 -0.9419748364
H 1.1587215693 2.3593762611 -2.2436375683
H 2.9064780297 2.1062542670 -2.4289870017
H 2.8773601115 0.4177432030 -0.5908727379
H 1.7665951669 -0.0499403595 -1.8907476892
H 2.0999142941 1.6325784832 1.2029184128
H 0.4640935484 1.4248458235 1.7917937149
H 2.5625068417 -0.8171094648 1.5061109895
H 2.0328001937 -0.0693165739 3.0243042820
H 0.8995413898 -1.0610745231 2.0838707903
H -3.8760290888 0.0442884031 0.8061822538
H -3.1908615116 0.1258671833 -0.8303667683
H -1.3661687170 -2.4561278931 0.9077981957
H -2.5013869265 -3.8090647822 0.3050736453
