45
CONF434
C 9.3321251507 -0.0910453462 4.3121274985
C 8.3553859073 0.1870230135 3.4517911677
C 8.1671191400 -0.6372063105 2.2392281317
O 8.8298393146 -1.5965990972 1.9139473385
O 7.1203880140 -0.1672102707 1.5077166318
C 6.8452116192 -0.9151118088 0.3056823011
C 5.6868736573 -0.2479502525 -0.4162328953
C 4.3382357787 -0.5497105440 0.2108677317
C 3.1645830594 0.1576281067 -0.5352714618
C 1.7287716567 -0.3318590541 -0.1423782439
C 0.5966579678 0.6717504545 -0.5654543025
C -0.8276451013 0.0105998244 -0.6042394620
C -1.9929221003 1.0638300296 -0.5784512192
C -3.3624361510 0.4731838455 -1.0696510615
C -4.5961998653 1.3441259440 -0.6405168789
C -5.8842823072 1.0381156130 -1.4784081347
C -7.2072561465 1.5553312974 -0.8240311229
F -7.0799939431 2.8409519140 -0.4671016940
F -7.5272057128 0.8296895277 0.2522262899
F -8.1977632332 1.4497151927 -1.7198470193
F -5.7690312124 1.6268070818 -2.6873497331
F -6.0071863859 -0.2994111707 -1.6434761704
F -4.8611157914 1.1072000889 0.6638253239
F -4.2892148169 2.6515790648 -0.7983032199
F -3.3389295860 0.3926826052 -2.4186805172
F -3.5141178902 -0.7659157639 -0.5511515878
F -2.1437724163 1.5101760340 0.6885844626
F -1.6619304399 2.1012085660 -1.3793915835
F -0.9313852544 -0.7212344236 -1.7364139089
F -0.9617962079 -0.8026899991 0.4665382345
F 0.8753522005 1.1546640907 -1.7974733721
F 0.5751593455 1.6953618127 0.3180025346
F 1.5017130329 -1.5187515718 -0.7523677214
F 1.6655680078 -0.5034996012 1.1951053528
F 3.3253160215 -0.0459098297 -1.8688480686
F 3.2609720460 1.4905191577 -0.2904635938
F 4.3043390770 -0.1616104055 1.5143773783
F 4.0958672675 -1.8992050683 0.1776604208
H 10.0001096071 -0.9271202715 4.1282129049
H 9.4818134177 0.5021605820 5.2073513064
H 7.6654437678 1.0114531728 3.6004451661
H 6.6246650877 -1.9563956797 0.5622767449
H 7.7357969071 -0.9092322592 -0.3309842619
H 5.6590254590 -0.6139113872 -1.4460118751
H 5.8303116818 0.8366096425 -0.4464389614
