34
CONF7
C 1.9705623377 0.9861690736 -1.1737170352
C 2.6822365406 0.2696752907 -2.3014003298
O 4.0558050564 0.0628702393 -1.8320007356
P 4.3542467310 -0.6261006632 -0.4177223594
O 3.8497640649 -2.1254427661 -0.6975496124
O 5.7436307334 -0.4553319905 0.0448527731
O 3.2912256247 0.0095270590 0.6302161404
C 1.9687336758 0.1271360213 0.0827990285
C 0.9478387391 0.8486651601 0.9429437982
O 1.5291692035 2.0358902808 1.4420894494
C -0.1106207328 1.1589804109 -0.1615212595
O 0.5763701805 1.1950171147 -1.4189023184
N -1.1555891174 0.1454576788 -0.2425715161
C -1.2303255242 -0.9535604946 -1.0750689965
N -2.2912894080 -1.6996484229 -0.8535492324
C -2.9455056958 -1.0645461967 0.1851062939
C -2.2574023787 0.0826576629 0.5821392592
N -2.5992508949 0.9292055747 1.5617166812
C -3.7386209832 0.5473754268 2.1517931202
N -4.5055009180 -0.5179551489 1.8809201844
C -4.1307010974 -1.3561045861 0.8893417573
N -4.8900460180 -2.4311698182 0.6190176493
H 2.4773508645 1.9400454398 -0.9713715676
H 2.7684355134 0.8712071196 -3.2068889521
H 2.2153491466 -0.6952071647 -2.5285186846
H 3.9735585383 -2.7236290266 0.0566913138
H 1.5761233005 -0.8720050331 -0.1539751644
H 0.5204248336 0.2250870350 1.7364040625
H 0.9073496992 2.4381998321 2.0622776065
H -0.5917700037 2.1227354979 0.0406497189
H -0.4792734397 -1.1338225755 -1.8323673615
H -4.0926206365 1.1845877722 2.9615408971
H -4.6462896417 -3.0517161347 -0.1342372330
H -5.7433698070 -2.5849039831 1.1308627251
