63
CONF188
C 2.2414052687 1.1552725178 1.5535803762
C 1.4829059342 0.0195588297 0.8730156494
N 0.9562016069 0.4416862031 -0.4323146830
C 2.0709327744 0.8231406638 -1.3105585941
C 2.8548775236 1.9960438412 -0.7303413104
C 3.3846079267 1.6219020680 0.6534910831
N 4.1674444813 2.7009998862 1.2612311879
C 5.5163472852 2.6343227737 1.5935845659
C 6.4532305261 1.6182065110 1.4697322075
C 7.7538976301 1.8804798642 1.9114583570
C 8.1024294189 3.1173880435 2.4575188546
C 7.1603815297 4.1422751676 2.5835577006
C 5.8724694926 3.8812706687 2.1458784990
N 4.7297533003 4.6586958073 2.1286215996
C 3.6619477313 3.9572701563 1.5888345831
O 2.5140850448 4.3678393376 1.4361495921
C 0.1715626896 -0.6287266365 -1.0627889439
C -1.1658222239 -0.8984149300 -0.3782962041
C -1.9881813821 -1.9166918755 -1.1666594200
C -3.3178138138 -2.2660157182 -0.4777473272
C -4.2187476689 -1.0455565905 -0.3741610116
C -4.4553567243 -0.4327599174 0.8572331008
C -5.2580496269 0.7028561668 0.9577792701
C -5.8164737184 1.2101854245 -0.2009659728
C -5.6103676214 0.6343222623 -1.4442475405
C -4.8081069820 -0.4992134089 -1.5185976872
F -6.6026580206 2.3173703290 -0.1196992559
C -4.0618447081 -3.4215392072 -1.1276695666
C -3.8559584227 -3.8103994219 -2.4528914006
C -4.5861208303 -4.8544804888 -3.0208407827
C -5.5249286563 -5.5008771089 -2.2391753517
C -5.7629034049 -5.1519044130 -0.9197059081
C -5.0235297753 -4.1076162461 -0.3761498145
F -6.2398679239 -6.5218991560 -2.7839874157
H 2.6403409001 0.8074176808 2.5131059634
H 1.5600569645 1.9894462226 1.7480014920
H 0.6529527559 -0.2898539180 1.5144553731
H 2.1539243650 -0.8578969343 0.7562091524
H 2.7581776358 -0.0340382856 -1.4724283115
H 1.6636729884 1.1025235234 -2.2887628014
H 2.2035482767 2.8717224530 -0.6486423328
H 3.6890821637 2.2474905920 -1.3948276991
H 4.0809437508 0.7834832476 0.5332667566
H 6.1980376926 0.6527725585 1.0474366587
H 8.5050080567 1.1021702252 1.8256142240
H 9.1205271878 3.2891813061 2.7908976456
H 7.4237970299 5.1055931125 3.0071919217
H 4.6450052164 5.6077148632 2.4559560198
H 0.7566799251 -1.5699868918 -1.1180002291
H -0.0279182675 -0.3214991341 -2.0977393364
H -1.0150103242 -1.2775294493 0.6397487996
H -1.7184501657 0.0449921398 -0.2896881719
H -2.1837834954 -1.5219064474 -2.1719034133
H -1.4068920781 -2.8397640250 -1.2920770259
H -3.0819650185 -2.5770841463 0.5481310842
H -4.0032795710 -0.8437807605 1.7555484349
H -5.4460015406 1.1842226518 1.9114508969
H -6.0722895006 1.0640208976 -2.3266603519
H -4.6452848469 -0.9676963797 -2.4851792878
H -3.1169292703 -3.3058001327 -3.0653718020
H -4.4281653588 -5.1613410599 -4.0492089174
H -6.5051481122 -5.6877559806 -0.3378541720
H -5.1983826282 -3.8167718280 0.6564618823
