48
CONF28
C -3.8686547719 -2.6381856153 -1.3303400115
C -3.1685746704 -1.5234637943 -2.0939557123
C -1.9041693729 -1.0816475645 -1.3573242130
N -1.2116792859 -0.0355567679 -2.1089435242
C -0.8880479182 -0.4785486549 -3.4803739913
C -2.1564869054 -0.9140552593 -4.1934829454
N -2.7862962151 -1.9918756056 -3.4284978910
C -0.2534020398 0.7094288047 -1.4351636557
C 0.2460455068 1.9182396789 -1.9872221461
C 1.1618968793 2.7045329098 -1.3485591764
C 1.6370368264 2.3473240215 -0.0771098748
C 1.1405435580 1.1689346590 0.5088114832
C 0.2176322061 0.3646097745 -0.1658866950
N 1.5979362161 0.8128709694 1.7827804362
C 2.4849777631 1.5985199636 2.4443233364
C 2.9853854455 2.7609217164 1.9336791432
C 2.5894111036 3.2070621374 0.6164869009
O 3.0263597627 4.2568525933 0.0960089335
C 3.9487938851 3.5233406319 2.7879115975
O 4.2718284039 3.1468946855 3.8949908674
O 4.4204560268 4.6453527665 2.2405271408
C 1.1263777291 -0.3736412778 2.4243145264
C 1.6057678510 -1.6228603669 2.0334653894
C 1.1826691138 -2.7924668937 2.6407057415
C 0.2617956744 -2.6756875961 3.6710163347
C -0.2388828100 -1.4561833392 4.1004472180
C 0.2004322475 -0.3036887157 3.4608661257
F -0.1585137327 -3.7995166025 4.2757660266
F 2.4992240147 -1.6936020559 1.0375437296
F -0.2469983782 2.3396086379 -3.1741048384
H -4.7819796912 -2.9470504923 -1.8488039848
H -3.2151005986 -3.5117508843 -1.2434349930
H -4.1520893380 -2.3058906088 -0.3270405406
H -3.8366500556 -0.6405812126 -2.1478414364
H -2.1910379977 -0.6812079698 -0.3790972723
H -1.2585285715 -1.9669619779 -1.2027002190
H -0.1858510727 -1.3287378562 -3.4340302000
H -0.4131363625 0.3339849666 -4.0287216327
H -2.8123291540 -0.0318140719 -4.3151663711
H -1.8925027143 -1.2858434130 -5.1897520280
H -3.6110333634 -2.3256081711 -3.9161779096
H 1.5055433346 3.6300249815 -1.7969011516
H -0.1223161268 -0.5508232539 0.2975154541
H 2.7966828295 1.2566247921 3.4264709292
H 4.0059810872 4.7378611628 1.3323557679
H 1.5666314296 -3.7559990800 2.3291434176
H -0.9539756923 -1.4196227855 4.9129995448
H -0.1711733312 0.6698818270 3.7625015546
