20
CONF82
C 0.1767965005 -0.9917806096 -0.5604508238
O 1.0129537172 -0.3072947895 -1.5189565884
C 1.9677173969 0.4161528965 -0.8430159488
O 2.7942780712 1.0964836208 -1.4186622861
C 1.8043306255 0.2053491378 0.5814541152
O 2.6078392099 0.7669733423 1.5150916504
C 0.7656342230 -0.6354310547 0.7703220393
O 0.3210755006 -1.1140490514 1.9385529620
C -1.2925639601 -0.5700378666 -0.7628206866
O -2.0763714849 -1.3008632612 0.1848025623
C -1.5491661729 0.9313300366 -0.6328121837
O -1.6276310685 1.3360095546 0.7404889810
H 0.2549160909 -2.0711876412 -0.7458885235
H 3.2686471348 1.3083747431 1.0555619747
H -0.4678872736 -1.6589448401 1.7786110456
H -1.5816763941 -0.8847449484 -1.7733860036
H -2.3303054928 -0.6610228110 0.8711708806
H -2.5274939014 1.1518865331 -1.0699887026
H -0.7890900519 1.4992924639 -1.1818764946
H -0.7320024692 1.4835044497 1.0718017236
