78
CONF832
C -0.9370911831 -0.7036821200 -0.2855170605
C -0.2125304800 -2.0410937787 -0.2996124552
O -1.2030004105 -2.9733799352 0.2615251248
C -2.1144023490 -2.3010534758 1.0115784483
O -2.9783654227 -2.8851733646 1.6243043647
C -1.7941628647 -0.8273721434 0.9641752337
C -2.9231336522 0.2071206746 0.9819685037
C -4.0362322167 -0.0880448165 -0.0177658984
C -5.1127278143 -0.8833102572 0.3808291416
C -6.1205428019 -1.1874437808 -0.5315710366
O -7.2249463563 -1.9507060189 -0.2678148301
C -7.3397889750 -2.5147395643 1.0458301114
C -6.0708023803 -0.7019441168 -1.8437203455
O -7.0556825034 -0.9872912826 -2.7473520097
C -4.9982822965 0.1064675542 -2.2346353194
O -5.0397443659 0.5481351734 -3.5256134619
C -3.9539261243 1.3732845285 -3.9669370399
C -3.9883898740 0.4128148542 -1.3205074813
C -2.2974441421 1.5752324922 0.7397397879
C -3.0692814040 2.6977086090 1.1078310680
C -2.5590016592 3.9440321586 0.8453675861
C -1.3240664317 4.1149634386 0.2271096565
O -1.0575624462 5.4492311240 0.0715017219
C -2.1826646792 6.1543097031 0.6418619783
O -3.1245699867 5.1612845618 1.1085337093
C -0.5543181758 3.0438772598 -0.1467458548
C -1.0524329504 1.7476078973 0.1186947484
C -0.1437312713 0.5859110111 -0.2404682572
O 0.8911283991 0.4953458267 0.7839224515
C 2.1899117697 0.6736770976 0.3338662770
O 2.6219208021 -0.5490027717 -0.2909207261
C 3.9540249644 -0.4237384148 -0.7808341983
C 4.3463120472 -1.6960924971 -1.5092739628
O 5.7167370843 -1.5644417371 -1.9327928660
C 6.6177782644 -1.2922962752 -0.8659559317
O 6.2530856507 -0.1395080565 -0.1222840232
C 4.9124817340 -0.2285340680 0.3906991686
C 4.5621313334 1.0394227546 1.1320410987
O 5.3963623462 1.1552222326 2.2813553374
C 3.0819517752 0.9867133137 1.5394313888
O 2.7041065030 2.2010318052 2.1838138871
C 6.8187209156 -2.4878507685 0.0325667339
C 7.1467279194 -2.5081539055 1.3619106967
C 7.3693912522 -3.8200481673 1.8625471669
C 7.2207208079 -4.7868775872 0.9066665843
S 6.7994650868 -4.0994565883 -0.6279148533
H -1.5988896505 -0.6533753154 -1.1595737371
H 0.6640652581 -2.0502503919 0.3523522311
H 0.0472330308 -2.4082085859 -1.2931233940
H -1.1552256699 -0.6490346848 1.8449279607
H -3.3733964681 0.2096019678 1.9812507731
H -5.1501473011 -1.2626708025 1.3936328989
H -6.4927443822 -3.1765541816 1.2594767382
H -8.2662695668 -3.0890716568 1.0411672757
H -7.3956123113 -1.7259355266 1.8043335903
H -7.7111390070 -1.5436770327 -2.3002048228
H -3.9036439868 2.3024144923 -3.3867606922
H -2.9987657114 0.8397894281 -3.8927593788
H -4.1655799883 1.6042672504 -5.0113283824
H -3.1742437568 1.0637374252 -1.6126795145
H -4.0398391676 2.5706970751 1.5765754221
H -2.6574813341 6.7653944708 -0.1325150486
H -1.8404811852 6.7549004038 1.4913644600
H 0.4049148610 3.1829376845 -0.6343238153
H 0.3406431497 0.7765843675 -1.2055609668
H 2.2554474781 1.4901051921 -0.4105490641
H 4.0345067836 0.4347647781 -1.4680540427
H 3.7575014039 -1.8425389212 -2.4174674777
H 4.2161937298 -2.5630050931 -0.8453754859
H 7.5575942356 -1.0251886640 -1.3611885872
H 4.8235181511 -1.0876586563 1.0732106623
H 4.7140407190 1.9005493893 0.4572775757
H 5.0758545805 1.9154041737 2.7866440275
H 2.9424836364 0.1923865749 2.2827457949
H 2.7835603557 2.9236501233 1.5437817986
H 7.2229149297 -1.6072043946 1.9594152807
H 7.6266992635 -4.0381899717 2.8925438675
H 7.3221546676 -5.8593075033 1.0093296099
