24
CONF20
O 3.7627452881 0.6964936631 0.9344506993
S 3.7316230394 0.3626860614 -0.6458856987
O 3.7208390514 1.5824300649 -1.4436637175
O 4.7025889864 -0.7016023662 -0.8504468037
C 2.0153060081 -0.4899846177 -0.8394325847
F 1.7809779940 -0.5153893243 -2.1650627877
F 2.1379144517 -1.7401419535 -0.3779533391
C 0.8465336958 0.2398082274 -0.1045308601
F 0.9239911207 -0.0507614266 1.2122121843
F 0.9938107901 1.5725621933 -0.2776701813
C -0.5704102174 -0.1804349401 -0.6377516319
F -0.5725096489 -1.5146349293 -0.8545467009
F -0.7943850125 0.4586450088 -1.8067386927
C -1.7290471725 0.1661054344 0.3637552201
F -1.4907379559 1.3813853866 0.9071211066
F -1.7400338148 -0.7610727969 1.3470060817
C -3.1401983202 0.2000209319 -0.3164215066
F -3.2653428576 1.3570710444 -1.0001009844
F -3.2502942736 -0.8387710695 -1.1760675161
C -4.3334182979 0.1120422206 0.6922444828
F -5.4681324876 0.3968703557 0.0403678927
F -4.1693545720 0.9972015231 1.6853510055
F -4.4345668131 -1.1163460471 1.2094281954
H 3.4771856705 1.6166547666 1.1044589654
