38
CONF2
C 2.1134823046 0.5851840943 2.9853663299
C 0.7593724617 -0.0793333378 2.8603445963
C 0.7870427497 -1.5750215834 3.1085490356
O 0.3360058678 0.1575758140 1.4676160816
C -0.9666878261 0.1060180989 1.2115965837
O -1.8458452772 -0.0452450097 2.0352790018
C -1.2844981590 0.2254474926 -0.2988525923
C -0.8349439766 -1.0969092770 -0.9321175115
C -1.7850092712 -2.0324918054 -1.3331962441
C -1.3975428842 -3.2518317996 -1.8831658281
C -0.0455761379 -3.5265301102 -2.0251657424
C 0.9239120990 -2.6097353088 -1.6342392597
C 0.5213803645 -1.3987189661 -1.0862301860
Br 0.4994804303 -5.1965992168 -2.7805109136
C -0.6229134376 1.4523479298 -0.9177914179
C -0.2100851170 1.4573099848 -2.2475384657
C 0.3011744662 2.6120330507 -2.8332503680
C 0.3941099516 3.7667333560 -2.0700980862
C -0.0249723346 3.7956947524 -0.7450151341
C -0.5366441446 2.6346791928 -0.1812524597
Br 1.1103824180 5.3553324564 -2.8575525780
O -2.6871420683 0.3944235506 -0.4177344271
H 2.0491155724 1.6507879358 2.7509542629
H 2.4821827877 0.4756990457 4.0091134451
H 2.8345741282 0.1199734986 2.3066183591
H 0.0205628894 0.4040742898 3.5075293206
H 1.4807210113 -2.0618897039 2.4160719689
H -0.2068558566 -2.0113756977 2.9841479408
H 1.1226002262 -1.7713295250 4.1313006695
H -2.8370482133 -1.7974709414 -1.2273441533
H -2.1411154300 -3.9744107066 -2.1978855692
H 1.9761277130 -2.8367191975 -1.7586215368
H 1.2730238266 -0.6773079638 -0.7853489526
H -0.2888603127 0.5532529802 -2.8415337736
H 0.6196283064 2.6103703291 -3.8688423554
H 0.0454175094 4.7088761851 -0.1662611257
H -0.8808550715 2.6590975427 0.8490532060
H -3.0537020631 0.2180084858 0.4660079903
