57
CONF71
C -4.2955215022 -1.4533007965 -2.4079909627
C -5.0004774093 -0.7321049429 -1.2608893378
C -4.0335676779 0.2238415582 -0.5690919382
N -2.8677521330 -0.5077174796 -0.0399093075
C -2.1318676341 -1.1233196773 -1.1549679541
C -3.0243144437 -2.1229664303 -1.8913060757
C -2.0700656497 0.3244836735 0.9014849669
C -1.5467079715 1.6371519466 0.2844942469
C -0.5138785493 2.3755086302 1.1397910987
N 0.5714377868 1.4863550186 1.5625778837
C 0.0312839447 0.3692338615 2.3377844645
C -0.8643787161 -0.4744326507 1.4389297058
C 1.6338063380 2.1997891896 2.2644305905
C 2.4876741939 3.0467066203 1.3040922056
C 2.5956046336 2.4159573515 -0.0934466452
C 2.8435900545 0.9267848680 -0.0391797010
O 3.6080405098 0.4553386724 0.7992152081
C 2.1995333259 0.0299090493 -1.0458309219
C 1.5906317962 0.5118486832 -2.2112647589
C 1.0071345259 -0.3595810903 -3.1240737452
C 1.0285264376 -1.7142340116 -2.8398206062
C 1.6221734415 -2.2357840376 -1.7000290152
C 2.2169338676 -1.3518665415 -0.8118911995
F 0.4411783545 -2.5685108261 -3.7114995215
C -3.0060731384 0.6211940710 2.1074547558
O -3.1209575457 1.7399152824 2.6091745875
N -3.6449190758 -0.4654849473 2.5972846775
H -4.9600958379 -2.1893292213 -2.8743888265
H -4.0275039469 -0.7202298270 -3.1817709996
H -5.8649307279 -0.1666727598 -1.6278031137
H -5.3693196992 -1.4633202498 -0.5296432112
H -4.5396941471 0.7380447448 0.2564335363
H -3.7232681170 0.9996822373 -1.2942255932
H -1.2553572487 -1.6524947237 -0.7766013326
H -1.7715031606 -0.3648081773 -1.8767953489
H -2.4521411071 -2.5630304390 -2.7164700331
H -3.2879226810 -2.9359189485 -1.2022557835
H -1.0842361287 1.3819590023 -0.6771318719
H -2.3768333770 2.3203904125 0.0822128552
H -0.0911940773 3.1954917584 0.5476767335
H -1.0068800199 2.8268925786 2.0173823574
H 0.8671308029 -0.2488083979 2.6864818753
H -0.5166377738 0.7171312548 3.2364788370
H -0.2408398315 -0.7904757308 0.5982414332
H -1.2085942114 -1.3723271072 1.9622566497
H 1.2388510877 2.8400042965 3.0760815848
H 2.2743970673 1.4453140450 2.7313316603
H 2.0701189746 4.0524316713 1.1878848050
H 3.4801090726 3.1687434458 1.7484449318
H 1.6933079575 2.6286090653 -0.6678545445
H 0.5372849372 -0.0008071738 -4.0331725335
H 1.6107313293 -3.3055243064 -1.5214029287
H 2.6918295792 -1.7243067783 0.0892688263
H -4.3350644226 -0.3371564649 3.3212538926
H -3.6768488210 -1.3012432048 2.0314224648
H 3.4345956224 2.8707518294 -0.6394265164
H 1.5748661265 1.5735399395 -2.4288036644
