33
CONF10
C -5.0174090995 0.4473069520 -1.6176774388
C -3.9205703801 0.5777273421 -0.5679313742
C -4.3857670255 -0.0724400865 0.7330051624
O -4.1124174399 -1.1960019946 1.0860934964
O -5.1875648441 0.7639780732 1.4187207793
O -2.7750086660 -0.0923473636 -1.0780980522
C -1.5863527218 0.0423822978 -0.4019804154
C -1.4058494660 0.8128137901 0.7482977337
C -0.1464957529 0.8865079181 1.3383459007
C 0.9205539128 0.1911150148 0.7879122099
C 0.7480161517 -0.5856628484 -0.3545540906
C -0.5062081351 -0.6538332443 -0.9464884616
O 2.1343390591 0.2893325824 1.4625135455
C 3.2751419557 -0.0798693359 0.7908769333
C 3.8308426816 0.7269492663 -0.2069042822
C 5.0195938575 0.3719941208 -0.8329930656
C 5.6496556736 -0.8013267957 -0.4358901086
C 5.1271451023 -1.6159475580 0.5610272951
C 3.9326676976 -1.2457079909 1.1672627291
Cl 7.1538528063 -1.2554865983 -1.2185323387
Cl 3.0365053019 2.2119601401 -0.6654162530
H -5.2416562485 -0.6073744301 -1.7993183785
H -4.6806376954 0.9090783417 -2.5486063210
H -5.9229582041 0.9546332631 -1.2779657337
H -3.7027942413 1.6381574893 -0.3844104306
H -5.5173592773 0.2984996415 2.2070616467
H -2.2195121496 1.3666126070 1.2013839289
H 0.0073019445 1.4862209766 2.2291391538
H 1.5790384779 -1.1346548482 -0.7843549854
H -0.6596513208 -1.2524476768 -1.8382656409
H 5.4440321016 1.0040099068 -1.6034942249
H 5.6370417520 -2.5247601234 0.8574902942
H 3.4924841915 -1.8614186292 1.9444720870
