51
CONF4
O 4.5652925198 0.9743368288 -1.8846026660
C 3.6940548706 1.2031025823 -0.7576839421
C 2.4431285243 1.9713273477 -1.2075336948
C 1.5243069251 2.4401024462 -0.0709720300
C 0.5833100569 1.3747358202 0.4759405442
C -0.5874047923 0.8985983375 -0.4531044466
N -1.5129093021 1.4408862560 0.5763483743
C -0.5126425817 1.8914001340 1.4071807145
O -0.5429155312 2.4975433470 2.4637354079
C -2.9069497953 1.4697593589 0.6138027929
C -3.6310091656 1.0525814637 -0.5095201646
C -5.0212484232 1.0694987797 -0.4898301937
C -5.6620686250 1.5095199797 0.6551157111
F -7.0218966930 1.5294841972 0.6770513743
C -4.9720609780 1.9302511921 1.7799741076
C -3.5826553108 1.9069545979 1.7618756939
C -0.7122819643 -0.5722242247 -0.7140094934
C -0.9205019999 -1.4746027398 0.3319715731
C -0.9891785125 -2.8411740059 0.0944082096
C -0.8431496555 -3.3241686501 -1.2080509305
O -0.8872147976 -4.6575817592 -1.5022370953
C -0.6438955100 -2.4364423307 -2.2652940240
C -0.5829888123 -1.0716732824 -2.0111033906
C 3.3910826151 -0.1470132204 -0.1592897663
C 3.5808971049 -0.3820123689 1.2025018067
C 3.2388652542 -1.6069187743 1.7738369631
C 2.7271606354 -2.5892446089 0.9451330225
F 2.3825197746 -3.7879356610 1.4892166271
C 2.5502618199 -2.4072828373 -0.4161798254
C 2.8792584651 -1.1718494840 -0.9605329053
H 4.7478333238 1.8329629940 -2.2888493803
H 4.2178686211 1.8084107923 -0.0017422405
H 2.7927645473 2.8601479300 -1.7482015715
H 1.8844038121 1.3591450119 -1.9273471755
H 2.1291828499 2.8324193951 0.7571080231
H 0.9155558085 3.2762900486 -0.4361306622
H 1.1194078650 0.5278480465 0.9126010426
H -0.6401459574 1.4689430895 -1.3882096701
H -3.1108960520 0.7133482230 -1.3985159331
H -5.5974343875 0.7490785859 -1.3509470007
H -5.5134051320 2.2670530031 2.6574454743
H -3.0218489009 2.2268867777 2.6311583546
H -1.0332302012 -1.1085815880 1.3493256401
H -1.1503582880 -3.5355891099 0.9150080484
H -1.0250487612 -5.1613347718 -0.6884117147
H -0.5379423521 -2.8225246424 -3.2741418317
H -0.4284468355 -0.3823023587 -2.8372718334
H 3.9846831106 0.4049080190 1.8335027681
H 3.3692364303 -1.7972904303 2.8336479409
H 2.1436525439 -3.2070964716 -1.0248651864
H 2.7270016385 -1.0026815404 -2.0216053681
