41
CONF109
O 8.7125628882 -0.7576400695 0.3129024626
N 8.1495768124 -0.5307146415 -0.7541027921
O 8.7229145708 -0.4016742305 -1.8317138584
C 6.6855992750 -0.4052357509 -0.7401256763
C 6.0187038902 -0.1454807138 -1.9330378212
C 4.6399431448 -0.0279351704 -1.9086444767
C 3.9308904578 -0.1703756699 -0.7069259054
C 4.6288508180 -0.4314390798 0.4862592214
C 6.0050051570 -0.5486038006 0.4693567747
N 2.5356622183 -0.0284669334 -0.8107795866
N 1.9150296532 -0.1938746934 0.2818198952
C 0.5351029074 -0.0541622239 0.2140091388
C -0.1996715148 0.2610783812 -0.9450135588
C -1.5685096295 0.3778604414 -0.8993133982
C -2.2884903576 0.1802102339 0.3109760274
C -1.5390837653 -0.1346935289 1.4710516293
C -0.1665956025 -0.2446984081 1.4138232494
N -3.6535147864 0.2890154979 0.3492186165
C -4.3911471491 0.2251617588 1.6022798221
C -4.7653378989 -1.2077957062 1.9711743695
O -5.4930008685 -1.1328875999 3.1947561412
C -4.4451866359 0.5504312563 -0.8519011425
C -4.5588447960 2.0386228940 -1.1806215822
H 6.5834329175 -0.0400952608 -2.8505065643
H 4.0804186793 0.1750641458 -2.8152861395
H 4.0738020452 -0.5370379531 1.4100691526
H 6.5670102643 -0.7483019226 1.3732138436
H 0.3315351252 0.4205024576 -1.8760744891
H -2.0930028099 0.6427923977 -1.8083823694
H -2.0342827602 -0.3104840422 2.4171410915
H 0.4013997423 -0.4905714420 2.3053549456
H -3.8189776986 0.6810201588 2.4166636877
H -5.3088866432 0.8151979697 1.5011425597
H -3.8539797036 -1.8155865362 2.0751132470
H -5.3742810489 -1.6449049434 1.1637366302
H -5.7257348420 -2.0252542990 3.4697811324
H -4.0235588466 -0.0060114423 -1.6952519525
H -5.4430143633 0.1302716253 -0.6824255378
H -3.5736146033 2.4802981398 -1.3526071951
H -5.0324898506 2.5817788644 -0.3573260406
H -5.1662340958 2.1846190407 -2.0791635415
