53
CONF636
C 0.1234739956 4.5516498245 -1.5552712272
C 0.1311214988 4.3613585150 -0.0520201518
O -0.1996871181 2.9883042227 0.2855959187
C 0.8115827482 2.0865342012 0.2755527017
O 1.9826872328 2.4034184266 0.0903909003
C 0.3155949196 0.7383408368 0.5125942874
C 1.1898224560 -0.3066029888 0.5584221524
N 0.7338970278 -1.5663159338 0.8339470647
C -0.5437381236 -1.8498750445 1.2531089499
C -1.4871218204 -0.8632190077 1.2257256639
C -1.1880303508 0.5016473422 0.6099842839
C -1.8244228952 0.6221162891 -0.7760903181
C -1.4107768085 -0.2731637533 -1.7712707953
C -1.9184477386 -0.2343828698 -3.0626119875
C -2.8729248735 0.7231459097 -3.3976675636
C -3.3087328270 1.6266825798 -2.4363772495
C -2.7852564388 1.5668128093 -1.1460078115
Cl -3.4071113605 2.7569073752 0.0015284517
C -2.8291640036 -1.1237713944 1.7351612972
O -3.2429750180 -2.1639385294 2.2338080661
O -3.6232425476 -0.0308089216 1.5975086768
C -4.9774485761 -0.1760728758 2.0707712783
C -0.7330726451 -3.2603994232 1.7202434713
C 2.6835388509 -0.2195308299 0.3464674332
O 3.2293928238 -1.5294354737 0.3920745571
C 4.6577861189 -1.5208165321 0.3049923401
C 5.1699447467 -2.9445085307 0.3505622479
N 4.9008004219 -3.5751220699 1.6542706527
H -0.8490719465 4.2713656719 -1.9713050345
H 0.9002569550 3.9458789090 -2.0299209826
H 0.3117439373 5.6035815773 -1.7916868218
H -0.6526910968 4.9523037457 0.4275122366
H 1.0990234454 4.6180258451 0.3864200866
H 1.4335817827 -2.2964921914 0.8698507646
H -1.6226444376 1.2738048500 1.2451361687
H -0.6644147917 -1.0190167228 -1.5129597530
H -1.5707319271 -0.9461996548 -3.8040938695
H -3.2812410236 0.7715454249 -4.4019001824
H -4.0517039746 2.3775941339 -2.6814714755
H -5.4543918106 0.7849042012 1.8782997069
H -5.4901934148 -0.9728210871 1.5252957443
H -4.9882781327 -0.4005177790 3.1407200625
H 0.1701042396 -3.8466365960 1.5350623095
H -0.9561735314 -3.2844534824 2.7899980841
H -1.5775125076 -3.7284205792 1.2115482373
H 2.8944509555 0.2586217582 -0.6200972471
H 3.1282863228 0.4175651836 1.1253010828
H 4.9684926059 -1.0448212986 -0.6374647151
H 5.0735942188 -0.9322265967 1.1390838782
H 4.6667263745 -3.5262764022 -0.4311526410
H 6.2408344114 -2.9086009065 0.0895426962
H 5.4717364566 -3.1203324375 2.3614581644
H 5.2227270827 -4.5373281326 1.6266183086
