45
CONF50
C -4.3848104855 -1.3657084809 -0.1049238177
O -3.6727021955 -0.1993039494 -0.5807844953
C -2.6150887944 -0.4719250493 -1.3713205439
O -2.2470945657 -1.5848125234 -1.6934057942
N -2.0470440918 0.7060946929 -1.8207785181
C -2.2270400498 1.9683942887 -1.1725771905
C -3.2628874527 2.7851218638 -1.6158004975
C -3.4706349528 4.0303374016 -1.0301618266
C -2.6295456497 4.4603592130 -0.0093249166
C -1.5959486037 3.6378666883 0.4331580986
C -1.3771507584 2.3825365461 -0.1329683028
C -0.2473592016 1.5310279147 0.3624508887
O -0.7925043881 0.2438825865 0.7528665957
C 0.1121392554 -0.7073152866 1.0453574187
N 1.4216364807 -0.4874193796 1.0670898460
N 1.9552526479 -1.6953310959 1.4181230533
C 0.9885804441 -2.6411172941 1.6060021269
C -0.2250112484 -2.0400719747 1.3769194339
C 3.3515565570 -1.8473204499 1.5200775830
C 3.8904193488 -2.9133398792 2.2456030631
C 5.2676270807 -3.0716904413 2.3303205966
C 6.0976720408 -2.1503692290 1.7031613515
C 5.5764095554 -1.0769516172 0.9915830406
C 4.1986911870 -0.9277884604 0.8961975174
Cl 7.8427012864 -2.3435734218 1.8194762557
O -0.7664277457 0.5279011643 -2.3740879593
C -0.8187628094 0.7939523661 -3.7896837375
H -5.1907779816 -0.9730754546 0.5138891285
H -4.7885212909 -1.9344733800 -0.9459899940
H -3.7195586700 -1.9981513970 0.4878055573
H -3.9011731342 2.4316277634 -2.4190023622
H -4.2803585738 4.6629613282 -1.3787154219
H -2.7794832174 5.4320033219 0.4499312198
H -0.9494562241 3.9699482153 1.2403390912
H 0.2331294029 1.9966977330 1.2295399670
H 0.5063640560 1.3744721021 -0.4160892134
H 1.2285095645 -3.6632241741 1.8559655231
H -1.2059214156 -2.4861094442 1.4186514458
H 3.2477702230 -3.6161208139 2.7627763462
H 5.6855086758 -3.8974237605 2.8945453562
H 6.2345844248 -0.3651604267 0.5065442583
H 3.7811164571 -0.1021236328 0.3341742905
H 0.2086908753 0.6677798146 -4.1378643836
H -1.4790511987 0.0776772115 -4.2900197169
H -1.1540447848 1.8201196153 -3.9790507586
