30
CONF4
C 4.4727113847 -0.7133058642 -0.5476238191
C 2.9700808248 -0.6980344165 -0.2747618081
C 2.4814217442 0.6635588667 0.2221185741
C 1.0061520193 0.6919844238 0.6300355748
C 0.0335469455 0.4168458340 -0.5184530231
C -1.4307757391 0.5780169834 -0.1232213191
C -1.9110144189 -0.4210439046 0.9552308442
C -3.4208813171 -0.6637484288 0.6798654045
C -3.7650805715 0.2105607685 -0.5446744212
C -2.4264874014 0.3631953275 -1.2701711129
H 4.7401509505 0.0338262353 -1.3029147987
H 5.0391317177 -0.4816374325 0.3609765354
H 4.8065043682 -1.6900545928 -0.9108885283
H 2.7203141485 -1.4639880116 0.4721604788
H 2.4333201932 -0.9747559594 -1.1900431744
H 3.0947488428 0.9641480677 1.0823941241
H 2.6592415721 1.4172713213 -0.5582705053
H 0.7730271372 1.6763431747 1.0583112850
H 0.8412197992 -0.0395037393 1.4329471682
H 0.1782182528 -0.6038045076 -0.8985581110
H 0.2628215506 1.0959004167 -1.3525317096
H -1.5797708643 1.6002867818 0.2574334095
H -1.7275005845 -0.0478774747 1.9670031762
H -1.3484972336 -1.3579707770 0.8576045494
H -4.0469272782 -0.4224525548 1.5436306208
H -3.5969395457 -1.7190317100 0.4476049917
H -4.1134246772 1.1982275101 -0.2187641260
H -4.5521012574 -0.2246859404 -1.1678240207
H -2.1772249879 -0.5665317327 -1.8015618861
H -2.4159862572 1.1782613248 -2.0013960803
