33
CONF7
C -3.9304339733 0.9523090370 2.7366185495
C -3.3894713610 0.4189191308 1.4470455581
C -4.2002587793 -0.2211299033 0.5109223833
C -3.6065593453 -0.6892386234 -0.6595729518
C -4.3833380874 -1.3951718264 -1.7249481739
N -2.2961682042 -0.5196356494 -0.8876508322
C -1.6120227331 0.1029931159 0.0715562311
N -0.2545077566 0.3314966402 -0.1558009873
S 0.6604718129 -0.7088496996 -1.2010337572
O 0.4537151440 -2.1113660769 -0.8096001093
O 0.4008435066 -0.2891143462 -2.5816323222
C 2.2915550064 -0.2014738223 -0.7210577364
C 2.9846572700 -0.9338089084 0.2429433622
C 4.2611982157 -0.5444713762 0.6055794272
C 4.8626049260 0.5813183680 0.0108324006
N 6.1108705598 0.9984506537 0.4098825212
C 4.1442479232 1.3037092475 -0.9619685575
C 2.8685692924 0.9153405893 -1.3268219169
N -2.0750766092 0.5778875319 1.2345417714
H -5.0017213368 0.7652710196 2.8292249464
H -3.7472987714 2.0297408274 2.8000363842
H -3.4098040918 0.4872858514 3.5797226814
H -5.2603436179 -0.3555679490 0.6918268863
H -3.9296087712 -2.3695366684 -1.9303861256
H -4.3387245715 -0.8201299058 -2.6557946043
H -5.4276475361 -1.5314324932 -1.4385713461
H 0.2581659015 0.5935509541 0.6800910886
H 2.5274225746 -1.8084405721 0.6927222263
H 4.8084043861 -1.1130346446 1.3515651830
H 6.6935413366 0.3163784489 0.8696211182
H 6.6128761568 1.6033670410 -0.2210420656
H 4.6010236395 2.1695512796 -1.4318831279
H 2.3228174703 1.4648328400 -2.0862462783
