38
CONF25
C -5.5147972118 -1.7946071681 -1.1483376890
C -4.6361934214 -0.7130352681 -0.5594290623
O -3.2848257608 -1.2215724326 -0.3098676181
C -2.4333073851 -1.2144497871 -1.3447455621
O -2.6980791580 -0.8157631832 -2.4603409782
C -1.0650909538 -1.7184113671 -0.9296255703
C -0.1306752245 -0.5082545749 -0.7394759550
C -0.6803062003 0.4455618598 0.3145857162
O -1.1339875457 1.5344903588 0.0251965896
O -0.6368315184 -0.0723932726 1.5412848304
C -1.1788544212 0.7508008444 2.6271258085
C -2.6818346920 0.6077241013 2.7128359142
S 1.5492086078 -1.1611157641 -0.3115441243
P 2.6548037357 0.6519961807 -0.3544123429
S 2.3544939660 1.7938515513 -1.8980625675
O 4.1366882667 0.0881519810 -0.0938804792
C 4.9006548892 -0.5220463098 -1.1742933708
O 2.3505835607 1.4384700372 1.0085260274
C 2.5769580143 0.8183951452 2.3113773380
H -5.1522016856 -2.1066214893 -2.1309473038
H -5.5526466001 -2.6648450975 -0.4871133774
H -6.5309742545 -1.4048985927 -1.2630566396
H -4.9834171000 -0.4042291038 0.4282413348
H -4.5628506101 0.1604561921 -1.2120399620
H -1.1323338521 -2.3001001912 -0.0081613387
H -0.6735809777 -2.3439324514 -1.7360221168
H -0.8706925423 1.7859654928 2.4595852943
H -0.6828774844 0.3609733071 3.5177339407
H -3.1683415623 0.9984464078 1.8158650250
H -3.0423294795 1.1738856830 3.5773210564
H 5.0385907877 0.1992830863 -1.9832160536
H 4.3893923410 -1.4161165281 -1.5406276834
H 5.8604959228 -0.7906858907 -0.7346289363
H 2.0782834395 -0.1533290105 2.3564972396
H 3.6492894522 0.7120011908 2.4863268762
H 2.1357013684 1.5017734696 3.0363141440
H -0.0466114937 0.0514015596 -1.6743090438
H -2.9642739248 -0.4405250912 2.8442022616
