22
CONF38
C 1.8887942205 0.4589020453 1.1566925208
C 1.2412168569 0.6184345016 -0.2119125182
C 0.0325653675 -0.2824235566 -0.4491599975
C -1.0915562655 -0.0772231607 0.5658421428
C -2.3370291238 -0.9012044426 0.2286566971
O -3.0816609778 -0.3293644534 -0.8545954268
O -1.4374577416 1.3024332123 0.7242463487
O -0.4933576247 -0.0326943434 -1.7663430218
O 2.1841780189 0.2487582709 -1.2440569607
O 2.2726656190 -0.8925903959 1.4257633356
H 1.1920416968 0.7555957627 1.9467163051
H 2.7602453678 1.1295480979 1.2081141371
H 0.9312187924 1.6644993972 -0.3384104704
H 0.3574037301 -1.3319051164 -0.3764289127
H -0.7195187142 -0.4245074801 1.5371989101
H -2.0454126892 -1.9390037856 0.0115494282
H -3.0104488407 -0.9017395764 1.0909142141
H -2.4834066127 -0.3199230002 -1.6179170890
H -2.0574415929 1.5074999634 0.0084046720
H 0.2561105412 -0.0676419254 -2.3769969570
H 2.7984287772 0.9839973803 -1.3632737613
H 2.8424220043 -1.1694472046 0.6949964089
