21
CONF75
C 0.7468966118 -1.2109116832 -0.4758205598
C -0.0255175188 0.0504734047 -0.0462819262
C 0.6971135683 1.3194922511 -0.5160358378
O 2.0381008095 1.3336623195 0.0102098371
C -1.3824523500 0.0652561303 -0.7611086329
O -2.1890362018 -1.0299369611 -0.2867829061
C -0.2078580994 0.1223036499 1.4810407593
O -0.7410867512 -1.0701417367 2.0624516833
O 1.9703911948 -1.4164222547 0.2351859519
H 0.9322543536 -1.1459945792 -1.5610140348
H 0.1333516184 -2.0971072796 -0.2925335227
H 0.7239670620 1.3342918213 -1.6145278774
H 0.1497947661 2.2089708518 -0.1695933191
H 2.5334453103 2.0182564911 -0.4550296041
H -1.8878156614 1.0201419993 -0.5590627336
H -1.2310512842 -0.0241341292 -1.8473582411
H -3.0921659475 -0.8912529700 -0.5960108106
H 0.7618855550 0.2882947613 1.9577423548
H -0.8506629498 0.9887020331 1.7094531938
H -1.5246042750 -1.2926107300 1.5351296532
H 2.4450504907 -0.5713330935 0.1899465782
