82
CONF8
C -4.9053463951 2.3081155050 -2.9832077877
C -4.2959038065 2.1076219485 -1.6231038282
C -3.9102406898 3.1459267301 -0.8753721058
C -4.2408023706 0.6595185687 -1.1897531814
C -5.6517442965 0.2016715831 -0.6552745317
C -5.3938010466 -0.4032497773 0.7412049005
C -3.9476308011 -0.9109257334 0.6620798172
C -3.2737725052 0.2850205603 -0.0522091372
C -1.8080432826 0.0011930708 -0.3802888895
C -1.1207659983 1.0930369924 -1.2030167908
C 0.3377825123 0.7495301205 -1.5277417688
C 1.1537889845 0.3428840824 -0.2893397046
C 2.6930534969 0.1733767379 -0.5710569981
C 3.2292931566 1.5329346218 -1.0766324163
C 4.7543720558 1.6264100344 -1.0640252772
C 5.3297223745 1.3507248733 0.3155229378
C 4.9168758604 -0.0296927959 0.8815154706
C 3.3602786049 -0.1127100198 0.8091363859
C 2.7762532032 -1.3796884712 1.4366381553
C 1.2838971099 -1.2063294383 1.7209200605
C 0.4493555212 -0.8213918089 0.4817811646
C -0.9982568398 -0.3087535497 0.9222804167
C -1.7263813399 -1.3695827610 1.7960991758
C -3.2339109892 -1.1276480123 1.9965815020
C -0.9161617347 0.9629735487 1.8004532254
C 0.3351594764 -2.0881326955 -0.3956220375
C 5.6426084892 -1.1707424997 0.1518559397
C 5.3557633877 -0.0672621919 2.3575919196
O 6.7579645286 1.5444306915 0.3173264503
C 2.9909525025 -0.8883021515 -1.6513062069
C -3.9069684409 -2.1877584913 -0.1891238605
O -4.6857921592 -3.2034488210 0.4734423732
H -5.0260311820 3.3666555752 -3.2269085938
H -4.2759584438 1.8397630109 -3.7509347833
H -5.8856263227 1.8187417713 -3.0440450266
H -4.0324753566 4.1632435895 -1.2376035407
H -3.4571136475 3.0239285057 0.1029710479
H -3.9940987966 0.0662583634 -2.0816494034
H -6.3449242747 1.0464565018 -0.6056290068
H -6.0956352351 -0.5392511383 -1.3271956039
H -5.4478450890 0.3790650895 1.5084329335
H -6.1156276124 -1.1815036181 1.0041443570
H -3.3171545196 1.1025464183 0.6779671893
H -1.7982919451 -0.9018837965 -1.0031018425
H -1.6730517122 1.2388929197 -2.1395291446
H -1.1718367212 2.0534252602 -0.6781399067
H 0.7975552245 1.6181285233 -2.0096334899
H 0.3493252183 -0.0526269998 -2.2741194303
H 1.1293376783 1.2014531473 0.3936787296
H 2.8224819022 2.3331274998 -0.4412093862
H 2.8728593234 1.7231369787 -2.0946371225
H 5.1957688905 0.9279565290 -1.7872779038
H 5.0630614734 2.6308304669 -1.3775259320
H 4.9502449979 2.1121372856 1.0125122637
H 3.0230433277 0.7223390409 1.4490936132
H 3.2780258106 -1.6034971966 2.3829613477
H 2.9518750341 -2.2474830196 0.7915351227
H 1.1910101567 -0.4343369330 2.4921736853
H 0.8832506275 -2.1320764571 2.1521921807
H -1.5965622017 -2.3705235853 1.3771357987
H -1.2456578064 -1.3947572984 2.7812034815
H -3.6642597739 -1.9787649175 2.5369598285
H -3.4027254599 -0.2418819368 2.6217341529
H -0.2850993468 0.7966691630 2.6763858068
H -1.9063113182 1.2270003050 2.1786186707
H -0.5348651253 1.8399977528 1.2770430836
H -0.3407418005 -2.8207896447 0.0518224411
H 1.3042742636 -2.5785375055 -0.4895948811
H -0.0211948665 -1.8866280825 -1.4067117229
H 5.5622535862 -1.1088986482 -0.9351943668
H 6.7066682289 -1.1652603758 0.4133482728
H 5.2385979969 -2.1393546363 0.4613458942
H 6.4065603489 0.2268453863 2.4359780390
H 5.2614210901 -1.0692509292 2.7854583722
H 4.7580152154 0.6232166376 2.9644344930
H 7.1272352889 0.9778527274 -0.3724888946
H 3.1143414509 -1.8944588145 -1.2479553905
H 2.1834316767 -0.9240801825 -2.3867253491
H 3.9044634856 -0.6511304728 -2.2017796607
H -4.3180952205 -1.9953209313 -1.1894426607
H -2.8781085723 -2.5430847230 -0.3163557286
H -4.5974108967 -4.0140369562 -0.0410972376
