40
CONF11
C -3.9634558655 -0.1796863187 0.7468474941
C -2.5631390599 -0.7025521923 1.1053882646
C -2.7047210466 -1.8871584187 2.0681637604
C -1.8324854970 -1.0605286142 -0.1963607953
C -1.6765612911 -2.3774292097 -0.6260606687
C -1.0414506607 -2.6646592199 -1.8323565791
C -0.5514371907 -1.6389626775 -2.6314142928
C -0.7049229824 -0.3195831988 -2.2150067091
C -1.3399747624 -0.0378515599 -1.0127136147
N -1.8711906937 0.4053339527 1.7953536245
C -0.5133328885 0.3484068840 2.0306361726
O 0.1248212696 -0.6958971871 2.0062760341
N 0.0766964783 1.5681223680 2.3505533679
C 1.5288539477 1.6509150536 2.1792292622
C 1.9446512370 1.5772720095 0.7275100399
C 2.5055553834 0.4070456887 0.2095296186
C 2.8517990853 0.3005198559 -1.1316988683
C 2.6413611683 1.3738599314 -1.9902789712
C 2.0770218436 2.5505032294 -1.5091428697
C 1.7355723589 2.6291862737 -0.1655755351
Cl 1.0023431444 4.1337063156 0.4101472484
H -3.9020788098 0.6816909673 0.0728377932
H -4.5107165242 0.1060948268 1.6519957523
H -3.3547175805 -2.6576952115 1.6439809785
H -1.7294850625 -2.3178633884 2.2996345812
H -3.1620031071 -1.5334787122 2.9960997125
H -0.9227113030 -3.6987958278 -2.1408423738
H -0.0507160922 -1.8638547322 -3.5676963232
H -0.3167317006 0.4937519082 -2.8198634719
H -1.4311398689 0.9976500909 -0.6969612276
H -0.4148033746 2.4010865185 2.0577064343
H 1.9802898741 0.8206768606 2.7258025289
H 1.8677945450 2.5870788623 2.6324546125
H 2.6390331275 -0.4356718163 0.8790941382
H 3.2745667193 -0.6246713646 -1.5079827032
H 2.9087595700 1.3008980133 -3.0394705083
H 1.9045396536 3.3973310985 -2.1633467150
H -2.0316220943 -3.1973614767 -0.0131799445
H -2.2829463302 1.3176872059 1.6730956235
H -4.5243249146 -0.9632020044 0.2321595017
