45
CONF1110
O 3.3222546602 0.2151834826 -2.7688136625
C 2.3517477996 -0.7999630047 -3.0940966903
C 1.7068187868 -1.3828815829 -1.8482643707
O 2.7195351330 -2.0232931990 -1.0268925961
C 2.9567111854 -1.2534493528 0.1372625514
O 3.9551735786 -0.2649786176 -0.0717131723
C 3.4877309424 -2.1814579615 1.2221478792
O 2.5615408972 -3.2055054047 1.5609972487
C 1.5953785709 -0.5994510839 0.4471551864
O 1.7371964773 0.5447109769 1.2728820027
C 1.0018419393 -0.3521619069 -0.9526888179
O -0.4101286273 -0.5882040280 -1.0622551952
C -1.2177809604 0.4664517833 -0.6359623946
O -1.1915834407 0.5073735262 0.7881222127
C -1.9327873304 1.6375740360 1.2851320947
C -1.5679310004 1.7607220534 2.7512924313
O -0.1838667139 2.0746916691 2.9063345959
C -3.4090726148 1.3993712647 0.9911148485
O -3.9216372378 0.2582211903 1.6911787151
C -3.6073924691 1.2289735376 -0.5256894568
O -4.9621273857 0.8985325843 -0.8176976095
C -2.6439525433 0.1903144725 -1.1113896302
O -2.7315864569 0.2692134540 -2.5317143056
H 2.9187113683 1.0826325226 -2.8962754921
H 1.5720524601 -0.3958243428 -3.7502424195
H 2.8819824057 -1.5954675285 -3.6270331933
H 0.9906285579 -2.1553770146 -2.1511312767
H 3.8535235771 0.0527158780 -0.9958020608
H 3.6698628668 -1.5949561113 2.1274684513
H 4.4442498717 -2.5953095486 0.8723215683
H 2.4028421884 -3.7238104995 0.7605262602
H 0.9635666884 -1.3194860781 0.9754084628
H 2.5567452920 0.9853980704 0.9949995370
H 1.2172867181 0.6796238314 -1.2647506322
H -0.8516717331 1.4302025178 -1.0382825632
H -1.6094172200 2.5507009523 0.7585702062
H -2.1421790796 2.5775097133 3.2004582787
H -1.8230556121 0.8278633079 3.2746308779
H 0.3257923921 1.4531233869 2.3560929912
H -4.0044799903 2.2554329625 1.3276036637
H -3.2616609472 -0.4481381981 1.6239495613
H -3.4086995569 2.1915953224 -1.0146519954
H -5.2051946377 0.1931430590 -0.1986987391
H -2.9261159089 -0.8149997665 -0.7570248514
H -2.1808526051 -0.4365602250 -2.8954446057
