31
CONF7
C -3.2203925814 -1.1397938087 1.0440593096
C -4.3018790188 -1.0754613050 0.1745791673
C -4.0642004689 -0.8459171608 -1.1748381311
C -2.7763707415 -0.6805668038 -1.6726493246
C -1.7044784038 -0.7332468131 -0.7928669718
C -1.9126626077 -0.9596877509 0.5747673802
C -0.7638974528 -1.0435271395 1.4941866188
N 0.2686804122 -0.2807273615 1.5614498613
O 0.2300779088 0.7755459647 0.6828775243
C 1.4657177844 1.5163855321 0.7620963660
C 2.5812753919 0.7767688356 0.0348306985
O 2.3392113484 0.6714093527 -1.3599125801
C 3.0610343641 1.7615723637 -1.9687314627
C 4.3016446797 1.8288699346 -1.0995898868
O 3.7791937655 1.5333430578 0.2135507309
C -0.7523234796 -2.1449330516 2.5382157580
F 0.4744117992 -2.4054996877 3.0201728607
F -1.2433510102 -3.2979942477 2.0281218275
F -1.5363869213 -1.8235450537 3.6044160053
Cl -5.4248156547 -0.7676798076 -2.2819261665
H -3.4099807351 -1.3171071941 2.0967259768
H -5.3124923662 -1.2033019019 0.5446705233
H -2.6102282941 -0.5154836497 -2.7309570443
H -0.6990777563 -0.6145112607 -1.1778989294
H 1.7374185077 1.6851915859 1.8092428029
H 1.2560830803 2.4685716583 0.2680572597
H 2.6941808462 -0.2447470115 0.4263325890
H 3.2583830461 1.4973965965 -3.0089981865
H 2.4800106316 2.6920958676 -1.9180501269
H 4.7662166455 2.8168811237 -1.0703018999
H 5.0389981753 1.0696993424 -1.3906796468
