44
CONF61
C -4.4212386717 2.0317860871 2.5444850180
C -3.1941166011 1.1615389253 2.3635237369
C -3.4849098197 -0.3428004485 2.4118917309
O -3.7033375025 -0.6700144152 1.0298375598
C -2.7445430932 0.0982595891 0.3319535720
O -2.6717349740 1.3405029103 1.0164775532
C -3.2217611991 0.3779725836 -1.1015980417
N -4.5229557362 1.0147655054 -1.1334549164
C -4.8173888965 2.3249488333 -1.0140891532
N -6.1321372482 2.5046051221 -1.0329170775
C -6.6042476161 1.2316145567 -1.1609849568
N -5.6686822665 0.2936447854 -1.2257166993
C -1.3702535132 -0.5838183519 0.3110537026
C -1.1604676355 -1.9084484790 -0.0911423399
C 0.1013901216 -2.4875116860 -0.1004104383
C 1.1961912564 -1.7307086682 0.3037094840
C 1.0347292484 -0.4100106011 0.7112192576
C -0.2399712213 0.1388753634 0.7034383348
O 2.4052212277 -2.3873364225 0.3332778622
C 3.5700033566 -1.6616116460 0.1379351204
C 4.6250987337 -1.9046255158 1.0086022805
C 5.8439330031 -1.2649580300 0.8053167929
C 5.9745313604 -0.3878482168 -0.2641439536
C 4.9223031211 -0.1422783762 -1.1400286292
C 3.7092329696 -0.7904674523 -0.9391817617
Cl 7.5116054967 0.4301000531 -0.5209252426
Cl -2.4829805889 -2.9411648288 -0.6295222615
H -5.2264484041 1.6966317354 1.8825234779
H -4.7674939658 1.9732636289 3.5813835069
H -4.1883711788 3.0756383628 2.3157485832
H -2.4043350639 1.4378268442 3.0714378862
H -2.6329445197 -0.9110481757 2.8085050705
H -4.3926403515 -0.5914788888 2.9642694658
H -2.4920103154 1.0439811148 -1.5698997403
H -3.2762164532 -0.5482537477 -1.6747585976
H -4.0573284686 3.0893226870 -0.9253176498
H -7.6578736538 0.9881788398 -1.2160969456
H 0.2427920160 -3.5145795874 -0.4155715259
H 1.8843921573 0.1793699639 1.0361195038
H -0.3775143308 1.1643620874 1.0251472680
H 4.4922905294 -2.5921057707 1.8368729355
H 6.6758422562 -1.4455772092 1.4762321022
H 5.0470593546 0.5371369465 -1.9754099061
H 2.8806329220 -0.6204409808 -1.6184069310
