65
CONF839
C -2.1252038764 3.4976116664 -3.2480741472
C -1.7010954600 2.6191257759 -2.0736459204
C -2.6561201808 2.7260191290 -0.8624989442
C -4.0768360953 2.2600890956 -1.1868416816
C -2.0286661055 1.9610568179 0.2820168851
O -1.2960465648 2.4567882087 1.1188047443
O -2.3249523958 0.6480681320 0.2317109879
C -1.7176575036 -0.2193666371 1.2388250166
C -2.5950474735 -0.2581195920 2.4784590227
C -1.9384520454 -1.1192310300 3.5682923804
C -1.3746099833 -2.3807495009 2.9856133098
C -1.2066522135 -2.6137805332 1.6696662050
C -1.5904828490 -1.5969438149 0.6099070722
C -0.5983170055 -1.6521376073 -0.5719148922
C -0.6652322610 -3.0661652639 -1.1846308100
C -0.4190710885 -4.1006963586 -0.1203840706
C -0.6544191913 -3.8681095128 1.1820021974
C 0.2531971410 -3.2538800009 -2.3953078570
C 0.8260701181 -1.2331042642 -0.1404829667
C 1.2086184326 0.1438948981 -0.6877543131
C 2.4989754085 0.6820257134 -0.0979961444
C 3.7294333147 -0.1336169988 -0.4358832039
C 4.9694450372 0.5979835088 0.0304960197
C 5.0581052748 1.9241516061 -0.7136449083
C 3.7679396370 2.7077149635 -0.7809159305
O 3.7393817052 3.8903604163 -1.0598702687
O 2.5986598859 2.0701988585 -0.5912492891
O 6.1058181458 -0.2280494435 -0.2443771864
C -0.8594765002 -0.3488369977 4.3505762900
H -1.3771290427 3.4525844961 -4.0452099342
H -3.0810404088 3.1750501708 -3.6706012592
H -2.2255428514 4.5432951310 -2.9372335910
H -1.6507313081 1.5687115109 -2.3886351906
H -0.6926383752 2.9055720570 -1.7505826236
H -2.6749273458 3.7726782715 -0.5375280040
H -4.5520639750 2.9573350386 -1.8813846930
H -4.0684997363 1.2673629220 -1.6462486542
H -4.6913132338 2.2155098541 -0.2827021285
H -0.7329439607 0.1886775333 1.4852021846
H -2.7641844775 0.7578600528 2.8500527311
H -3.5671022756 -0.6836356606 2.2002675408
H -2.7171827225 -1.4003851339 4.2914311213
H -1.0717162896 -3.1523392917 3.6936389189
H -2.5822770913 -1.8740167297 0.2186830652
H -0.9518019044 -0.9487756723 -1.3366860449
H -1.6974349466 -3.1972326625 -1.5493006690
H -0.0303182598 -5.0680587944 -0.4340780413
H -0.4400644839 -4.6365367791 1.9225068741
H 0.0747948794 -2.4702298302 -3.1391419591
H 1.3108724780 -3.2259275205 -2.1155284853
H 0.0633820219 -4.2231298378 -2.8676589885
H 0.8975913072 -1.2226364365 0.9557473852
H 1.5560631856 -1.9750006606 -0.4751796554
H 1.3033914538 0.0999315176 -1.7807172630
H 0.4154992570 0.8661773466 -0.4645426728
H 2.3982162396 0.7691062808 0.9926080596
H 3.7847620252 -0.3110537323 -1.5183153925
H 3.6549438565 -1.1022704439 0.0679258073
H 4.8946314856 0.7827355657 1.1136542157
H 5.3336745229 1.7169655592 -1.7574155745
H 5.8259660756 2.5848191216 -0.3010565097
H 6.8912029112 0.2237538052 0.0900797753
H -1.2980480008 0.5199495267 4.8522731712
H -0.0638259117 0.0008232264 3.6842247743
H -0.4015113156 -0.9899720105 5.1105539541
