27
CONF4
C -5.4312229587 -0.6906381571 1.1098521976
C -3.9753471829 -0.8823593102 0.8117034263
C -3.2738828493 -0.0577462661 -0.0720783324
C -1.9254753493 -0.2127372284 -0.3657401408
C -1.2230224912 -1.2494212638 0.2538494488
C -1.8905669874 -2.0973263251 1.1443713672
C -3.2368751909 -1.9077996135 1.4082383670
N 0.1390721447 -1.5051436036 0.0202844739
C 1.0367466010 -0.7651508920 -0.7117249989
O 0.7691651239 0.2810778377 -1.2845652361
C 2.4107833230 -1.3311124450 -0.7643220527
C 3.5497229512 -0.5957574194 -1.0515987594
N 4.6846872301 -1.3655453128 -1.0576045051
N 4.5463166854 -2.5993550219 -0.8212194971
S 2.8440775067 -2.9759596183 -0.5364739294
C 3.6524898921 0.8628605902 -1.3373368416
Cl -4.1258646948 1.2550635682 -0.8690475736
H -5.6222378707 0.3047731026 1.5238394503
H -6.0352758193 -0.7767300798 0.2006602224
H -5.7765398544 -1.4374760910 1.8276858138
H -1.3546418352 -2.9077137901 1.6304158850
H -3.7384560918 -2.5753334699 2.1022514445
H 4.6989866165 1.1659432460 -1.2796383802
H 3.2664920550 1.0860758231 -2.3361491355
H 3.0544238826 1.4458126139 -0.6341819820
H 0.5112635736 -2.3037659965 0.5123205351
H -1.4309806270 0.4555111524 -1.0540018328
