56
CONF6
C 0.1517741547 -1.3637331696 -1.4907621036
C -1.2654429031 -1.0902471292 -1.0129931792
N -1.2543383233 -0.6375581462 0.3871520528
C -0.6420082672 -1.6945170229 1.2072667724
C 0.7795800228 -1.9658475110 0.7399302901
N 0.7710508861 -2.3972476504 -0.6593800464
C 2.0990445044 -2.8038735350 -1.1539388276
C 3.1251902008 -1.7071941464 -1.2283838999
C 3.6533714814 -1.2727318799 -2.3807387858
C 4.6399620531 -0.2050976171 -2.5606652003
C 5.0640294669 0.6357895334 -1.5174389028
C 6.0046338516 1.6312825131 -1.7451262309
C 6.5453476201 1.8181521552 -3.0184952722
C 6.1312097622 0.9975566083 -4.0642964395
C 5.1879431742 0.0003443514 -3.8369661055
C -2.6177342671 -0.3369441830 0.8512929290
C -3.2762655460 0.7466216578 0.0090418232
C -2.5792037547 1.8947157149 -0.3778228333
C -3.2170849097 2.8963199426 -1.1026920858
C -4.5628996549 2.7688744801 -1.4455933467
C -5.2634356073 1.6282751927 -1.0630609943
C -4.6207323001 0.6230464338 -0.3429457354
C -2.6322425911 0.1070175088 2.3068531173
C -1.7149330611 1.0452995679 2.7884124204
C -1.7740220228 1.4760897647 4.1097162272
C -2.7558482441 0.9811425296 4.9679210224
C -3.6732051052 0.0471471588 4.4949082204
C -3.6077816262 -0.3882567576 3.1723924083
H 0.1225930887 -1.7150527098 -2.5297248453
H 0.7244359167 -0.4167875261 -1.4743804094
H -1.7091794885 -0.3123360223 -1.6414333547
H -1.8787219024 -2.0064957824 -1.1242245259
H -1.2330298891 -2.6303133547 1.1514524022
H -0.6192056660 -1.3737605091 2.2530903355
H 1.3800798856 -1.0494618045 0.8949739255
H 1.2165614326 -2.7625918005 1.3543434658
H 1.9655592776 -3.2422153646 -2.1515079098
H 2.4586973475 -3.5996572909 -0.4864240346
H 3.4251327244 -1.2563709178 -0.2839619998
H 3.3364546630 -1.7624640070 -3.3031749286
H 4.6508636267 0.5159607640 -0.5210236003
H 6.3167167163 2.2714229846 -0.9253952239
H 7.2793376154 2.5988179137 -3.1915040243
H 6.5419920420 1.1340314697 -5.0600750368
H 4.8675350734 -0.6369410793 -4.6570221484
H -3.2561605585 -1.2393189797 0.7781725698
H -1.5289839105 1.9938888740 -0.1224594575
H -2.6617870603 3.7798758697 -1.4032508791
H -5.0591201781 3.5517347195 -2.0107412000
H -6.3100044979 1.5160042799 -1.3298362701
H -5.1688349780 -0.2686809111 -0.0497428640
H -0.9442604867 1.4273464148 2.1265322585
H -1.0511193726 2.2006890612 4.4725480744
H -2.8012098018 1.3191526423 5.9985354985
H -4.4379914521 -0.3490960664 5.1560498066
H -4.3223084736 -1.1218074278 2.8079548583
