63
CONF106
C 2.3812802988 1.5780326448 0.8040487064
C 1.1169636125 2.4140532137 0.9791332861
N -0.0295459927 1.5518426593 1.2725155964
C 0.1781079724 0.8507889672 2.5405703849
C 1.3922423112 -0.0688460312 2.4462211406
C 2.6309836557 0.7406798356 2.0590734592
N 3.8179549696 -0.1044252596 1.9270921213
C 4.0431387004 -1.1392874009 1.0219920353
C 3.2740272247 -1.6822213614 -0.0006764671
C 3.8190393944 -2.7409158799 -0.7334175813
C 5.0920012452 -3.2422963433 -0.4552437491
C 5.8699398849 -2.6999941228 0.5709253831
C 5.3286498233 -1.6514047309 1.2959994511
N 5.8346420619 -0.9148979489 2.3508962788
C 4.9259645409 0.0437236583 2.7595104632
O 5.0651434578 0.8587578652 3.6697688048
C -1.2948627850 2.2904187692 1.2634613437
C -1.7092600788 2.7483618300 -0.1400142068
C -1.5492264348 1.6609141686 -1.2048038935
C -2.2659199888 0.3405993124 -0.8639070962
C -3.7713696794 0.4634125871 -0.7334130133
C -4.5311079917 1.3340887035 -1.5202251469
C -5.9176422361 1.3986956891 -1.3963318694
C -6.5315724280 0.5780306517 -0.4674662595
C -5.8227059851 -0.2958408221 0.3389547058
C -4.4391654477 -0.3417492889 0.1957070916
F -7.8848462601 0.6366675066 -0.3358904729
C -1.8461928384 -0.7356146157 -1.8518335394
C -0.7599537293 -1.5586671864 -1.5385109692
C -0.2883526118 -2.5116580586 -2.4374101377
C -0.9288800531 -2.6258353476 -3.6590756284
C -2.0103329427 -1.8371548947 -4.0115506372
C -2.4631664709 -0.8900488929 -3.0954850632
F -0.4797563239 -3.5543142134 -4.5476300591
H 3.2405198826 2.2324985059 0.6202370368
H 2.2593703384 0.9311826851 -0.0715141307
H 0.9250802690 2.9703460165 0.0563178627
H 1.2693519973 3.1611015791 1.7861761180
H 0.3152336222 1.5635852651 3.3805084236
H -0.7153142740 0.2551427601 2.7612785467
H 1.1934635901 -0.8438162932 1.6976660658
H 1.5626140725 -0.5656270751 3.4077778574
H 2.8637413802 1.4245559368 2.8843020531
H 2.2851297580 -1.3093430118 -0.2353908864
H 3.2337274172 -3.1774820330 -1.5361642373
H 5.4863524196 -4.0649034136 -1.0426432586
H 6.8602872737 -3.0819765739 0.7950520360
H 6.7369530610 -1.0316588320 2.7841135926
H -1.2624681732 3.1671398779 1.9401450044
H -2.0666305261 1.6198401442 1.6624198754
H -2.7540584423 3.0775514750 -0.0851470934
H -1.1296505352 3.6269585570 -0.4463171868
H -1.8939319680 2.0342738529 -2.1767386706
H -0.4856139930 1.4279379636 -1.3256253596
H -1.8881507267 0.0158653902 0.1119442914
H -4.0457962074 1.9812293658 -2.2433160940
H -6.5100368181 2.0744080879 -2.0039113539
H -6.3414407289 -0.9172569027 1.0611015516
H -3.8653316000 -1.0199228792 0.8219436765
H -0.2714388076 -1.4525347242 -0.5731613160
H 0.5518613363 -3.1545363831 -2.1966726394
H -2.4859685311 -1.9642180826 -4.9782112784
H -3.3140705536 -0.2691993961 -3.3591540336
