37
CONF748
C -2.4049540125 0.0489457426 -2.8474628621
C -0.9461118765 -0.1655245503 -2.5081143981
O -0.7799701910 -0.6344886323 -1.1364024603
P -0.9285991430 0.4001027732 0.0662003278
O -0.7519280445 1.8356824303 -0.2468810668
O -2.3308924265 -0.0029899491 0.7135389907
C -3.0048275992 0.9447154381 1.5980289067
C -2.3543541543 1.0026607490 2.9634274469
O 0.1129723232 -0.2023815870 1.1507297358
P 1.7374349288 -0.4164152620 0.9945743308
O 2.3448306670 -0.4453823228 2.3358785886
O 1.8834901695 -1.7002567772 0.0650304565
C 1.4171482348 -2.9800735366 0.5828956674
C 1.7017012776 -4.0206280982 -0.4732983394
O 2.2102235333 0.6844933424 -0.0501231992
C 2.4105211260 2.0532344855 0.4370843975
C 2.4855636987 2.9475512338 -0.7747107732
H -2.9833700906 -0.8613928086 -2.6684341555
H -2.4977351942 0.3204928351 -3.9039986938
H -2.8287265782 0.8610294336 -2.2494331071
H -0.5016470638 -0.9582700920 -3.1144740011
H -0.3619987957 0.7514546035 -2.6353380239
H -4.0280029444 0.5659196363 1.6582712508
H -3.0133637789 1.9267002998 1.1130901784
H -1.3448300583 1.4188622270 2.9070160488
H -2.9511281986 1.6440131948 3.6200255225
H -2.2944101953 0.0060621296 3.4085751776
H 0.3421194766 -2.9039409185 0.7864259720
H 1.9448546788 -3.1937813270 1.5193302723
H 2.7731147615 -4.0761998669 -0.6820350186
H 1.3628977150 -5.0002694090 -0.1232292344
H 1.1742117642 -3.7795601879 -1.3998718108
H 1.5658302318 2.3334650388 1.0753397661
H 3.3320891566 2.0651154830 1.0277881223
H 3.2998379125 2.6386269463 -1.4358833289
H 1.5390978729 2.9146842919 -1.3192696151
H 2.6689116316 3.9777427253 -0.4542906904
