37
CONF35
C 4.2946158174 -2.8816051577 -0.3434955542
C 3.3919391270 -1.9659781521 0.4801929373
C 2.0962102435 -1.6167271659 -0.2540443966
C 1.2184890896 -0.6837279790 0.5782879404
C -0.1795861848 -0.3612838985 -0.0289153680
C 0.0005894618 0.3024732491 -1.4327640893
N -1.2354240333 0.8565451483 -1.9458216682
C -1.6634344980 2.1358327612 -1.9045380506
N -2.9028328868 2.2192092756 -2.3693400898
C -3.1957162022 0.9235677170 -2.6748713228
N -2.2182782819 0.0592406951 -2.4322040282
C -0.8805141104 -1.6374777528 -0.1915167803
N -1.3805066799 -2.6735679721 -0.3006534333
C -0.9826358772 0.5756358414 0.8766544708
C -0.4072959661 1.7752392185 1.3057825213
C -1.1291461372 2.6807304574 2.0739847561
C -2.4434042377 2.3795931792 2.4096150936
Cl -3.3645585568 3.5203848896 3.3793451434
C -3.0441623747 1.2005479943 1.9933104021
C -2.3058736561 0.3055659279 1.2242886401
H 3.7840833349 -3.8212194520 -0.5812505912
H 5.2139751998 -3.1249673062 0.1977321401
H 4.5756852771 -2.4050480169 -1.2889997894
H 3.1450086621 -2.4477223815 1.4349874471
H 3.9279977496 -1.0402421237 0.7269285981
H 1.5517589555 -2.5417196143 -0.4842245880
H 2.3486676835 -1.1480955811 -1.2131958657
H 1.7405667256 0.2662899934 0.7278118263
H 1.0470675187 -1.1176276004 1.5699321269
H 0.7162703677 1.1224356875 -1.3316390814
H 0.3874967434 -0.4213255420 -2.1528009678
H -1.0456647694 2.9494358282 -1.5472635732
H -4.1437732492 0.6073494575 -3.0913198098
H 0.6115946851 2.0317707304 1.0361519927
H -0.6737018272 3.6081790926 2.4016578894
H -4.0716810693 0.9792509857 2.2579029892
H -2.7838268378 -0.6109417458 0.8942914344
