76
CONF96
C -0.5956713282 -2.0289734887 -0.9585583275
C -1.8578047689 -1.2893534578 -0.5432178279
C -3.0853371362 -1.9059350303 -1.1551550926
C -4.3090797634 -1.7551836496 -0.6380661563
C -5.5415961310 -2.3543281361 -1.2635198035
O -5.3122032621 -3.1588537909 -2.4145545403
C -4.5898986774 -0.9589532941 0.6170675840
C -3.8613696567 0.3911933756 0.7519462878
O -3.0086594560 0.2939715089 1.9167863039
C -4.8004941641 1.5916562138 1.0475506557
O -5.7732908166 1.5493887913 1.7866171934
C -4.2838096698 2.7613695625 0.3298590679
C -4.8467565551 4.1275222729 0.5148597461
C -3.3243395952 2.3487609038 -0.5249099389
C -3.1190063319 0.8623347957 -0.5150050918
C -1.7368035084 0.2480624247 -0.8110892055
O -1.5357149052 0.5337665911 -2.1992754301
C -0.5417970590 0.7724605414 0.0308658585
C -0.3670120750 2.2916849126 0.0214702020
C 0.7732472534 0.1389909920 -0.4641843980
O 1.7643077687 0.3188608081 0.5891938368
C 2.9951388238 0.7704105693 0.2377927282
O 3.2793097492 1.0635766059 -0.9217259117
C 3.9056682064 0.8618311365 1.3808051783
C 3.4606724835 0.5061872371 2.6670917648
C 4.2887501168 0.5699400286 3.7715162509
C 5.6097638608 1.0013785794 3.5987016721
C 6.0875640011 1.3594861481 2.3535512818
C 5.2588177180 1.3050295982 1.2051310311
N 5.7471573696 1.6616701983 -0.0055226158
C 7.1119393235 2.0968225517 -0.2351229066
C 0.7291294487 -1.3145600423 -0.8623175678
O 1.7579805092 -1.6304509093 -1.8225385240
C 1.6144177459 -1.2120569656 -3.0920061992
C 2.8009048144 -1.5750389467 -3.9250445940
O 0.6427715639 -0.5966079741 -3.4996550675
C 0.4423843477 -2.4690482553 0.0631899724
C 0.2409944923 -2.2485010753 1.5463431356
C 1.1545650880 -3.7776532047 -0.2244028241
H -0.6968531985 -2.6876276747 -1.8180538484
H -1.9608466344 -1.3677188273 0.5449339372
H -2.9597837312 -2.4899043798 -2.0638477361
H -6.0375153119 -3.0026207702 -0.5280144257
H -6.2510305209 -1.5397260175 -1.4877558008
H -4.9982966150 -2.5808333453 -3.1219467515
H -5.6686236881 -0.7795558909 0.6968137303
H -4.3268409765 -1.5646862416 1.4936949981
H -2.6274372686 1.1653623738 2.1001410053
H -5.9221047582 4.1314200036 0.3050113636
H -4.7241868724 4.4573543414 1.5524570395
H -4.3569492826 4.8479130295 -0.1438290548
H -2.8211899885 2.9967871516 -1.2350720850
H -3.7126786947 0.4911656744 -1.3638604159
H -0.7513547876 0.0527492761 -2.5291322379
H -0.7076295821 0.4518152669 1.0619779439
H 0.5805358495 2.5626168239 0.4977566927
H -1.1645943462 2.7897135254 0.5785953407
H -0.3583198782 2.6773685669 -1.0027857948
H 1.1127216228 0.7066901465 -1.3353328431
H 2.4366854127 0.1724580398 2.7834283319
H 3.9206669563 0.2906050815 4.7523711540
H 6.2772132676 1.0578623127 4.4538713643
H 7.1145938431 1.6888327703 2.2526053840
H 5.1093670863 1.5985928231 -0.7858957168
H 7.3499903620 3.0109421256 0.3245297251
H 7.8399661272 1.3240956275 0.0449991262
H 7.2269449332 2.3070661352 -1.2997267907
H 3.1795837496 -2.5632216531 -3.6571876822
H 2.5377805245 -1.5305707392 -4.9814307096
H 3.5942752253 -0.8457749725 -3.7248105373
H -0.4135495104 -3.0313173897 1.9459511505
H -0.1946364355 -1.2831863663 1.8005962410
H 1.2058783592 -2.3192078363 2.0590454654
H 0.6107650736 -4.5918895307 0.2662131973
H 1.2092200658 -3.9958002765 -1.2922020434
H 2.1733942585 -3.7586268984 0.1778899572
