44
CONF7
C 0.1369907616 2.7040352477 -1.5837597508
C -0.3468776190 2.5254704140 -0.1466368573
C 0.4915587875 1.4895185119 0.6267153070
C 0.4482655609 0.1143668234 0.0002380720
C -0.7380071824 -0.6221553404 -0.2283111135
C -0.7209843420 -1.7658453099 -1.0742226686
C 0.4761280397 -2.2373536639 -1.5900962670
C 1.6725356540 -1.5960754222 -1.3122609285
C 1.6229365618 -0.4229857778 -0.5403350443
O 2.7698143475 0.2953239590 -0.3021754613
C 3.9494178360 -0.1419104514 -0.7997317567
C 4.1003272443 -1.2634967105 -1.5303864630
C 2.9518320945 -2.0998492107 -1.8534683123
O 3.0384931333 -3.1238338097 -2.5204267014
C 5.1032284594 0.7417865507 -0.4670133521
O 6.2358831965 0.5082626205 -0.8114594635
O 4.7343072939 1.8230530722 0.2555701738
C -1.9722492730 -2.4516200916 -1.4692684638
O -1.9848528383 -3.4984108175 -2.1122166388
C -3.1791961045 -1.7472996801 -1.0872381315
C -3.1304349256 -0.7147115015 -0.2084602507
N -1.9564244755 -0.2301117557 0.3406136963
C -2.0176673406 0.2100780419 1.7639244143
C -1.2072079650 -0.6945635959 2.6828388505
C -4.3628820065 0.0861482196 0.0740075434
O -4.3630217507 1.2630662967 0.3551883921
O -5.4896197942 -0.6451976788 -0.0738851940
H 1.1908208816 3.0025677622 -1.6100050849
H 0.0385382016 1.7732281896 -2.1520536695
H -0.4453068983 3.4717920118 -2.1007653079
H -0.2755028268 3.4789045378 0.3903111559
H -1.4058044517 2.2442671623 -0.1483653398
H 1.5279245371 1.8306079037 0.6360615087
H 0.1875090422 1.4593102350 1.6768033072
H 0.4704711302 -3.1190524083 -2.2223927090
H 5.0856268297 -1.5358966407 -1.8866576860
H 5.5459851483 2.3296587805 0.4178311498
H -4.1220101955 -2.0613517952 -1.5143092695
H -1.7295260840 1.2591988776 1.8552440450
H -3.0641447307 0.1598549430 2.0607648391
H -1.5479308066 -1.7312946560 2.6032954382
H -0.1380419813 -0.6701068598 2.4601869929
H -1.3476987077 -0.3654585975 3.7167734997
H -6.2332027751 -0.0319195081 0.0380116111
