47
CONF3
C -7.5674774020 0.8096295417 -0.2045657979
O -6.5493991865 -0.0593076002 -0.7483945689
P -5.4470363027 -0.6975256978 0.2285220410
S -6.0620017164 -1.4126521138 1.9138684680
O -4.6870635156 -1.6943585043 -0.7719711985
C -5.1600858402 -3.0510053806 -0.9329198244
O -4.3837206847 0.5272625747 0.2857512176
C -3.2345281817 0.4313460141 1.0780714696
C -2.0700107774 -0.0770733131 0.5189907751
C -0.9117329596 -0.1257207410 1.2841693856
C -0.9216138372 0.3508035563 2.5970224616
C -2.1006843373 0.8675341328 3.1405647834
C -3.2651869796 0.8990332315 2.3834471059
S 0.5105648381 0.2643086276 3.6644507781
C 1.8568470348 0.3605667129 2.4931675632
C 2.0122344130 1.4817852074 1.6731621247
C 3.0748292794 1.5529751008 0.7837571604
C 3.9886905248 0.5058647793 0.7390431413
C 3.8623737933 -0.6050710304 1.5578244345
C 2.7849224508 -0.6791772978 2.4345968720
O 5.0894659830 0.5874894754 -0.1153676422
P 4.9334892442 0.2378169379 -1.6945102943
S 3.9062627488 -1.3355086830 -2.1382528330
O 6.4730567528 0.2743588558 -2.1437263405
C 7.3006815034 -0.8946799702 -1.9504013539
O 4.4179742870 1.6496795059 -2.2551902066
C 3.9582877868 1.7482601495 -3.6233221939
H -8.2435630259 1.0292466401 -1.0315503233
H -7.1166551888 1.7366501947 0.1638478551
H -8.1046913271 0.3060543608 0.6045720561
H -4.4256808180 -3.5465473943 -1.5686852636
H -5.2217474955 -3.5483803013 0.0390155771
H -6.1400108412 -3.0549453075 -1.4201293493
H -2.0803214990 -0.4390496291 -0.5028398349
H -0.0019641733 -0.5326555765 0.8566498913
H -2.1079191436 1.2484799923 4.1566642778
H -4.1903278493 1.2868540796 2.7934460236
H 1.2947081519 2.2933108502 1.7303154133
H 3.2108079366 2.4107698060 0.1351048448
H 4.5861061934 -1.4086479091 1.4854017755
H 2.6537553792 -1.5528923929 3.0635500190
H 7.4455483448 -1.0821987047 -0.8817437918
H 6.8434276595 -1.7667628366 -2.4268940605
H 8.2573083552 -0.6621032679 -2.4191585035
H 4.7918654395 1.5894283267 -4.3142288280
H 3.1688042694 1.0150046709 -3.8109535547
H 3.5714096018 2.7617505761 -3.7331257345
