25
CONF1
C -3.4215189844 -1.0881451804 -0.5812923877
N -2.3216834964 -0.2589634604 -0.0944971743
C -1.0295421857 -0.7838847682 -0.1151234628
O -0.8418120808 -1.9949122989 -0.0079505340
N -0.0369722376 0.1642686913 -0.1921388523
C 1.3415358430 -0.0443535479 -0.1415204109
C 2.1680937935 1.0259761143 -0.5152980420
C 3.5455211235 0.9011234385 -0.4691380719
C 4.1316449150 -0.2925470850 -0.0555180950
C 3.3113958290 -1.3543504399 0.3196612653
C 1.9253009467 -1.2421527808 0.2844274569
Cl 3.9884983421 -2.8745378564 0.8591930023
Br 6.0329797326 -0.4210903095 -0.0209455135
O -2.4254884510 1.0732078977 -0.5716170379
C -2.9385844901 1.9200838003 0.4787906014
H -3.3937645493 -1.1922204032 -1.6735308426
H -4.3613417745 -0.6221574635 -0.2777627462
H -3.3485910766 -2.0713603659 -0.1161371100
H -0.3443906334 1.1026453811 -0.4121785281
H 1.7268722897 1.9617930992 -0.8438528923
H 4.1729991228 1.7349934694 -0.7620136871
H 1.3109958959 -2.0771715349 0.5862288216
H -2.2516214709 1.9360179705 1.3317103757
H -3.9312271426 1.5835047522 0.7963938492
H -3.0092990542 2.9142335948 0.0322471110
