56
CONF5
C -2.3728415751 -0.6091436615 -1.3676390239
C -2.5053010667 0.1718920815 -0.0351635271
C -3.2916942149 1.4751604531 -0.2876535846
C -4.7424653732 1.2121213474 -0.6845543374
C -5.4490768171 0.2793662892 0.2698321564
O -6.6803507074 0.2827399783 0.3744379146
C -4.6261840842 -0.6431327586 1.0327512551
C -3.2798511584 -0.7134616914 0.9304778186
C -2.5102813316 -1.7002738371 1.7662741380
C -1.1151088483 -2.0052358826 1.2266971616
C -0.2981067510 -0.7161367880 1.0804816784
C -1.1439545226 0.5007794663 0.6400098888
C -0.3052895123 1.6252767542 -0.0242027332
C 1.1130905236 1.6380394883 0.5550198397
C 1.9445325095 0.3379942393 0.4065578776
C 1.0268432935 -0.9259236210 0.3382942418
C 1.0390245304 -1.3858728846 -1.1243465784
C 2.4987792616 -1.1325212429 -1.5062436327
C 2.7691930858 0.2738796102 -0.9674624289
C 4.2352833454 0.6417744260 -0.7632203460
O 4.5751361082 1.8161713055 -0.8161796403
C 5.2866658444 -0.4222276723 -0.5786732496
O 6.5351233914 0.1231841540 -0.2134811753
O 2.2646190034 1.1999245221 -1.9471017269
C 2.8608795170 0.2394773405 1.6360842008
O -0.3432799514 1.5656183340 -1.4434820204
F -1.5403313518 1.1140263838 1.8974585883
H -1.7310627351 -1.4831484878 -1.2763618673
H -1.9633228807 0.0400558330 -2.1407889177
H -3.3592933040 -0.9629146427 -1.6773651830
H -3.2857942862 2.0766750148 0.6268572775
H -2.7915495483 2.0520619918 -1.0705964391
H -4.8010467257 0.7507595819 -1.6800066175
H -5.3123706525 2.1446049933 -0.7423114947
H -5.1550691937 -1.3187451134 1.7028165778
H -3.0992450300 -2.6150590409 1.8879267092
H -2.4112755863 -1.2639754514 2.7713595299
H -0.5942053104 -2.6737466056 1.9199436195
H -1.1886002313 -2.5436849740 0.2780397288
H 0.0039696050 -0.4383190945 2.0994129029
H -0.7878482263 2.5639032559 0.2833679426
H 1.6577754189 2.4998299115 0.1539027582
H 1.0017534900 1.8330416044 1.6277365589
H 1.5421540128 -1.7174451154 0.9011266667
H 0.7579671416 -2.4370219458 -1.2359161399
H 0.3739175466 -0.7864162578 -1.7502116414
H 3.1332752747 -1.8577422425 -0.9850304028
H 2.7103138201 -1.1923501116 -2.5769007305
H 5.3395054267 -0.9499503505 -1.5501304831
H 4.9810800229 -1.1675951011 0.1629054434
H 6.5040102334 1.0641395338 -0.4524257454
H 2.7183753324 2.0467739343 -1.7989188647
H 3.4859918759 1.1322398942 1.7487694192
H 2.2431955030 0.1515195289 2.5358144555
H 3.5041970794 -0.6434007584 1.5978132508
H 0.5781492658 1.4524136692 -1.7558010475
