39
CONF4
N 1.6231354180 -2.2802896701 -0.7853093658
C 2.1669717299 -1.9501631639 0.4174068270
N 3.5028037826 -2.0102951038 0.5214688961
C 4.0339726411 -1.7247160017 1.7230496297
N 5.4012514838 -1.7382212763 1.8066174506
N 3.3587258309 -1.3808045794 2.8353699029
C 2.0233880895 -1.3336794128 2.6922267135
C 1.3451462467 -1.6073134614 1.5216477263
C -0.1526712754 -1.5505749539 1.4201114240
C -0.6687374992 -0.4866564492 0.4658534361
C -1.6842706370 -0.7998093072 -0.4370946165
C -2.1734493024 0.1851038666 -1.3035360105
O -3.1593602944 -0.0155776570 -2.2194855840
C -3.7336251506 -1.3282752450 -2.2926670994
C -0.1266629394 0.7982661330 0.5045263107
C -0.6139675653 1.7824943126 -0.3583476905
O -0.1593275244 3.0644557218 -0.4002679082
C 0.8899321191 3.4194606602 0.5116534492
C -1.6357113696 1.4788013496 -1.2719416180
O -2.0798339424 2.4338724559 -2.1561460634
C -3.1701768012 3.2198896858 -1.6302774352
H 2.2513479861 -2.3338634868 -1.5730449985
H 0.6819244951 -1.9792954854 -0.9891140689
H 5.7941460789 -1.7912552229 2.7333088570
H 5.8952959208 -2.2421284728 1.0869568510
H 1.4546959077 -1.0601503674 3.5819837541
H -0.5570716868 -1.3585244233 2.4218878519
H -0.5497419176 -2.5247829703 1.1066390269
H -2.0889423211 -1.8049509153 -0.4539707482
H -4.2038013580 -1.6055363358 -1.3422253491
H -4.4911439983 -1.2731790382 -3.0747968620
H -2.9768191165 -2.0733003999 -2.5636554510
H 0.6705340868 1.0158154529 1.2050236107
H 1.7894917703 2.8209038000 0.3273678864
H 0.5669859762 3.2921665874 1.5513068593
H 1.1023901415 4.4712752148 0.3188526730
H -4.0313543599 2.5796515670 -1.4060878254
H -3.4374345699 3.9391931248 -2.4068430205
H -2.8580376787 3.7519935470 -0.7241866250
