42
CONF19
C -2.4033635878 -1.8017705732 -1.9813692865
C -2.1603374863 -0.5867613482 -1.1536105571
C -3.0867513336 0.2678368460 -0.6352727295
C -2.3994396766 1.3108723482 0.1215686086
C -1.0048394292 1.0646563621 0.0797245665
C -0.8161607901 -0.1670148497 -0.7125204066
C 0.3047659160 -0.8480125130 -1.0539287502
C 1.6699347530 -0.6701824246 -0.5699658671
C 1.9521876177 -0.4382611774 0.7865764395
C 3.2610110759 -0.3075703066 1.2272086165
C 4.3008321326 -0.4271859387 0.3081781889
C 4.0555585404 -0.6711486866 -1.0366236663
C 2.7417043616 -0.8127370928 -1.4659117986
S 6.0209355297 -0.2067852647 0.8640222211
O 6.8905229300 -0.1726291963 -0.3928402921
C 6.2266844872 -1.8872017474 1.5800584461
C -0.1275012226 1.9914593574 0.6285436663
C -0.6324126322 3.1269014203 1.2706331542
C -2.0047664794 3.3047452500 1.3313569354
C -2.9196892169 2.4288475804 0.7622955884
F -2.4845313690 4.4065026379 1.9675161834
C -4.5680997621 0.2197204549 -0.7687535640
C -5.2644311054 -0.2253698067 0.5006023932
O -4.7257766021 -0.6989625872 1.4767507758
O -6.5992791575 -0.0454964067 0.4065679819
H -1.8619928323 -1.7480679213 -2.9331323290
H -2.0559684882 -2.7040003575 -1.4647029994
H -3.4638163154 -1.9315702277 -2.2040458940
H 0.1873824801 -1.6450883539 -1.7868204305
H 1.1363293762 -0.3786729279 1.4991014003
H 3.4668929738 -0.1257207692 2.2785431416
H 4.8858470104 -0.7526187794 -1.7308322623
H 2.5366956986 -1.0194613714 -2.5123552497
H 5.5190925837 -2.0069490328 2.4048949718
H 6.0429413564 -2.6198152433 0.7899325486
H 7.2542204316 -1.9476648848 1.9465756568
H 0.9461380085 1.8600887517 0.5695758421
H 0.0279660124 3.8628477078 1.7151506056
H -3.9832442264 2.6383807555 0.8128327467
H -4.8853375193 -0.4678364817 -1.5602850805
H -4.9730568528 1.2017440401 -1.0447947124
H -7.0068474768 -0.3700467495 1.2276068943
