53
CONF49
C -0.2207705341 4.6282538042 -1.5573090681
C 0.1587189067 4.3964158956 -0.1084070113
O -0.0225585514 3.0008012986 0.2509557045
C 0.9752478828 2.1436332895 -0.0742724687
O 2.0433867421 2.5200180938 -0.5469209295
C 0.5924849881 0.7636380807 0.2004438308
C 1.5171085784 -0.2318252034 0.0930618013
N 1.1622581812 -1.5323490770 0.3316508851
C -0.0560190386 -1.9067181623 0.8484065215
C -1.0394931136 -0.9711027570 1.0059514736
C -0.8730532525 0.4539186878 0.4866551028
C -1.6979248882 0.6677231394 -0.7842492404
C -1.4011521110 -0.1234560703 -1.9013127841
C -2.0796650748 0.0077009900 -3.1053975691
C -3.0933828209 0.9555814769 -3.2233921447
C -3.4166440307 1.7573119495 -2.1353858583
C -2.7218409010 1.6060276041 -0.9368501294
Cl -3.2078314635 2.6714464236 0.3855714014
C -2.3018295152 -1.3383156048 1.6379947250
O -2.6080289150 -2.4263136332 2.1122631205
O -3.1584032323 -0.2836354480 1.6632230505
C -4.4372169260 -0.5300203894 2.2810080899
C -0.1525552760 -3.3613568089 1.1946555340
C 2.9734716156 -0.0444741985 -0.3067799447
O 3.7239628889 -1.2379277774 -0.1548239672
C 4.2430221152 -1.4195196289 1.1750360101
C 4.5706106938 -2.8868288340 1.3488707601
N 3.3332079408 -3.6865869879 1.3229875696
H -1.2543934211 4.3181736294 -1.7374159661
H 0.4386047182 4.0715256830 -2.2286868395
H -0.1324611200 5.6938993757 -1.7910683995
H -0.5087463207 4.9353243591 0.5679372576
H 1.1923094047 4.6902880835 0.0928334789
H 1.9072861975 -2.2318421954 0.3003881842
H -1.2395734348 1.1494176545 1.2425794821
H -0.6093863183 -0.8622855385 -1.8108318553
H -1.8184921827 -0.6249326677 -3.9474910700
H -3.6350462532 1.0752496226 -4.1560623449
H -4.2034958352 2.4996236393 -2.2115172396
H -4.9743909016 -1.3197911459 1.7489934465
H -4.3093138996 -0.8176349878 3.3281032603
H -4.9784974644 0.4133216763 2.2086385277
H 0.7124154472 -3.8991178245 0.8022974308
H -0.1871305663 -3.4974712634 2.2796009417
H -1.0694605896 -3.7943687092 0.7934891529
H 3.0138444517 0.2310491660 -1.3659300173
H 3.4154339808 0.7818565027 0.2597897475
H 5.1402054222 -0.7980072218 1.3069906328
H 3.4950132569 -1.1077747467 1.9208998285
H 5.2122508681 -3.2043336147 0.5188482755
H 5.1532014206 -3.0023230104 2.2762536735
H 2.8764893274 -3.6246045584 2.2284931675
H 3.5582228280 -4.6672804360 1.1944208894
