46
CONF4
C -2.4272601952 3.2104919909 0.2050803723
C -2.0935709715 1.7289590382 0.1512967127
C -2.0763989105 1.2241952566 -1.2961473554
O -1.3363665917 1.5692108057 -2.1867333594
N -3.0847316098 0.2819540984 -1.3598705576
C -3.7647523073 0.1470590540 -0.1379582952
O -4.6925659488 -0.5852304646 0.0855826517
O -3.2147252277 0.9918648987 0.7529165934
N -3.3826155965 -0.4589679573 -2.4829609906
C -3.0465241164 -1.8330663343 -2.4426910104
C -1.9966339064 -2.3079760378 -1.6535977158
C -1.6610504430 -3.6586549674 -1.6993315275
C -2.3539575538 -4.5390384815 -2.5260521032
C -3.3983823482 -4.0542624577 -3.3129722917
C -3.7503180208 -2.7105764835 -3.2736218018
C -0.8058932267 1.3281253453 0.8439544651
C 0.3387419686 2.1165971020 0.6999795901
C 1.5443678409 1.7373347478 1.2774427606
C 1.6100239869 0.5495535273 2.0034246715
C 0.4802950604 -0.2495943604 2.1548153298
C -0.7194503964 0.1396958841 1.5739886710
O 2.7479421039 0.1374851696 2.6611867716
C 3.9902331502 0.5032960961 2.1577297404
C 4.9128357999 1.0272091593 3.0550760880
C 6.1975001510 1.3270994783 2.6068482759
C 6.5477139762 1.1106745659 1.2761173654
C 5.6085139744 0.5829939901 0.3905771435
C 4.3242022910 0.2707673325 0.8258941745
H -3.4048988572 3.3845308638 -0.2516939033
H -2.4408639585 3.5440083088 1.2451839204
H -1.6805411222 3.7831593810 -0.3476072658
H -4.3223333896 -0.2655094481 -2.8128382024
H -1.4396555054 -1.6365922961 -1.0079910497
H -0.8456832717 -4.0197839953 -1.0801371831
H -2.0861827038 -5.5898480044 -2.5562659746
H -3.9524690407 -4.7281071555 -3.9591812102
H -4.5693739420 -2.3371505377 -3.8819433197
H 0.3056604328 3.0427010846 0.1375084777
H 2.4213743310 2.3652619747 1.1671971168
H 0.5481910469 -1.1685252032 2.7273289637
H -1.5908029214 -0.4928097806 1.6984556446
H 4.6214041849 1.1918898339 4.0871778048
H 6.9234045807 1.7358764698 3.3026875373
H 7.5481494594 1.3486846309 0.9300159601
H 5.8773798548 0.4034293538 -0.6456938105
H 3.5900656989 -0.1484151591 0.1454224018
