50
CONF120
C 1.4668849592 -0.2857458479 1.5693672934
C 2.3092838713 -0.7250492343 0.3924007289
C 1.6736366580 -1.2786492163 -0.7187154630
C 2.4123640174 -1.5880831219 -1.8778994023
C 3.7569029407 -1.3428530859 -1.9610602291
C 4.4466527973 -0.8011208649 -0.8555650134
C 3.7242678942 -0.5411705005 0.3544912441
C 4.5708260513 -0.1193299928 1.4469295221
N 5.8543769854 0.1521879642 1.2831597230
C 6.3824832535 -0.0364955391 0.0500833202
N 5.7699595419 -0.5419967856 -1.0061851117
N 7.7118076309 0.2699475132 -0.0688705940
N 4.1141710201 0.0338406814 2.7304254620
C 0.1840360980 -1.5062259004 -0.7499863185
N -0.5057144087 -0.2790093217 -1.1454047907
C -1.8361876768 -0.0561867506 -0.8152451015
C -2.6882477050 -1.1245761556 -0.5093971124
C -4.0317781827 -0.8694022739 -0.2182886759
C -4.5358360874 0.4348436406 -0.2137501997
C -3.6727893664 1.4921766611 -0.5386089113
C -2.3308464374 1.2572207211 -0.8284154885
O -4.2498410494 2.7269748407 -0.5339615437
C -3.4245265861 3.8375052462 -0.8610379348
O -5.8407890649 0.6812669368 0.1357520322
C -6.7322986191 0.6708944602 -0.9859537994
O -4.9415417783 -1.8408701495 0.0783083348
C -4.4813932688 -3.1855845423 0.1127444234
H 1.4411014912 -1.0406484643 2.3679040135
H 1.8330577589 0.6510252116 1.9936207866
H 0.4310698575 -0.1202470689 1.2710067218
H 1.8855897906 -2.0107404518 -2.7293064504
H 4.3247168217 -1.5469580895 -2.8616519139
H 8.1045837028 0.8664923355 0.6388194139
H 4.8545853567 0.1327408840 3.4084555826
H -0.0353175202 -2.3088615272 -1.4685657145
H -0.1774061769 -1.8567509507 0.2294176637
H 0.0819542808 0.5399856262 -1.1269047287
H -2.3144469242 -2.1380667726 -0.5315094971
H -1.6604875378 2.0715175588 -1.0753850755
H -3.0172390426 3.7496690009 -1.8772140441
H -2.5995589559 3.9483124990 -0.1447891463
H -4.0711366136 4.7144546856 -0.8044833570
H -6.4561143333 1.4491254687 -1.7090604913
H -6.7268323117 -0.3103576679 -1.4778074608
H -7.7303645041 0.8764798182 -0.5920512797
H -4.1039842757 -3.5075516189 -0.8671009092
H -3.6971845988 -3.3212012232 0.8693658752
H -5.3499700962 -3.7889078211 0.3811403502
H 3.3171575529 -0.4980110245 3.0292905171
H 8.0687993446 0.3527601085 -1.0054980762
