20
CONF9
C -1.1403024600 -0.0993904944 -0.4333520033
C -2.2604881069 -0.8675380095 0.2349553200
I -3.5293718602 0.3265560305 1.5699645181
C -0.0207436082 0.3359235537 0.4931012403
C 1.2923963577 0.6704456526 -0.2799807749
C 2.3771701345 1.4365174777 0.5463388141
C 3.8122585027 1.3833318858 -0.0728806397
F 3.7759604845 1.7087059482 -1.3732049912
F 4.5948918383 2.2623471412 0.5699354446
F 4.3470701304 0.1640869736 0.0590267176
F 2.4587189373 0.9195435961 1.7945956548
F 2.0213769326 2.7382846085 0.6331104793
F 1.8285768789 -0.4932324374 -0.7317032505
F 0.9737219646 1.4367980152 -1.3541832196
F -0.3610232220 1.4541812930 1.2096663754
F 0.2726439073 -0.6461462848 1.3985500331
H -1.5098267214 0.7784068836 -0.9688073887
H -0.7055565475 -0.7781875125 -1.1798474308
H -2.9572689969 -1.2343008656 -0.5154372785
H -1.9049778039 -1.6888233419 0.8535818302
