21
CONF69
F -0.4299707551 1.4089127400 0.4235841280
C -0.1836050235 0.4528877995 -0.5079588577
F -0.0575184776 1.0621462093 -1.7178958859
C 1.1688402861 -0.2268500288 -0.1531587478
F 1.3122291076 -1.3117531909 -0.9818739406
F 1.0364535824 -0.7140318027 1.1212355143
C 2.3505674272 0.7081183926 -0.2754978092
C 3.6932108948 0.0474961208 0.0051464472
O 3.8237888876 -0.1800546656 1.4123444746
C -1.4673684483 -0.4403949805 -0.6318255747
F -1.3655186009 -1.2121737567 -1.7376636916
F -2.5064504295 0.4172147860 -0.8024005763
C -1.8417544512 -1.3758624250 0.5587412406
F -1.8108199840 -0.7087756959 1.7194711062
F -1.0107322614 -2.4227927255 0.6234862897
F -3.0859582850 -1.8396723346 0.3643249580
H 2.3604927018 1.0936083367 -1.2989292681
H 2.1965647490 1.5537295512 0.4024711436
H 4.4751442265 0.7312075090 -0.3511368748
H 3.7817402435 -0.8918033758 -0.5574414262
H 4.6908852588 -0.5763260843 1.5619561349
