41
CONF33
C 3.8213644512 0.5535083630 1.2050588016
C 3.1478256842 1.0354890351 -0.0343326465
N 2.0575956254 0.3630672560 -0.4471215446
C 1.5236789112 0.7950912091 -1.5940412069
N 1.9710547974 1.8263443355 -2.3236090682
C 3.0430155265 2.4211632501 -1.8050012722
N 3.6801737861 2.0753015242 -0.6737330694
O 3.5793015232 3.4657013004 -2.4258456683
C 2.9549060081 3.9134718110 -3.6557725450
N 0.4182017659 0.1562515278 -2.1115283511
C -0.3232960040 -0.9306780084 -1.6356835092
O -1.2907353779 -1.3342048335 -2.2614929147
N 0.1199328801 -1.4748351402 -0.4555747200
S -0.7560208246 -2.6668424504 0.3833417036
O -0.0914351043 -2.7224086804 1.6923934656
O -0.8317575096 -3.8641940019 -0.4558757008
C -2.4257262010 -2.0360292155 0.6042890250
C -3.4194755337 -2.5747498875 -0.2066246732
C -4.7449938660 -2.2147682470 0.0094094717
C -5.0697864901 -1.3458967419 1.0462468674
C -4.0723643353 -0.8280109851 1.8651606693
C -2.7330411232 -1.1519323587 1.6457976712
C -1.7317573407 -0.5274013374 2.5658631544
O -1.7980112805 -0.6055304991 3.7734932830
O -0.8222899222 0.1883341133 1.8934227036
C 0.1843762044 0.8406732388 2.7124530848
H 4.6379300299 -0.1199512921 0.9171489168
H 3.1278185970 -0.0059873077 1.8337929978
H 4.2576358477 1.3889391458 1.7550987599
H 2.9809162575 3.1186442141 -4.4042736250
H 3.5544670764 4.7640593576 -3.9765552251
H 1.9231375997 4.2177587050 -3.4668773801
H 0.0682719777 0.5310430583 -2.9846467458
H 0.8795178659 -0.9876666276 0.0455343034
H -3.1552377035 -3.2746524892 -0.9894471944
H -5.5213589536 -2.6265703085 -0.6260900275
H -6.1044737023 -1.0732165334 1.2248580955
H -4.3219423620 -0.1566054278 2.6800057720
H 0.7815491120 0.0867109286 3.2310189401
H -0.2953680607 1.5027939054 3.4361485120
H 0.7963996807 1.4084263960 2.0135909737
