36
CONF1
C 5.6820803290 -0.4150519401 0.0524394160
C 4.9250059340 -1.5942235168 0.0500996534
C 3.5449662905 -1.5386021610 0.0400911182
C 2.8609283094 -0.3083253197 0.0321210761
C 3.6340318553 0.8858810144 0.0343242840
C 5.0401817434 0.8050801172 0.0445625943
C 2.9784702329 2.1590366941 0.0258931077
C 1.6261640952 2.2543303337 0.0155362809
C 0.8005809541 1.0853905890 0.0131086725
C -0.5920717842 1.2015145322 0.0027137644
C -1.4358966192 0.0926153831 0.0002991650
C -0.8262278714 -1.2024231035 0.0094474372
C -1.6518195495 -2.3713586882 0.0081791849
C -3.0041296709 -2.2760626909 -0.0016365265
C -3.6596820775 -1.0029111207 -0.0112748073
C -5.0658318435 -0.9221096420 -0.0215451926
C -5.7077179300 0.2980162184 -0.0311431904
C -4.9506290472 1.4771808342 -0.0308101420
C -3.5705896906 1.4215591212 -0.0207766236
C -2.8865672311 0.1912897993 -0.0106386976
C 0.5664253818 -1.3185474387 0.0197902280
C 1.4102540856 -0.2096498648 0.0216872922
H 6.7659693737 -0.4643683374 0.0603184637
H 5.4246775924 -2.5575320270 0.0561028748
H 2.9886216153 -2.4683486442 0.0383391073
H 5.6139471576 1.7275994715 0.0461086025
H 3.5958644230 3.0527682857 0.0278363826
H 1.1401723117 3.2258037293 0.0089767547
H -1.0052596062 2.2041768209 -0.0033387725
H -1.1658320782 -3.3428298403 0.0153610552
H -3.6215324935 -3.1697901228 -0.0023918900
H -5.6396067531 -1.8446243743 -0.0217962296
H -6.7916069917 0.3473324700 -0.0390186736
H -5.4502882672 2.4404833689 -0.0385512553
H -3.0142313064 2.3512991986 -0.0210071671
H 0.9796080933 -2.3212072625 0.0266091784
