71
CONF65
C 6.8139454385 1.2602046559 1.6967211233
C 6.6511171580 -0.2206288185 1.8816998346
C 5.4553513799 -0.8816033157 1.5557445708
C 5.2819005118 -2.2559466816 1.7966284622
C 6.3419014536 -2.9723958209 2.3520100399
C 7.5455143979 -2.3424736613 2.6544592480
C 7.6928050654 -0.9802257017 2.4231345015
C 3.9871801885 -2.9366133445 1.4518627506
N 4.3655019476 -0.1550073635 1.0101677979
C 4.3726248643 0.5087465739 -0.1733896971
O 5.3408485249 0.5866480598 -0.9284933772
C 3.0617219928 1.2293924994 -0.4863098746
N 1.9099940442 0.6505685123 0.1940082809
C 1.4003652431 -0.5205483571 -0.5308068449
C 0.2731378515 -1.1735870256 0.2508851595
N -0.8150921230 -0.2187140637 0.4644809037
C -0.3091131698 0.9589908672 1.1709067828
C 0.8204080239 1.6130233108 0.3917640509
C -1.9359426573 -0.8141718733 1.1954876752
C -2.7271899509 -1.8359382203 0.3786056665
C -3.2661656411 -1.3353335711 -0.9642391556
C -4.3792270600 -0.2738322341 -0.8526575238
C -3.8861675460 1.1267221105 -0.5121513569
C -4.4215349852 1.8185957630 0.5763252272
C -4.0139636818 3.1156615344 0.8849178217
C -3.0634255642 3.7085515050 0.0743675142
C -2.5122642088 3.0656274704 -1.0216439490
C -2.9335619726 1.7710035148 -1.3065139854
F -2.6520132037 4.9733436866 0.3638994502
C -5.2382557087 -0.1946023876 -2.1073944453
C -6.5992313297 0.1031203764 -1.9893653598
C -7.4167105033 0.2239031213 -3.1096024167
C -6.8439103602 0.0434572499 -4.3565948512
C -5.5024227782 -0.2507213648 -4.5238196249
C -4.7044868867 -0.3678418627 -3.3875982578
F -7.6322208288 0.1512560289 -5.4602441155
H 7.0385289007 1.5033083835 0.6531160421
H 5.8947499460 1.7945747239 1.9570388551
H 7.6274318715 1.6338259430 2.3229563959
H 6.2207436626 -4.0356267529 2.5387991198
H 8.3647745528 -2.9127475967 3.0814337176
H 8.6239057923 -0.4834658300 2.6813502385
H 3.7501898478 -2.8151006244 0.3893321351
H 3.1452780286 -2.5184044282 2.0166208405
H 4.0445939525 -4.0042290645 1.6740403509
H 3.4455654976 -0.2272085720 1.4381203369
H 3.1982168223 2.2658421436 -0.1492166694
H 2.9541882532 1.2582045186 -1.5836649725
H 1.0321173033 -0.2297812442 -1.5336480718
H 2.2157337140 -1.2402018529 -0.6693567726
H 0.6694213816 -1.5571762418 1.2145539895
H -0.0990340381 -2.0303491187 -0.3206360212
H -1.1300369764 1.6777703189 1.2819847390
H 0.0568600425 0.6975926342 2.1851338244
H 1.2025759225 2.4714678932 0.9555426306
H 0.4298813120 1.9828298932 -0.5759097463
H -2.6013716879 0.0033622433 1.4937253378
H -1.5871760305 -1.2963761126 2.1311563223
H -2.1106121855 -2.7240099111 0.1954490906
H -3.5649853060 -2.1775737987 1.0008181594
H -2.4372005182 -0.9544637155 -1.5706202717
H -3.6836174233 -2.1944206740 -1.5027900812
H -5.0443955647 -0.5821463404 -0.0360931492
H -5.1652338222 1.3353790864 1.2040808399
H -4.4220033049 3.6536043145 1.7338300198
H -1.7699625111 3.5686463293 -1.6321039930
H -2.5071609468 1.2603480266 -2.1640589663
H -7.0313999674 0.2429618157 -1.0021319206
H -8.4744815676 0.4473013220 -3.0210496620
H -5.0944940341 -0.3886573606 -5.5194406733
H -3.6530090354 -0.6037113326 -3.5141555524
