42
CONF115
C -4.2537343272 2.9979721399 2.9690278227
C -5.0186630202 1.8608104975 2.2965792466
C -4.1728723613 1.1376313278 1.2786525711
O -4.9085090005 0.0890949868 0.6720141696
C -4.2234171078 -0.1715869718 -0.5500711557
C -3.6437535096 1.2070816179 -0.9565054612
O -3.8177510284 2.0175203547 0.2077120714
C -2.1917767581 1.1678333848 -1.3946920184
O -1.4296747266 0.5536931652 -0.3601239575
C -0.0803800947 0.4368672513 -0.5388298498
C 0.6075826740 0.8590036623 -1.6760626083
C 1.9890726464 0.6777465818 -1.7516960551
C 2.6723874671 0.0918698921 -0.6995280032
C 1.9894167381 -0.3224521706 0.4436454847
C 0.6180358430 -0.1538404618 0.5201159062
O 4.0543849999 0.0058183818 -0.7765210403
C 4.6452260412 -1.2334290600 -0.6491825100
C 3.9775966091 -2.4267371680 -0.9191870958
C 4.6703118797 -3.6290635810 -0.8089406362
C 6.0113701545 -3.6485614004 -0.4393462462
C 6.6658394618 -2.4463222549 -0.1794214088
C 5.9888446654 -1.2377122038 -0.2794099227
H -4.8750267286 3.4903795063 3.7218441262
H -3.9470675750 3.7467356933 2.2343177600
H -3.3526627762 2.6260761571 3.4681328956
H -5.9122200513 2.2341048754 1.7849024053
H -5.3441258851 1.1215582093 3.0370505559
H -3.2462021837 0.7325046949 1.7274869520
H -3.4188683767 -0.9047291214 -0.3995900898
H -4.9459618493 -0.5580396353 -1.2727293700
H -4.2240304720 1.6617130964 -1.7709260018
H -1.8353535710 2.1917448671 -1.5742381145
H -2.1061687927 0.5927254203 -2.3317275344
H 0.0918587788 1.3230309933 -2.5072755036
H 2.5411093159 0.9982375154 -2.6285874248
H 2.5378643137 -0.7742172887 1.2635940745
H 0.0654776852 -0.4647329100 1.4000426413
H 2.9344035996 -2.4130740071 -1.2138618758
H 4.1516085953 -4.5585970835 -1.0215409436
H 6.5425175500 -4.5903734709 -0.3560609189
H 7.7120387890 -2.4477027326 0.1095397355
H 6.4812735948 -0.2925308469 -0.0786025876
