45
CONF19
C 3.0707742770 -1.8399754209 -2.1964192608
N 3.2351086754 -0.4872085812 -1.6697130596
C 3.3434175892 0.4635666354 -2.7720984544
C 2.1171987414 -0.1113370415 -0.8001975565
C 2.0407138079 -0.9534575468 0.4706811108
C 1.1562461126 -0.3075671515 1.5391802552
N -0.1731880979 0.0568943390 1.0361514752
C -0.7603167528 1.2196600567 1.6027958996
C -0.6599087924 1.4850273823 2.9709654195
C -1.2059293605 2.6482929860 3.5023217795
C -1.8656305301 3.5496877100 2.6734079145
C -1.9615206902 3.2857828448 1.3104883232
C -1.4022992449 2.1351999397 0.7579760910
C -1.4713007672 1.8295537278 -0.7052305936
C -2.4161257205 0.6599929123 -0.9886404139
C -2.0339305605 -0.6971741025 -0.4303467341
C -2.7841721441 -1.7787023153 -0.9030365125
C -2.5615876140 -3.0873414122 -0.5008835661
C -1.5579781066 -3.3370261929 0.4264642258
C -0.8052140167 -2.2849607764 0.9246568816
C -1.0107344321 -0.9576625161 0.5088327664
H 3.8990791772 -2.0688424771 -2.8745632603
H 2.1209553706 -1.9674861004 -2.7545296178
H 3.0924662221 -2.5744389578 -1.3867242591
H 2.4400728134 0.4828788649 -3.4153192156
H 3.5012445490 1.4731511787 -2.3780652189
H 4.2021122559 0.2059765768 -3.4009607429
H 2.2545852489 0.9417455755 -0.5179264523
H 1.1507655945 -0.1755146343 -1.3410764189
H 1.6791041905 -1.9593411046 0.2384929990
H 3.0486611346 -1.0596271404 0.8905221985
H 1.1204632195 -0.9531769746 2.4335427684
H 1.6230076493 0.6318478289 1.8539830029
H -0.1638013301 0.7725518670 3.6219425887
H -1.1257346968 2.8422319132 4.5672315064
H -2.2970012068 4.4567382582 3.0838096447
H -2.4590760193 3.9958739126 0.6550384886
H -1.8268735737 2.7095320263 -1.2510396014
H -0.4681108020 1.5898201112 -1.0779717704
H -2.5331535432 0.5499994040 -2.0740309385
H -3.4096751117 0.9252409855 -0.6014360651
H -3.5668389809 -1.5726116440 -1.6295484772
H -3.1620784549 -3.8953604519 -0.9046865789
H -1.3644297244 -4.3463518794 0.7758644744
H -0.0493666671 -2.4960820434 1.6709554629
