28
CONF1
C -3.0277921431 0.0177371009 -0.0818093478
N -1.7278276644 0.6601856950 0.0704468544
C -1.5451616270 1.8806960380 -0.7462428805
O -0.2201386183 2.3358726052 -0.6890042921
C 0.2137398668 2.3245586830 0.6708911323
N 0.3038951921 0.9462595453 1.1288280736
C -0.7376289596 0.1395195290 0.8042506873
N -0.7594764382 -1.0878410487 1.3796107314
N -1.0458654679 -2.1259170284 0.5660764925
O -1.0001302681 -2.0137149374 -0.6760305865
O -1.2846145109 -3.2076135954 1.1238936967
C 1.6060819981 0.3443851566 1.4770496239
C 2.1662134476 -0.5216777728 0.3950365885
C 2.3489245353 -1.8743455951 0.4183339039
N 2.8551818777 -2.4494337626 -0.7241483245
C 3.0515721514 -1.5412691019 -1.6232968338
S 2.6500494625 0.0953717093 -1.1674922666
Cl 3.6723507636 -1.8733697544 -3.2006354657
H -3.7929537883 0.7996875708 -0.1134988168
H -3.0677403525 -0.5695220506 -1.0049432631
H -3.2233619057 -0.6311199818 0.7734194869
H -1.7605387903 1.6360379505 -1.7922839649
H -2.2549631192 2.6408481076 -0.3825569409
H -0.5026172908 2.8801167891 1.2932255799
H 1.1976575547 2.7916964910 0.7113135972
H 2.2795923939 1.1705996646 1.7193395626
H 1.4942320766 -0.2667596046 2.3765679974
H 2.1113202220 -2.5009884076 1.2712447819
