39
CONF90
C 5.3894879408 -0.0484909805 3.1126704380
C 4.7295865286 -1.0921708469 2.2102119612
C 3.6555324716 -0.5173204012 1.2823320612
C 2.4536367708 0.0404662646 2.0463931818
N 1.3937517451 0.5093990576 1.1521773622
C 0.4919512954 -0.3412607335 0.6389070745
O 0.4382926758 -1.5454688584 0.8902603036
N -0.4555211260 0.2536858054 -0.2461324806
C -0.8700002169 1.5935847076 -0.3367904587
C -0.6861113773 2.7021029473 0.4811918687
C -1.3045530044 3.8886409693 0.0845170547
C -2.0891009855 3.9563450399 -1.0725115701
C -2.2973553672 2.8330384995 -1.8675809291
C -1.6848204873 1.6422023744 -1.4872565595
N -1.7861273087 0.3902152585 -2.0803226353
C -1.0661702415 -0.4008334931 -1.3330266507
N -0.8561610314 -1.7462019171 -1.4975189298
C -1.2021994452 -2.4967536022 -2.6058596913
O -1.7143475916 -2.0932725977 -3.6266289912
O -0.8634494829 -3.7819036536 -2.3597954068
C -1.1520511393 -4.7004233553 -3.4406678790
H 4.6822640536 0.3767533659 3.8317221099
H 5.7985532072 0.7756397837 2.5172154114
H 6.2112926006 -0.4907822553 3.6840744430
H 4.2869929203 -1.8881240195 2.8234298618
H 5.4977974588 -1.5700593861 1.5912940281
H 4.0886847046 0.2792400677 0.6631243667
H 3.2995695157 -1.3003190090 0.6026230653
H 2.7428764917 0.8903685809 2.6708963615
H 2.0285480090 -0.7289443504 2.6983238581
H -0.1132597649 2.6683405238 1.4003195850
H -1.1764782726 4.7747447999 0.6972886155
H -2.5532685517 4.8984249010 -1.3457809415
H -2.9243584992 2.8702153569 -2.7522981972
H -0.6000505459 -4.4129884845 -4.3385918165
H -2.2242423075 -4.7128058245 -3.6498512815
H -0.8203022095 -5.6737844278 -3.0819268608
H 1.5047755081 1.4186547067 0.7273396198
H -0.4009190871 -2.2143800673 -0.7174551336
