48
CONF3
C -4.2509051342 0.9504334997 -1.1816158562
C -4.3216822796 -0.3799185283 -0.4191507260
C -4.4178139713 -1.5469933166 -1.4137272905
C -5.5860396439 -0.3789216422 0.4577644555
C -3.1146515902 -0.4991972411 0.5390250255
C -1.7251491628 -0.1992063759 -0.0541706182
N -1.3129403558 -1.1166061896 -1.1119735114
C -1.0563557348 -2.4410940787 -1.0398876573
N -0.7501068915 -2.9096725228 -2.2424505077
C -0.8407679032 -1.8015588387 -3.0321238650
N -1.1728940831 -0.6885472681 -2.3935358735
O -0.8357634595 -0.3130974686 1.0495242405
C 0.4688174508 0.1110983508 0.9147149089
C 0.9782269099 0.7748288667 -0.1995281556
C 2.3130773586 1.1709951228 -0.2001587039
C 3.1582167097 0.9190359624 0.8855354740
C 2.6170366129 0.2463472272 1.9921554127
C 1.2918896335 -0.1571429655 2.0094533463
C 4.5722953366 1.3455790260 0.8687851106
C 5.1973647696 1.8086832363 2.0358746082
C 6.5287655946 2.2110565922 2.0198833321
C 7.2641540238 2.1620964098 0.8373568569
C 6.6549211803 1.7048959669 -0.3294762497
C 5.3244045339 1.2996775349 -0.3141778390
O -3.1263219499 -1.7935195554 1.1353658928
H -5.1883919940 1.1062853886 -1.7246288249
H -3.4387255212 0.9583162846 -1.9149887433
H -4.1135637288 1.7955592502 -0.4966757642
H -3.6120938428 -1.5338365179 -2.1517492673
H -4.4063717846 -2.5101845734 -0.8970164473
H -5.3631133524 -1.4656821671 -1.9604522863
H -6.4732968931 -0.2725689875 -0.1743107902
H -5.6763224446 -1.3108095373 1.0225051229
H -5.5691732746 0.4566001355 1.1665460242
H -3.2417937855 0.2754803685 1.3125241882
H -1.7056404245 0.8067665090 -0.4843647014
H -1.0971432304 -2.9983400290 -0.1152258570
H -0.6518485426 -1.8101344075 -4.0981822122
H 0.3637732311 0.9969241541 -1.0630680413
H 2.6922389990 1.7085270567 -1.0635613499
H 3.2488908594 0.0127782488 2.8432575843
H 0.8810664452 -0.6878192346 2.8621474664
H 4.6286382486 1.8758996839 2.9583218130
H 6.9908601787 2.5737289970 2.9330670165
H 8.3027041955 2.4772240758 0.8253392890
H 7.2208976362 1.6538449855 -1.2546977228
H 4.8693026414 0.9215002516 -1.2245379029
H -2.5186695702 -1.7772144304 1.8862891837
