42
CONF3
C 0.6380876778 -4.4791418277 0.0567331827
C 1.4898194863 -3.6553781362 -0.9054597266
C 1.2277885531 -2.1508559297 -0.8643950517
C -0.2183976686 -1.8111154295 -1.2478974912
O -0.5353149259 -1.7447117504 -2.4373058220
N -1.0685469857 -1.6401293995 -0.2175477723
C -2.4199820221 -1.1006047200 -0.3802448992
C -2.4149525183 0.4022283257 -0.2193952560
C -2.3374274904 0.9685487850 1.0561081168
C -2.2635914326 2.3495011710 1.2133277709
C -2.2716345751 3.1797148379 0.0939768564
C -2.3509989166 2.6230175329 -1.1799687374
C -2.4203259942 1.2403728482 -1.3359869869
O 1.5565394904 -1.6899018139 0.4597822027
C 1.6504139791 -0.3401535143 0.6693265093
C 1.5164250859 0.6260057247 -0.3278660523
C 1.6491099012 1.9771735831 0.0007631802
C 1.9046079172 2.3349282104 1.3181410001
C 2.0202483268 1.3855159251 2.3187107334
C 1.8926523354 0.0448746309 1.9914111432
F 2.0545157035 3.6409463869 1.6369841993
C 1.5782964586 3.0328976112 -1.0641754043
F 0.7275842429 4.0371199343 -0.7485741200
F 1.1757334538 2.5322326777 -2.2524267407
F 2.7942278305 3.6087297135 -1.2704750368
H 0.9315323648 -5.5313379973 0.0052456662
H 0.7671462001 -4.1440460169 1.0900456366
H -0.4251076371 -4.4149097601 -0.1940462426
H 1.3187304412 -3.9771246728 -1.9385179520
H 2.5550542406 -3.8032597191 -0.6963141114
H 1.8765267453 -1.6622419127 -1.6012799840
H -0.6837150643 -1.6600904340 0.7165470256
H -2.7793278802 -1.3839336837 -1.3719066311
H -3.0637136571 -1.5669231760 0.3720145018
H -2.3333695033 0.3220711747 1.9305493199
H -2.2035454912 2.7783686156 2.2090537193
H -2.2121980695 4.2567028489 0.2146422023
H -2.3545537591 3.2659766303 -2.0549154003
H -2.4786271852 0.8069629314 -2.3305351707
H 1.3137610182 0.3615374241 -1.3569629567
H 2.2132244093 1.7002748161 3.3382218073
H 1.9833047079 -0.7198430490 2.7553050689
