35
CONF457
C -1.2596295248 2.3020292639 -0.0363699595
C -2.3735989708 1.3012279378 0.1906503638
C -3.7409498861 1.9341458413 0.2750012566
Br -3.8873872212 2.9775707536 1.9670607391
Br -2.4497739864 0.0366297163 -1.3590386350
O 0.0321036032 1.6684774175 -0.1850991524
P 0.8647724701 1.1867927397 1.0912196343
O 1.0143406852 2.1327930741 2.2172164988
O 2.2706364361 0.7975105599 0.4491825510
C 2.3565384251 -0.1762162184 -0.6207697921
C 3.7878704689 -0.6348863664 -0.7392469849
C 4.8301004546 0.4535737874 -0.8196921583
Br 4.5620033779 1.5167147173 -2.4824037575
Br 4.2831555771 -1.7097127314 0.8802743839
O 0.1176243775 -0.1934530816 1.4339547688
C 0.4818804285 -0.9463156274 2.6137310566
C -0.6076775481 -1.9535942214 2.8819110270
C -1.0689112250 -2.7606679637 1.6929434194
Br 0.4434156782 -3.8464646636 0.9856098203
Br -2.2555779979 -0.9986275692 3.5184601271
H -1.2325423019 2.9977911929 0.8105209638
H -1.4220287829 2.8634150311 -0.9592415163
H -2.1790775090 0.6563898537 1.0484367707
H -3.9326832911 2.6404800085 -0.5327782152
H -4.5281869318 1.1867576740 0.3383001549
H 2.0608594294 0.3032325751 -1.5610681908
H 1.6964423255 -1.0261570965 -0.4231869498
H 3.8691251808 -1.3398657021 -1.5680808110
H 4.7567986003 1.1642783952 0.0012538426
H 5.8349178422 0.0459457664 -0.9010348248
H 1.4183570414 -1.4845489723 2.4187227904
H 0.6170068609 -0.2801315736 3.4700623195
H -0.3179866737 -2.5864721592 3.7220270735
H -1.3923539214 -2.1336708817 0.8636791665
H -1.8364505384 -3.4810349062 1.9663824363
