119
CONF22
C -7.1337668063 5.9717418488 1.6912919560
C -7.4789270097 5.5384757901 0.2650463545
C -8.9953862489 5.4817577917 0.0777516498
C -6.7861679049 4.2038850774 -0.0904282604
C -7.1772985492 3.7631747771 -1.5143919786
O -6.6870680799 4.3550185611 -2.4727066079
N -8.0527645043 2.7381300318 -1.6826060496
C -8.5543002216 2.4708522997 -3.0498807950
C -9.7796510426 1.6107949511 -2.8119146383
C -9.8244134624 0.1872330324 -3.2930973027
C -10.7085553631 1.2382979356 -3.9223156365
C -10.2487368853 1.9568883595 -1.4138037503
C -8.9099588633 2.0837118687 -0.6705290619
C -8.4002996987 0.7235103951 -0.2704034511
N -9.1750586294 -0.2867270993 0.0929742602
C -8.3182113958 -1.3073756454 0.3962672273
C -6.9999812287 -0.9203579982 0.2174554149
N -7.0834513100 0.3942598170 -0.2065494644
C -5.7530212465 -1.6406358773 0.3942258360
C -4.5083736940 -0.9781442052 0.3969217262
C -3.3649613057 -1.7233711850 0.5703334008
C -3.3848546605 -3.1123990217 0.7563747468
C -4.6083903639 -3.7737666366 0.7586283106
C -5.7718109194 -3.0372355886 0.5701330239
C -2.0096898473 -3.5908080056 0.9238255500
C -1.1333604095 -2.4977473629 0.8398051764
C -1.9355975464 -1.2395889048 0.6099946969
F -1.5706418772 -0.6015501523 -0.5620543762
F -1.7308217562 -0.3008170715 1.6020408035
C 0.2294610108 -2.6356917058 0.9727882854
C 0.7675387959 -3.9172994598 1.1951683843
C -0.1111774515 -5.0089738558 1.2739245519
C -1.4897094283 -4.8603518549 1.1432695279
C 2.2232948144 -4.1072891184 1.3373284682
C 3.1060039283 -3.3630153060 0.5480365382
C 4.4642732254 -3.5846123500 0.7257392401
C 4.9719451931 -4.5194275039 1.6600980279
C 4.0852925029 -5.2559264741 2.4451827960
C 2.7279750190 -5.0400357519 2.2734351836
N 6.3557672452 -4.5346630330 1.6222579809
C 6.6747449942 -3.6503513919 0.7035869830
N 5.5825982392 -3.0525797391 0.1218566337
C 8.0661506179 -3.2929632624 0.2742754157
C 9.1664752057 -4.0084078360 1.0733112153
C 10.5195315102 -3.7255628053 0.3809344452
C 10.7949547542 -2.2241712406 0.7137254279
C 9.5356684375 -1.8397219936 1.5125329680
C 9.2577213882 -3.1110368496 2.3204987785
N 8.3910344209 -1.8646645434 0.5683062776
C 7.9731659556 -0.8748440975 -0.2458108895
O 7.1715200142 -1.0735270422 -1.1704509197
C 8.4610343890 0.5383673474 0.0723676391
C 7.6637451474 1.1250061794 1.2722225705
C 8.2296542874 2.4927269790 1.6528566307
C 6.1649558129 1.2038542964 0.9841696182
N 8.3308646188 1.3433024891 -1.1251732643
C 9.3934944441 2.0519147016 -1.6018789553
O 10.4372633424 2.2545168284 -1.0095395290
O 9.1110308780 2.5336301056 -2.8440492947
C 10.1598318133 3.3353896218 -3.4162595613
N -5.3424598214 4.4174190881 -0.0439772903
C -4.5070282063 3.3703746736 -0.2717050384
O -4.8517552190 2.1941296274 -0.2685060046
O -3.2389395325 3.7768793079 -0.4612750676
C -2.2830188718 2.7062528100 -0.6446090687
H -6.0558003277 6.0523200523 1.8498844015
H -7.5855634895 6.9437262542 1.9118761888
H -7.5260352252 5.2481138456 2.4150471751
H -7.0880113394 6.2800995062 -0.4471647499
H -9.4247791654 6.4730878297 0.2489554510
H -9.2746063718 5.1683871841 -0.9327660949
H -9.4607959664 4.7999128843 0.7985551987
H -7.0348453025 3.4405918615 0.6561449740
H -8.7992466538 3.4292767382 -3.5255084640
H -7.7896749199 1.9800294378 -3.6615196166
H -8.9815211847 -0.1769405491 -3.8722271398
H -10.2826937568 -0.5462115434 -2.6387117019
H -11.7712010304 1.2073053507 -3.7029160421
H -10.4614747455 1.5763073430 -4.9241826870
H -10.7596009772 2.9279888584 -1.4031696012
H -10.8900469913 1.1965183275 -0.9665817474
H -9.0032953823 2.7201901938 0.2142314785
H -8.6866674872 -2.2652287304 0.7352734216
H -6.3082606845 1.0281755886 -0.3943625280
H -4.4392577603 0.0966202719 0.2739763169
H -4.6646531180 -4.8494203108 0.8926037911
H -6.7241616692 -3.5560669883 0.5496988938
H 0.8793307327 -1.7669794950 0.9377078369
H 0.3027636953 -6.0023521202 1.4140336082
H -2.1381381286 -5.7287602948 1.2025382919
H 2.7341480435 -2.6689144477 -0.1984522506
H 4.4562865658 -5.9668731356 3.1753854684
H 2.0232908331 -5.5781795781 2.8986815047
H 5.6593415524 -2.3259340807 -0.5803840285
H 8.1596391971 -3.4589296946 -0.8073740622
H 8.9382287709 -5.0584691318 1.2492578940
H 11.2979104541 -4.3702264099 0.7982180815
H 10.4766662365 -3.9147203092 -0.6955077188
H 11.6887074601 -2.1020526620 1.3335372016
H 10.9171119163 -1.6001265707 -0.1756817117
H 9.5892468215 -0.9054009228 2.0711308279
H 10.0948754601 -3.3740815523 2.9725171017
H 8.3293935726 -3.0717455218 2.8934557792
H 9.5232678679 0.5273124248 0.3402713715
H 7.8134911190 0.4368640800 2.1156058804
H 8.0978089499 3.2046843004 0.8319490058
H 7.7082057647 2.8875979031 2.5302040987
H 9.2992591595 2.4389731794 1.8769480793
H 5.7364709083 0.2208237510 0.7665562886
H 5.9700653926 1.8602097018 0.1296033428
H 5.6382816748 1.6168977604 1.8495321523
H 7.6198867840 1.0523967128 -1.7826661992
H 9.7897211409 3.6370551342 -4.3963435949
H 10.3569678829 4.2125176374 -2.7939515280
H 11.0798685439 2.7532498628 -3.5159766256
H -5.0169045947 5.3076242734 -0.3939499066
H -2.2194863751 2.0918999819 0.2566036453
H -2.5678312309 2.0790237345 -1.4921058166
H -1.3330625158 3.2040935955 -0.8355100315
