26
CONF1
C 1.1922926808 0.4678740045 -1.3553580740
C 1.4135585802 1.0285246584 0.0663868883
C 2.5914589798 0.1509584601 0.4823635958
C 2.4206981740 -1.0509543564 -0.0827837564
C 1.1252118474 -1.0026625160 -0.8890699240
C 0.0481351341 -0.9968481137 0.2448137888
C 0.2483321184 0.4112334289 0.9074770670
C -1.1905620846 1.0116471889 0.8806054753
C -1.6385922469 1.2395810042 -0.5511671496
C -1.8095293874 0.0379395603 -1.1175482132
C -1.4780215505 -1.0123339850 -0.0730753917
C -2.0429886697 -0.2686316864 1.1868060777
Cl -1.6672740438 -1.0568629850 2.7464352461
Cl -3.8200762582 0.0059257646 1.1405358959
Cl -2.1512294841 -2.6285492845 -0.3790203989
Cl -2.1497283981 -0.3085640745 -2.7530399922
Cl -1.7130703961 2.7700341280 -1.3010511020
Cl -1.4380285963 2.3831013642 1.9835286604
H 0.3209782107 0.8404007115 -1.8848546961
H 2.0751687071 0.6347681852 -1.9768788059
H 1.5415484369 2.1053834180 0.1813115451
H 3.3449507586 0.4403778374 1.2058917978
H 3.0054283616 -1.9485410773 0.0827789019
H 0.9908922980 -1.7765464753 -1.6456067354
H 0.2375248767 -1.8117127250 0.9452221165
H 0.5429216515 0.3344578649 1.9552974830
