55
CONF72
C -7.4975042736 -1.7748059297 1.7561141744
C -6.8526277571 -2.6873828253 0.7349916297
O -6.1783129662 -1.9181974699 -0.3031736414
C -4.9282384337 -1.4872580166 -0.0034193045
O -4.3289681273 -1.7500221444 1.0249176388
N -4.4625013736 -0.7258441896 -1.0420901992
C -3.2118571473 -0.1083143076 -1.1676766573
C -2.1847886272 -0.2486129980 -0.2309643014
C -0.9641899812 0.3751075234 -0.4628161328
C -0.7638926715 1.1814900266 -1.5825423186
C -1.7989701298 1.3360754405 -2.5048231062
C -3.0043901823 0.6835830378 -2.3081636287
S 0.8008674205 1.9977143483 -1.8142335372
C 1.1669393349 2.3296380455 -0.1055941861
C 1.8451901277 3.4918657591 0.2618602150
C 2.0993820495 3.7451573452 1.6052849065
C 1.6315519798 2.8705351879 2.5852557844
C 0.9394757683 1.7206916708 2.2208216156
C 0.7560597777 1.4170832728 0.8727828131
N 0.1180790354 0.2088110579 0.4582582513
C 0.6523605035 -1.0632832815 0.6351240409
O 0.1255250004 -2.0397824488 0.1132566722
C 1.9078587729 -1.2278861912 1.4656605778
C 3.0468580963 -1.7503878587 0.5846740478
N 3.4705803623 -0.7641501357 -0.4153984993
C 4.2881745174 -1.4114031937 -1.4507057112
C 4.7367782360 -0.3886775362 -2.4797202548
O 5.5057663106 0.6543118324 -1.8700337710
C 4.7194643881 1.3013521433 -0.8651147441
C 4.2552315761 0.3184854488 0.1963340892
H -8.2017571531 -1.0910765917 1.2736598283
H -6.7443232692 -1.1924121361 2.2932510871
H -8.0477357983 -2.3803217611 2.4832750350
H -7.5991735212 -3.2665248426 0.1875138552
H -6.1320548718 -3.3687106476 1.1945165792
H -5.1052858147 -0.5948710993 -1.8103126180
H -2.3173196413 -0.8533073691 0.6528981287
H -1.6619609199 1.9679527853 -3.3761616467
H -3.8029286667 0.8013190974 -3.0343265588
H 2.1649038731 4.1932603322 -0.5022513426
H 2.6366840465 4.6444568903 1.8876608013
H 1.7952502876 3.0880308736 3.6353006960
H 0.5609607883 1.0369278939 2.9738872859
H 2.2098888155 -0.3223860833 1.9872408353
H 1.6813571785 -1.9857422764 2.2233256729
H 3.8890025471 -2.0551347553 1.2342626544
H 2.6982725364 -2.6442590606 0.0562430254
H 5.1811506500 -1.9004701090 -1.0127194415
H 3.6894246443 -2.1841015661 -1.9478580869
H 5.3806490400 -0.8579463748 -3.2289627459
H 3.8570670623 0.0472133780 -2.9815320999
H 5.3522246723 2.0722400130 -0.4156538960
H 3.8471574033 1.7842318156 -1.3347157602
H 3.6406234838 0.8626941144 0.9227420262
H 5.1380216124 -0.0869570070 0.7298517150
