66
CONF13
C 4.3111435926 -1.7985882655 -2.2189225367
C 4.3173442604 -1.9403275738 -0.7099830496
O 3.3686434018 -1.0201887160 -0.1096142191
C 3.7976523774 0.2547766898 0.1081211705
O 4.9559875185 0.5977503669 -0.0939837120
C 2.7068869200 1.0913203081 0.5934447531
C 2.9242383234 2.4012398020 0.9095010483
N 1.8820751384 3.1494312107 1.4037613588
C 0.6652000486 2.6305865874 1.8104829925
C 0.3776912282 1.3364630707 1.5110003708
C 1.3056472371 0.5055089077 0.6351104766
C 0.7291994803 0.3928819248 -0.7778579800
C 0.6652488683 1.5465789100 -1.5656236289
C 0.1416551605 1.5218276679 -2.8517741180
C -0.3276071169 0.3198114893 -3.3805118943
C -0.2822798907 -0.8305522337 -2.6086764968
C 0.2278504355 -0.8138904715 -1.2999760040
C 0.2859450436 -2.0747489619 -0.5476147028
C -0.6933056697 -2.9816340330 -0.4008764378
C -2.1078257956 -2.8636821469 -0.8162252188
O -2.7903358491 -3.8433990008 -1.0774326007
O -2.5396985287 -1.5955831311 -0.8103419316
C -3.9010719676 -1.2164897626 -1.2651079236
C -4.1035154185 -1.6398460171 -2.7151049680
C -4.9443289619 -1.8093365906 -0.3263830659
C -3.8653608309 0.3025338018 -1.1481969074
C -0.8000196490 0.6200247261 2.0073231758
O -0.8303222065 -0.5936702842 2.1577867815
O -1.8676079887 1.4156681075 2.2585684142
C -3.0255881393 0.7724513743 2.8651986527
C -2.8478235959 0.6351023503 4.3632532435
C -0.1732500359 3.6003065716 2.5912078197
C 4.2193678349 3.1451381913 0.7935711831
H 3.3043986016 -1.9624244805 -2.6156542019
H 4.9823297989 -2.5426049411 -2.6593869123
H 4.6529482504 -0.8042864881 -2.5186178235
H 5.3103052716 -1.7618111358 -0.2892425684
H 3.9659606485 -2.9283802629 -0.4024454924
H 2.0857139710 4.1017026296 1.6658843444
H 1.3442159032 -0.4962176671 1.0659634280
H 1.0383109167 2.4824210808 -1.1594333408
H 0.1080569031 2.4319783778 -3.4426438370
H -0.7219964929 0.2799439711 -4.3911357412
H -0.6316628178 -1.7726937257 -3.0202070472
H 1.2534683529 -2.3218130010 -0.1146728036
H -0.4665797591 -3.9324599074 0.0731613943
H -4.1398920264 -2.7253092337 -2.8161813988
H -5.0503140211 -1.2231018829 -3.0722351885
H -3.2972148998 -1.2446367347 -3.3407412664
H -5.9231894481 -1.3881426070 -0.5763276458
H -4.7119564670 -1.5459755520 0.7103272699
H -4.9954378233 -2.8950039132 -0.4188813144
H -3.0764910260 0.7154360913 -1.7846573326
H -4.8269287332 0.7176287327 -1.4625363639
H -3.6753388030 0.6021855293 -0.1131145344
H -3.1852663281 -0.1972613069 2.3858064210
H -3.8563975092 1.4382171359 2.6202172444
H -2.6799733596 1.6130301494 4.8237655872
H -3.7532893348 0.1996595369 4.7975486872
H -2.0044046911 -0.0192827547 4.5983576369
H -0.9853146952 3.9917708492 1.9710026977
H 0.4343658856 4.4406550219 2.9369200324
H -0.6296516183 3.1189957077 3.4557465500
H 4.5996471367 3.1028969250 -0.2290821592
H 4.0909553373 4.1904135976 1.0861143308
H 4.9825718330 2.6912623940 1.4303349800
