21
CONF38
C -1.9090639107 -0.0753296897 -0.6717556994
C -1.2334213150 0.6275992253 0.5092750465
C 0.0776402504 1.3073360498 0.1365363583
C 1.0905491741 0.3102527247 -0.4873336390
C 0.9738988104 -1.1193774771 0.0690543838
C -0.4661697176 -1.4529738361 0.4840678381
O -1.3273635160 -1.4020335662 -0.6566425661
O -0.9606238155 -0.4854483450 1.3888129085
O 1.8500534827 -1.2180419442 1.1949202155
O 0.9099099726 0.2157648508 -1.9045162574
O 0.5848496231 1.8919109240 1.3379920033
H -2.9891636282 -0.1609052133 -0.5150543885
H -1.7024633458 0.4069737442 -1.6304229933
H -1.8912715169 1.3219935115 1.0364993905
H -0.1358271977 2.0874673052 -0.6119526372
H 2.1046276137 0.6696488172 -0.2556743529
H 1.2770707117 -1.8158732783 -0.7253628435
H -0.5318124498 -2.4413564815 0.9541710595
H 1.8306048994 -2.1317885350 1.5084543676
H 1.0529714702 1.0954523788 -2.2774428984
H 1.3950042993 2.3687288296 1.1163741908
