46
CONF42
C -5.4289279324 -1.2675045432 -2.6036852520
N -4.7476495516 -0.4292328333 -1.6219668820
C -4.5894432617 0.9714031936 -1.9998242152
C -4.1267292549 -1.0001495441 -0.5732815049
O -4.1807511663 -2.2028709864 -0.2913735764
C -3.3977386233 -0.0960285011 0.3904062402
C -2.0757521526 0.3244904309 0.2776708254
N -1.4037222475 1.0154180022 1.1853837578
C -2.0417855897 1.3423743082 2.3119587718
C -3.3670168723 0.9810705467 2.5465080544
C -4.0446496885 0.2538251822 1.5811466787
S -1.0901851787 0.0052821024 -1.2238462141
O -0.7218130796 1.2876518675 -1.8402537709
O -1.7569199164 -1.0217009850 -2.0288508331
N 0.3743618112 -0.5914720013 -0.6174477258
C 0.3833691127 -1.6108028016 0.3187687429
O -0.5846136331 -2.3232477309 0.5498081858
N 1.5839681835 -1.8018200576 0.9835504630
C 2.7627349064 -1.0588264258 0.9848983671
N 3.7185631782 -1.5432488189 1.7681344352
C 4.8628116591 -0.8403119330 1.7927111865
C 5.0529030384 0.3232149938 1.0542494440
C 3.9661663582 0.7227359223 0.2752899600
N 2.8182925417 0.0434187685 0.2272453094
O 4.1025540103 1.8379029264 -0.4452300135
C 2.9751239949 2.2628570047 -1.2499324244
O 5.7849782624 -1.3818668145 2.5990581819
C 7.0596392116 -0.7133492971 2.7079915333
H -5.5926323390 -2.2606676063 -2.1871027626
H -4.8219164493 -1.3502079721 -3.5143392634
H -6.3899020725 -0.8123395800 -2.8619837256
H -4.1887511977 1.5550295065 -1.1706588926
H -3.9163410609 1.0624108268 -2.8621805854
H -5.5665854823 1.3821169017 -2.2727205908
H -1.4751545731 1.9073736008 3.0474286369
H -3.8536437771 1.2631449315 3.4733374697
H -5.0747450247 -0.0516616330 1.7359137700
H 1.1762210958 0.0609875177 -0.5906993857
H 1.5775300629 -2.5952317004 1.6118366796
H 5.9636766257 0.9039119728 1.0592594364
H 2.7343653821 1.5046064170 -1.9999289472
H 3.3060734468 3.1816263841 -1.7320745421
H 2.1054407562 2.4563273221 -0.6162126071
H 6.9289479155 0.2979643139 3.1052104827
H 7.5583843897 -0.6788824572 1.7344879012
H 7.6412637058 -1.3157198059 3.4042818868
