41
CONF2
C -5.6340328026 1.2082335566 -0.1961311114
C -4.3237000777 0.4990417198 -0.0367210759
C -3.9102154239 -0.4712169931 -0.9565237363
C -2.6956088451 -1.1043117845 -0.7344561499
N -1.9473527018 -0.7909420129 0.3345222240
C -2.4064392966 0.1705637008 1.1339744127
N -3.5685143107 0.8333458781 1.0115426922
N -1.6327662800 0.5696002538 2.2132524754
C -0.3207496807 0.2399929147 2.5848137312
O 0.2453602154 0.8756209960 3.4535891775
N 0.2157624968 -0.8398874736 1.9108737737
S 1.8761322867 -1.2085729885 2.0027198924
O 2.0626378205 -2.2328499609 0.9702322694
O 2.2359098758 -1.4509267501 3.3940118289
C 2.7118142079 0.2937271126 1.4625899538
C 3.2774871486 1.1061900104 2.4364764199
C 4.0127295139 2.2211581147 2.0482746414
C 4.1952349806 2.4990965373 0.6981954054
C 3.6336264765 1.6737356017 -0.2706044874
C 2.8683401502 0.5687738637 0.1005154196
C 2.1787556191 -0.2183000930 -0.9693553132
O 0.9766732180 -0.3260830897 -1.0690638934
O 3.0642030077 -0.7198856703 -1.8453619568
C 2.4799481256 -1.5038629141 -2.9098955598
C -2.1365838798 -2.1497418945 -1.6445419460
H -5.7692533117 1.9393836524 0.6010268266
H -5.6781446912 1.7170643834 -1.1646278637
H -6.4606528812 0.4904464053 -0.1700169173
H -4.5235137870 -0.7215598603 -1.8147426874
H -2.0120693935 1.3399194171 2.7451657497
H -0.2782563030 -1.1366668279 1.0525615976
H 3.1368320572 0.8543282089 3.4805789617
H 4.4498262246 2.8645974117 2.8040914831
H 4.7804280872 3.3605910946 0.3939224822
H 3.7769933936 1.8864483256 -1.3245818521
H 1.9338442318 -2.3506787880 -2.4864043595
H 3.3212056026 -1.8476894140 -3.5104378733
H 1.8004247515 -0.8896270010 -3.5065148987
H -2.7751130737 -2.3092428452 -2.5151066995
H -2.0252825807 -3.0947525082 -1.1028588063
H -1.1359200755 -1.8450608075 -1.9678257369
