38
CONF16
C -2.8675040369 0.5411656692 4.4715446173
C -2.2415844681 0.1348719238 3.1784813382
N -0.9249137129 -0.0606598972 3.1599302727
C -0.4342197160 -0.4553933464 1.9682882207
N -1.1461555684 -0.6418953531 0.8550718962
C -2.4548603472 -0.4110834890 1.0076172832
N -3.0649793826 -0.0269875944 2.1252167069
O -3.1635190207 -0.5942170532 -0.1063443970
C -4.5884065782 -0.3681953591 -0.0257193731
N 0.9227854520 -0.6607471666 1.9503991790
C 1.8100733281 -1.0732606767 0.9329155028
O 3.0044882378 -1.0746429985 1.1509160558
N 1.2180548434 -1.4659913018 -0.2431970461
S 2.1541835051 -1.7681528184 -1.6478340799
O 3.0667651377 -2.8692170378 -1.3663586064
O 1.1639107783 -1.8523483947 -2.7175419672
C 3.1705502497 -0.3002744875 -1.8351463367
C 4.5735708968 -0.4277746043 -1.7112823379
C 5.2175975810 0.7485976085 -1.9786641334
S 4.1248861078 2.0142783113 -2.3883653818
C 2.7527058361 0.9707649108 -2.1894113531
C 1.4378286116 1.5899857809 -2.4193382613
O 1.2934420780 2.6600119808 -2.9725654429
O 0.4344799936 0.8481281158 -1.9218810117
C -0.8921794158 1.3499794931 -2.1997263983
H -3.2793194790 -0.3497093029 4.9602533648
H -2.1256403100 0.9843971353 5.1358414702
H -3.6962926242 1.2288566054 4.2937961449
H -4.7966711214 0.6643387608 0.2639827374
H -4.9580542236 -0.5720617321 -1.0302087526
H -5.0423902766 -1.0477218921 0.6990650254
H 1.3953599619 -0.4511215481 2.8189839314
H 0.2332137934 -1.2316420150 -0.3947851753
H 5.0582815358 -1.3519314368 -1.4290202313
H 6.2821414308 0.9375180805 -1.9505149778
H -1.0363449678 2.3186143196 -1.7136874091
H -1.0296216086 1.4613674134 -3.2778110819
H -1.5716626223 0.6021523911 -1.7932305122
