65
CONF3
C 6.0438587048 0.5997837543 1.0901481035
O 5.3161202835 0.1131726882 -0.0355002482
C 4.6365847191 -1.0655476220 0.1171305997
C 4.5446853652 -1.7807510612 1.3108667791
C 3.8056754079 -2.9627012014 1.3432346620
C 3.1519972113 -3.4531508178 0.2161557422
C 3.2718131697 -2.7254608280 -0.9711044658
C 4.0028228778 -1.5504348084 -1.0296407780
C 2.2658753010 -4.6674627065 0.2964202212
C 0.9058496065 -4.3294091550 0.9406978500
N 0.2789074742 -3.1793397549 0.3078287023
C -0.3252710953 -3.4733827698 -0.9855853827
C -0.6389885132 -2.1735222268 -1.7213906752
C -1.5481067039 -1.2778512889 -0.8846328235
C -0.9872659557 -1.1124600394 0.5313257106
C -0.6642686691 -2.4635732786 1.1597424232
N -1.6759032256 0.0210411906 -1.5660195037
C -2.5966497146 0.9192920056 -1.0894958223
N -3.7299974593 0.6179833913 -0.4950553174
C -4.3255148841 1.8421751027 -0.2351821928
C -5.5372081796 2.1296871912 0.3873626195
C -5.8961157119 3.4664611521 0.5444383791
C -5.0717578961 4.5029618953 0.0924788785
C -3.8568457122 4.2366672622 -0.5409625215
C -3.5095616571 2.9033739994 -0.6948630750
N -2.4027277363 2.2847648480 -1.2676995696
C -1.1431451683 2.9131318550 -1.6296958675
C -0.0354090955 2.5652021349 -0.6539776065
C 1.2133412575 2.1372365602 -1.1052076202
C 2.2155394449 1.7703075672 -0.2093130623
C 1.9344819150 1.8426214685 1.1429901717
C 0.7076665063 2.2664775531 1.6305623473
C -0.2778903533 2.6252094934 0.7205064282
F 2.8912030405 1.4801603456 2.0284468580
H 5.3774247985 0.8151115027 1.9334218258
H 6.5199953763 1.5240982989 0.7596480746
H 6.8150486970 -0.1176852321 1.3996166601
H 5.0318987209 -1.4328288066 2.2131790391
H 3.7345087958 -3.5074079134 2.2816740217
H 2.7780733268 -3.0864826737 -1.8693340845
H 4.0999170551 -0.9929828390 -1.9557829056
H 2.1190846944 -5.0851539321 -0.7055816641
H 2.7372197034 -5.4558953075 0.8954011735
H 1.0856608660 -4.0710050083 1.9913636025
H 0.2591038467 -5.2304176157 0.9374939613
H -1.2525010691 -4.0755870741 -0.8723968654
H 0.3701722108 -4.0703446209 -1.5852085544
H 0.3104767421 -1.6506686974 -1.9070100807
H -1.1075462617 -2.3819027562 -2.6896353024
H -2.5513367677 -1.7169480633 -0.8306077811
H -0.0594525693 -0.5265567270 0.4760980465
H -1.7066015235 -0.5616346429 1.1469682475
H -0.2040017677 -2.3090742999 2.1422489352
H -1.6010208175 -3.0391908385 1.3208591076
H -0.7649684529 0.4350126816 -1.7223728977
H -6.8356379496 3.7117788910 1.0289236120
H -5.3807573256 5.5332723911 0.2330104244
H -3.2259636450 5.0467201580 -0.8937082497
H -0.8548660681 2.6241668065 -2.6491065226
H -1.3136136720 3.9946397321 -1.6496398209
H 3.1872368807 1.4185360236 -0.5384608232
H 0.5343577998 2.3009689759 2.7001570180
H -1.2545636539 2.9362893486 1.0807451018
H 1.4110347278 2.0791048840 -2.1729228076
H -6.1748041336 1.3259103778 0.7395121931
