41
CONF4
C -5.1428327882 -2.8627809023 0.2152967387
C -3.9302416062 -2.0984278278 -0.2071386875
C -4.0213010260 -0.8675833171 -0.8589230393
C -2.8427333689 -0.2263747597 -1.2216832620
N -1.6510433344 -0.7868935499 -0.9515399617
C -1.6642772990 -1.9607677106 -0.3180668521
N -2.7396841880 -2.6524979488 0.0707820858
N -0.4478642106 -2.5645494939 -0.0034160732
C 0.8594050359 -2.1532543108 -0.2198310149
O 1.8012197506 -2.8023738929 0.2160604850
N 0.9937043472 -0.9966971261 -0.9646532772
S 2.4780474472 -0.1972954302 -1.1212291476
O 2.1295265629 1.0705140352 -1.7785794942
O 3.4379183433 -1.1045800884 -1.7560665831
C 3.0611830412 0.1564697898 0.5428636325
C 4.1097016788 -0.6132071423 1.0326403719
C 4.6624369354 -0.3028086674 2.2714911878
C 4.1820792705 0.7834015718 2.9946174229
C 3.1434851911 1.5600692712 2.4890642271
C 2.5579524337 1.2486008483 1.2616135322
C 1.3650016290 2.0378198807 0.8234055919
O 0.2778055854 1.5480955142 0.5935344777
O 1.6364255477 3.3449544928 0.7866815323
C 0.5164905728 4.2052436581 0.4376081596
C -2.8196633719 1.0958962958 -1.9142639926
H -5.1202794116 -3.0275150941 1.2974749927
H -6.0596522370 -2.3340739957 -0.0492462512
H -5.1444827860 -3.8485455564 -0.2612619823
H -4.9849228730 -0.4232377262 -1.0773862299
H -0.5215376720 -3.4356605855 0.5059188520
H 0.1258820770 -0.4456766147 -1.1156084026
H 4.4934197551 -1.4375487631 0.4444484445
H 5.4759867814 -0.9052617209 2.6606257439
H 4.6186927026 1.0344662729 3.9554593278
H 2.7678771179 2.4066937860 3.0535808933
H 0.1473490837 3.9453034495 -0.5569835969
H 0.9192923078 5.2163968050 0.4500011303
H -0.2809460906 4.0940835257 1.1754359240
H -2.2690044572 1.0144246880 -2.8570553711
H -2.2911509209 1.8281542087 -1.2942215134
H -3.8292654402 1.4570236125 -2.1142915279
