45
CONF8
C 2.4220270652 -1.5069657878 -2.7265864926
C 2.3278943874 -0.7689865792 -1.3968619994
C 0.8886520457 -0.3294560305 -1.1369070449
O 0.3131868515 0.3970305164 -1.9471066761
N 0.3040995391 -0.7764347416 -0.0035333319
C -1.0371809853 -0.4224603716 0.3402621441
C -1.4336813785 1.0702286075 0.6171043655
N -2.4399087194 0.9515271904 -0.4430844814
C -2.1266573957 -0.3632317261 -0.7594543332
O -2.6052518144 -1.1384988562 -1.5542763733
C -3.7312784468 1.5574386566 -0.2262482886
C -4.0426110804 1.3787452566 1.3068529053
S -2.3636915026 1.5299129631 2.1382384593
C -4.9679933060 2.4467665953 1.8798685400
C -4.6264519369 -0.0154249103 1.5361548395
C -3.7029618353 3.0182844818 -0.6488433006
O -2.7240052496 3.7293053773 -0.5980042036
O -4.9113692723 3.4234471688 -1.0708714613
O 2.7538791065 -1.6022802999 -0.3084372612
C 4.0913298849 -1.7147933939 -0.0271247182
C 4.3989061800 -2.5425490855 1.0576723946
C 5.7219528305 -2.7213709937 1.4378337700
C 6.7512153047 -2.0824461001 0.7447318039
C 6.4353725749 -1.2636175089 -0.3339849480
C 5.1112467799 -1.0723791651 -0.7317241630
H 1.7883867165 -2.3985348237 -2.7040416547
H 2.0903012277 -0.8534858986 -3.5359964734
H 3.4533406157 -1.8102923138 -2.9204220468
H 2.9194083570 0.1559346828 -1.4155053449
H 0.8408889857 -1.3604102368 0.6213476467
H -1.3837858749 -1.0677275160 1.1522850816
H -0.6436338070 1.7999883642 0.4260883619
H -4.4908930002 1.0271834873 -0.8091866435
H -5.1206757731 2.2685872681 2.9479149154
H -5.9428863646 2.3898469059 1.3852199548
H -4.5631277574 3.4543705502 1.7535070973
H -3.9918678920 -0.8008344148 1.1164416708
H -4.7350571866 -0.2022810763 2.6075389852
H -5.6149819481 -0.0790293330 1.0669734646
H -4.8640417485 4.3721736816 -1.2850773911
H 3.5900043300 -3.0322644179 1.5904760434
H 5.9496873216 -3.3643996345 2.2825349299
H 7.7847846986 -2.2238760175 1.0424428571
H 7.2244555733 -0.7622105408 -0.8861485437
H 4.9029741111 -0.4346557845 -1.5820638596
