34
CONF35
C -1.7871545324 -1.8713399572 1.1939143388
C -2.8298009405 -0.8815443661 0.7313238424
O -2.2267226192 0.4189989692 0.3954668713
P -1.4653486205 0.6863079794 -0.9753976093
S -2.0859805407 -0.2223696566 -2.5694240377
O -1.3206088348 2.2688206343 -1.0085928917
C -2.2353370525 3.1207440880 -1.7868250142
C -3.5935852272 3.2162938442 -1.1338209974
O 0.0650874053 0.2738709573 -0.4616273239
N 1.0387716040 0.4910018446 -1.4352849979
C 2.1904208586 0.0189222413 -1.0757343906
C 3.1780651214 0.2267070453 -2.0991830541
N 3.9989928478 0.3912199417 -2.8971776149
C 2.6136729146 -0.6874831351 0.1445125085
C 2.0734880872 -0.3950023869 1.4062926680
C 2.5184979984 -1.0908734758 2.5227568389
C 3.4882238142 -2.0839758942 2.3980865624
C 4.0333780125 -2.3710499392 1.1486734015
C 3.6102665130 -1.6688512839 0.0284689796
H -1.1001695590 -2.1375417748 0.3852617521
H -1.2114717102 -1.4683076718 2.0320256907
H -2.2936788707 -2.7828500783 1.5268339078
H -3.3795512393 -1.2394229410 -0.1444089021
H -3.5373588119 -0.6359120513 1.5250982334
H -2.2926950819 2.7180742438 -2.8025555392
H -1.7252035066 4.0851566782 -1.8098621699
H -4.1067747017 2.2497402321 -1.1371780312
H -4.2047604459 3.9277856817 -1.6980761703
H -3.5077878878 3.5726761876 -0.1036109869
H 1.3310898283 0.3831345933 1.5196710651
H 2.1048607822 -0.8534541857 3.4973851793
H 3.8243736954 -2.6276382943 3.2751215655
H 4.7933227657 -3.1384487228 1.0460490859
H 4.0414777279 -1.8933886485 -0.9422711531
