55
CONF56
C 4.5664299350 0.1512009083 -5.3757003184
O 3.3662919883 0.7142979623 -4.8575573267
C 2.8707698576 0.1856047055 -3.7021505272
C 1.6904884743 0.7669713090 -3.2271806541
C 1.1042753921 0.3024353488 -2.0647853889
C 1.6782141720 -0.7502156637 -1.3413390313
C 2.8487358860 -1.3231314268 -1.8302191105
C 3.4542178609 -0.8688536638 -2.9995717900
C 1.0884342988 -1.2687479159 -0.0570898726
S -0.6986329445 -1.6927098477 -0.3626132363
C -1.3580516471 -1.7537262933 1.2912930623
C -1.8537950561 -2.9647776262 1.7773158802
C -2.4809153187 -3.0331464469 3.0161348104
C -2.5840216037 -1.8873399537 3.7985466353
C -2.0763198921 -0.6803691901 3.3359752695
C -1.4820409512 -0.5912933644 2.0753232862
N -1.0267652817 0.6689056910 1.6159553713
C -1.9825227359 1.7827508143 1.5409363856
C -2.7277533183 1.7851731360 0.2081590657
N -3.5000133607 0.5658033577 -0.0057606397
C -3.8165456408 0.3850287348 -1.4180604188
C -4.7115329974 0.5307126833 0.8037554021
C 0.2134361078 0.8728650167 1.0661666428
O 0.5509775467 1.9401487917 0.5759326230
C 1.1839651396 -0.3139597771 1.1462014092
O 2.5318865378 0.1716863155 1.1619534518
C 2.8581171835 0.9108556812 2.2581698192
C 4.2193752291 1.5168728926 2.0958411704
O 2.1220984315 1.0540279604 3.2047958680
H 4.4357209209 -0.9106079066 -5.6228508160
H 5.3982084983 0.2626943975 -4.6676498110
H 4.7892870702 0.7093734532 -6.2859934136
H 1.2518508652 1.5853604295 -3.7874706382
H 0.1917826756 0.7655224269 -1.7083599976
H 3.3092076111 -2.1423127067 -1.2847660919
H 4.3643001871 -1.3433400365 -3.3444599149
H 1.6175074692 -2.1872767018 0.2192496863
H -1.7508701169 -3.8525081803 1.1624048714
H -2.8710631665 -3.9801117340 3.3736815098
H -3.0437928060 -1.9340777564 4.7802738161
H -2.1261240054 0.2062346547 3.9597199330
H -1.4227035256 2.7154646680 1.6443861769
H -2.6748008892 1.7026885755 2.3822871656
H -3.3592278947 2.6976182031 0.1576766383
H -1.9799293913 1.8678310684 -0.5884490637
H -4.3590147533 -0.5563280159 -1.5551388860
H -2.8900066850 0.3270203338 -1.9984142902
H -4.4405303043 1.2028771066 -1.8306804490
H -5.4080710175 1.3611875566 0.5704292697
H -5.2366718886 -0.4148068529 0.6343817494
H -4.4662115657 0.5775284425 1.8695453771
H 0.9946381124 -0.8729676695 2.0684250375
H 4.9175490078 0.8011794220 1.6567863031
H 4.1316562315 2.3611468734 1.4042571426
H 4.5785042846 1.8735410957 3.0603004651
