82
CONF147
C -3.0823754769 2.5046018207 -1.5200100149
C -2.3114854786 2.2143524817 -0.2619151353
C -1.3399207989 3.0327300372 0.1552124104
C -2.7106413314 1.0110392356 0.5577191896
C -4.0507187319 1.2157443324 1.2934508584
C -4.3249613219 -0.1676317410 1.8730331227
C -3.8952219102 -1.1596561831 0.7632881502
C -2.9616875567 -0.3294442990 -0.1867528110
C -1.7926556670 -1.1641113305 -0.7631436109
C -0.9709164921 -0.3718226978 -1.7839012238
C 0.3089732033 -1.1139023062 -2.1358600345
C 1.2876390921 -1.1946578939 -0.9435695151
C 2.3769282278 -0.0262127679 -1.0434762117
C 1.8366087739 1.3397159472 -1.5356736268
C 2.9318476578 2.4085495460 -1.6320445956
C 3.6431423970 2.6677728070 -0.3094296183
C 4.1354708698 1.3569912713 0.3647160161
C 3.0379113585 0.2336733608 0.3385536382
C 1.9560956893 0.5210491728 1.4160447603
C 0.5542407508 -0.0375603878 1.1501960017
C 0.5589520039 -1.3911826639 0.4413629971
C -0.9060084416 -1.9820221471 0.2564767737
C -1.6861901471 -2.0732548669 1.5915343320
C -3.1656973573 -2.3768657953 1.3566858041
C -0.7830804388 -3.4409296182 -0.2642012374
C 1.3783359950 -2.3729413307 1.3061310140
C 5.4382435851 0.9315781102 -0.3462758726
C 4.5589931252 1.6423172982 1.8191210638
O 2.7186685072 3.4310295018 0.4891291734
C 3.3741327054 -0.5877884896 -2.0840386544
C -5.1102596957 -1.6143490582 -0.0391223994
O -5.9306884574 -2.4482176505 0.7856589482
H -4.1637920319 2.4740746566 -1.3453138987
H -2.8667617939 1.7642117396 -2.2982968116
H -2.8265918071 3.4913056030 -1.9127792720
H -0.7779220376 2.8319541382 1.0631377992
H -1.0711728029 3.9282452422 -0.3970217527
H -1.9518791936 0.8673843539 1.3336411417
H -3.9900984568 2.0083672176 2.0452367812
H -4.8338102637 1.4950022093 0.5771357365
H -3.7020796993 -0.3164573674 2.7635058719
H -5.3641447683 -0.3294693530 2.1746292005
H -3.5655016547 -0.0579928254 -1.0678204922
H -2.3097054074 -1.9384247105 -1.3483507897
H -1.5762421755 -0.2171094313 -2.6864551751
H -0.7305515611 0.6227492654 -1.4020875793
H 0.7969444301 -0.6387563963 -2.9913459985
H 0.0455753859 -2.1190451191 -2.4831491088
H 1.8815608294 -2.1065328858 -1.0849700896
H 1.0638080915 1.7159519318 -0.8588783280
H 1.3704908104 1.2442052873 -2.5216290846
H 3.6728260090 2.1388766208 -2.3903164477
H 2.4881098831 3.3548102183 -1.9600756390
H 4.5344932155 3.2917582458 -0.4988781808
H 3.5668487523 -0.6899649669 0.6142639328
H 2.3197778019 0.1370599886 2.3754129763
H 1.8491316913 1.6004133050 1.5366651055
H -0.0128220287 0.6763605309 0.5520828111
H 0.0437539624 -0.1044990558 2.1168747324
H -1.2469907260 -2.8500502397 2.2255308893
H -1.6120964517 -1.1370278639 2.1528795098
H -3.2749824746 -3.2424904062 0.6938014180
H -3.6555410837 -2.6587271139 2.2942267599
H -1.7385605162 -3.8020375570 -0.6531770662
H -0.4858171910 -4.1211733239 0.5387588831
H -0.0505355373 -3.5448231812 -1.0672377127
H 2.3766933483 -1.9840447716 1.5075182683
H 1.5084602153 -3.3396605901 0.8148709058
H 0.8984199920 -2.5419213781 2.2756014629
H 5.3745396882 0.9590804855 -1.4326597726
H 5.7254357421 -0.0834288748 -0.0532093042
H 6.2522199162 1.6041363472 -0.0546924311
H 5.0004393906 0.7433196876 2.2645016721
H 3.7369525615 1.9539274747 2.4661345746
H 5.3272454141 2.4253502104 1.8374951107
H 3.1768973123 3.7077332530 1.2898251541
H 4.0123930946 -1.3533108745 -1.6303065864
H 4.0199569397 0.1626988898 -2.5353295680
H 2.8288830753 -1.0610651695 -2.9065004578
H -5.6746409343 -0.7303107482 -0.3817232786
H -4.7673686514 -2.1668945459 -0.9313197542
H -6.6959247415 -2.7223515837 0.2708949734
