44
CONF11
C -3.9618819253 1.0737748421 1.6341821846
N -3.3018835683 0.0804394417 0.7797004806
C -2.9519805407 0.6374544648 -0.5484771467
C -1.7199477913 1.5489236698 -0.2959577172
C -1.0478810693 0.9215947643 0.9514405779
C -1.9609155104 -0.2865989546 1.2930931455
C -1.5345588876 -1.5759532007 0.5821303171
C -1.5264747855 -1.4456726473 -0.9432224552
C -2.6452116427 -0.5500526518 -1.4687842338
O -0.2593594042 -0.8395084648 -1.3918790470
C 0.8185346641 -1.6334270956 -1.4421845169
O 0.8122666377 -2.8275379757 -1.2135964677
C 2.0586718436 -0.8231856354 -1.7840122688
C 3.2089983900 -1.7486527653 -2.1989474220
O 4.3712322798 -1.0108368699 -2.5767099286
C 2.3993463990 0.0543510566 -0.5949751986
C 2.4253072389 1.4436256636 -0.7198972254
C 2.7116649480 2.2481839117 0.3808496893
C 2.9713134036 1.6698245380 1.6206244327
C 2.9474320874 0.2823941907 1.7528398690
C 2.6642207863 -0.5201560216 0.6518767297
H -3.3808714803 1.9993013460 1.7851106716
H -4.9246991597 1.3477700969 1.1898585138
H -4.1548891384 0.6314875596 2.6173302081
H -3.8042980520 1.1925511952 -0.9550262682
H -1.0541125526 1.5806976122 -1.1613386736
H -2.0432981704 2.5738228750 -0.0925001684
H -0.0177343953 0.6108275716 0.7631349170
H -1.0298767955 1.6304514515 1.7844446339
H -2.0148715409 -0.4757484149 2.3707360047
H -2.2466371636 -2.3669660226 0.8444966111
H -0.5470109951 -1.8994336672 0.9281840241
H -1.5794274350 -2.4345631525 -1.4065443006
H -3.5512899289 -1.1610115374 -1.5487111961
H -2.3889369726 -0.2075235617 -2.4771149437
H 1.8032657387 -0.1723482195 -2.6292011048
H 2.8724404619 -2.4036385798 -3.0141773651
H 3.5053945133 -2.3813049376 -1.3580791176
H 4.1589017322 -0.5075504321 -3.3729790577
H 2.2141969719 1.8973187245 -1.6842411351
H 2.7293794392 3.3279850104 0.2688464068
H 3.1907948641 2.2957399244 2.4798722411
H 3.1459168216 -0.1761471668 2.7167206432
H 2.6387708907 -1.6007015230 0.7665615626
