65
CONF238
C -4.2329992059 2.6476068464 -0.7948745537
C -3.0118669252 3.4854041658 -0.4234175298
C -1.6826325401 2.8043270114 -0.7829609304
C -0.4823826901 3.6917282438 -0.4273423092
C -1.5695445799 1.4924353043 -0.0357892829
O -1.6171624444 1.3910374955 1.1769870401
O -1.3967205221 0.4471409834 -0.8664414261
C -1.2596577660 -0.8791297211 -0.2563451301
C -2.6309731049 -1.4425903608 0.0761062383
C -2.4934957571 -2.8192112251 0.7430972646
C -1.5248982243 -3.6773836299 -0.0156068067
C -0.6501947672 -3.2122630069 -0.9273075892
C -0.5413783385 -1.7426375375 -1.2799039379
C 0.9390553659 -1.3626387356 -1.5077122851
C 1.4323950830 -2.1646712639 -2.7348699744
C 1.1594897325 -3.6325214967 -2.5304050655
C 0.2319140799 -4.0948062091 -1.6746264729
C 2.9011605167 -1.9192903857 -3.0923255653
C 1.8237093982 -1.6022254035 -0.2620877487
C 2.8290475839 -0.4727062458 0.0009832648
C 2.1829646866 0.7397804707 0.6537150633
C 1.9415821535 0.5884166607 2.1414893221
C 1.4130215752 1.8908371550 2.7016973548
C 2.4623991859 2.9747145464 2.4891113059
C 3.1051809484 2.9920471228 1.1224471764
O 3.7213107787 3.9542505143 0.7051939680
O 3.0709913670 1.8821107937 0.3615831597
O 1.1395677759 1.7024921375 4.0958612723
C -2.1018162042 -2.7163468232 2.2283018049
H -5.1594741475 3.1810237453 -0.5629103626
H -4.2350485710 2.4130163614 -1.8648649746
H -4.2489156557 1.7002107265 -0.2435131942
H -3.0429485562 4.4476068281 -0.9478863729
H -3.0127553079 3.7048853285 0.6510742888
H -1.6702978272 2.5873498237 -1.8564237456
H -0.4622619552 3.8960331041 0.6478505689
H 0.4641167353 3.2192301226 -0.7094617409
H -0.5601117031 4.6442340669 -0.9596704762
H -0.6664893461 -0.7624232929 0.6554261058
H -3.1713521192 -0.7549426940 0.7336734581
H -3.1995164930 -1.5392502182 -0.8571624575
H -3.4766819474 -3.3088328577 0.7041511593
H -1.5432940353 -4.7468409151 0.1944477166
H -1.0606175909 -1.5959530917 -2.2403944257
H 0.9708462240 -0.2965591452 -1.7685905200
H 0.8347313055 -1.8239734343 -3.5960243270
H 1.7693180723 -4.3369354772 -3.0937389337
H 0.1034534653 -5.1662364803 -1.5323975417
H 3.5733788974 -2.2594224417 -2.2978427067
H 3.1616103467 -2.4664375266 -4.0042726449
H 3.0863415891 -0.8550163341 -3.2694351680
H 1.2019075538 -1.7520195459 0.6285510048
H 2.3712627355 -2.5417846205 -0.3845322897
H 3.6452062900 -0.8246030003 0.6432260432
H 3.2749169814 -0.1539820725 -0.9464500312
H 1.2367178166 0.9772630793 0.1489139569
H 2.8748958187 0.3105782706 2.6486813448
H 1.2124404182 -0.2128379491 2.3013681658
H 0.4868890072 2.1570597863 2.1741642461
H 3.2874224842 2.8017825717 3.1952139796
H 2.0723737484 3.9773594067 2.6868038859
H 0.7341092888 2.5125711524 4.4310381343
H -2.0115391775 -3.7122555063 2.6735447952
H -2.8600749902 -2.1568916458 2.7861123787
H -1.1386274480 -2.2089145160 2.3467728731
