36
CONF32
C -0.7970601211 -2.0137355475 -0.6566113336
C -0.7134041328 -0.8482020727 0.3068679685
C -1.2999388838 -1.1527134659 1.7110530884
C -1.5338542874 0.2521583287 2.3389676974
C -1.0401773155 1.2012711723 1.2287767163
C -1.4759924213 0.4685545528 -0.0686191277
C -2.9935309227 0.2893898005 -0.1947603989
C -1.0014017379 1.1529223445 -1.3549985968
C 0.4957656315 1.0752498339 1.1887668248
C 0.7230823376 -0.3519999737 0.6046603875
O 1.5286972532 -0.3625756258 -0.5796047798
C 2.9032215347 -0.1169447218 -0.2988853467
C 3.6691352891 -0.0654766135 -1.5957967978
O 3.2814043807 1.1157618783 -2.3136968514
H -0.4138542514 -1.7477689811 -1.6455677535
H -0.2098350676 -2.8627367912 -0.2870100237
H -1.8351754711 -2.3462045486 -0.7648724055
H -2.2344933342 -1.7130359002 1.6155083442
H -0.6128230060 -1.7700486156 2.2989078690
H -2.5897951132 0.4172923813 2.5716400908
H -0.9683961320 0.3961556068 3.2647620592
H -1.3972874211 2.2316037394 1.3251808956
H -3.2331745211 -0.2711202783 -1.1052406979
H -3.4474763209 -0.2345225048 0.6477991032
H -3.4742876426 1.2709652548 -0.2777026917
H 0.0709775189 1.3422003659 -1.3744232562
H -1.2437209672 0.5316632270 -2.2248572886
H -1.5272750364 2.1073179404 -1.4768476399
H 0.9408645436 1.2018726783 2.1804451447
H 0.9450989294 1.8199946193 0.5250587477
H 1.2026938699 -1.0203093727 1.3376039216
H 3.3140858447 -0.9232716259 0.3315821628
H 3.0304064254 0.8344562309 0.2414712550
H 3.4544052360 -0.9682602474 -2.1857125195
H 4.7440223240 -0.0471943282 -1.3641914770
H 3.7390938033 1.1072914661 -3.1627300144
