45
CONF348
C 6.9175530790 1.0130998392 2.8731140415
C 5.5624121962 0.5722876981 2.3232943838
C 5.5991512496 0.3268396309 0.8139986909
C 4.2369687797 -0.0041252927 0.1981240939
C 3.6265822077 -1.3101357800 0.7132439303
C 2.3889628779 -1.7633415628 -0.0655929015
C 1.2115832310 -0.7936287753 0.0233131139
C -0.0473718630 -1.3326438140 -0.6775081900
C -1.2162910055 -0.3864415805 -0.6088962214
C -2.0416506381 -0.4110140750 0.5102720102
N -3.0687095558 0.4788548283 0.5259980921
C -3.2939490996 1.3862125688 -0.5086217940
N -4.3621167493 2.1263032116 -0.1858063457
C -4.7218488170 1.6359441379 1.0176231606
N -3.9840654160 0.6359550290 1.5163419239
N -2.5090288132 1.4305730324 -1.5847833262
C -1.4987392697 0.5657933558 -1.6261961467
C -0.6210030809 0.6164450931 -2.8574576947
C -0.9181118141 1.7766250613 -3.7988964065
N -1.9591294070 -1.2654361793 1.5665755499
H 7.6839926210 0.2550399679 2.6784687760
H 6.8786418399 1.1796301639 3.9537920654
H 7.2468038832 1.9451288608 2.4013413265
H 4.8061598259 1.3377969107 2.5445808444
H 5.2400099707 -0.3387232929 2.8418697022
H 6.3050318058 -0.4875776039 0.5975367611
H 6.0036054230 1.2214001064 0.3220415510
H 4.3449488665 -0.0728839401 -0.8931837822
H 3.5502156281 0.8310255941 0.3885664312
H 3.3617960613 -1.2071806851 1.7736530527
H 4.3878964275 -2.1002525790 0.6616498372
H 2.0697503846 -2.7463547216 0.3073383696
H 2.6550668598 -1.9088486023 -1.1221129082
H 0.9890772215 -0.5785830395 1.0786934712
H 1.4750731376 0.1705632610 -0.4260908300
H 0.1943420891 -1.5484019881 -1.7223018591
H -0.3233839960 -2.3023562350 -0.2407697120
H -5.5676479385 2.0172790135 1.5765683554
H -0.7325691503 -0.3358723627 -3.3956223877
H -0.7991023489 2.7354811323 -3.2887376547
H -2.5255027695 -1.0304777150 2.3687494192
H -1.0733453430 -1.7039446272 1.7472023155
H -0.2351393348 1.7462997202 -4.6528936954
H 0.4296768063 0.6499502672 -2.5412339129
H -1.9447715783 1.7325095167 -4.1670399612
