55
CONF80
C 2.0473100296 -0.9134194507 1.2929119196
C 3.1996570256 -0.7114487558 0.3194772220
N 2.8868983199 0.3747373345 -0.6161029967
C 2.6543603031 1.6129712014 0.1379811591
C 1.5048662932 1.4219672437 1.1152934768
N 1.7990022543 0.3248491404 2.0353323802
C 0.8355242446 0.2045846114 3.1300922524
C -0.6725425339 0.2100967523 2.7660357594
C -1.0950807809 -0.9703502780 1.9613631653
C -1.6532510443 -0.9952864187 0.7329011732
C -1.8385540577 -2.2792335191 0.0287314480
C -2.3421694403 -3.4136958854 0.6778337825
C -2.4335312425 -4.6356522497 0.0223057148
C -2.0386078860 -4.7430179752 -1.3106168225
C -1.5669732122 -3.6243093823 -1.9878189215
C -1.4712581908 -2.4018530572 -1.3205763493
S -0.8058151971 -1.0150423415 -2.2182967197
C -1.5997307606 0.3324986366 -1.3843972448
C -1.9867855759 0.2176183134 -0.0359037602
C -2.6743706629 1.2878289678 0.5391041883
C -2.8766615445 2.4694232781 -0.1697430541
C -2.4232203590 2.5971101498 -1.4809715933
C -1.8024869587 1.5172522444 -2.0935387305
C -3.6008159511 3.5867819402 0.5129257766
F -3.6460847534 4.7146099990 -0.2295427683
F -3.0206702259 3.9169462504 1.6996461942
F -4.8895469942 3.2566476065 0.8068323638
C 3.9286532919 0.5370413615 -1.6364920966
C 3.3694630674 1.2770005792 -2.8461827840
O 2.1699551967 0.6411346077 -3.3071664187
H 2.3076003918 -1.7059856892 2.0045764584
H 1.1623612475 -1.2485860822 0.7231201268
H 4.1277149065 -0.4966414853 0.8848434880
H 3.3558792845 -1.6342631063 -0.2507123903
H 3.5669538707 1.9139839968 0.6883729072
H 2.3973582379 2.4203410344 -0.5559157934
H 1.3599720359 2.3435978908 1.6927876245
H 0.5810922320 1.2432711802 0.5302018454
H 1.0726326173 -0.7105510948 3.6869172651
H 0.9944193736 1.0517066910 3.8115558812
H -0.9208023438 1.1518465204 2.2720296819
H -1.2156115123 0.2065978344 3.7223799496
H -0.8379062479 -1.9356410764 2.3986387614
H -2.6628959960 -3.3241959836 1.7112617024
H -2.8214363885 -5.5021506924 0.5479193830
H -2.1136510022 -5.6921589893 -1.8312550885
H -1.2756739414 -3.6968851926 -3.0312360579
H -3.0475621527 1.1908785397 1.5533560835
H -2.5745105035 3.5164975886 -2.0339801669
H -1.4845636428 1.5917589423 -3.1285193966
H 4.2448037635 -0.4638200492 -1.9543824546
H 4.8196352696 1.0662785954 -1.2504899481
H 3.1732721709 2.3327557241 -2.6070833919
H 4.0989066171 1.2501816252 -3.6622791281
H 1.7344786611 0.3333923942 -2.4922302650
