46
CONF13
C 4.1972724880 -4.6460991240 1.3333348266
C 4.5864424132 -3.2116320654 1.6259548509
O 4.3761387249 -2.3616908688 0.4674902551
C 3.1459056893 -1.9027170725 0.2280681258
N 3.0554299590 -1.1634387573 -0.8785148454
C 1.8179664965 -0.7160122238 -1.1315327672
N 0.7232208118 -0.9936448758 -0.3808378535
C 0.9735872081 -1.6912062542 0.7161773613
N 2.1640662064 -2.1874538375 1.0911751630
N -0.0638285664 -1.9419122734 1.5967316705
C -1.3965556303 -1.4921558289 1.5906057010
O -2.0672772651 -1.5609617353 2.6004585617
N -1.8363825634 -1.0401317384 0.3575908486
S -3.3243504537 -0.2308001801 0.1675418207
O -3.3615688773 0.1049303695 -1.2588294509
O -4.3795754362 -1.0076819930 0.8019907641
C -3.1047993651 1.2979513203 1.0902598258
C -3.6033138875 1.3557389407 2.3858706824
C -3.5025663769 2.5462744550 3.0979615157
C -2.9302300435 3.6661583681 2.5046263295
C -2.4442781322 3.6014355305 1.2025311249
C -2.5099224283 2.4085666619 0.4840972319
C -1.8767834883 2.3537486576 -0.8729746535
O -0.8832503850 1.7089622562 -1.1345543958
O -2.4998219076 3.1740257014 -1.7280498858
C -1.9703437645 3.1670228202 -3.0738441671
N 1.6116753961 0.0668882881 -2.2060692868
C 2.7009763930 0.5575549485 -3.0331211233
H 4.4568598352 -5.2764931484 2.1898643369
H 3.1223489362 -4.7300546552 1.1577048022
H 4.7332626781 -5.0185256564 0.4560263925
H 4.0346633341 -2.8075394135 2.4785454599
H 5.6594117821 -3.1233299466 1.8134708507
H 0.2079046046 -2.3683527043 2.4709967711
H -1.0918317276 -0.7909528324 -0.3186431945
H -4.0643371980 0.4736122771 2.8144676824
H -3.8836636189 2.5983559754 4.1119974155
H -2.8647779975 4.5993454277 3.0541248014
H -2.0029598455 4.4765182050 0.7371717089
H -2.0379202289 2.1583088590 -3.4890848406
H -0.9292989270 3.5006507558 -3.0744605922
H -2.5984159770 3.8582474433 -3.6340689739
H 0.7202401505 0.5427880796 -2.2231339844
H 2.2739894169 1.0568030106 -3.9055124808
H 3.3433169238 1.2640581858 -2.4922682003
H 3.3233743686 -0.2751597597 -3.3683934674
