32
CONF8
C -3.6877236110 -0.6756569038 0.2006972821
C -3.6951403721 0.6599341993 -0.0830481376
C -2.4961120432 1.3963366411 -0.2203442915
C -1.2640206009 0.7052588705 -0.0913301206
C -1.2562519299 -0.6952231956 0.2050966424
C -2.4807066612 -1.3919624651 0.3704405331
N -2.5613281209 -2.7104090293 0.7163333045
C 0.0076643344 -1.4186808091 0.3014441842
O 0.0145094921 -2.6537474076 0.5627260893
C 1.2636975984 -0.7050119098 0.0929557463
C 2.4957398779 -1.3968417228 0.2178014340
C 3.6947212166 -0.6613059496 0.0766259132
C 3.6873616295 0.6749232971 -0.2043807828
C 2.4803914501 1.3923741709 -0.3687685043
C 1.2559602114 0.6959798773 -0.2013769345
C -0.0079433446 1.4196610899 -0.2959048564
O -0.0146657315 2.6555586763 -0.5537273825
N 2.5609274922 2.7114843680 -0.7121451090
N 2.5907668893 -2.7414492860 0.4352408178
N -2.5908475340 2.7405792180 -0.4387358120
H -4.6290122656 -1.2070571913 0.3142532166
H -4.6421920629 1.1817294498 -0.1931222297
H -1.6913779871 -3.2294189555 0.6847436020
H -3.4388476484 -3.1788618593 0.5718340990
H 4.6418256969 -1.1838544983 0.1825979495
H 4.6286959933 1.2057419614 -0.3202156205
H 1.6918761634 3.2315887007 -0.6767941860
H 3.4395088961 3.1788117591 -0.5704959404
H 3.4743787271 -3.1031491468 0.7493917585
H 1.7273421285 -3.2126549979 0.6788128364
H -3.4734523157 3.1028607254 -0.7549625313
H -1.7257455574 3.2124623232 -0.6756431605
