41
CONF27
C -4.2427274507 -1.6642077565 -1.1012382575
C -3.9533514760 -0.5599514521 -0.0842223899
C -3.4365357453 -1.1591827571 1.2259189986
C -2.9785853312 0.5102904280 -0.6409111717
C -2.7647374698 1.6147260857 0.4095547308
O -3.5822205717 2.3504550817 0.9113230811
N -1.3976667098 1.5944026527 0.6585262405
C -0.8085775063 0.5974134420 -0.0925099883
N -1.6346591667 -0.0453657624 -0.8455773248
C 0.6442728508 0.3691378911 0.0204056347
C 1.3900389577 -0.6578556440 -0.6079068098
C 2.7617697500 -0.6561612798 -0.3497906182
C 3.3561573513 0.2915012902 0.4698432172
C 2.5254266609 1.2503661233 1.0466509238
N 1.2156123124 1.2811197595 0.8271465736
C 4.8361292777 0.2555131526 0.7144000279
O 5.2071865819 1.3089620328 1.5766702360
C 6.6031975017 1.3130024239 1.8396158912
C 0.9540209722 -1.8138730703 -1.5239832773
O 1.7919688057 -2.6271902349 -1.8586886264
O -0.2941935606 -1.9019796537 -1.9302676120
C -3.4799916326 1.1603599915 -1.9344094630
H -4.9040555890 -2.4115338813 -0.6525871405
H -3.3211194492 -2.1740038798 -1.4016046727
H -4.7375411130 -1.2852558317 -1.9985880841
H -4.8797984034 -0.0090994252 0.1271562339
H -3.2452705378 -0.3910732269 1.9821816326
H -2.5125954306 -1.7229297153 1.0583923485
H -4.1770666186 -1.8498918461 1.6387500074
H -0.8801160102 2.1933818788 1.2846328108
H 3.3479000655 -1.4408027923 -0.8188819285
H 2.9326421733 2.0118708353 1.7041457947
H 5.3673833363 0.3341403197 -0.2515537799
H 5.1097199704 -0.7224126645 1.1506639841
H 6.7994140277 2.1510746368 2.5108405592
H 6.9204264640 0.3781031150 2.3256304186
H 7.1834232935 1.4471473814 0.9142972334
H -0.9097886867 -1.1615441572 -1.5566423770
H -4.4816920725 1.5668456272 -1.7699748171
H -2.8171037995 1.9770659734 -2.2342311715
H -3.5072953919 0.4280752950 -2.7431772695
