27
CONF1
C -5.4173593538 -0.0350523016 -0.5235655929
C -3.9329510126 -0.2290694175 -0.5859536867
C -3.1740485785 -0.6335891309 0.5138067650
C -1.7980962291 -0.8222390152 0.4828364246
C -1.1214885172 -0.5949293408 -0.7198048834
C -1.8456527142 -0.1866335406 -1.8472656406
C -3.2173682709 -0.0120145356 -1.7691836880
N 0.2660109976 -0.7530802834 -0.8771519152
C 1.1909949254 -1.1289354586 0.0576131474
O 0.9203816078 -1.3911169344 1.2268950875
C 2.5971576677 -1.2056918993 -0.4205995750
C 3.6845002290 -1.5516235372 0.3743487991
N 4.8659842885 -1.5477952199 -0.3170038086
N 4.7983455255 -1.2366896738 -1.5531279364
S 3.1649063100 -0.8985350264 -2.0116909666
C 3.7010217135 -1.9071204131 1.8210055040
Cl -3.9887502247 -0.9304608773 2.0502832557
H -5.6853937539 0.7253106304 0.2177017136
H -5.8000870870 0.2778677131 -1.4968834471
H -5.9243801657 -0.9605146426 -0.2304717704
H -1.3297945801 -0.0065750069 -2.7858157809
H -3.7608136168 0.3043468553 -2.6543937502
H 3.0780846929 -2.7843505791 2.0126516186
H 4.7278691999 -2.1155329306 2.1253353118
H 3.2985917777 -1.0913985750 2.4266721059
H -1.2676981935 -1.1367866092 1.3679108389
H 0.5979745210 -0.5522720263 -1.8101539166
