46
CONF15
C -3.0420154639 3.3276074447 0.1082422931
C -2.3495453616 1.9766524325 0.0569986139
C -2.6043413474 1.2645595578 -1.2760324576
O -2.3006755969 1.6406578453 -2.3834016278
N -3.2380779914 0.0847040201 -0.9358075211
C -3.4682934945 -0.0151643336 0.4460604459
O -4.0129749282 -0.9238244049 1.0158821851
O -2.9950746629 1.0961704199 1.0390003215
N -3.5745383374 -0.9006304735 -1.8385018990
C -2.7878031869 -2.0770947218 -1.8093704629
C -1.4611323522 -2.0605528585 -1.3727913850
C -0.7062569312 -3.2295027732 -1.4259145029
C -1.2547842419 -4.4120138135 -1.9149307971
C -2.5789747248 -4.4175199172 -2.3524248981
C -3.3477685619 -3.2612138441 -2.2994370364
C -0.8561517228 2.0125144210 0.3230179899
C -0.2491919831 1.0990925480 1.1862630392
C 1.1270770623 1.1111177705 1.3851018085
C 1.9081410115 2.0371900087 0.6984219981
C 1.3190069155 2.9527559376 -0.1715086813
C -0.0562585393 2.9384441341 -0.3546236553
O 3.2689625162 2.1511071642 0.8771207977
C 3.9914843355 1.0361286507 1.2854182441
C 4.8534580073 1.1920283875 2.3640402195
C 5.6536266618 0.1188998724 2.7508519194
C 5.5831938743 -1.0938583460 2.0694028852
C 4.7132896606 -1.2306867434 0.9878651594
C 3.9146942992 -0.1648344689 0.5848202769
H -2.6420318645 3.9797696525 -0.6700831855
H -4.1152830269 3.2026860638 -0.0572967747
H -2.8691470943 3.7868780737 1.0842804772
H -4.5762892584 -1.0616032315 -1.8535727990
H -1.0112778663 -1.1478704965 -0.9954736760
H 0.3229619142 -3.2073104155 -1.0810548238
H -0.6602606482 -5.3185963458 -1.9535756020
H -3.0240168085 -5.3319903589 -2.7323867166
H -4.3809851155 -3.2707781072 -2.6351136792
H -0.8467393829 0.3735114505 1.7254698452
H 1.5826246367 0.4060359315 2.0710778415
H 1.9426015288 3.6687613054 -0.6961168549
H -0.4985751938 3.6499123064 -1.0426245770
H 4.8918108510 2.1427873609 2.8854437884
H 6.3298312984 0.2337729382 3.5921656444
H 6.2048979319 -1.9284387487 2.3764278091
H 4.6601118151 -2.1702577395 0.4468001565
H 3.2406891288 -0.2600032541 -0.2605298432
