38
CONF35
C -6.4337132668 0.2751142156 1.9013006124
C -5.1066277839 0.5487836026 1.2072739669
C -5.0150379621 -0.2927030841 -0.0657319485
O -4.4965462184 -1.3841622782 -0.1380579207
O -5.6355885827 0.3306916572 -1.0765437502
C -5.6988473082 -0.4084754519 -2.3258455407
O -4.0774854780 0.1770407176 2.1210321722
C -2.7796095833 0.4640814879 1.7922388777
C -1.8216752828 0.0125571617 2.7062652610
C -0.4756033476 0.2544753341 2.4805032878
C -0.0973465181 0.9453211383 1.3372836681
C -1.0299773651 1.4039037332 0.4260722893
C -2.3853710755 1.1640246438 0.6498886641
O 1.2598130978 1.2581245002 1.1422092995
C 2.0359992607 0.3512684184 0.5122805493
C 3.4024591683 0.6635237364 0.3651142456
C 4.2236514293 -0.2356223787 -0.2768828164
C 3.6629622792 -1.4232610343 -0.7579921312
C 2.3090993416 -1.6507747427 -0.5689734570
N 1.5147191289 -0.7735544091 0.0561074861
C 4.5437599128 -2.4144539638 -1.4485955867
F 5.2297361619 -1.8474641728 -2.4751936452
F 3.8506569139 -3.4551024532 -1.9568340558
F 5.4793380235 -2.9305941294 -0.6072318922
Cl 4.0364245987 2.1630518324 0.9852586173
H -6.5143957450 -0.7850364534 2.1566271023
H -7.2611301356 0.5502605741 1.2432987076
H -6.4946309158 0.8712431014 2.8148059055
H -5.0293972641 1.6123578459 0.9489724186
H -6.2353666486 -1.3479796919 -2.1761744222
H -6.2375004747 0.2389296092 -3.0158937776
H -4.6888617261 -0.6085768383 -2.6903084812
H -2.1485615956 -0.5262749528 3.5891283387
H -0.7055709418 1.9434932248 -0.4573339398
H -3.1034805514 1.5312378787 -0.0734740651
H 5.2793129281 -0.0197264743 -0.4030106234
H 1.8366329264 -2.5603736614 -0.9279562115
H 0.2774942513 -0.0916691050 3.1804769815
