27
CONF165
C -4.5592815707 -0.4379781348 0.2354991848
C -3.0398919109 -0.5297863510 0.0955205991
C -2.3602918816 0.6695492459 -0.6227580825
C -0.8731304786 0.5049048198 -1.1134905776
C 0.1858861247 0.0871379084 -0.0402727573
C 1.6669892545 0.3568638905 -0.4919009811
C 2.7182381143 -0.4597091255 0.3364100569
C 4.1790412250 0.0902049895 0.2240094344
F 5.0197039496 -0.8064237168 0.7564927807
F 4.5067725372 0.2819035071 -1.0615433014
F 4.3089498210 1.2437926331 0.8870853425
F 2.7253892533 -1.7358089017 -0.1038377578
F 2.3741682370 -0.4435613246 1.6449968082
F 1.9297860521 1.6753159025 -0.3451587047
F 1.8062127806 0.0254614275 -1.7950903357
F 0.0443771413 -1.2361097383 0.2082768671
F -0.0362649427 0.7808131424 1.0975747587
F -0.8510480942 -0.3940352093 -2.1204968312
F -0.5067677833 1.7163578932 -1.6097040241
F -3.0753273329 0.9387110205 -1.7500957680
F -2.4172663722 1.7591256721 0.1799318901
F -2.7491971685 -1.6631808920 -0.6167474678
F -2.4604494389 -0.6529670714 1.3272197786
O -4.9665496273 0.6315645965 1.0644763388
H -4.8562676984 -1.3773657493 0.7152581638
H -5.0030937227 -0.4002458601 -0.7652938781
H -5.1010275778 1.4171365975 0.5193479111
