40
CONF68
C 3.3115778665 0.9539591822 -1.4179639333
C 2.1344604084 0.1480779054 -0.9208288101
O 1.8954722804 0.4275830847 0.4945207437
P 0.7525041590 1.4170907571 1.0150484328
S 0.0627100698 2.7332883613 -0.2260001413
O 1.3512379802 1.9379791013 2.4012758736
C 2.0529287314 3.2134745184 2.5046049596
C 3.4676971200 3.1215961440 1.9778685582
O -0.3465431296 0.4304137101 1.7524744986
C -1.1868872181 -0.4077160074 1.0830194099
C -2.2042878226 -0.9983007729 1.8281554314
C -3.0488863260 -1.8520198279 1.1356032062
N -2.8954603318 -2.0721844171 -0.1870898820
C -1.8890109420 -1.4492926293 -0.7991762996
N -1.0030500308 -0.6253260963 -0.2057125036
C -1.7158084855 -1.6836626136 -2.2802034196
C -1.7074514079 -0.3586312293 -3.0498430321
C -0.4390841376 -2.4915416311 -2.5480166649
C -4.1770355635 -2.5679188006 1.8080824406
H 4.1996391171 0.7686184285 -0.8070966432
H 3.0810310024 2.0227045921 -1.4025230312
H 3.5335958196 0.6647488109 -2.4503979634
H 2.3312414168 -0.9265604642 -0.9588132706
H 1.2247824215 0.3614269128 -1.4870282371
H 1.4704542629 3.9753504903 1.9759570690
H 2.0370116808 3.4313822393 3.5748287815
H 3.4780134997 2.9515955547 0.8980367330
H 4.0137795757 2.3112018623 2.4685190520
H 3.9859088278 4.0645134275 2.1797965612
H -2.3180275939 -0.7911274973 2.8848501949
H -2.5789342113 -2.2778738308 -2.5966612500
H -0.8612501457 0.2636897758 -2.7437135607
H -2.6259115143 0.2087786988 -2.8706510073
H -1.6262674893 -0.5518026029 -4.1241134630
H -0.3512525032 -2.7076310371 -3.6173873975
H 0.4437170454 -1.9249138166 -2.2382898209
H -0.4487179278 -3.4412668970 -2.0041066673
H -4.2453893383 -2.3092300038 2.8661924585
H -5.1210241797 -2.3210424532 1.3126444295
H -4.0374841877 -3.6494309131 1.7108431897
