60
CONF16
C -0.7621368582 3.9668051966 -2.3090997831
Si -0.9592526854 2.9843058354 -0.7423012213
C -2.1038949337 3.8063558452 0.4806375332
O 0.5430509764 2.8307101081 -0.0819676036
Si 1.3586904694 2.1316498087 1.1684512368
C 0.2901462032 2.0465469545 2.6917967216
C 2.9038519264 3.1378499400 1.4370765948
O 1.7650448571 0.5870417318 0.7686757924
Si 2.5111023206 -0.2851534915 -0.4135873564
C 1.8191080346 0.1815328355 -2.0804787806
C 4.3526532264 -0.0276772355 -0.3102489155
O 2.2145185723 -1.8706579285 -0.0768953141
Si 1.2098933597 -3.1227085058 -0.4512398292
C 1.7539240499 -4.5771648655 0.5767537406
C 1.2643531090 -3.4811990696 -2.2783260212
O -0.3507345001 -2.7360702944 -0.0839300350
Si -1.2432683718 -2.0116273464 1.1002830150
C -2.7749201211 -3.0427748665 1.3558490690
C -0.2455489429 -1.8215686776 2.6601665373
O -1.6741254055 -0.5037817550 0.5917575411
Si -2.4456373132 0.2182700606 -0.6754235279
C -4.1193424291 0.7925501354 -0.0902754250
C -2.5630229818 -0.9450636445 -2.1263601690
O -1.5343288434 1.4992477030 -1.1602192169
H -0.3379813872 4.9549176612 -2.1016432269
H -0.0913691281 3.4465122302 -3.0019689354
H -1.7265870745 4.1067063426 -2.8088136924
H -1.7119426031 4.7883419204 0.7681419218
H -2.2121870022 3.2059176361 1.3899028834
H -3.0994426688 3.9501229882 0.0467168300
H -0.6028596313 1.4401109616 2.5056467219
H -0.0292733930 3.0469273029 3.0028298837
H 0.8415766391 1.5904041403 3.5214788064
H 3.5410114157 2.6777010726 2.2000614486
H 3.4844058255 3.2155097554 0.5110921163
H 2.6552855201 4.1526851060 1.7663774435
H 1.9933550430 1.2449600095 -2.2797989758
H 0.7374606586 0.0104408022 -2.1161691975
H 2.2901991935 -0.3998790141 -2.8803876925
H 4.6131075435 1.0188505539 -0.5022883094
H 4.7234006479 -0.2926412009 0.6861279786
H 4.8757696787 -0.6486669656 -1.0456065680
H 1.7279440864 -4.3289562965 1.6434313010
H 2.7771850625 -4.8743631034 0.3226405886
H 1.0977768311 -5.4382726016 0.4104826236
H 0.8857172818 -2.6309723063 -2.8552852992
H 2.2882988005 -3.6890897361 -2.6070005909
H 0.6463431511 -4.3538898901 -2.5165255234
H -3.3329155395 -3.1568018989 0.4198046216
H -2.5151487927 -4.0435242273 1.7181098546
H -3.4382329507 -2.5757399313 2.0921049962
H 0.0586880489 -2.7987062375 3.0507573823
H -0.8336155217 -1.3150828456 3.4335444643
H 0.6533218347 -1.2265445492 2.4680897186
H -4.0291199360 1.4186629383 0.8034519522
H -4.6309800924 1.3735628592 -0.8652519688
H -4.7493991943 -0.0681550696 0.1612078565
H -1.5648074893 -1.2513306131 -2.4573140555
H -3.0689579874 -0.4589194313 -2.9677697671
H -3.1261504250 -1.8482158310 -1.8672715920
