65
CONF59
C 3.8677528735 2.9990365618 -3.5666623965
O 3.5378505289 1.7184680848 -4.1159520319
C 3.6175689851 0.6384949779 -3.2827229999
C 3.2831658805 -0.5959453831 -3.8493134662
C 3.3288667380 -1.7488702006 -3.0775542943
C 3.7023356471 -1.7088229742 -1.7298674370
C 4.0512577070 -0.4711806706 -1.1887146952
C 4.0093695204 0.7003776286 -1.9424609016
C 3.6810691168 -2.9445940486 -0.8694532624
C 2.5945496147 -2.9695159927 0.2187877949
N 1.2208169559 -3.0744475923 -0.2947083793
C 0.6754857780 -1.7543952294 -0.6552944208
C -0.7200824920 -1.8763826604 -1.2558688677
C -1.6875656120 -2.5704024929 -0.2893913481
C -1.0677303458 -3.8841955282 0.1865274093
C 0.3526327425 -3.6986845242 0.7146779104
N -1.9982743766 -1.7219750560 0.8758360755
C -2.7963260392 -0.6288705662 0.7152049036
N -3.6595779766 -0.4361891029 -0.2704459023
C -4.2698167781 0.7726719983 0.0292758446
C -5.2563020213 1.4710192789 -0.6644901710
C -5.6889130003 2.6911920747 -0.1442121538
C -5.1534403347 3.2103975143 1.0414063742
C -4.1659797497 2.5242037826 1.7532201432
C -3.7462557255 1.3099578050 1.2300161380
N -2.8083586192 0.3819394291 1.6617125221
C -1.8938130484 0.5066432345 2.7833973140
C -0.4660862089 0.7799243130 2.3533091777
C 0.5957196516 0.2335097685 3.0757252858
C 1.9154577502 0.5107205392 2.7273146731
C 2.1437120659 1.3397828982 1.6430887963
C 1.1182424963 1.8831988553 0.8869773745
C -0.1930721083 1.5960953033 1.2529129170
F 3.4262244713 1.6323729980 1.3067339985
H 4.9076312840 3.0238458039 -3.2194012809
H 3.1969570847 3.2578794974 -2.7383136685
H 3.7367551407 3.7133618687 -4.3801105035
H 2.9872789258 -0.6332151261 -4.8931502272
H 3.0533215554 -2.6994624463 -3.5271034164
H 4.3508135200 -0.4087423452 -0.1459104193
H 4.2827474477 1.6398839367 -1.4779542024
H 3.5625601743 -3.8326039795 -1.4997323280
H 4.6448774631 -3.0407573131 -0.3526324829
H 2.7046941399 -2.0841407320 0.8759506564
H 2.7841644760 -3.8507544565 0.8427508217
H 1.3400320927 -1.2763719855 -1.3773218955
H 0.6511109648 -1.0917026526 0.2357135301
H -1.1001136101 -0.8811069174 -1.5116924515
H -0.6673223947 -2.4616253017 -2.1821622714
H -2.6373391751 -2.7726367957 -0.7922229361
H -1.6944737543 -4.3407749875 0.9601075655
H -1.0366625897 -4.5698423103 -0.6678527059
H 0.3434431745 -3.1024654126 1.6536362616
H 0.7682200619 -4.6785022209 0.9757048761
H -1.2213499590 -1.5865763642 1.5094100519
H -5.6711146334 1.0728758012 -1.5854657525
H -6.4556672496 3.2519108911 -0.6698263879
H -3.7531117837 2.9333390759 2.6698781828
H -2.2600929288 1.3240179110 3.4134866458
H -1.9360435165 -0.4018459040 3.3966314616
H 0.3948507828 -0.4168094287 3.9226208194
H 2.7493567309 0.0934636388 3.2810234756
H 1.3449721037 2.5168341865 0.0363723665
H -1.0094960473 2.0133551835 0.6706656495
H -5.5090846370 4.1644943041 1.4169781317
