45
CONF180
C 3.5565927168 2.2600538156 -3.4455658759
C 4.1282127759 1.3184104783 -2.3860182503
C 3.2851800116 1.2410571796 -1.1095774568
C 1.8836674798 0.6687034812 -1.3219469292
C 1.1155565782 0.4981912318 -0.0124929546
C -0.3083278913 -0.0537359821 -0.2032723759
C -1.0991860253 -0.1102630854 1.1198297162
C -1.5097023590 1.2609499371 1.6592230500
C -2.2148380917 1.2029863669 3.0180628425
C -3.5437249970 0.4457493410 3.0121190456
C -4.2651775428 0.5306929076 4.3557787352
C -0.2784185518 -1.4131037671 -0.8696533284
C 0.3135235792 -2.5100800080 -0.2350443471
C 0.3438303301 -3.7589529384 -0.8453673373
C -0.2184550978 -3.9368985084 -2.1069327209
C -0.8110935172 -2.8551617375 -2.7492345634
C -0.8392097454 -1.6067524648 -2.1329813907
H 4.2364234036 2.3541264861 -4.2979338979
H 3.3981941497 3.2625369950 -3.0318054322
H 2.5966199827 1.9030491162 -3.8303434748
H 4.2332012125 0.3104217035 -2.8085832989
H 5.1403606892 1.6482829210 -2.1211452748
H 3.8112174541 0.6193042795 -0.3727137256
H 3.2068054877 2.2442197410 -0.6663742824
H 1.3065233159 1.3233438630 -1.9883382210
H 1.9594382022 -0.3013648407 -1.8311547959
H 1.0652910861 1.4667671573 0.5002219545
H 1.6719533051 -0.1759376975 0.6536994027
H -0.8438413738 0.6287914901 -0.8795321975
H -1.9943495596 -0.7201790585 0.9536181147
H -0.5022711021 -0.6381035195 1.8773182845
H -0.6260090185 1.9026432204 1.7539935783
H -2.1694259032 1.7502135145 0.9285742054
H -2.3976256017 2.2287777370 3.3654348269
H -1.5419642349 0.7453433292 3.7571171200
H -3.3737412064 -0.6075557867 2.7598501607
H -4.1864808141 0.8529060700 2.2197666734
H -3.6469881193 0.1136754976 5.1583177942
H -5.2099184393 -0.0212003215 4.3408165191
H -4.4883912605 1.5708445589 4.6170160252
H 0.7572878151 -2.3879082911 0.7488356392
H 0.8077234623 -4.5973850515 -0.3348203644
H -0.1943931207 -4.9112737332 -2.5841364861
H -1.2523917484 -2.9813157178 -3.7331234844
H -1.3016766997 -0.7648688091 -2.6416263969
