20
CONF61
C -2.3470602732 0.8541842207 -0.6542456323
O -2.0603187189 -0.5610020198 -0.4290169445
P -0.6554918637 -1.0338584940 0.1242304409
O -0.5977444982 -2.4963267274 0.3233624553
O -0.2405913330 -0.1164621856 1.3570124704
C -0.6655710963 -0.4964745773 2.7028870651
O 0.3420307050 -0.4240665451 -1.0225176261
C 1.7139943613 -0.3603684285 -0.8484910397
C 2.2490952781 0.8658123066 -1.6179919758
Cl 1.8030823205 0.8128039520 -3.3416372303
Cl 4.0157068431 0.9880905341 -1.4279398189
Br 1.4190527719 2.4610827002 -0.7781680259
Br 2.5642923903 -2.0387318743 -1.5284998533
H -3.4032930601 0.8989005903 -0.9157942329
H -2.1564554609 1.4249945760 0.2574893803
H -1.7338813397 1.2268611684 -1.4777198697
H -1.7556570353 -0.4597655609 2.7722042385
H -0.2966460761 -1.4963853332 2.9399341927
H -0.2202424440 0.2421633362 3.3677163755
H 2.0256987462 -0.2914520405 0.1971856465
