45
CONF35
C 6.5114399057 2.4318815582 1.1080367345
C 5.5699504766 1.2354622216 0.9809506507
C 4.9019803896 1.1532848368 -0.3912400537
C 3.9547859192 -0.0377187570 -0.5294624960
C 3.2673292577 -0.0940927541 -1.8931974974
C 2.3491085754 -1.3068442975 -2.0835199742
C 1.2087343667 -1.4228375810 -1.0670943899
C 0.3012398133 -0.1817237805 -1.0272327927
C -0.9058158112 -0.3753108840 -0.1468864190
C -2.0328132864 -1.0171840057 -0.6763728867
N -3.0836762947 -1.1813461217 0.1765219263
C -3.0502726910 -0.7585166958 1.4983730629
N -4.2312387896 -1.0636304054 2.0651210254
C -4.9123648338 -1.6530124064 1.0578171495
N -4.2820647880 -1.7617202129 -0.1146466636
N -1.9836622742 -0.1670961318 2.0291333741
C -0.9340568131 0.0127410910 1.2105279705
C 0.2388683843 0.7222653553 1.8346088720
C 0.1392602729 2.2433234917 1.6457284456
N -2.1653468154 -1.5120040364 -1.9199194625
H 7.3099540534 2.3804315537 0.3595315927
H 6.9792894105 2.4721830567 2.0968224358
H 5.9701408750 3.3719607376 0.9533031885
H 4.7932580684 1.2922210828 1.7555055937
H 6.1252634551 0.3066852421 1.1677149442
H 5.6758995550 1.0972083170 -1.1698587441
H 4.3433881731 2.0820332319 -0.5768227466
H 3.2019204685 0.0179747671 0.2680760760
H 4.5109625543 -0.9714459965 -0.3629569175
H 4.0350401522 -0.1127566768 -2.6780051664
H 2.6996996675 0.8331850240 -2.0490497962
H 2.9526925254 -2.2227065862 -2.0353641775
H 1.9177697905 -1.2700812018 -3.0929770523
H 0.6024310040 -2.3034049461 -1.3132328727
H 1.6067331187 -1.6002396397 -0.0601865035
H 0.8711408187 0.6827508080 -0.6799514351
H -0.0124119921 0.0731129184 -2.0488360088
H -5.9227097682 -2.0281262343 1.1717986374
H 1.1801748821 0.3545603127 1.4174019882
H 0.1268805880 2.5126596953 0.5848217164
H 0.9918625682 2.7420895352 2.1157205723
H -1.4828043597 -1.2821325561 -2.6223360438
H -3.0791521349 -1.8033615308 -2.2317984498
H 0.2397835964 0.4882815607 2.9028120855
H -0.7788737481 2.6241777295 2.1030146780
