71
CONF346
C 5.8544486424 -0.3049288146 1.1979784432
C 6.6227540317 -1.5677049985 0.9276861022
C 5.9989477992 -2.8236320215 1.0294389520
C 6.6941253356 -4.0162935063 0.7692908399
C 8.0497742745 -3.9256805707 0.4380218121
C 8.6872806363 -2.6942134980 0.3466132165
C 7.9730854901 -1.5227872603 0.5805281573
C 6.0141039147 -5.3542346116 0.8071610323
N 4.6193006757 -2.8620984010 1.3634939295
C 4.0929326526 -3.4480136277 2.4667549358
O 4.7469653086 -4.0475563100 3.3212877906
C 2.5702072430 -3.3609046218 2.5520936826
N 2.0141254010 -2.2391698868 1.8063740990
C 2.1245350528 -0.9891201290 2.5692362516
C 1.6332609330 0.1769730064 1.7297375589
N 0.2313914100 -0.0210913226 1.3439360606
C 0.1164136037 -1.2774837890 0.5930154172
C 0.6139690404 -2.4513832039 1.4231228233
C -0.2388184765 1.1267317269 0.5577218549
C -1.7437005550 1.1201241808 0.3055523217
C -2.1993574622 2.4323045421 -0.3312973501
C -3.7033651448 2.4611952729 -0.6538312227
C -4.1204932144 3.8518438674 -1.1064011401
C -3.7377034685 4.3490996966 -2.3561544568
C -4.0857413617 5.6353426889 -2.7571512936
C -4.8279820297 6.4146947812 -1.8850950526
C -5.2310227320 5.9651687358 -0.6410197462
C -4.8676997108 4.6742285159 -0.2604471676
F -5.1771714622 7.6726105232 -2.2708228042
C -4.1524147513 1.4102201633 -1.6560486774
C -5.4569263709 0.9123289317 -1.5724566312
C -5.9438825781 -0.0119263302 -2.4916408790
C -5.0960006977 -0.4338712939 -3.5014915183
C -3.7966620474 0.0244353899 -3.6229405666
C -3.3328385958 0.9505992441 -2.6905859261
F -5.5582438739 -1.3396742113 -4.4060872994
H 5.0079138418 -0.1905277394 0.5107448482
H 5.4431695975 -0.3054872040 2.2131749067
H 6.5010722924 0.5679509886 1.0869378364
H 8.6012693586 -4.8388763752 0.2322215617
H 8.4663769123 -0.5581369282 0.5021389199
H 5.0055589031 -5.2979149495 0.3855318380
H 5.9093110744 -5.7124363939 1.8365756992
H 6.5917148455 -6.0895128976 0.2422027408
H 2.1887047973 -4.3004430528 2.1295760403
H 2.2993293339 -3.3533404961 3.6214966722
H 1.5368789015 -1.0471044526 3.5053492178
H 3.1736221487 -0.8267765989 2.8419661309
H 2.2865904307 0.2796956403 0.8391973937
H 1.7133954480 1.1019412613 2.3125800412
H -0.9323597139 -1.4548953639 0.3355486065
H 0.6943700309 -1.2293098274 -0.3524647724
H 0.5438127194 -3.3693546672 0.8288698574
H -0.0316607986 -2.5692538983 2.3142632693
H 0.2949729555 1.1876056821 -0.4128155636
H 0.0200520149 2.0340861280 1.1194072353
H -2.0201375137 0.2853193166 -0.3474968584
H -2.2703999849 0.9732882158 1.2576354856
H -1.9911591132 3.2624223741 0.3553261495
H -1.6179952300 2.6375403073 -1.2397493425
H -4.2399693957 2.2577701821 0.2812824579
H -3.1631151008 3.7253402394 -3.0344864410
H -3.7933277809 6.0277647144 -3.7253083400
H -5.8139989114 6.6071243873 0.0107022656
H -5.1735616778 4.3038458139 0.7140162532
H -6.1080892164 1.2560014035 -0.7730294547
H -6.9545370525 -0.4006998371 -2.4276172213
H -3.1623655633 -0.3375823567 -4.4249909539
H -2.3114069185 1.3058408280 -2.7801429849
H 9.7391040631 -2.6454828266 0.0817510632
H 3.9558784638 -2.3041725720 0.8312719673
