48
CONF30
C -4.5852923679 -3.5240165311 2.7883292900
O -3.4822529141 -2.6263281802 2.9651127478
N -3.4737223288 -1.7259889291 1.9158183201
C -2.4743541135 -0.9096352998 1.9705889168
C -1.4635524428 -0.8857122783 3.0546337776
C -1.8500922174 -0.6627054954 4.3787972119
C -0.9127494238 -0.6742231695 5.4017222805
C 0.4253165583 -0.9345479687 5.1174945015
C 0.8306588036 -1.1670644540 3.8091286720
C -0.1153233630 -1.1251807838 2.7959603171
O 0.2229099512 -1.4278066215 1.4744210513
C 1.0476868158 -0.6017407340 0.7941970324
C 1.0550856264 -0.7346708299 -0.5916206573
C 1.9198282707 0.0885581356 -1.3009813700
N 2.7156236594 0.9598537612 -0.6964724737
C 2.6158402861 1.0155400589 0.6314668558
N 1.8272035508 0.2786592280 1.4092374887
O 1.9282124317 -0.0395191244 -2.6535114531
C 2.7776662959 0.7917248998 -3.3740571899
C 3.9254588839 0.2399665456 -3.9229955119
C 4.7550618026 1.0176518729 -4.7219864180
C 4.4323081166 2.3480478870 -4.9688353062
C 3.2796458820 2.9028066079 -4.4236445683
C 2.4491432662 2.1217183324 -3.6289588585
Cl 0.9978197521 2.8078293071 -2.9511070858
F 0.2452950878 -1.6034258128 -1.2161034976
C -2.3824920473 0.0482468080 0.8600150118
N -1.5051338202 0.9910222968 0.9755094244
O -1.3494073049 1.8748123700 -0.0959503593
C -1.9086716387 1.4170545687 -1.3363759574
C -3.3103656629 0.9181242345 -1.0934326487
O -3.2464381695 -0.1719434095 -0.1583002229
H -5.5344320485 -2.9775585557 2.7930359348
H -4.4825478462 -4.0817388478 1.8516198232
H -4.5382871128 -4.2059302387 3.6396308236
H -2.8963373671 -0.4766531113 4.5936380398
H -1.2268876439 -0.4884481827 6.4231887492
H 1.1593275133 -0.9576330252 5.9160840229
H 1.8657900009 -1.3703690837 3.5674244720
H 3.2537377132 1.7402069595 1.1339657928
H 4.1507121392 -0.7993865413 -3.7108308119
H 5.6522273940 0.5831274140 -5.1487750304
H 5.0754948888 2.9618016218 -5.5899847226
H 3.0158127780 3.9372955942 -4.6104306529
H -1.8921140619 2.2814062897 -2.0049463148
H -1.2833433528 0.6160602696 -1.7548466395
H -3.9404286629 1.7148811012 -0.6788576604
H -3.7696416744 0.5158311500 -1.9992898565
