45
CONF13
C 3.4377505438 0.8561911034 2.1726942113
N 2.7520353663 -0.3600165585 2.6131342958
C 3.5104698817 -0.9887135009 3.6961013791
C 2.5938117612 -1.3150054536 1.5074259754
C 1.6919614227 -0.8187989288 0.3798661759
C 0.3157995836 -0.4036233878 0.8924789965
N -0.5559831829 0.0466435742 -0.2001514878
C -1.6040353826 0.9481047451 0.1113734129
C -2.0555591756 1.0261478551 1.4433662276
C -3.0544112266 1.9102895630 1.8292462608
C -3.6501567303 2.7365913685 0.8821501421
C -3.2184648885 2.6572638790 -0.4361511070
C -2.2038769782 1.7893113514 -0.8567213661
C -1.8422125256 1.8691536749 -2.3287776924
C -0.5848760941 1.1249966823 -2.7856599850
C -0.7401709079 -0.3506083520 -2.5913656404
C -0.9159714474 -1.2312998331 -3.6594725841
C -1.0722227433 -2.5988185294 -3.4452535721
C -1.0621604979 -3.0964709433 -2.1439410001
C -0.9050147547 -2.2291594300 -1.0666979246
C -0.7480867156 -0.8566429154 -1.2840288814
H 4.4294416960 0.6419991777 1.7279488452
H 3.5841451237 1.5210946661 3.0299786679
H 2.8380529856 1.3919683212 1.4309145886
H 2.9867177078 -1.8852403170 4.0444059745
H 4.5301005440 -1.2857736516 3.3814863366
H 3.6030973609 -0.2930850730 4.5367519262
H 3.5796544631 -1.5915051234 1.0810100535
H 2.1593202384 -2.2319247808 1.9275098037
H 2.1479194307 0.0227729534 -0.1546267209
H 1.6003268964 -1.6341636730 -0.3454454667
H -0.1232519042 -1.2238601350 1.4863424921
H 0.4409860977 0.4423748196 1.5730151291
H -1.6303951779 0.3670966823 2.1904938460
H -3.3720684923 1.9371149203 2.8673454187
H -4.4335821659 3.4334085663 1.1623113506
H -3.6687015359 3.3082086006 -1.1824602847
H -2.6914785716 1.4934407000 -2.9158416995
H -1.7441904589 2.9304117222 -2.5873596500
H 0.2832851641 1.4850158053 -2.2202790219
H -0.4123599518 1.3446857762 -3.8435904320
H -0.9121547111 -0.8368850234 -4.6724003580
H -1.1953879947 -3.2716747972 -4.2881708900
H -1.1839448704 -4.1602607606 -1.9635512213
H -0.9041574833 -2.6207547263 -0.0545440534
