33
CONF351
C -2.9314911591 -2.2315671331 -0.0184077522
C -1.5063847552 -1.6911795554 0.1060680583
C -1.3114235730 -1.0010475395 1.4463461079
S 0.4183182602 -0.3820329138 1.7254967846
P 0.3885830665 1.4048387061 0.6249149506
O -0.9395995417 1.7353359604 0.0439051194
O 1.0963982165 2.5311791963 1.5027846597
C 0.2818465111 3.4867054786 2.2730307350
C -0.3368200072 2.8530010590 3.4971083854
O 1.6134627120 1.2671860333 -0.4561875142
C 1.6452853318 0.2016977060 -1.3344644206
C 0.7189490706 0.0983872543 -2.3657637351
C 0.7847364926 -0.9576301672 -3.2675472038
C 1.7959219164 -1.8980388104 -3.1208291174
C 2.7445245698 -1.8120988211 -2.1099514762
C 2.6591992094 -0.7514160432 -1.2152932673
Cl 3.8395868216 -0.6093939433 0.0599473709
Br 1.9011249650 -3.3586921932 -4.3522643558
H -3.6647295477 -1.4214255239 0.0546687287
H -3.0714551401 -2.7288355985 -0.9826941461
H -3.1479340584 -2.9575516908 0.7724695266
H -0.7804062009 -2.5062379815 0.0052774338
H -1.3062518604 -0.9795584575 -0.7018068855
H -1.4627052879 -1.6986408792 2.2774010508
H -1.9945207495 -0.1577283178 1.5757150980
H 0.9955928472 4.2674161001 2.5418392008
H -0.4740864885 3.9074952482 1.6039024067
H 0.4273604833 2.3897340265 4.1272245388
H -0.8385146516 3.6345990797 4.0765061789
H -1.0814501247 2.0982766259 3.2269691630
H -0.0552523813 0.8523591558 -2.4566217447
H 0.0592182987 -1.0372624993 -4.0679072648
H 3.5329147595 -2.5478733549 -2.0104092126
