35
CONF22
C -3.8738872029 -0.0824725804 -0.5364950314
C -4.1388432818 -1.0840874566 -1.4699860941
C -3.1368238196 -1.9783262034 -1.8201541671
C -1.8867934378 -1.8574624018 -1.2283351179
C -1.5747458657 -0.8691392699 -0.3017297041
C -2.6106385166 0.0176951597 0.0278179098
C -0.2449581871 -0.6670564743 0.4258818415
C 0.8894965244 -1.6218757691 -0.0383196291
N 2.1432787667 -1.2553049698 0.6049268661
C 3.2186663440 -0.6430212263 0.0754009860
N 4.1015480608 -0.3573505668 1.0271438886
C 3.4896124954 -0.8123057821 2.1533018952
N 2.2986299152 -1.3650516068 1.9498148802
C 0.2370958623 0.7735138907 0.2107387695
C 0.5778342708 1.5945492624 1.2829967250
C 1.0772017135 2.8785564613 1.0676106383
C 1.2251274987 3.3140607613 -0.2358828764
C 0.8922552567 2.5303913306 -1.3292776751
C 0.3958740509 1.2541820653 -1.0925921354
F 1.7129839091 4.5627580156 -0.4557225519
O -0.5436755708 -0.9262657616 1.8019151537
F -0.9520689296 -2.7704482943 -1.6074889711
H -4.6485713984 0.6224595457 -0.2544186437
H -5.1197928674 -1.1695254596 -1.9255772295
H -3.3034744241 -2.7712139260 -2.5414263219
H -2.4019480815 0.8046487417 0.7460511998
H 1.0519031497 -1.5492591655 -1.1142862637
H 0.6458582200 -2.6533813037 0.2258974116
H 3.3135349214 -0.4403434588 -0.9835317811
H 3.9252485709 -0.7472480103 3.1423214701
H 0.4508670149 1.2427213883 2.3003788169
H 1.3444973422 3.5271485162 1.8947903377
H 1.0176889602 2.9138948816 -2.3359432004
H 0.1260524758 0.6290445576 -1.9393575230
H 0.3009672651 -1.0444857798 2.2735361218
