70
CONF169
C -3.1566616141 0.6070389181 0.1973216779
C -4.2877203792 1.0409116030 1.1594303167
C -4.9218919873 -0.1699151323 1.7623836265
C -6.1626718374 -0.4582938641 2.2773817110
N -6.1871572923 -1.7857321027 2.6947827377
C -4.9674939992 -2.3704823912 2.4420596914
C -4.4523735793 -3.6547032213 2.6372054939
C -3.1401937862 -3.8700825201 2.2221799412
C -2.3458491611 -2.8601040858 1.6319068731
C -2.8540451608 -1.5786711876 1.4471050218
C -4.1675678575 -1.3660501786 1.8600489898
C -2.1447866341 -0.3687819214 0.8723454484
C -1.0347174680 -0.7599064832 -0.1020029846
C -0.3493300514 0.4903576177 -0.6610849750
C -1.4047745598 1.3972715045 -1.2937831370
N -2.4085142658 1.7809431473 -0.2954609963
C -3.2455131856 2.8817109477 -0.8231010822
C -4.1098551973 2.5243129811 -2.0023581459
C -3.9757115591 3.0617419799 -3.2135138821
C 0.6799149578 0.0785670518 -1.6982114297
O 0.3722173320 -0.6747432979 -2.6223234460
N 1.9905306530 0.4803294090 -1.5350546665
C 3.0144609646 -0.1634909516 -2.3899176786
C 3.2508179105 -1.6418589156 -2.0708170718
C 3.4911071499 -1.9536939446 -0.5978603063
N 4.5594634224 -1.1551169614 0.0253406259
C 4.6161661927 -1.4462682347 1.4622596117
C 5.8663775570 -1.3974631707 -0.5932147322
C 2.3379653164 1.6356605016 -0.7502071874
O 1.6167363488 2.6367829253 -0.7405668328
N 3.5004504763 1.5213011021 -0.0961806507
C 4.0814083820 2.6511440687 0.6223499644
C 5.5804121138 2.4512979654 0.7944629012
H -3.6214298705 0.0499917101 -0.6427414083
H -3.8502630289 1.6867619921 1.9350828607
H -5.0354986967 1.6362852702 0.6283105559
H -7.0433649212 0.1593686359 2.3884500246
H -6.9859578262 -2.2427092242 3.1036946744
H -5.0382706256 -4.4514509789 3.0843309755
H -2.7076519167 -4.8574885286 2.3546140453
H -1.3332128882 -3.1076741253 1.3301735213
H -1.6917463567 0.1874431029 1.7095746867
H -0.2952144222 -1.3924363434 0.4013439132
H -1.4642499307 -1.3417293927 -0.9264769662
H 0.1239951638 1.0302939162 0.1616930853
H -0.9288621386 2.3088357976 -1.6703073705
H -1.8537850560 0.8690288543 -2.1558162131
H -3.8683003654 3.2676600510 -0.0087469167
H -2.5644781159 3.6918043530 -1.1101960141
H -4.8838805504 1.7745795654 -1.8361951428
H -3.2117039430 3.8108896671 -3.4137081328
H -4.6226477642 2.7787424133 -4.0391664943
H 3.9369422479 0.4078622058 -2.2728926634
H 2.6963125412 -0.0686115813 -3.4336081741
H 2.3843508377 -2.2284700938 -2.3898187527
H 4.0943004138 -1.9762526950 -2.6853775611
H 3.7019284318 -3.0347161764 -0.4930551560
H 2.5700018967 -1.7530980348 -0.0348537547
H 5.3933988357 -0.8359303385 1.9327614260
H 4.8409334785 -2.5090938246 1.6609899894
H 3.6531889947 -1.2029625773 1.9239787375
H 5.8576071014 -1.0922828485 -1.6431066295
H 6.6253826613 -0.8042188190 -0.0738251929
H 6.1581428483 -2.4618103508 -0.5402149266
H 3.9684103355 0.5907979191 -0.0505134581
H 3.8758060898 3.5652991652 0.0552021073
H 3.5982659146 2.7655456663 1.6030129462
H 6.0769815963 2.3653504300 -0.1772975691
H 5.7936280182 1.5471168035 1.3733968085
H 6.0097403322 3.3032649225 1.3284034418
