33
CONF159
C 4.6439969881 1.6640659925 -0.2602641301
C 6.1139707932 1.4297360116 0.1088383105
O 6.6971292990 0.3028196527 -0.5477446685
C 3.6955932850 0.7484281816 0.4738083115
C 2.2122486516 0.8919390416 0.0114439337
C 1.1512360317 0.2159838507 0.9481752290
C -0.2331721839 -0.0242073956 0.2430270387
C -1.4122593464 -0.2408985601 1.2490194920
C -2.7335110364 -0.8803006926 0.6700078935
C -3.3914548409 -0.1630932346 -0.5506970667
C -4.8645124318 -0.6077931773 -0.8394746623
F -4.9549595153 -1.9434568669 -0.8790007202
F -5.6963887612 -0.1380722607 0.0957371902
F -5.2344076508 -0.1130508109 -2.0282592189
F -2.6580122143 -0.4322736111 -1.6540938210
F -3.4052891299 1.1724042927 -0.3412328176
F -2.4792823784 -2.1625642154 0.3357610377
F -3.6199416424 -0.8701769399 1.6967767648
F -1.7328672464 0.9408301543 1.8153428039
F -0.9943921385 -1.0907396154 2.2196530563
F -0.5326400546 1.0500974998 -0.5253483459
F -0.1251581254 -1.1161712912 -0.5462672301
F 0.9593960689 1.0139946845 2.0247576090
F 1.6192222537 -0.9798644187 1.3704297876
F 1.9126601599 2.2128433797 -0.0654582558
F 2.1051148690 0.3537652200 -1.2315801363
F 4.0499946430 -0.5685532787 0.3048004817
F 3.7297630178 0.9931792718 1.8245632808
H 4.3697486296 2.6925666161 -0.0065295285
H 4.5059992448 1.5324796114 -1.3383035254
H 6.2306588845 1.3585817570 1.1982877711
H 6.6792433054 2.3013256431 -0.2311237618
H 6.3686739453 -0.4995732360 -0.1253646645
