51
CONF16
C 0.4521174668 -0.1892228838 2.2012339256
C -0.3799718066 0.8682283920 1.5360946569
C -1.6351577083 0.6108190236 1.1323041878
C -2.5387315290 1.5852119972 0.4893937535
C -2.8426932118 1.5256092139 -1.0457675316
C -3.9103083324 1.2362903326 -0.0001795380
C -4.4684849112 -0.1579720141 0.1740247698
C -4.9658260110 2.3172073593 0.1236810423
C -2.1432174810 0.5013889604 -1.8277434886
O -1.9928198826 -0.6734508315 -1.5469705865
O -1.5959749373 1.0624780716 -2.9467448646
C -0.6597151995 0.2166205420 -3.6641396132
C 0.6193232346 0.0876787899 -2.9031745026
C 1.4923375041 -1.0489306075 -2.8648890068
C 2.5194943846 -0.7309164996 -2.0290135700
O 2.3356133076 0.5359796371 -1.5372510592
C 1.1760623691 1.0210587376 -2.0855258868
C 3.7146725264 -1.4695884078 -1.5416675430
C 3.6352352244 -1.7869322817 -0.0605551480
C 2.8644569633 -2.8627607707 0.3888049258
C 2.7776226739 -3.1537926551 1.7471993565
C 3.4571635790 -2.3672965445 2.6764170505
C 4.2213201259 -1.2890128230 2.2375781195
C 4.3095067968 -1.0015615023 0.8763598473
C 0.3111353102 2.1878498794 1.3531167960
H -0.1070829369 -1.1169613845 2.3489854104
H 0.8208146843 0.1572977183 3.1754531335
H 1.3418888182 -0.4143599394 1.5981275684
H -2.0223700415 -0.3916465274 1.2948738231
H -2.4189990314 2.6150367557 0.8159726275
H -2.9001891714 2.4930365217 -1.5333681448
H -5.2684846553 -0.3269172059 -0.5551090786
H -3.7185636939 -0.9353850824 0.0387293264
H -4.9023044901 -0.2511852952 1.1760476211
H -5.7452115617 2.1812059105 -0.6342885203
H -5.4378529135 2.2658685429 1.1112226848
H -4.5340967776 3.3146723096 0.0006335295
H -0.5175880875 0.7261817431 -4.6207532389
H -1.1014762197 -0.7667893619 -3.8473066736
H 1.3645018867 -1.9854610939 -3.3888149311
H 0.8840416402 2.0138076167 -1.7808727180
H 4.6190058730 -0.8830421864 -1.7421524088
H 3.7842107500 -2.3957068189 -2.1197834391
H 2.3328812451 -3.4774047255 -0.3334967701
H 2.1795408175 -3.9963409567 2.0813698017
H 3.3896589342 -2.5936501612 3.7360650735
H 4.7528230949 -0.6705385123 2.9547096129
H 4.9116590828 -0.1630271471 0.5368027260
H 1.2863778585 2.0332750476 0.8748628192
H 0.5138361199 2.6522400113 2.3269588112
H -0.2601816806 2.8908108099 0.7442504773
