47
CONF71
C -1.8131313614 1.7437555372 -3.5367221833
C -2.0603102374 0.2530720623 -3.5129792967
C -2.8905041646 -0.2398893502 -4.6782669769
C -1.0232496839 -0.6865986850 -2.9705365636
C 0.2907669923 -0.2141030508 -2.5050225839
C 1.2217903447 -0.9908750548 -1.9560201059
Br 2.9313526961 -0.3140361139 -1.4623411418
Br 0.9501152363 -2.8342349488 -1.5779803240
C -2.3282343092 -0.4597510262 -2.1818403549
C -2.4272343321 0.2460705103 -0.8963119079
O -3.4081211734 0.2244422091 -0.1805360594
O -1.2938403127 0.9318126198 -0.5680881133
C -1.3197034922 1.6414540691 0.6990757695
C -2.0797986944 2.8838763167 0.5342290129
N -2.6744231338 3.8646441758 0.4013799985
C 0.1148608749 1.8753209393 1.1016956980
C 0.8514584176 2.9333020033 0.5725420836
C 2.1893366016 3.0745206929 0.9310620334
C 2.7914691370 2.1668385420 1.7937832247
C 2.0440411303 1.1076149136 2.3066887436
O 2.6875580504 0.2784577972 3.1957634568
C 2.2145596138 -1.0164884256 3.3794468000
C 1.9972215368 -1.4392297157 4.6847589160
C 1.6025355200 -2.7562300352 4.9113193344
C 1.4218428090 -3.6313053271 3.8429476011
C 1.6452559577 -3.1882719570 2.5396726059
C 2.0483093271 -1.8786560894 2.2990710273
C 0.7002356624 0.9581028579 1.9725532088
H -2.7716644483 2.2723424730 -3.5613529327
H -1.2604195193 2.0057951657 -4.4454168452
H -1.2506936858 2.1069442815 -2.6759777278
H -3.0408783524 -1.3219293183 -4.6339489437
H -2.3857930722 0.0011705609 -5.6201767729
H -3.8705599193 0.2485311559 -4.6806070726
H -1.0042560178 -1.6768260522 -3.4201367307
H 0.5493971513 0.8322165843 -2.6377819352
H -3.0507131898 -1.2675659143 -2.2368278662
H -1.8388173279 1.0287367427 1.4440261495
H 0.3876548845 3.6401363896 -0.1080877382
H 2.7725400678 3.8965383437 0.5293406376
H 3.8338773869 2.2660351157 2.0773907830
H 2.1398881669 -0.7422304410 5.5038678349
H 1.4322607909 -3.0945446432 5.9285249338
H 1.1113462904 -4.6550759778 4.0237570185
H 1.5144755563 -3.8664377231 1.7021206334
H 2.2328097812 -1.5266948272 1.2890550478
H 0.1153861418 0.1420418984 2.3828867293
