48
CONF15
C 1.8508632948 -1.7027525959 -0.9842897843
C 0.8646921741 -0.8424492815 -1.7537592512
N -0.5224978718 -1.1164376194 -1.3327232747
C -0.6727159877 -1.0014979288 0.1190467303
C 0.3577554674 -1.8512297035 0.8465830640
N 1.7142629621 -1.4730345454 0.4528141193
C 2.7370278035 -2.2130407338 1.2029891643
C 2.9017471624 -1.7511593885 2.6505587883
C 3.4770149156 -0.3417759636 2.8112453182
N 2.5789328207 0.6990559459 2.3373067188
C 2.6836820640 1.3147064256 1.1203405281
O 3.6014204813 1.3177420055 0.3022838208
N 1.4591498799 1.9994395373 1.0238205773
C 0.9894813502 2.7623965903 -0.0144526053
C -0.2655756282 3.2733627297 0.0792915174
C -1.0604183099 3.0150616187 1.2387995949
C -0.5907144318 2.2482676977 2.2682285867
C 0.7087261534 1.6974718220 2.1600439467
N 1.3722613372 0.8994202405 2.9720161390
C -1.5201554189 -0.5207646893 -2.1160577767
C -2.5881434539 0.1903940672 -1.5380045581
C -3.5750935833 0.7218569124 -2.3579872210
C -3.5619439825 0.6011606332 -3.7379474288
C -2.4928041540 -0.0974588239 -4.3026750991
C -1.4924935545 -0.6503583241 -3.5194803856
Cl -4.8958118547 1.6153235989 -1.5920988921
H 2.8645477804 -1.4277078911 -1.2977622440
H 1.6921529947 -2.7695955744 -1.2436405358
H 1.1037218847 0.2226143824 -1.5821685506
H 0.9774223199 -1.0473281968 -2.8195103395
H -0.5765381092 0.0489250237 0.4451193916
H -1.6702228443 -1.3532271212 0.4023358691
H 0.1667384553 -2.9235630784 0.6363897914
H 0.2231845865 -1.6912737967 1.9209211900
H 3.6933009205 -2.0714933165 0.6826971658
H 2.5251477404 -3.3007225074 1.1931879286
H 3.6004293336 -2.4374597279 3.1430032178
H 1.9582643482 -1.8238351965 3.2015410334
H 4.4042418790 -0.2344703810 2.2399314330
H 3.6975631201 -0.1438658011 3.8655481246
H 1.6663452128 2.9060104160 -0.8484909929
H -0.6558475096 3.8770161421 -0.7304414914
H -2.0591324957 3.4344796654 1.2940876066
H -1.1819972743 2.0333296283 3.1506192115
H -2.6495574579 0.3499151695 -0.4701859110
H -4.3480264790 1.0265444650 -4.3497093053
H -2.4530110914 -0.2218681414 -5.3804665497
H -0.6982431484 -1.2111586295 -3.9977164389
