45
CONF7
C 4.5477298499 -1.0244628834 -1.3035358412
C 3.3217103460 -0.1877788662 -0.9452915394
C 3.3995540941 0.3731803033 0.4761008230
C 2.2044890095 1.2400295525 0.8578585623
N 0.9862794626 0.4434758180 0.8200102961
C -0.2669926631 0.9559524403 0.9163427716
C -1.3855109236 0.0901935434 0.8183913073
C -2.6778999860 0.5847445485 0.9323925437
C -2.9320216823 1.9386441390 1.1213933592
C -1.8371352099 2.8036207947 1.1786234946
C -0.5299637651 2.3246199989 1.0823744858
C -2.0193423074 4.2650421435 1.3616138092
O -1.1080791858 5.0704039030 1.4081684266
O -3.3154386953 4.6215159074 1.4711947046
S -4.0688075886 -0.5483928402 0.7620226999
O -5.2876932376 0.2166762044 1.0631656720
O -3.9395704968 -1.2411698135 -0.5293391533
N -3.9465883203 -1.7300647861 1.9456843348
O -1.1834197354 -1.2672040281 0.7019895613
C -0.6159492662 -1.7467693232 -0.4816233844
C -0.6713398280 -1.0356903053 -1.6740439143
C -0.0824380772 -1.5889081780 -2.8084889237
C 0.5414012301 -2.8331699569 -2.7507249340
C 0.5741589711 -3.5325259139 -1.5452644237
C -0.0031767591 -2.9918896282 -0.4002500757
H 4.4755284431 -1.4186851865 -2.3220421173
H 5.4644284119 -0.4282160655 -1.2355270440
H 4.6506628811 -1.8750105815 -0.6203405260
H 2.4189249801 -0.8019852661 -1.0547458636
H 3.2161611494 0.6457621048 -1.6524173108
H 4.3043221014 0.9836075242 0.5814973043
H 3.4940821888 -0.4521701367 1.1960799823
H 2.1074961033 2.0673612570 0.1416744201
H 2.3581744832 1.6830817652 1.8543441676
H 1.0916438546 -0.5508533590 0.9520526326
H -3.9478099736 2.2986438006 1.2043480389
H 0.2889148878 3.0285348253 1.1641965535
H -3.3515429933 5.5864681256 1.5820777764
H -3.9889507055 -1.3192724516 2.8772093829
H -3.0868358452 -2.2653731235 1.8322841823
H -1.1604748388 -0.0681778106 -1.7157061538
H -0.1158061401 -1.0385582504 -3.7435273883
H 0.9986820894 -3.2558024489 -3.6391223479
H 1.0569542479 -4.5030623638 -1.4896035922
H 0.0214897297 -3.5163649258 0.5493642354
