45
CONF90
O 2.7304787220 -1.3003793879 2.8331716736
C 2.5787950679 0.1149868383 2.7503557025
C 2.3237580493 0.5979403951 1.3354019594
O 3.4995960945 0.3323674772 0.5194930586
C 3.1761241197 -0.5441832596 -0.5463446820
O 3.3380346100 -1.9045317054 -0.1626100014
C 4.0872663294 -0.2091698165 -1.7211901208
O 3.9772792361 1.1498274075 -2.1160263707
C 1.6734742088 -0.3308212222 -0.7933947475
O 1.0830493519 -1.3960006782 -1.5151063694
C 1.1442004274 -0.0791328435 0.6286869105
O 0.0310447204 0.8175272303 0.7275796828
C -1.2196143518 0.2413903037 0.5012272729
O -1.3939705363 0.0860922291 -0.8989775436
C -2.6350973645 -0.5640030145 -1.2141558269
C -2.5642096748 -0.8725259445 -2.6967578690
O -1.5071292210 -1.7935658407 -2.9696899494
C -3.8106828389 0.3090487843 -0.7909398944
O -3.8222568969 1.4952181029 -1.5832677283
C -3.6680022160 0.6317052357 0.6982599187
O -4.7018226159 1.5590831981 1.0333219050
C -2.2892274948 1.1968837000 1.0243114387
O -2.2318955503 1.3361136648 2.4449090773
H 3.3266914615 -1.5707044982 2.1182283090
H 1.7188784331 0.3839548778 3.3744770955
H 3.4661247363 0.6322498967 3.1446752015
H 2.1615079992 1.6830689310 1.3487687752
H 4.2696905233 -2.1529657286 -0.2490236754
H 3.7949849275 -0.8229147965 -2.5783985478
H 5.1224569382 -0.4655991450 -1.4410016236
H 4.1963428920 1.6877571307 -1.3426517147
H 1.5434377835 0.5802477199 -1.3859673383
H 1.4258912363 -2.2219912239 -1.1431357345
H 0.8907486150 -1.0362843432 1.1054362916
H -1.2933789936 -0.7427854734 1.0029677799
H -2.7013429899 -1.5142846096 -0.6571248888
H -3.4995251274 -1.3420989541 -3.0184977455
H -2.4304672134 0.0626212615 -3.2578007190
H -0.7139167048 -1.4732249207 -2.5057981032
H -4.7433886366 -0.2599609495 -0.9359461889
H -4.4325709382 2.1094659932 -1.1518067742
H -3.7974905250 -0.3045212637 1.2666118006
H -4.5150619446 1.8918679326 1.9216733820
H -2.1552002896 2.1673878145 0.5246602166
H -1.4336040311 1.8348436159 2.6605306102
