33
CONF51
C 5.2106366010 0.4302990134 0.2319323005
C 5.4048221414 1.4131899806 -0.9274437142
O 6.7251984628 1.9501494804 -0.9093877347
C 3.9548796317 -0.4130689691 0.1666785187
C 2.6231466473 0.4001448976 0.1465648373
C 1.3369715611 -0.4233237172 0.4980230078
C 0.0102444252 0.2758013311 0.0312362853
C -1.2672267614 -0.2807732529 0.7545832869
C -2.5997370485 0.0654547766 -0.0009913364
C -3.8700957847 -0.0590697691 0.9066740488
C -5.2153074699 -0.1386232511 0.1126117971
F -5.2848907637 0.8483689575 -0.7914833352
F -5.3368070871 -1.3152523251 -0.5100565318
F -6.2303134316 -0.0064415426 0.9773016651
F -3.9360403111 1.0195885809 1.7153176488
F -3.7778644194 -1.1782092271 1.6619001823
F -2.5311007469 1.3364283224 -0.4584196899
F -2.7337013245 -0.7749309067 -1.0515083070
F -1.3259157196 0.2483871169 1.9971640992
F -1.1679827266 -1.6254879971 0.8476567369
F 0.1005188460 1.6009860466 0.2870980828
F -0.1324398136 0.0880048905 -1.3003126841
F 1.2849977287 -0.5892881583 1.8400603987
F 1.4123942035 -1.6330064135 -0.0970863392
F 2.7353710187 1.4157005188 1.0422024746
F 2.4702143194 0.9366648218 -1.0930647836
F 3.9748405957 -1.2038837015 -0.9464562396
F 3.9108959812 -1.2400393593 1.2594045453
H 6.0418958908 -0.2832760320 0.2306504687
H 5.2178061783 0.9548198315 1.1926374303
H 4.6528570013 2.2124148719 -0.8991415474
H 5.3043615053 0.8910516540 -1.8829817528
H 6.7944920764 2.5624828364 -0.1688487094
