31
CONF4
C 3.2040544092 1.4911647467 -2.8596284746
O 2.5497834961 1.4168568437 -1.5635877799
C 2.2338129881 0.1859954070 -1.1533948333
O 2.3519614870 -0.8266467804 -1.8072107555
C 1.5833520289 0.2197180001 0.1993892707
C 2.2746043413 0.4559299856 1.3905414467
C 1.6120297237 0.5014271748 2.6169205526
C 0.2483301700 0.2973699284 2.6625179542
C -0.4472291699 0.0525209307 1.4755600807
C 0.2109633937 0.0144653507 0.2459303132
O -1.7951778268 -0.1237817797 1.6045116329
C -2.5275192778 -0.5050321969 0.4922767485
C -2.5475497459 -1.8351565410 0.0703582754
C -3.3380899863 -2.2216072007 -1.0053980224
C -4.1076062521 -1.2535532514 -1.6397378694
C -4.1080364972 0.0746566680 -1.2300735493
C -3.3074227561 0.4423082835 -0.1556852035
Cl -5.1084528624 -1.7330340282 -2.9968533614
Cl -1.5763955102 -3.0228748989 0.8972069543
N 3.7211068699 0.6131010761 1.3745271138
O 4.2706301212 1.0513232391 2.3817498644
O 4.3232531030 0.2827764221 0.3515348611
H 2.5460505252 1.0913476181 -3.6340020872
H 4.1387798599 0.9262982233 -2.8315643900
H 3.3956888755 2.5503730092 -3.0221089271
H 2.1757848168 0.6733604275 3.5251634192
H -0.2896952037 0.3130275037 3.6033601608
H -0.3363304507 -0.1593483088 -0.6739202428
H -3.3525126418 -3.2539597066 -1.3326830259
H -4.7182486333 0.8110827478 -1.7388500962
H -3.2799199985 1.4698911117 0.1906499838
