47
CONF7
C 2.6704129931 -1.5007507792 -4.1533805904
C 3.2379186664 -0.9974483876 -2.8876830733
C 2.6973884142 -0.6543139753 -1.6739234046
C 3.8221076736 -0.2370583232 -0.8979499225
N 4.9409577037 -0.3186276732 -1.5814469639
O 4.5700446774 -0.8157729667 -2.8419428154
C 3.8587242883 0.2640887309 0.4859301335
C 4.5237170091 -0.4483717762 1.4861624535
C 4.5727855686 -0.0394843886 2.8063210306
C 3.9292499764 1.1430450975 3.1523330462
C 3.2546527526 1.8977742865 2.1967143623
C 3.2291139646 1.4524327630 0.8829008862
Cl 2.3969234287 2.4169089184 -0.3187967281
F 5.1273708253 -1.6053618032 1.1466173945
C 1.2633624456 -0.6911429140 -1.3447123740
O 0.3932673514 -0.6028675716 -2.2153835709
N 0.9529046956 -0.8265657794 -0.0271186270
C -0.3951614469 -0.7520143147 0.4371979303
C -1.2420096446 0.5522908065 0.2326392499
N -2.2459001270 -0.2636087430 -0.4590425543
C -1.5365728187 -1.4515365691 -0.3431836099
O -1.7969799861 -2.5833030353 -0.6790982118
C -3.6386499609 0.0004934547 -0.1881136697
C -3.7160526821 0.3956350229 1.3341377697
S -2.1201270644 1.3376735877 1.6467700347
C -3.7545148570 -0.8789913659 2.1772897598
C -4.8924942602 1.3014202925 1.6811178937
C -4.1512108182 1.1006727243 -1.1052830275
O -3.4696969948 1.9982414937 -1.5479484280
O -5.4636856494 0.9557266722 -1.3484066838
H 3.4189205459 -2.0782362671 -4.7000067530
H 1.7933008384 -2.1166498889 -3.9499726456
H 2.3508767377 -0.6599661551 -4.7791836602
H 5.1005296340 -0.6411037063 3.5372897294
H 3.9528220197 1.4851750116 4.1811967423
H 2.7592363578 2.8225265385 2.4666976893
H 1.6861935645 -0.9695510060 0.6512416846
H -0.4318897014 -1.0733658010 1.4817925306
H -0.7645718921 1.3184247465 -0.3825423722
H -4.2268631615 -0.9082480311 -0.3505360945
H -4.7019833377 -1.4028507631 2.0057514727
H -3.6816597981 -0.6260875719 3.2380411130
H -2.9336379535 -1.5582264739 1.9322093452
H -4.8765080349 2.2358275655 1.1138402058
H -5.8308887566 0.7764063314 1.4762122189
H -4.8684549495 1.5455062373 2.7467922982
H -5.7632687663 1.7012352676 -1.8987419929
