28
CONF5
C 3.9458373981 0.0298449543 0.3923741264
C 3.6214917386 -0.2207282106 -1.0287401774
C 2.5351353789 0.3506879980 -0.1164233813
C 1.4532259790 -0.5303552337 0.2919882902
C 0.1196432378 -0.1227385705 0.5826615175
C -0.2940309272 1.2840081262 0.6445137583
O 0.4860350279 2.2346210409 0.5710657655
C -1.7635874412 1.5778629283 0.8879962555
C -2.7013259011 0.4770129393 0.4232254234
C -2.2861975432 -0.8404681225 1.0868688451
C -0.8357177542 -1.1612860812 0.8614359161
O -0.4958520959 -2.3781676702 0.9289872427
C -2.6990855931 0.3613233754 -1.0891350613
O -2.0185234631 1.0277073636 -1.8414684209
O -3.5629589999 -0.5804450608 -1.5156441799
O 1.7558295687 -1.7981350234 0.3615245635
H 4.0280756325 -0.8256987076 1.0533272970
H 4.5463884652 0.8951635236 0.6496425399
H 3.4905005322 -1.2483247897 -1.3473633405
H 3.9933447423 0.4710339464 -1.7763489280
H 2.2832996833 1.3921957195 -0.2288758997
H -1.9887420743 2.5382475870 0.4193941247
H -1.8858944634 1.7063024371 1.9722818378
H -3.7324351170 0.7025350947 0.7189543039
H -2.8821866992 -1.6907673108 0.7484155226
H -2.4375505681 -0.7480193610 2.1710429330
H -3.5241971331 -0.6153849324 -2.4870366221
H 0.8494778924 -2.2880279708 0.6429219627
