45
CONF11
C 2.9952945299 1.7496920956 -2.3645272399
C 2.7547875285 0.9029416452 -1.1210096184
C 1.2945296394 1.0078177857 -0.6851768246
O 0.8102446585 2.1064095727 -0.4191110425
N 0.5900134958 -0.1445118944 -0.6165305607
C -0.7832658449 -0.1631000846 -0.2225194591
C -1.2207779051 0.2958115112 1.2124487321
N -2.1038843623 1.2800983170 0.5795097339
C -1.7485009196 0.9430113244 -0.7201494500
O -2.1344464765 1.3430084722 -1.7928119715
C -3.4162577917 1.4781406664 1.1450464897
C -3.8924456140 0.0637033925 1.6462818840
S -2.3170044442 -0.7703882488 2.2398535794
C -4.8805424451 0.1190251906 2.8068452380
C -4.4913341555 -0.7047473603 0.4684246894
C -3.3533809513 2.5032187795 2.2672849747
O -2.3932111017 2.6827301460 2.9813722955
O -4.5122565589 3.1758001202 2.3749712351
O 3.0590835852 -0.4790474916 -1.3644697078
C 4.3583330371 -0.9101487876 -1.2857387979
C 4.5442931003 -2.2735141231 -1.5365946272
C 5.8180931394 -2.8210785849 -1.4729382408
C 6.9186589620 -2.0213602243 -1.1618784539
C 6.7240065044 -0.6665968770 -0.9168049575
C 5.4509137742 -0.0978661425 -0.9768270373
H 4.0431419275 1.6915975473 -2.6674147699
H 2.3676341936 1.3909723745 -3.1855449541
H 2.7461370679 2.7917751956 -2.1541903844
H 3.3433258646 1.2719086141 -0.2706330584
H -1.2122596403 -1.1412659068 -0.4570804522
H -0.4231225684 0.7177715848 1.8279113011
H -4.1025857949 1.8327938874 0.3695482387
H -4.4673618655 0.6405154194 3.6742482072
H -5.1499408904 -0.8959177218 3.1119871839
H -5.7944794762 0.6293612692 2.4862076395
H -3.8125586124 -0.7371833928 -0.3882072294
H -4.7117456735 -1.7329212887 0.7666139516
H -5.4245575699 -0.2233294108 0.1540856415
H -4.4437514267 3.7863992333 3.1301511724
H 3.6806934737 -2.8858083124 -1.7758028370
H 5.9511887785 -3.8809262474 -1.6673901263
H 7.9137876497 -2.4504245954 -1.1136708007
H 7.5700943317 -0.0298603196 -0.6769334249
H 5.3371722611 0.9627449889 -0.7893049453
H 1.0560359382 -1.0111174405 -0.8424205818
