48
CONF16
C 1.6716591026 -1.8099326545 -0.7848248913
C 0.7530463476 -0.9399805480 -1.6281538129
N -0.6425216403 -1.1124571947 -1.2208825432
C -0.8092909325 -0.8959484696 0.2273314771
C 0.1519222404 -1.7556910457 1.0299175359
N 1.5343277181 -1.4881581065 0.6343320716
C 2.4956890716 -2.2532272758 1.4399827910
C 2.6825551920 -1.7125055580 2.8574562998
C 3.4088691206 -0.3677149837 2.9353502608
N 2.6738394800 0.7175352109 2.3066532441
C 2.9097026775 1.1741163216 1.0388942711
O 3.8540849899 0.9700134152 0.2782257238
N 1.7907735440 1.9906024205 0.8002102287
C 1.4781763437 2.6943918091 -0.3341906487
C 0.3013671919 3.3718869756 -0.3664011639
C -0.5731560354 3.3424804449 0.7638248587
C -0.2602393735 2.6334462334 1.8896728269
C 0.9569652948 1.9115127316 1.9151075790
N 1.4742975527 1.1324549772 2.8438402126
C -1.6214861649 -0.5526009303 -2.0492392543
C -2.9855324153 -0.7320867380 -1.7357887050
C -3.9533235733 -0.2155959437 -2.5778298725
C -3.6545900563 0.4805254854 -3.7439107252
C -2.3080668927 0.6496029374 -4.0490295379
C -1.3027951804 0.1550284800 -3.2239891109
Cl -5.6516539230 -0.4713418076 -2.1555570213
H 2.7048018674 -1.6208398144 -1.0973549873
H 1.4471911714 -2.8781981788 -0.9822073938
H 1.0681274175 0.1159358851 -1.5387217149
H 0.8611757298 -1.2413512209 -2.6744138546
H -0.6346943446 0.1678258728 0.4658298132
H -1.8275059406 -1.1437540666 0.5298355035
H -0.1036329046 -2.8260895767 0.8891815313
H 0.0138673787 -1.5136199018 2.0885187638
H 3.4638178270 -2.2169644333 0.9238732107
H 2.2020451180 -3.3201542666 1.4945202658
H 3.2910183294 -2.4333610047 3.4159306801
H 1.7252575710 -1.6436243014 3.3847029710
H 4.3754404907 -0.4218538803 2.4247793396
H 3.5871215384 -0.0952048524 3.9809132580
H 2.2066872125 2.6590808492 -1.1357342839
H 0.0347838846 3.9338800292 -1.2526124771
H -1.5065657074 3.8930169292 0.7189279493
H -0.9145195763 2.5932312434 2.7527150931
H -3.2876506906 -1.2969680275 -0.8632289177
H -4.4368801213 0.8740931892 -4.3812865161
H -2.0332141720 1.1955789742 -4.9464092439
H -0.2721579521 0.3379501209 -3.4975791794
