66
CONF6
C -2.0388940574 4.2267790667 -1.0665406290
C -3.1455585601 3.5120050353 -0.3143460541
O -2.6284501833 2.3356412022 0.3502510108
C -2.4570875699 1.2333165562 -0.4337525743
O -2.8572082574 1.1788732319 -1.5849267542
C -1.7435347445 0.1846307226 0.2960602408
C -1.6060156178 -1.0491205655 -0.2603643157
N -0.9791067059 -2.0452739085 0.4544467425
C -0.5062026452 -1.9078505414 1.7404210734
C -0.5884857120 -0.6953344934 2.3566584683
C -1.0777614786 0.5465612298 1.6172586610
C 0.0230431236 1.5959262276 1.3980066987
C -0.0592902904 2.8086992639 2.0819465084
C 0.8450768837 3.8381602102 1.8567724144
C 1.8570547379 3.6770418837 0.9133897335
C 1.9541209008 2.4833389950 0.2163800196
C 1.0542896226 1.4307568866 0.4475772641
C 1.2051182657 0.1805347463 -0.2891362573
C 1.5452296606 0.0537495417 -1.5809958921
C 1.6041591687 -1.2855234589 -2.1903818805
O 1.3444877455 -2.3317812213 -1.6177754635
O 1.9611497324 -1.1828253170 -3.4896763176
C 2.0455792550 -2.3778264680 -4.3548172852
C 3.1311543328 -3.3183053964 -3.8419720122
C 0.6815159896 -3.0557720514 -4.4476997552
C 2.4396102666 -1.7818358009 -5.7016734252
C -0.2059201886 -0.5780819996 3.7641075449
O 0.2879237444 -1.4487732224 4.4615361944
O -0.4779830571 0.6708835617 4.2403303107
C -0.1361643190 0.9101332847 5.6254185129
C -1.2390659757 0.4349523879 6.5509849739
C 0.0494129471 -3.1705502627 2.3263893512
C -2.0712210039 -1.4671185028 -1.6211721514
H -1.2046238559 4.4514725744 -0.3953981079
H -2.4186284983 5.1653540851 -1.4830958671
H -1.6735180569 3.6071130405 -1.8891253280
H -3.9621681180 3.2212729677 -0.9817771507
H -3.5397795327 4.1283360510 0.4980722938
H -0.7028188612 -2.8693690448 -0.0559014019
H -1.8212900615 1.0387969322 2.2506590930
H -0.8666886510 2.9445463154 2.7942639039
H 0.7558793479 4.7682447314 2.4096670005
H 2.5708142428 4.4736082648 0.7299194903
H 2.7581624322 2.3340105954 -0.4977073242
H 1.0304303493 -0.7390977671 0.2582123194
H 1.7165247589 0.9085189821 -2.2272193032
H 3.2783464525 -4.1233880215 -4.5688300787
H 4.0772081668 -2.7794975917 -3.7332252239
H 2.8569186168 -3.7558258695 -2.8817341531
H -0.0875076381 -2.3228658870 -4.7109262893
H 0.4106160343 -3.5370033178 -3.5077283791
H 0.7136406711 -3.8143308204 -5.2359761746
H 3.3919176737 -1.2506018999 -5.6217457922
H 2.5447881125 -2.5789838225 -6.4427762136
H 1.6766241297 -1.0795960718 -6.0486759252
H -0.0024999752 1.9940505580 5.6857601999
H 0.8119152375 0.4129283556 5.8496933185
H -2.1898332493 0.9120383914 6.2960098481
H -1.3543224115 -0.6492606351 6.4838028717
H -0.9901189619 0.6926942907 7.5854884462
H 0.0371773827 -3.9747285934 1.5851750155
H -0.5302033682 -3.4806924587 3.1991902974
H 1.0705157452 -3.0186422907 2.6797547818
H -1.5617881039 -0.8802964260 -2.3900754974
H -1.8683749399 -2.5287709649 -1.7880711799
H -3.1382923769 -1.2760435930 -1.7483834674
