28
CONF4
C 3.5621459368 -0.6421206598 -0.9991789458
C 3.8821346073 -0.6826752123 0.4441702064
C 2.4223074064 -0.8356997620 0.0026037010
C 1.5240327475 0.2837800728 0.2350115611
C 0.1437866025 0.1790997026 0.5720998394
C -0.6078803472 1.4035971418 0.6352446706
O -0.0543165338 2.5326147883 0.4934859913
C -2.0907906583 1.3912499502 0.8761523670
C -2.7359504058 0.0682613665 0.4506319462
C -2.0095404686 -1.0753939947 1.1372496500
C -0.5121869636 -1.0956047459 0.8861303193
O 0.0870714905 -2.1643547839 1.0139985352
C -2.7166804779 -0.1015464082 -1.0568424436
O -2.1846248007 -1.0168134621 -1.6505583330
O -3.3799701021 0.8931635150 -1.6770787686
O 2.0486998493 1.4686675806 0.0822635968
H 3.6017619760 0.3167359737 -1.5029402363
H 3.7837120524 -1.5129283220 -1.6061236609
H 4.1335416280 0.2507211433 0.9352572359
H 4.3316913527 -1.5784212774 0.8579874804
H 1.9875698882 -1.8182716828 0.0830916656
H -2.5266711022 2.2564242039 0.3719374285
H -2.2513989782 1.5282365613 1.9542550942
H -3.7906226358 0.0856666803 0.7492389739
H -2.4049223995 -2.0510381263 0.8467279380
H -2.1482603721 -0.9761944196 2.2225400822
H -3.3419054869 0.7380718601 -2.6367219158
H 1.2472657031 2.1547723165 0.2569522251
