40
CONF17
C 3.2544264548 2.5462379772 -1.2615989372
N 2.2731687702 2.4460898031 -0.1779368020
C 1.0451734940 3.1397839669 -0.5783492923
C 1.9970845902 1.0313858068 0.1108330056
C 1.2885632639 0.8314714409 1.4504523955
C 0.7003425447 -0.5736150767 1.5961066449
N -0.2705685600 -0.8761828232 0.5353534549
C -0.3089850281 -2.1661686231 -0.0245835844
C 0.1191990015 -3.2954339482 0.6836578919
C 0.1063787685 -4.5518938675 0.0829387178
C -0.3707082034 -4.7128897964 -1.2142620339
C -0.8406690599 -3.6040426805 -1.9148571206
C -0.7921006511 -2.3418397377 -1.3317199583
S -1.2616590853 -0.9003184257 -2.2679167970
C -1.9633556578 0.0499878804 -0.9389976662
C -1.3651612387 -0.0267210150 0.3307030682
C -1.8886475075 0.7576118867 1.3666700467
C -2.9377917613 1.6258347988 1.0973516403
C -3.5282208290 1.7187424864 -0.1551764681
C -3.0429674256 0.8956074724 -1.1683744633
Cl -3.5464988148 2.6344222166 2.4078116816
H 2.9023729334 2.0666810212 -2.1958096455
H 4.1915589424 2.0657193904 -0.9618529041
H 3.4598726027 3.5998800106 -1.4776760885
H 0.3024916179 3.1171620257 0.2243055534
H 1.2708114829 4.1885922763 -0.7963387020
H 0.5871751413 2.6872971447 -1.4806864986
H 2.9531735880 0.4938399349 0.1338731386
H 1.3964367210 0.5805833738 -0.7040746303
H 1.9991714946 0.9790888143 2.2712899555
H 0.5055912230 1.5820634274 1.5817651413
H 0.2710637554 -0.7098497707 2.5996018845
H 1.5085513325 -1.3028999542 1.4918758173
H 0.4607773912 -3.1959287283 1.7076613693
H 0.4580345448 -5.4107809627 0.6455550783
H -0.3880209926 -5.6928595301 -1.6790248987
H -1.2242672695 -3.7115192783 -2.9248031907
H -1.4811056220 0.6962434452 2.3676270974
H -4.3467897398 2.4036720319 -0.3398723462
H -3.4939026837 0.9349457921 -2.1548164614
