51
CONF150
C 0.8494331551 2.1342268977 -0.3435971863
C -0.5999154634 1.7842354690 -0.1660957894
C -1.0691463483 1.3744024247 1.0243213573
C -2.4686563371 1.0182484462 1.3202625784
C -2.8800994279 -0.4631597154 1.6311053248
C -2.9456364732 0.6267681409 2.6874460722
C -2.0045634989 0.6239623882 3.8711694037
C -4.3539981335 1.0522612306 3.0534168345
C -1.8230546611 -1.4754085910 1.5332586121
O -0.7081353097 -1.4350847859 2.0169782234
O -2.2388866377 -2.5038169391 0.7328756280
C -1.1912079307 -3.4107758603 0.3086581678
C -0.3341536713 -2.7576982368 -0.7260070182
C -0.6953689167 -1.7364347530 -1.5476742931
O 0.3609135094 -1.3742231954 -2.3430042196
C 1.4119061305 -2.1931846505 -2.0199962194
C 1.0343083233 -3.0534669949 -1.0337560508
C 2.6895110730 -1.9494885302 -2.7399074671
C 3.2788127924 -0.5895179904 -2.4173679333
C 3.2075551137 0.4587390096 -3.3356945667
C 3.7319925173 1.7122306844 -3.0230072593
C 4.3343721762 1.9292607928 -1.7869076599
C 4.4072343625 0.8872987912 -0.8631809798
C 3.8799188614 -0.3615318558 -1.1762547824
C -1.4280342479 1.9120899419 -1.4111384806
H 0.9621276239 3.1559416716 -0.7291987977
H 1.3171956075 1.4711909179 -1.0837345889
H 1.4072605249 2.0512772334 0.5928564385
H -0.3591461353 1.2969871404 1.8428914944
H -3.2169737663 1.5030383847 0.6993438122
H -3.8253107942 -0.7662734197 1.1933080506
H -2.4069928728 -0.0238009572 4.6576374012
H -1.0071481913 0.2676795066 3.6208704545
H -1.9301315900 1.6392445918 4.2766945770
H -4.3403966689 2.0624078874 3.4777678621
H -5.0126514117 1.0566174487 2.1798581441
H -4.7771938267 0.3735988537 3.8022519698
H -0.5913654915 -3.7274826119 1.1668798928
H -1.7256130627 -4.2777371770 -0.0895768322
H -1.6023384066 -1.1658463756 -1.6706046676
H 1.6591725316 -3.8041406608 -0.5713285342
H 2.5299100653 -2.0323636607 -3.8214551128
H 3.3869957997 -2.7403336279 -2.4473139552
H 2.7403852097 0.2919812616 -4.3025902302
H 3.6697150762 2.5184968512 -3.7477049369
H 4.7440146112 2.9045027494 -1.5427173602
H 4.8752830892 1.0488912627 0.1032282465
H 3.9332820062 -1.1710790249 -0.4525514248
H -2.4485707999 1.5437110389 -1.2931022996
H -0.9555100006 1.3540281033 -2.2293442372
H -1.4710990734 2.9595300653 -1.7365610602
