40
CONF174
C 3.8186855889 1.2711650044 -4.1137114263
C 2.8961171211 0.6801985625 -3.0772129531
O 1.8316541524 1.6681969063 -2.8280999065
P 0.7979703393 1.4809176998 -1.6267361356
S -0.4299559399 2.9754958203 -1.5250215945
O 1.6443543041 1.0844587515 -0.3317859440
C 2.2699245968 2.1205737465 0.5044481073
C 1.5925060964 2.1452249899 1.8523185016
O 0.1872680053 0.0091139972 -2.0244454002
C -0.8129807106 -0.6358908450 -1.3437971703
N -1.1735678275 -0.1952441410 -0.1557204438
C -2.1649743918 -0.8741643050 0.4522636425
N -2.7816739790 -1.9472049219 -0.0448755791
C -2.3859089636 -2.3855264177 -1.2596008371
C -3.0823502137 -3.5918497837 -1.8025238477
C -1.3825668880 -1.7395952773 -1.9683932841
C -2.5816843638 -0.3815747300 1.8159809752
C -2.9124780550 1.1142709721 1.7929121121
C -1.4769088311 -0.6865521462 2.8381401978
H 4.2715544711 2.1969413654 -3.7488944613
H 3.2796642271 1.4781316816 -5.0420107348
H 4.6171118995 0.5544700036 -4.3283472752
H 2.4244227596 -0.2420212233 -3.4297076613
H 3.4168739317 0.4846946785 -2.1347520485
H 2.2012194807 3.0890672608 -0.0010458519
H 3.3218069346 1.8324557026 0.5767477262
H 1.6671903386 1.1700201817 2.3413155547
H 0.5366616824 2.4114559607 1.7497301733
H 2.0817645120 2.8908786143 2.4871052969
H -2.9337260118 -4.4404364374 -1.1266290856
H -2.7121549013 -3.8549081175 -2.7946908719
H -4.1598392215 -3.4064201687 -1.8558342898
H -1.0579298048 -2.0660469632 -2.9486256026
H -2.0229405079 1.7028671096 1.5484942628
H -3.6870950695 1.3387864926 1.0528194703
H -3.2740994414 1.4278757390 2.7770533666
H -1.7942182155 -0.3677415241 3.8359080143
H -1.2512893919 -1.7570587982 2.8723736563
H -3.4792713745 -0.9453899787 2.0896332489
H -0.5605334212 -0.1467818853 2.5788387023
