24
CONF3
C -1.0964172748 -2.2309281961 -0.2329077560
N -1.5299285611 -0.8997643311 0.1825289127
C -0.7018958541 0.1863752386 0.4231765239
C -1.5190171522 1.2592517521 0.7457104737
C -2.8609184962 0.8283650323 0.7004834264
C -2.8260884506 -0.5107256697 0.3533777525
Cl -4.1364371332 -1.5963117806 0.1458152735
Br -4.4002174263 1.8385612096 1.0491329852
Br -0.9057989800 2.9763528645 1.1968241263
C 0.7400590958 0.1112037986 0.3690489493
C 1.6242077834 -0.5072322189 1.2402428369
C 2.9376276518 -0.2715242378 0.7851964906
C 2.8202200449 0.4962180387 -0.3609261896
N 1.4993267245 0.7247964437 -0.6158403498
C 0.9699632710 1.4675824415 -1.7560188899
Br 4.1806069780 1.1745850240 -1.4507381632
Br 4.5340697103 -0.8569845935 1.5733060928
Br 1.1210744304 -1.4615638635 2.7780248909
H -1.3419009107 -2.9662725736 0.5378763938
H -1.5841829428 -2.5032126462 -1.1720257359
H -0.0164365162 -2.2048606753 -0.3797903497
H 1.3541488481 1.0418076547 -2.6859903835
H 1.2548322137 2.5208838063 -1.6866396393
H -0.1168977522 1.3833970637 -1.7398673910
