55
CONF117
C 5.3285787742 -4.0722019209 -2.3364430536
O 4.0458688656 -3.5042200760 -2.6323691260
C 3.3637135446 -2.9227274856 -1.6076099074
C 2.1124490835 -2.3858924267 -1.9370410150
C 1.3389821153 -1.7754341894 -0.9651378047
C 1.7899020563 -1.6789194141 0.3581134491
C 3.0324866720 -2.2269526898 0.6727598154
C 3.8261127234 -2.8445177285 -0.2919555190
C 0.9973551300 -0.9968415045 1.4412375595
S -0.7283010074 -1.7020390111 1.4439367245
C -1.6616699798 -0.4454117697 2.2987929553
C -2.2689162966 -0.7627212325 3.5173682276
C -3.0864542166 0.1574430943 4.1627022190
C -3.2791021576 1.4201349272 3.6070850647
C -2.6664932220 1.7546282143 2.4062906663
C -1.8665180702 0.8275410990 1.7333390761
N -1.2927181523 1.1925354426 0.4844621338
C -2.1923793566 1.6293727965 -0.5966893246
C -2.6878485436 0.4036036055 -1.3902107217
N -3.6050677077 0.6837425574 -2.4907603511
C -2.9966668643 1.4816945381 -3.5546471204
C -4.8735445791 1.2618752891 -2.0505698168
C 0.0313429364 1.0324881062 0.1908436684
O 0.5058597338 1.2964824814 -0.9106694534
C 0.9157115010 0.5373191504 1.3402654643
O 2.2642332303 0.9921109566 1.1461697106
C 2.4473529748 2.3337403795 1.2557138219
C 3.8795124824 2.6967862061 1.0222390110
O 1.5464000245 3.1008192571 1.5205664811
H 6.0220238891 -3.3062433789 -1.9700217874
H 5.6958837883 -4.4787751447 -3.2789769059
H 5.2406352386 -4.8767924621 -1.5970897346
H 1.7616456203 -2.4605746686 -2.9613211527
H 0.3702721664 -1.3713896155 -1.2379555536
H 3.3984193546 -2.1700282703 1.6942229726
H 4.7850020932 -3.2578052809 -0.0049276303
H 1.4571044521 -1.2250243668 2.4079508851
H -2.0993575776 -1.7434645142 3.9490301915
H -3.5592834720 -0.1069533555 5.1027221421
H -3.8962396585 2.1537480847 4.1152662418
H -2.7976923929 2.7462822850 1.9860245465
H -1.6402736067 2.3204024403 -1.2363868860
H -3.0316663542 2.1628692166 -0.1466924547
H -1.8120443299 -0.1205823615 -1.7931650367
H -3.1859575123 -0.2801400817 -0.6893923536
H -2.0443209245 1.0313727030 -3.8543854361
H -2.8078563251 2.5323099598 -3.2679413149
H -3.6621718224 1.4918131725 -4.4251510390
H -5.3005094555 0.6486599564 -1.2495548726
H -4.7853037451 2.3007263174 -1.6824519224
H -5.5781831818 1.2697925458 -2.8897291063
H 0.5441022579 0.9365179935 2.2887925195
H 4.2111507807 2.2998629056 0.0588735539
H 3.9932641194 3.7795187306 1.0462336669
H 4.5011731044 2.2394598178 1.7982432454
