47
CONF127
C -1.6104992290 2.8707980472 -0.0240388653
C -2.6978167159 1.8585115950 0.3298415192
C -4.0157517133 2.1603602741 -0.3829056954
C -5.1215946300 1.1583564638 -0.1136997948
O -4.8230900592 -0.1172418703 -0.7742463209
C -4.3360160517 -1.1183714102 -0.0312873525
O -4.0935628761 -1.0703077544 1.1545173434
C -4.1779410150 -2.3826598109 -0.8822425901
C -5.4074471724 -3.2612749321 -0.7161169173
O -3.0573752653 -3.1392205126 -0.4184245523
C -1.8194737165 -2.5557021312 -0.5053421729
C -0.8029232601 -3.1851197054 0.2182306487
C 0.4842934799 -2.6669342295 0.2039840254
C 0.7453244545 -1.5200466029 -0.5337824483
C -0.2456357599 -0.8980210893 -1.2719737915
C -1.5396123498 -1.4146916521 -1.2611642192
O 2.0574461684 -1.0265144442 -0.5843188882
C 2.3789085275 0.0163210556 0.2267700157
N 1.4880976550 0.4677006460 1.0964095900
C 1.8486010981 1.4940922647 1.8783536013
C 3.0998483152 2.0878076818 1.8095667865
C 4.0293025720 1.5955333340 0.8835559489
C 3.6714907534 0.5392023071 0.0759580109
C 3.4602550728 3.2502357751 2.6729512898
F 4.6720864041 3.0856054584 3.2657662150
F 2.5604445822 3.4656878008 3.6581878651
F 3.5454536275 4.4078469498 1.9587303580
H -1.9109132883 3.8868614711 0.2551686536
H -1.4098627042 2.8653248053 -1.1013701256
H -0.6730067702 2.6411462392 0.4919622471
H -2.8678317678 1.8512170648 1.4137491820
H -2.3534021132 0.8525857763 0.0640867020
H -3.8526772361 2.2262799351 -1.4666708104
H -4.3895252073 3.1424238323 -0.0629014070
H -5.2616867926 0.9783420612 0.9552588603
H -6.0644170158 1.4787315901 -0.5624343184
H -4.0515386926 -2.1079466240 -1.9358179755
H -5.2886209651 -4.1698435194 -1.3114004397
H -5.5390402838 -3.5316231970 0.3350054509
H -6.2951319191 -2.7263526955 -1.0633193196
H -1.0379171500 -4.0727247799 0.7959137705
H 1.2796425023 -3.1386742146 0.7713302047
H -2.3032328779 -0.9150569347 -1.8448631840
H 1.1019798209 1.8459554253 2.5852812930
H 5.0173095706 2.0373711063 0.8030366467
H 4.3502315197 0.1176824917 -0.6557599408
H -0.0158600607 -0.0066573726 -1.8466434549
