63
CONF143
C 3.4221469921 1.4808809070 0.6300923988
C 2.0254883424 2.0569024122 0.4184660868
N 0.9996443357 1.0102040318 0.5188463561
C 1.0281800550 0.4218131693 1.8647397857
C 2.3777794297 -0.2312220387 2.1488308535
C 3.4939328556 0.8015153622 1.9973731357
N 4.8155948136 0.2385592629 2.2719881282
C 5.4798803887 -0.7810928397 1.5944972099
C 5.1392333067 -1.5627213763 0.4969837979
C 6.0639968694 -2.5192488254 0.0671745226
C 7.2903820689 -2.6912941945 0.7113637283
C 7.6384096672 -1.9084598214 1.8147963560
C 6.7214363915 -0.9614234392 2.2396020008
N 6.7668953270 -0.0510185705 3.2789213967
C 5.6077357768 0.7010431434 3.3220811616
O 5.3312283774 1.5936199983 4.1213484195
C -0.3221291924 1.5748430163 0.2102511927
C -1.4075183683 0.5201172456 0.0103568573
C -2.7044618215 1.1531988381 -0.4912574059
C -3.8426359771 0.1297042124 -0.6338897755
C -5.1961545024 0.7514358405 -0.9395262683
C -6.3527982844 0.0220528276 -0.6393008666
C -7.6199206472 0.5180165778 -0.9251313081
C -7.7119024949 1.7643565039 -1.5230159273
C -6.5999916017 2.5223641789 -1.8376902336
C -5.3394384642 2.0038495621 -1.5404626886
F -8.9465718765 2.2628296344 -1.8051914105
C -3.5039393706 -0.9315623543 -1.6689409326
C -3.2577021934 -2.2511658136 -1.2869412336
C -2.9262950400 -3.2265544871 -2.2267430073
C -2.8468374557 -2.8505798549 -3.5549058295
C -3.0837003162 -1.5532803530 -3.9804216955
C -3.4152726563 -0.5988099976 -3.0244125462
F -2.5269547309 -3.7924855381 -4.4839371782
H 4.1654909574 2.2837594046 0.5738328417
H 3.6413625936 0.7629608594 -0.1675466655
H 1.9629945077 2.5120869843 -0.5762584687
H 1.8459215927 2.8624879664 1.1608120778
H 0.8201174660 1.1942769270 2.6344711974
H 0.2431925323 -0.3354771821 1.9441471726
H 2.5271778313 -1.0634140860 1.4526511466
H 2.3835373286 -0.6382430167 3.1659481240
H 3.3554288976 1.5704469588 2.7675365644
H 4.1947326401 -1.4487197821 -0.0197114262
H 5.8164871822 -3.1394705006 -0.7881091901
H 7.9858482564 -3.4427038875 0.3523036136
H 8.5886313988 -2.0328742431 2.3231693557
H 7.5256288095 0.0748046284 3.9300831479
H -0.2226894798 2.1490658554 -0.7201120707
H -0.6411655877 2.2915742468 0.9943810602
H -1.0506395341 -0.2253907860 -0.7110948873
H -1.6134015609 -0.0125238335 0.9466326072
H -3.0261699001 1.9373229543 0.2067751031
H -2.5169615475 1.6406791651 -1.4563594907
H -3.9413476128 -0.3858704314 0.3299028604
H -6.2599346170 -0.9552559593 -0.1728120029
H -8.5178508567 -0.0427286164 -0.6885083057
H -6.7160676299 3.4958076958 -2.3020180907
H -4.4662532496 2.5990116772 -1.7837777781
H -3.3211282061 -2.5261887369 -0.2378146590
H -2.7343332782 -4.2539805810 -1.9365245028
H -3.0140015410 -1.3034900045 -5.0337782980
H -3.6123440154 0.4206966073 -3.3441652018
