24
CONF127
C 1.2526080512 -0.6785876785 2.3456125033
C 0.3786545478 -0.6451445907 1.0976004113
C 0.9898096987 0.2059592749 -0.0158987702
C 0.3003282714 0.0046298781 -1.3808975359
C -1.1486995304 0.4705190596 -1.3496372322
O -1.3955546356 1.6622853671 -1.4347289674
C -2.2500575622 -0.5512872467 -1.3265364605
O -3.5208221831 0.0261812604 -1.2021860401
O 1.0195574720 0.7548454237 -2.3600406424
O 2.3676498648 -0.1210513257 -0.1361373733
O -0.9188577510 -0.1293833784 1.3973320322
O 1.4513246627 0.6423617479 2.8604309438
H 0.7232997361 -1.2373012896 3.1240469350
H 2.2044308873 -1.1776494469 2.1318631538
H 0.2358136361 -1.6764959936 0.7443891068
H 0.8614946077 1.2700782505 0.2543711771
H 0.3746223337 -1.0526232799 -1.6662497400
H -2.0664471228 -1.2662980907 -0.5122236228
H -2.1560940925 -1.1130975086 -2.2769073780
H -3.3890089682 0.9846425421 -1.2757040406
H 0.6374537392 1.6467051386 -2.3467261945
H 2.6682839513 0.2797877379 -0.9649553929
H -0.7791756648 0.6545374076 1.9482585614
H 2.1593860560 1.0463866456 2.3449246879
