47
CONF19
C -1.7327824194 2.3091685994 -0.5514113698
C -2.2727261378 1.6810111555 0.7329245861
C -3.7901748413 1.8208252901 0.8962442944
C -4.5966312241 1.1512852183 -0.1953273951
O -4.3184447877 -0.2843128265 -0.1258588279
C -4.6177762615 -1.0093344325 -1.2020361707
O -5.1324029445 -0.5838644172 -2.2168912166
C -4.2926492299 -2.4926195182 -1.0233907799
C -5.5689505285 -3.2468432533 -0.6763978405
O -3.3654908144 -2.7472200457 0.0325852571
C -2.0777954628 -2.3035174828 -0.1047837330
C -1.5703553681 -1.6737568537 -1.2425173164
C -0.2374454014 -1.2628473816 -1.2621187095
C 0.5650509857 -1.4857917270 -0.1580889464
C 0.0725422054 -2.1191813814 0.9763864390
C -1.2522856090 -2.5253473794 1.0027038469
O 1.9231287736 -1.1374640597 -0.2216548656
C 2.3165698175 0.0293906023 0.3535690294
N 1.4124270349 0.8264942581 0.9003947567
C 1.8404947599 1.9725266105 1.4458877198
C 3.1761303196 2.3439693700 1.4589957904
C 4.1199128453 1.4858116041 0.8781140203
C 3.6911377612 0.3063592363 0.3116692636
C 3.6291687433 3.6168798297 2.0917170589
F 4.3934418977 4.3601762686 1.2474547006
F 4.3990390071 3.3906033106 3.1927167195
F 2.5997058571 4.3980204270 2.4867741231
H -2.1012257284 1.7907759182 -1.4429562350
H -0.6399364690 2.2591098352 -0.5744751835
H -2.0281765829 3.3619200509 -0.6285492847
H -1.7911076754 2.1525163301 1.5977890285
H -1.9974032488 0.6197218243 0.7668817622
H -4.0664803527 2.8834296988 0.8876850136
H -4.1015569052 1.4189794842 1.8677059990
H -5.6729588263 1.2887156724 -0.0509023273
H -4.3288754717 1.5081924990 -1.1930107799
H -3.8937327905 -2.8529431931 -1.9805064841
H -6.3118602971 -3.0966335899 -1.4627805880
H -5.3492498545 -4.3138377194 -0.5944638437
H -5.9741505779 -2.8889606921 0.2742869245
H -2.1843861007 -1.4894378943 -2.1160336551
H 0.1707456790 -0.7665453587 -2.1362966543
H -1.6650776315 -3.0177186583 1.8768540348
H 1.0780100927 2.6112987187 1.8839190819
H 5.1738067058 1.7454349728 0.8726821235
H 4.3766575374 -0.3924664044 -0.1526521097
H 0.7214309957 -2.2849765042 1.8300543816
