63
CONF34
C 2.2153827973 1.3660977296 1.0986694866
C 1.4009760216 0.9900463874 2.3294030374
N 0.9167844232 -0.3893170100 2.2312973892
C 2.0516840755 -1.3119679384 2.1963311098
C 2.8849339409 -1.0689166313 0.9409135056
C 3.3697873671 0.3821614403 0.8990744139
N 4.1179256569 0.6750293328 -0.3180836863
C 3.6571887935 0.6953291583 -1.6308439479
C 2.4237235768 0.4090528242 -2.2015422189
C 2.2965392947 0.5394192608 -3.5871513829
C 3.3697556049 0.9382165571 -4.3806002849
C 4.6147804954 1.2214763066 -3.8143191323
C 4.7395321075 1.0964361233 -2.4423417190
N 5.8141484125 1.3035862984 -1.5959360808
C 5.4635410421 1.0597292042 -0.2716464172
O 6.1709485838 1.1597785945 0.7147665339
C -0.0402165712 -0.6923281554 3.3030437577
C -1.4494992388 -0.2373692533 2.9214339508
C -2.0475103531 -1.1180845763 1.8206797165
C -3.1915714199 -0.4496640932 1.0421046749
C -2.7617161264 0.7413334122 0.1992161052
C -3.7438839564 1.6293554915 -0.2515122245
C -3.4316717999 2.7044905592 -1.0731985292
C -2.1089620225 2.8830215105 -1.4461724902
C -1.1038824609 2.0334417052 -1.0220334801
C -1.4397644982 0.9625502320 -0.1939899893
F -1.7916690606 3.9266186526 -2.2461556587
C -3.9131620723 -1.4837886047 0.1934896744
C -3.3840351885 -1.9069776133 -1.0282309344
C -4.0067934539 -2.8987225802 -1.7773685210
C -5.1748176184 -3.4601451469 -1.2877725066
C -5.7358123075 -3.0667506797 -0.0857757608
C -5.0921046565 -2.0750674192 0.6494239313
F -5.7913725180 -4.4223292310 -2.0128298448
H 2.6134034763 2.3811069914 1.2061535204
H 1.5579294307 1.3628583232 0.2241253785
H 0.5445966612 1.6672308304 2.4174484983
H 2.0187910983 1.1243283855 3.2422497384
H 2.6934164727 -1.2056795765 3.0964753153
H 1.6701492851 -2.3391034395 2.1888161659
H 2.2699576112 -1.2910304658 0.0622013529
H 3.7486380023 -1.7425502474 0.9228430870
H 4.0948145167 0.5270644510 1.7105953733
H 1.5777537186 0.0885415358 -1.6062695571
H 1.3388227510 0.3239102885 -4.0483131401
H 3.2404977886 1.0307893881 -5.4532188470
H 5.4537045376 1.5313265381 -4.4284101216
H 6.7388094545 1.6014799089 -1.8522924506
H 0.2703478090 -0.2361851837 4.2619031251
H -0.0503227475 -1.7786188591 3.4611723526
H -2.0949278714 -0.2622005506 3.8081919732
H -1.4197486406 0.8082893437 2.5933055605
H -1.2601368955 -1.4224952492 1.1205799695
H -2.4320319451 -2.0449003514 2.2631564208
H -3.9174862565 -0.0769541616 1.7791193744
H -4.7787872207 1.4662263055 0.0375752396
H -4.1900723773 3.3950680793 -1.4243534972
H -0.0812355186 2.2130590894 -1.3380078504
H -0.6491321063 0.3077012630 0.1626576233
H -2.4775701363 -1.4438243963 -1.4068560577
H -3.6058392186 -3.2317273522 -2.7281007244
H -6.6550924989 -3.5274327034 0.2578346857
H -5.5184326910 -1.7569825606 1.5970759029
