15
CONF44
N 0.0042289903 1.2013948006 1.6050424680
C -0.2166915023 -0.0751884912 0.9513648679
C 0.9127142521 -0.3885564244 -0.0376716094
S 0.8066819799 0.7638104943 -1.4894438469
S 2.6898114757 0.5683762685 -2.3395467548
C -1.5874323445 -0.2006561463 0.2763269322
O -1.7777107412 -1.4482845162 -0.2258304133
O -2.4154463171 0.6738393133 0.2134325533
H -0.8123819310 1.4427840270 2.1566962380
H 0.0826265807 1.9294705132 0.9008701946
H -0.1828144829 -0.8754309502 1.7071060440
H 0.8367657686 -1.4167810487 -0.3966910846
H 1.8731960433 -0.2286902089 0.4574253182
H 2.4436969205 -0.4896782456 -3.1433369499
H -2.6572449832 -1.4564093852 -0.6357436501
