47
CONF1
C -3.0147006290 -4.2915883098 -0.1765816624
C -2.7787002560 -2.8237090867 0.1993541080
C -4.1284969482 -2.1145593311 0.3442199967
C -1.8657681680 -2.1498372567 -0.8375530561
C -0.5547901856 -2.8970397915 -1.1200978080
C 0.2906064333 -1.8493993855 -1.8369568555
C 0.0770934736 -0.5692863907 -1.0114973867
C 1.1063381298 -0.4562960641 0.1300266741
C 1.1545931142 0.8969576320 0.7952223179
C 0.8470885598 1.0610833108 2.1484941723
C 0.8944383753 2.3119135957 2.7587040269
C 1.2606236487 3.4116310620 1.9949671429
Cl 1.3040333935 5.0074940242 2.7462024737
C 1.5890954735 3.2872600746 0.6514003507
C 1.5334435754 2.0276593038 0.0647121680
C -1.4141552171 -0.6794001248 -0.5151541347
O -1.5504615220 -0.4648680315 0.8876051157
C -2.3106289072 0.3013955856 -1.2984322594
N -1.9614111176 1.7019769228 -1.0848728820
C -1.4821300761 2.6013701974 -1.9653070085
N -1.3003912943 3.7777176922 -1.3746649842
C -1.6863293335 3.5326449419 -0.0946142422
N -2.1008970546 2.2905762104 0.1317885482
H -3.7066462959 -4.7578391634 0.5326853012
H -3.4585249810 -4.3666576398 -1.1773394277
H -2.0880360012 -4.8719820102 -0.1718256398
H -2.2662502405 -2.7959047204 1.1689514098
H -4.0116676125 -1.0905699321 0.7058905632
H -4.6534791091 -2.0879681600 -0.6192323511
H -4.7659234166 -2.6515379372 1.0550112796
H -2.4249773204 -2.1115160176 -1.7861254911
H -0.0815124984 -3.1955486618 -0.1749079364
H -0.7062274712 -3.7998332029 -1.7176736783
H -0.0981883501 -1.7064911815 -2.8532247861
H 1.3485652439 -2.1171294975 -1.9211135401
H 0.1971256894 0.3150723875 -1.6475719276
H 2.0917788538 -0.6536585794 -0.3105802112
H 0.9266754623 -1.2289215257 0.8826938839
H 0.5569922399 0.1972058057 2.7391724601
H 0.6474471805 2.4259099625 3.8083247964
H 1.8760078244 4.1566862225 0.0707489209
H 1.7916777821 1.9299040326 -0.9863466588
H -3.3583050053 0.1610627022 -1.0177502477
H -2.2056320027 0.1115611125 -2.3705466595
H -1.2957321744 2.3605619621 -3.0039897128
H -1.6667006885 4.2770912111 0.6911772146
H -1.4829472079 0.4887368696 1.0552839540
