61
CONF4
C -1.3677315056 3.4508372262 -0.7705290581
O -1.9272239683 2.1331064338 -0.6518339570
C -1.6016172078 1.1955994833 -1.5885628507
C -0.6184422091 1.4257145622 -2.5536753129
C -0.3090856383 0.4527407917 -3.4945745979
C -0.9797853712 -0.7617534101 -3.4615025035
Cl -0.5710457661 -2.0060739924 -4.6309478787
C -1.9494480224 -1.0096156453 -2.5072295727
C -2.2862876079 -0.0404632850 -1.5593230777
C -3.3515079955 -0.4628912863 -0.5783543833
O -3.7465503069 -1.6273691459 -0.5424625397
N -3.8593377016 0.4916541738 0.2428914242
C -4.7197444333 0.1354656701 1.3589225230
C -4.0282518942 -0.7793137333 2.4011639225
C -2.6104712877 -0.3531984292 2.6575016513
C -1.5522871806 -1.0726519438 2.0965028651
C -0.2365821842 -0.6631744073 2.2685355747
C 0.0170993113 0.4943445898 2.9969452050
C -1.0153218889 1.2334575552 3.5694971913
C -2.3230003487 0.7988692377 3.3975241794
S 1.7067024565 1.0451677847 3.2175288896
O 2.5835646809 -0.1277052990 3.0971175612
O 1.7560056619 1.9474569142 4.3676132302
N 2.0601939041 2.0498588281 1.8763055774
C 2.0647973479 1.6630397071 0.5039631532
O 1.7572949139 2.4982451088 -0.3401329129
N 2.4545504561 0.3968975808 0.2621132362
C 2.4930474126 -0.1757328995 -1.0857924471
C 1.6663664271 -1.4668128019 -1.1338767245
C 2.3190587151 -2.5983810090 -0.3352876631
C 3.7500893897 -2.8519929929 -0.8174681172
C 4.5910263778 -1.5747630227 -0.7406431597
C 3.9394854360 -0.4360629393 -1.5304439272
H -0.2822244549 3.4263059745 -0.6366890086
H -1.6312056217 3.8915883060 -1.7393249642
H -1.8296764689 4.0301157428 0.0302787488
H -0.0632429233 2.3542706401 -2.5608120644
H 0.4571485196 0.6388793148 -4.2387119819
H -2.4736971336 -1.9570248158 -2.4644056599
H -3.3843737609 1.3817122163 0.2610400440
H -5.6169103815 -0.3711951891 0.9877983883
H -5.0302620147 1.0728495051 1.8311618696
H -4.6156464354 -0.7446551067 3.3259302661
H -4.0391462303 -1.8055775920 2.0295795131
H -1.7652136731 -1.9661353602 1.5173182562
H 0.5802317545 -1.2432416518 1.8569244875
H -0.7895475834 2.1138798007 4.1610744000
H -3.1341229118 1.3590243136 3.8551690697
H 1.6980554463 2.9896327419 1.9965675808
H 2.7984794604 -0.1455966965 1.0435522724
H 2.0388622759 0.5735417644 -1.7389223203
H 1.5825743412 -1.7756644943 -2.1836959508
H 0.6479705805 -1.2604312339 -0.7834948487
H 2.3418823802 -2.3516357283 0.7368511339
H 1.7166308494 -3.5090813161 -0.4250057021
H 3.7195572630 -3.2012845030 -1.8590912466
H 4.2149692750 -3.6494236717 -0.2272867140
H 4.7155861903 -1.2807836904 0.3114562751
H 5.6008478015 -1.7590361108 -1.1236952202
H 4.5197675699 0.4887032386 -1.4398289313
H 3.9171476487 -0.7042356658 -2.5950863703
