45
CONF292
C 7.3480490239 -0.8731217791 3.0053575569
C 6.3570847853 -0.2684725039 2.0127518296
C 4.9042252861 -0.4755625951 2.4443878345
C 3.8687100149 0.2082766770 1.5458415098
C 3.8037853482 -0.3611273939 0.1272597093
C 2.7791206021 0.3315365212 -0.7763218249
C 1.3250575671 0.1284184224 -0.3527023666
C 0.3340883161 0.7626344997 -1.3423782489
C -1.1052060449 0.6014704355 -0.9291332919
C -1.6617869450 1.5310660027 -0.0535663753
N -2.9604933640 1.3366850722 0.2911593415
C -3.7160100963 0.2635081371 -0.1856245056
N -4.9431888695 0.3547983426 0.3432516186
C -4.8665107731 1.4630404453 1.1068629577
N -3.6956538616 2.1126615422 1.1288916986
N -3.1969874764 -0.6457003067 -1.0087163375
C -1.9214604574 -0.4753006355 -1.3611030365
C -1.3921705431 -1.5023979656 -2.3290768719
C -1.6617530501 -1.0832522319 -3.7811437211
N -1.0555588163 2.6394141766 0.4507217300
H 7.1834400115 -1.9505433106 3.1146655819
H 7.2374826299 -0.4195460399 3.9962234678
H 8.3825752763 -0.7240343313 2.6818905961
H 6.5230079227 -0.7112359499 1.0234783693
H 6.5498517528 0.8076390415 1.9056423259
H 4.7876387921 -0.0981216469 3.4690166469
H 4.6897976941 -1.5526277593 2.4904466893
H 4.0899726212 1.2843409752 1.4919690128
H 2.8846936107 0.1176801808 2.0219729095
H 3.5758648034 -1.4353066367 0.1786754238
H 4.7897883444 -0.2778240011 -0.3443948754
H 2.8978726000 -0.0415686435 -1.8024439318
H 3.0006162441 1.4079759957 -0.8162182420
H 1.1082538464 -0.9449323358 -0.2708539372
H 1.1533078938 0.5425623051 0.6492326934
H 0.5685173963 1.8294399913 -1.4633231177
H 0.4894131132 0.3267530078 -2.3334227863
H -5.7027609360 1.8329753858 1.6874892235
H -1.9091432682 -2.4429601774 -2.1214279177
H -1.2962196961 -1.8426738754 -4.4785149068
H -0.0512888935 2.6551997652 0.4796235695
H -1.5445481056 3.1088247566 1.1990873703
H -2.7361788742 -0.9562467242 -3.9387122769
H -0.3219602866 -1.6716502952 -2.1759127042
H -1.1715106544 -0.1338809972 -4.0207028349
