82
CONF451
C -4.8804613761 -0.3128675254 -2.9841439627
C -5.0834288786 0.5563792554 -1.7700227976
C -6.3154165140 0.9058470379 -1.3862653685
C -3.7884654919 1.0042773517 -1.1207259903
C -3.8667047354 2.0783317123 -0.0031515073
C -3.0454260826 1.5454304925 1.1872783861
C -3.0735352885 0.0166915129 1.0264625287
C -2.9682599912 -0.1819037500 -0.5050254234
C -1.5216521398 -0.2519834644 -1.0657161251
C -0.7730791385 1.0803041117 -1.1571028895
C 0.5023383451 0.9192378282 -1.9763047691
C 1.5182275443 -0.0652600002 -1.3689813789
C 2.6127759927 0.6563014092 -0.4606774644
C 2.0465348904 1.6947740756 0.5290620973
C 3.1163441997 2.3375767407 1.4186728391
C 3.9025153153 1.3079832448 2.2251517810
C 4.5124711170 0.1982255847 1.3306330417
C 3.4662095058 -0.3987343359 0.3169356931
C 2.5501902500 -1.4448930006 0.9623154473
C 1.7638188624 -2.2300640386 -0.0781064551
C 0.7999439702 -1.4144293251 -0.9597235489
C -0.6598726577 -1.2982534416 -0.3073081489
C -0.6222585734 -0.8794429870 1.1774577288
C -2.0007621740 -0.7358967972 1.8347331019
C -1.3669436222 -2.6700221105 -0.3893933256
C 0.6592588951 -2.2144747445 -2.2834720162
C 5.7336417170 0.7987356224 0.5992590652
C 5.0991390990 -0.9025552681 2.2332146323
O 3.0974246227 0.7952573226 3.3102443690
C 3.4924857884 1.4022110780 -1.5002530768
C -4.4528148538 -0.5100096570 1.4713976722
O -4.7219031566 -0.3105917861 2.8673950826
H -5.8322903884 -0.6137035453 -3.4283796281
H -4.3118915199 -1.2176609686 -2.7387122723
H -4.2942559964 0.2251283623 -3.7399526763
H -6.5088111183 1.5468080017 -0.5326739567
H -7.1837453931 0.5471110488 -1.9320484137
H -3.2063944894 1.4023603660 -1.9598504851
H -3.4900842960 3.0418117496 -0.3605915852
H -4.8994760863 2.2468405070 0.3099087310
H -2.0148824389 1.9097430089 1.1539825232
H -3.4646121169 1.8485143307 2.1525019684
H -3.4486429030 -1.1296753335 -0.7698441602
H -1.6437026718 -0.6025921520 -2.1027025575
H -1.3938440628 1.8443176984 -1.6363746388
H -0.5340967887 1.4653956977 -0.1642664813
H 0.9584049037 1.9016785180 -2.1312465725
H 0.2182132160 0.5627589025 -2.9756895885
H 2.1534637136 -0.3958827119 -2.2003685445
H 1.2887414716 1.2341433191 1.1709291335
H 1.5260109284 2.4839717360 -0.0248023229
H 3.8124759901 2.9304406340 0.8175069298
H 2.6434688334 3.0374070201 2.1176888188
H 4.7352633338 1.8079143907 2.7375657962
H 4.0594980472 -0.9417447062 -0.4367613840
H 3.1493839043 -2.1646949741 1.5239472950
H 1.8785955318 -0.9773659941 1.6845946052
H 1.2272562418 -3.0545632768 0.4051351450
H 2.5018364357 -2.7038153464 -0.7417548155
H -0.0659989011 -1.6261905280 1.7530841570
H -0.0790071008 0.0606927457 1.2827358483
H -2.3795630809 -1.7405275315 2.0649415732
H -1.8690335588 -0.2390595713 2.8049880661
H -2.2659119034 -2.6898877748 0.2288301587
H -0.7218756392 -3.4802903929 -0.0367408826
H -1.6797118231 -2.8999110389 -1.4114759203
H 1.6213376783 -2.2316274621 -2.8042241596
H -0.0818660607 -1.7841573047 -2.9630140083
H 0.3795232542 -3.2530549856 -2.0918251732
H 5.5180174444 1.7039222727 0.0350541446
H 6.1531010285 0.0631603173 -0.0955295251
H 6.5094004536 1.0466058810 1.3319890446
H 4.3663194099 -1.3258564485 2.9198609387
H 5.9104907623 -0.4804526972 2.8368673863
H 5.5187899502 -1.7109218183 1.6226973697
H 2.2425487517 0.5231892563 2.9557130075
H 2.8806597306 1.8021920518 -2.3124181920
H 4.2245892106 0.7201526375 -1.9446084793
H 4.0321794836 2.2491593531 -1.0788585317
H -5.2555059895 0.0093103935 0.9425819554
H -4.5210951254 -1.5803692158 1.2187091237
H -4.0956075018 -0.8469062741 3.3690628531
