44
CONF1
C -1.7852118264 -3.2209625196 0.7679910197
C -0.5948975859 -2.5953750072 0.0387509978
C -0.6946397410 -2.9807201889 -1.4466438834
C 0.7548060827 -3.0554636773 0.6107924074
C 1.7681857011 -2.0647371193 0.0337751945
C 1.0307243010 -0.7051525776 -0.0302296774
C 1.3670979257 0.0701235301 -1.3157689477
C 1.0046094130 1.5328760409 -1.2927246642
C 0.0175386822 2.0528221645 -2.1319351731
C -0.3149354911 3.4030635035 -2.1093967256
C 0.3550427282 4.2439734761 -1.2310770886
Cl -0.0777731917 5.9460050364 -1.1671811038
C 1.3503412928 3.7635306036 -0.3897710460
C 1.6667680780 2.4113176901 -0.4317179400
C -0.4994579333 -1.0353222055 0.1661480769
O -1.3584502859 -0.4542494949 -0.8019217451
C -0.9584915921 -0.5952567463 1.5752055150
N -0.8009431448 0.8323561614 1.8102147569
C -0.0224912926 1.4858817373 2.7003299222
N -0.1989486998 2.7940710553 2.6004980537
C -1.1149396070 2.8942839210 1.6022916476
N -1.5155741338 1.7339142184 1.0929798356
H -1.8315484538 -4.2914194273 0.5419909298
H -1.7135415282 -3.1244014723 1.8559893135
H -2.7271593336 -2.7711418146 0.4358343791
H 0.0925430656 -2.5264878435 -2.0520514734
H -1.6531154744 -2.6644651190 -1.8623627121
H -0.6119253131 -4.0686414599 -1.5422807325
H 0.9742315558 -4.0958078985 0.3495149007
H 0.7403321068 -2.9987586023 1.7072602185
H 2.0609022110 -2.3746461517 -0.9754472670
H 2.6878929823 -2.0053293192 0.6237907786
H 1.3599254127 -0.0852470184 0.8127006833
H 0.8841446586 -0.4130793981 -2.1697516673
H 2.4514696716 -0.0159464360 -1.4673982163
H -0.5092363514 1.3867952544 -2.8084650038
H -1.0870020856 3.7965872366 -2.7603569531
H 1.8574951893 4.4322874857 0.2956288802
H 2.4467360566 2.0369139973 0.2263346930
H -1.5379292843 0.4655466706 -0.5410585900
H -0.3785115974 -1.1100749504 2.3470016269
H -2.0165578844 -0.8399695515 1.7032551529
H 0.6323045900 0.9737159128 3.3934218371
H -1.4998100957 3.8365898060 1.2358398846
