45
CONF5
C 8.3317612345 -0.1499216315 4.4510746042
C 7.8173575299 -0.8773798575 3.4622031077
C 7.7323607353 -0.3289020010 2.0928862081
O 8.0912893361 0.7734854479 1.7402543873
O 7.1854544078 -1.2486096622 1.2524539188
C 7.0336203825 -0.8264323932 -0.1172705447
C 5.8548903887 0.1192477434 -0.3256705900
C 4.5116488311 -0.5225183896 -0.0412037837
C 3.3134789523 0.3937585813 -0.4422896941
C 1.9041900981 -0.2934608031 -0.4113715392
C 0.7168132923 0.7343913283 -0.3808557796
C -0.6571606274 0.0991302968 -0.8002622921
C -1.8929518565 0.9598637983 -0.3535102485
C -3.2079613181 0.5898724688 -1.1293675919
C -4.5083273351 1.0910856661 -0.4076421230
C -5.7600980815 1.1252097410 -1.3497498960
C -7.1254500411 1.1956700752 -0.5900268394
F -7.1029985600 2.1839209118 0.3155219928
F -7.3944916565 0.0402579240 0.0257404689
F -8.0977726772 1.4422853707 -1.4778885980
F -5.6806266995 2.2119450983 -2.1458786858
F -5.7772331660 0.0107334956 -2.1172385495
F -4.7720168684 0.2674251602 0.6317038480
F -4.2972660158 2.3410530256 0.0629875920
F -3.1556397406 1.1473951704 -2.3596168697
F -3.2792337205 -0.7544094335 -1.2517635796
F -2.1012998219 0.7641359860 0.9676624444
F -1.6188940946 2.2649135067 -0.5734756881
F -0.6831289223 -0.0241932121 -2.1465957660
F -0.7634578608 -1.1251454814 -0.2381686915
F 0.9929404113 1.7503177988 -1.2292001329
F 0.6010456464 1.2232911682 0.8747666476
F 1.7798247038 -1.0604736617 -1.5202729281
F 1.8121917834 -1.0808805182 0.6809981279
F 3.5259243686 0.8461265160 -1.7056186928
F 3.3061582143 1.4598051190 0.3991974356
F 4.3876411385 -0.8156306552 1.2842008401
F 4.3783301155 -1.6965611172 -0.7378492061
H 8.6952967835 0.8550468322 4.2589028290
H 8.3992117149 -0.5385225302 5.4611110815
H 7.4418257484 -1.8840583316 3.6140336709
H 6.8999252279 -1.7509359166 -0.6816537771
H 7.9471033761 -0.3206786928 -0.4437455522
H 5.8662182121 0.4405398183 -1.3713685786
H 5.9619660561 1.0085927756 0.3008858632
