34
CONF1
C -4.9795154527 -0.0320013048 0.1758840231
C -4.6455803246 -1.3866421262 0.2383651387
C -3.3094078903 -1.7954991621 0.2122612134
C -2.3144780272 -0.8312827438 0.1228218651
C -2.6558258751 0.5566839363 0.0586295903
C -3.9884953263 0.9491842874 0.0855320279
C -1.4124695731 1.3338697312 -0.0277780938
C -1.0720483971 2.6878150143 -0.1126632345
C 0.2779335812 3.0572674927 -0.1784015315
C 1.3229713037 2.1081229371 -0.1620893266
C 2.7213795998 2.4090763211 -0.2245767776
C 3.6566906324 1.4107261986 -0.2009400107
C 3.2958292309 0.0218202014 -0.1134730166
C 4.2323477929 -1.0224660854 -0.0869704173
C 3.8060290854 -2.3463658022 -0.0010044504
C 2.4519534896 -2.6702690790 0.0609808838
C 1.4710269040 -1.6655638099 0.0385081960
C 1.9178904555 -0.3090613590 -0.0505827584
C 0.9683883492 0.7350332283 -0.0760630412
C -0.3740093843 0.3972677088 -0.0128850556
C -0.8499696854 -0.9449270862 0.0774408931
C 0.0620493986 -1.9668133554 0.1024674100
H -6.0239650064 0.2632907901 0.1978583573
H -5.4329322461 -2.1305233006 0.3082787460
H -3.0555998817 -2.8503896066 0.2615500508
H -4.2583915718 2.0000694980 0.0376970661
H -1.8361554785 3.4594450903 -0.1283812187
H 0.5337414047 4.1111738684 -0.2442416487
H 3.0346535159 3.4473233963 -0.2910621242
H 4.7135528346 1.6583579412 -0.2492341105
H 5.2930361503 -0.7926854749 -0.1340537909
H 4.5433588802 -3.1427453148 0.0183179895
H 2.1455897793 -3.7103547812 0.1279129467
H -0.2395796674 -3.0089377494 0.1698939094
