31
CONF30
C -3.5558510476 -0.2083364831 1.3722905950
C -3.4618171522 -1.6046000344 1.2766584666
C -2.5517208137 -2.1906416255 0.4173982891
C -1.7146018745 -1.3762940262 -0.3581165015
C -1.8123312764 0.0214716561 -0.2632734395
C -2.7389878438 0.6036443651 0.6054852709
C -0.9297194326 0.8374448833 -1.0811322282
N -0.0282550228 0.0466514587 -1.8273714466
N -0.0093279896 -1.3209040559 -1.8991310909
N -0.8139432839 -2.0048763640 -1.2117384080
C 1.0212066060 0.6889506800 -2.5847751800
S 2.7567996302 0.3949918848 -1.9426556604
P 2.5730981388 0.4729719390 0.1666441170
S 4.3465042508 0.5539764122 0.9251210078
O 1.5009976834 1.6233975015 0.4972367308
C 1.8665154065 3.0061855274 0.2906475408
O 1.6122856705 -0.7432562153 0.6116469463
C 2.1312333916 -2.0925040229 0.5466450648
O -0.9387459101 2.0551397999 -1.1551203866
H -4.2754178871 0.2359573135 2.0517732244
H -4.1111986454 -2.2287508027 1.8816219256
H -2.4626040213 -3.2672303996 0.3215627248
H -2.7931199340 1.6850818879 0.6606898775
H 1.0440619730 0.2917019506 -3.6030829901
H 0.8115892009 1.7583369784 -2.5883934079
H 2.6254223243 3.3032200601 1.0197944958
H 0.9461912888 3.5730336332 0.4278142735
H 2.2468320641 3.1575803189 -0.7251917794
H 3.0208318698 -2.1839766490 1.1762279896
H 1.3295911793 -2.7313569885 0.9177383523
H 2.3644821501 -2.3570109012 -0.4895144655
