57
CONF81
C -4.4064250051 -2.0508135640 2.4177050710
C -3.4708328143 -1.9861814874 1.2188067893
C -2.5252558142 -0.7913769746 1.2831193678
O -2.5200554200 -0.0452216481 2.2658430481
N -1.7029173663 -0.6000738760 0.2014944135
C -1.7689507165 -1.5213515597 -0.8994340747
C -2.5719290917 -1.2389106865 -2.0032000481
C -2.6328598577 -2.1391558020 -3.0632780446
C -1.8937260148 -3.3198451118 -3.0237751491
C -1.0901382667 -3.5990922927 -1.9201515439
C -1.0257039923 -2.7005158874 -0.8591939368
C -0.7520176571 0.5707911459 0.1355840875
C 0.2466832207 0.4905520125 1.3077271989
C 1.4064069798 1.4766613917 1.1896471512
N 2.1196057764 1.3180708771 -0.0802931365
C 1.1939255017 1.5219683609 -1.1980538521
C 0.0646195708 0.4979307926 -1.1673008637
C 3.2517853129 2.2381663848 -0.1876692837
C 4.3883922255 1.9322974420 0.7994520896
C 4.8666469436 0.5177070066 0.7453771979
C 4.8270229013 -0.4353247568 1.7282445022
C 5.3440019969 -1.6994117534 1.3249911405
C 5.7766025656 -1.7090813572 0.0292250478
S 5.5529654280 -0.1555540894 -0.7148176652
C -1.5547654930 1.8752606731 0.1934118009
O -2.4375337727 1.9391482049 -0.9236987649
C -3.2176413551 3.1294791130 -0.8997570504
H -3.8457361890 -2.1365396255 3.3519308293
H -5.0640988793 -2.9201872978 2.3284778481
H -5.0278176158 -1.1535825871 2.4822388940
H -2.8722789494 -2.9021973867 1.1492668555
H -4.0392682712 -1.9394388539 0.2828145609
H -3.1370150463 -0.3127728593 -2.0186791875
H -3.2597300851 -1.9178125865 -3.9215318432
H -1.9433488000 -4.0206768061 -3.8511673808
H -0.5103777461 -4.5161868055 -1.8852989858
H -0.4019727998 -2.9053255473 0.0059107227
H 0.6509495769 -0.5291072376 1.3215780220
H -0.2696904125 0.6565282473 2.2550327213
H 2.0972768810 1.2788073864 2.0159160669
H 1.0473538741 2.5182179226 1.3156344737
H 1.7500849104 1.3941822816 -2.1341644450
H 0.7891241369 2.5537622808 -1.2068437430
H -0.5819642051 0.6470160973 -2.0356815628
H 0.5116161471 -0.4977119595 -1.2517930057
H 3.6462978669 2.1595505869 -1.2087965669
H 2.9373300848 3.2912366120 -0.0434198012
H 5.2078495674 2.6264946065 0.5757119090
H 4.0792012432 2.1421107624 1.8283817080
H 4.4320320543 -0.2299963471 2.7173622180
H 5.3926428425 -2.5676260010 1.9721702329
H 6.2126672598 -2.5234450114 -0.5336880391
H -2.1223754991 1.9239211295 1.1303709991
H -0.8638420863 2.7305221280 0.1698691750
H -3.8316494969 3.1842087202 0.0115821760
H -2.5791320714 4.0244322195 -0.9487456620
H -3.8720348766 3.1063713758 -1.7744453167
