27
CONF160
C -2.4828138975 -0.4685967114 0.7334249603
C -3.9347302054 -0.1692898888 1.1214104604
O -4.1233581027 1.1397198319 1.6630000698
C -2.0347809983 0.2402108336 -0.5195372511
C -0.6279991671 -0.1632596447 -1.0708708564
C 0.5551456339 -0.0456696662 -0.0550188621
C 1.9699354466 -0.0453416345 -0.7349618490
C 3.1317085204 -0.3947493622 0.2568633419
C 4.5527570952 0.0104865406 -0.2564331810
F 4.7452524193 -0.4447218658 -1.5022998239
F 5.4722933537 -0.5345426404 0.5516278236
F 4.7083204100 1.3380012248 -0.2437075851
F 3.1391547135 -1.7285683320 0.4675314179
F 2.9267874058 0.2389290847 1.4349282582
F 1.9839282341 -0.9544381869 -1.7363575344
F 2.1973105396 1.1823192528 -1.2552294152
F 0.4268962734 1.1012600003 0.6504291708
F 0.4876037741 -1.0941847369 0.8024406232
F -0.6976915815 -1.4510141330 -1.4902448037
F -0.3487362387 0.6236709106 -2.1433849907
F -2.0337112310 1.6037726024 -0.3598496548
F -2.8978466118 -0.0194152668 -1.5578572050
H -1.8186771637 -0.1909822904 1.5572629944
H -2.3769162780 -1.5456642511 0.5614479686
H -4.6049768030 -0.3464047136 0.2712391277
H -4.2086191240 -0.8682768875 1.9159731536
H -4.1062368031 1.7761263282 0.9381737530
