45
CONF75
C -3.9421990941 3.3213995121 -1.7169124043
O -3.2531193464 2.0506013186 -1.8094163100
C -3.1850341879 1.3609548267 -0.6499237941
O -3.6207100214 1.7447971230 0.4216272134
N -2.5178208488 0.1773553611 -0.8407563937
C -2.1459912930 -0.4216824313 -2.0746923859
C -3.1291969812 -0.7140367771 -3.0206322518
C -2.7772207373 -1.3166525299 -4.2224315187
C -1.4466474277 -1.6461266281 -4.4723731566
C -0.4718464022 -1.3596761707 -3.5223603156
C -0.8014168360 -0.7408223557 -2.3154992545
C 0.2701335928 -0.4409092980 -1.3151351274
O 0.5201415016 -1.6639378368 -0.5655767892
C 1.3479904248 -1.5380445261 0.4857137402
N 1.9456582681 -0.3978103531 0.8141621181
N 2.6837549215 -0.7148667877 1.9200847065
C 2.5383450881 -2.0273835849 2.2667941934
C 1.6805351860 -2.6001679723 1.3596258132
C 3.4434786709 0.2779764905 2.5691535788
C 4.4589653769 -0.0837200165 3.4589502783
C 5.1946126326 0.8973938214 4.1112207271
C 4.9206950748 2.2353882146 3.8551006840
C 3.9246094211 2.6103027597 2.9622807554
C 3.1808338797 1.6279057237 2.3206413596
Cl 5.8591344846 3.4795899366 4.6737660936
O -2.2872882973 -0.5787734483 0.3107896514
C -3.3403994253 -1.5544358654 0.4925383569
H -3.9156893028 3.7306306113 -2.7260683020
H -4.9742696752 3.1708501703 -1.3918219808
H -3.4231000466 3.9844127256 -1.0209396251
H -4.1627757348 -0.4630368298 -2.8063647363
H -3.5440911799 -1.5397114711 -4.9571413042
H -1.1690550892 -2.1224371175 -5.4070151844
H 0.5681209387 -1.6050308441 -3.7186104673
H -0.0301680492 0.3522667597 -0.6246460820
H 1.1980976248 -0.1458787047 -1.8177552432
H 3.0254446253 -2.4497886821 3.1322596225
H 1.3315221772 -3.6202195285 1.3290530262
H 4.6972996987 -1.1246882147 3.6416490129
H 5.9827801922 0.6159029352 4.8000121551
H 3.7199451389 3.6575659885 2.7711531711
H 2.3939055783 1.9091872807 1.6326328933
H -3.3721662386 -2.2488839891 -0.3543866364
H -3.0695728708 -2.0908287214 1.4038875367
H -4.3062253219 -1.0540700650 0.6173621679
