36
CONF86
C 2.3651770363 3.8084862297 -1.7727510646
C 1.1481891681 2.9354046372 -1.4406634563
C 1.5452568128 1.5716963904 -0.9673917519
C 1.2434653769 0.4273906687 -1.5799157341
C 1.6572023497 -0.9325486559 -1.1084089191
C 0.4629753279 -1.8102140142 -0.7131949356
C -0.4907975654 -1.2641267063 0.3571428041
C -1.7693136305 -2.1003131357 0.1574604487
C -1.8956321748 -2.2151138099 -1.3646434798
C -0.4636477406 -2.1506498077 -1.8825627091
O -0.1126452749 -2.3192530887 -3.0271290256
C 0.0859625153 -1.3226403346 1.7754918191
C -0.9261736319 -0.8591419382 2.7920929863
O -1.5558174885 -1.5744765584 3.5362879571
O -1.0792532783 0.4871131671 2.7402301620
C -2.0717222307 1.0192706426 3.6427061306
H 2.9520973371 3.3587031564 -2.5790006309
H 3.0194594520 3.9143102038 -0.9011691625
H 2.0576849120 4.8103703835 -2.0871867020
H 0.5007842854 2.8437885123 -2.3203651059
H 0.5561665130 3.4327465192 -0.6599337030
H 2.1520671798 1.5381263349 -0.0593183711
H 0.6451076121 0.4560759206 -2.4922458776
H 2.3434695348 -0.8415926562 -0.2585151560
H 2.1946082473 -1.4533563372 -1.9110328402
H 0.8441616472 -2.7869614448 -0.3661460437
H -0.7085976507 -0.2149236346 0.1150315643
H -2.6447832441 -1.6490808839 0.6322473532
H -1.6303705432 -3.0913798578 0.6076237302
H -2.4223195188 -1.3487367916 -1.7876395297
H -2.4068981575 -3.1092248673 -1.7307286991
H 0.3608366188 -2.3508554080 2.0284503099
H 0.9763038382 -0.6872865381 1.8366456475
H -2.0719263616 2.0959862698 3.4740808658
H -1.8068451953 0.7894877806 4.6779768007
H -3.0542317976 0.5929190334 3.4233979121
