110
CONF1
C -2.8611780962 -0.2268610982 -1.3661093163
N -3.6821545641 -0.7995113189 -2.4525734089
C -3.0302086856 -2.0574685301 -2.8721865038
C -2.1978302753 -2.4932140840 -1.6500405169
C -2.5400226856 -1.4768881979 -0.5290788593
C -1.4170692381 -1.3133103287 0.4585085425
C -0.1175678529 -0.8930384940 0.2493832086
C 0.8206188000 -0.9055120502 1.2872493900
C 0.3853466349 -1.3468716846 2.5553033419
O 1.3234515816 -1.3105802421 3.5497326490
C 0.9913831013 -1.8537772924 4.8328649544
C -0.9182129590 -1.7986127385 2.7814039037
C -1.8173941096 -1.7645703199 1.7142174437
N -3.1494929432 -2.1274242912 1.7256426208
C -3.5943831677 -3.2072848685 2.5961136252
C -3.7337549381 -1.9720970394 0.3822019410
C -4.9601550207 -0.9936150015 0.3671410512
O -5.7130159627 -1.1876906932 -0.8186775100
C -4.4242279049 0.4373513416 0.5445563302
O -5.4648530996 1.3849642520 0.7928149221
C -3.5749457817 0.9423217935 -0.6565708854
C -2.5285626811 1.9281299929 -0.0519295015
C -1.6918478568 2.7262751918 -1.0474580728
C -4.4001755147 1.7161905822 -1.6586123642
C -4.5203204500 1.4052434713 -2.9482274922
C -3.9617703654 0.1430628664 -3.5272911585
C -5.8966371659 -1.3177592974 1.5474177040
N -6.8411005793 -2.2359204883 1.2769745837
O -5.7622774219 -0.7881561333 2.6557922854
C 2.2581639938 -0.4019256805 1.0598512991
C 2.6747496444 -0.6658304944 -0.4213451306
C 4.1667896964 -0.5979497533 -0.7693893766
C 4.7258158227 0.8259347505 -0.6719888225
N 4.1155561219 1.6268203231 -1.7055637050
C 4.5194782590 1.2488119093 -3.0337931579
C 4.0377090265 -0.1860177016 -3.3561475953
O 4.7808443973 -0.6997696644 -4.4901338864
C 2.5445977661 -0.1546706283 -3.7217940642
C 1.8591274496 -1.5101160876 -3.8702867536
C 4.4380645580 -1.1190213133 -2.1980168885
C 3.4065909874 2.8404028738 -1.3930481604
C 2.0550102509 2.6071887020 -0.6724414922
C 2.1577821006 2.2627011360 0.7851347136
C 2.2901779346 1.0617821066 1.4758994024
N 2.3249496331 1.3381054193 2.8341248914
C 2.2529713279 2.6840492835 3.0533570349
C 2.2727210189 3.4117771870 4.2430069757
C 2.1829866821 4.7949775862 4.1456957043
C 2.0774270713 5.4317581015 2.8944314884
C 2.0598927585 4.7001538982 1.7141190068
C 2.1486068962 3.3010032061 1.7802080192
C 3.2709037116 -1.2324456125 1.8693473108
O 4.1932596799 -0.7922876874 2.5231403301
O 3.0782076274 -2.5436830972 1.6504885764
C 4.0111462335 -3.4265729936 2.3160798387
H -1.9096155012 0.1468406910 -1.7835095794
H -2.3807623772 -1.8877344101 -3.7442488291
H -3.7936080237 -2.7899161475 -3.1575273133
H -1.1298016896 -2.4158734677 -1.8746630693
H -2.3982595110 -3.5198575726 -1.3345435502
H 0.1762957264 -0.5631064101 -0.7421525793
H 1.8963439020 -1.7570109242 5.4337511638
H 0.1765969476 -1.2887302511 5.2996227848
H 0.7125555531 -2.9102956690 4.7490760509
H -1.2276684870 -2.1488898219 3.7570748340
H -3.4782528604 -2.9240016934 3.6470422668
H -4.6529689429 -3.4072093888 2.4253991264
H -3.0273963138 -4.1344472834 2.4147806782
H -4.1110254090 -2.9386206140 0.0196319349
H -5.0495002181 -1.0837162887 -1.5780352139
H -3.7591396726 0.3946700894 1.4195907493
H -5.7930307355 1.1860231486 1.6813339044
H -3.0846046682 2.6238008023 0.5883085687
H -1.8656809904 1.3528095872 0.6055177332
H -2.3180833313 3.3463319333 -1.6954499591
H -1.0802287739 2.0813602269 -1.6866772410
H -1.0075424968 3.3860685996 -0.5046670069
H -4.8434070189 2.6357876792 -1.2866104185
H -5.0545597763 2.0666248758 -3.6255252686
H -3.0498332613 0.3558753574 -4.1210321395
H -4.6852424161 -0.3103349040 -4.2179177273
H -6.9734251274 -2.5460198858 0.3267305751
H -7.5199995879 -2.4740230276 1.9834048049
H 2.1398897162 0.0338601479 -1.0578519840
H 2.3113817383 -1.6683737421 -0.6620296694
H 4.7313817569 -1.2524830792 -0.0910651840
H 5.8257126240 0.7830007261 -0.8016466405
H 4.5262168441 1.2624041754 0.3094804639
H 4.1051921550 1.9479536004 -3.7711182667
H 5.6231068570 1.2560135760 -3.1439553127
H 4.4960744163 -0.2059008064 -5.2704779885
H 2.0095389846 0.4604828415 -2.9909901297
H 2.4719314466 0.3941460545 -4.6726029523
H 1.7491706734 -2.0183789852 -2.9078755984
H 2.4239973900 -2.1676225980 -4.5391959185
H 0.8563156949 -1.3837197497 -4.2912979268
H 5.5237699076 -1.2536961618 -2.2918909556
H 3.9853678796 -2.1065529017 -2.3433802088
H 4.0104685541 3.5284075341 -0.7716370050
H 3.2016776292 3.3612768264 -2.3355301828
H 1.4732234203 1.8715620062 -1.2343081274
H 1.4904856576 3.5455989611 -0.7385721374
H 2.4255233400 0.6329693588 3.5461084947
H 2.3547776371 2.9159984611 5.2055506691
H 2.1951097435 5.3950897881 5.0503356027
H 2.0103202466 6.5147297222 2.8551078931
H 1.9831607049 5.2081548048 0.7569544324
H 3.7088562036 -4.4338010281 2.0319810958
H 5.0315282182 -3.2215757573 1.9825585916
H 3.9424945559 -3.2944990425 3.3991455534
