42
CONF192
C -6.8265197696 1.2050279534 2.4469983603
C -5.9891852108 1.1932542777 1.1697450227
C -4.7690149215 0.3175770830 1.2989941615
O -5.1304348530 -1.0484017102 1.4519539701
C -3.9325727253 -1.7611211179 1.1282721647
C -3.2572096058 -0.8819622121 0.0489554637
O -3.9911542636 0.3570217366 0.0997411319
C -1.7886325579 -0.6779917258 0.3418865693
O -1.2238749318 0.0456212435 -0.7584660349
C 0.1069787203 0.3468588584 -0.7067674476
C 0.6076016501 1.0646116355 -1.7985049140
C 1.9495589856 1.4145684720 -1.8464803804
C 2.7890979685 1.0543877078 -0.7979799796
C 2.3021220513 0.3485394123 0.2924118398
C 0.9571857554 -0.0134677958 0.3432934600
O 4.1168710420 1.4768697724 -0.8268906433
C 5.0993192189 0.5321722527 -1.0380850568
C 4.8366697954 -0.7632180673 -1.4822745808
C 5.9038928323 -1.6353705936 -1.6925202300
C 7.2158704932 -1.2279708198 -1.4671173651
C 7.4608667012 0.0732343330 -1.0269814636
C 6.4095360062 0.9557968926 -0.8094930577
H -7.2156717210 0.2081674783 2.6727806932
H -7.6764293899 1.8845639955 2.3412416541
H -6.2308262381 1.5401786047 3.3026923169
H -5.6419870880 2.2052129896 0.9334791521
H -6.5767667201 0.8367410712 0.3159330200
H -4.1373597986 0.6227254988 2.1556212524
H -3.2897972183 -1.8548515748 2.0167562508
H -4.2027955645 -2.7535611403 0.7642999375
H -3.3812405524 -1.2961462451 -0.9574556217
H -1.2968069941 -1.6566295559 0.4465929973
H -1.6659874765 -0.1128752815 1.2765175337
H -0.0661176172 1.3386865473 -2.6037533932
H 2.3485160834 1.9676527842 -2.6905961019
H 2.9714637616 0.0773786865 1.1029146507
H 0.5926931534 -0.5646241333 1.2012337373
H 3.8180803069 -1.0873792712 -1.6633728547
H 5.6989858918 -2.6436291965 -2.0396479578
H 8.0392249633 -1.9147135523 -1.6328325586
H 8.4788662705 0.4053696334 -0.8473810383
H 6.5869847416 1.9697469770 -0.4657146177
