55
CONF13
C 5.6764513922 -0.6497415671 -4.9182489940
O 4.7863558308 0.3153284031 -4.3665468835
C 3.8147481396 -0.1349724243 -3.5228983379
C 2.9628960751 0.8473702054 -3.0030575395
C 1.9421666988 0.4968289894 -2.1399346458
C 1.7396703644 -0.8381940058 -1.7699838794
C 2.5894042195 -1.8049233374 -2.2994634995
C 3.6258659144 -1.4708534848 -3.1707196003
C 0.6702541110 -1.2473419695 -0.7942890194
S -1.0160437214 -0.5293862474 -1.1637881541
C -1.1633947807 0.8646646248 -0.0658112725
C -1.3716246306 2.1245495124 -0.6272812530
C -1.6072675527 3.2370713881 0.1739693257
C -1.6049373616 3.0989832648 1.5576827005
C -1.3851878234 1.8517348797 2.1303048795
C -1.1887595877 0.7218369800 1.3344398905
N -1.0269157671 -0.5387123221 1.9599564490
C -2.0873650002 -1.0135708697 2.8641594011
C -3.2207860099 -1.6917062232 2.0978157714
N -3.8773341434 -0.7938160179 1.1531793951
C -4.6243237948 -1.5416719603 0.1480726428
C -4.7373437867 0.1777529742 1.8159685354
C -0.0911063048 -1.4645315615 1.5775576028
O -0.1350411630 -2.6373128085 1.9198710021
C 1.0613150931 -1.0214335782 0.6702874660
O 1.4940860935 0.3425300939 0.8116997039
C 1.9908060997 0.6853787439 2.0309986942
C 2.4021555822 2.1280681093 2.0308392048
O 2.0615083837 -0.0832696476 2.9585837924
H 6.3696098192 -0.0903994401 -5.5478242803
H 5.1387778292 -1.3840814660 -5.5322847264
H 6.2378843112 -1.1704609790 -4.1314467260
H 3.1211363322 1.8795040637 -3.2969050226
H 1.2814274507 1.2634525199 -1.7501984102
H 2.4469409110 -2.8490677020 -2.0321278347
H 4.2605016082 -2.2547707160 -3.5647554531
H 0.5035909185 -2.3271508818 -0.8783544747
H -1.3554929358 2.2206822228 -1.7080900333
H -1.7774674106 4.2062069558 -0.2828433991
H -1.7613873814 3.9625556641 2.1960277603
H -1.3550565411 1.7469025866 3.2103501110
H -2.4524290052 -0.1613798859 3.4422178860
H -1.6406770707 -1.7309264054 3.5568698717
H -2.7880492923 -2.5281036837 1.5392238928
H -3.9330648886 -2.1208407674 2.8345227805
H -3.9483508626 -2.2188815859 -0.3829939904
H -5.0522672600 -0.8478072882 -0.5834218011
H -5.4531046231 -2.1378567657 0.5796815778
H -5.5620333446 -0.2964486345 2.3858068016
H -4.1595590645 0.8016620485 2.5053867111
H -5.1778096529 0.8455703704 1.0683980760
H 1.8957806967 -1.6847363544 0.9220641230
H 2.8306810319 2.3852131472 2.9982973443
H 3.1256287225 2.3102816990 1.2312704246
H 1.5245353220 2.7502224412 1.8277650212
