47
CONF172
C -2.2035331821 1.6983755692 3.0093267073
C -1.8337898684 2.2485424974 1.6507634926
C -2.7370314781 3.2479148358 0.9636656960
C -2.7199741425 1.7980073314 0.4859117223
C -2.1176090804 1.4965259611 -0.8195834706
O -1.4371128928 2.2280612958 -1.5055698200
O -2.4054629781 0.2051507514 -1.1773451410
C -1.7296248123 -0.2438750011 -2.3759484612
C -2.4349527577 -1.4587348426 -2.7860143536
N -2.9553577146 -2.4291130181 -3.1335908208
C -0.2611424268 -0.5290328723 -2.1269990369
C 0.6913408556 -0.1122470351 -3.0530330997
C 2.0365598279 -0.3800118100 -2.8117975537
C 2.4341148399 -1.0513203121 -1.6609056948
C 1.4634637333 -1.4673636016 -0.7490165050
C 0.1147758950 -1.2157711851 -0.9751767679
O 1.7813360128 -2.0802669286 0.4440165664
C 2.8839419427 -2.9237685264 0.4927641929
C 3.0788673769 -3.9146675570 -0.4660510302
C 4.1602021261 -4.7798798485 -0.3287434267
C 5.0278576925 -4.6630233042 0.7566172025
C 4.8095881084 -3.6723554880 1.7113456701
C 3.7366765235 -2.7931887148 1.5827130514
C -3.9570261441 3.7643957719 1.5882795014
C -4.3889967520 5.0229602637 1.5067893540
Cl -5.8586497146 5.5548024659 2.2844093849
Cl -3.5647660588 6.2865376945 0.6341344376
C -0.3445291317 2.4030741900 1.4435616880
H -1.9007418036 2.4046293105 3.7902359062
H -1.6725341691 0.7560907757 3.1796633430
H -3.2733018054 1.5059534864 3.1111339262
H -2.2166709435 3.9290162194 0.2973601836
H -3.5558573163 1.1653066908 0.7647151292
H -1.8373180657 0.5034851948 -3.1707482801
H 0.3867648634 0.4265532912 -3.9444139106
H 2.7884747883 -0.0466367182 -3.5195421841
H 3.4837869051 -1.2444381230 -1.4688768856
H -0.6215577268 -1.5473608060 -0.2502556539
H 2.3948828143 -4.0063383589 -1.3035570909
H 4.3182750656 -5.5556147145 -1.0714907207
H 5.8672938865 -5.3428740068 0.8583715412
H 5.4790647951 -3.5753013705 2.5602607102
H 3.5537175911 -2.0128375430 2.3141031048
H -4.5726015482 3.0804951311 2.1647017752
H 0.1486508260 1.4260398077 1.5059401651
H 0.0640529817 3.0397987943 2.2351648365
H -0.1035463455 2.8543046367 0.4797564038
