47
CONF60
C 0.9393389984 4.7776527030 0.9744011428
C 0.9145617986 3.3225037348 1.3846779035
C 0.4612649572 2.9330942044 2.7713905117
C -0.4761602733 2.7136312488 1.5808106876
C -0.7589434976 1.3349956686 1.1606122305
O -0.1349712316 0.3342428019 1.4416527205
O -1.8654650511 1.3135981681 0.3513106701
C -2.1725031424 0.0109280736 -0.2100491180
C -3.5840409076 0.0751075068 -0.5889338567
N -4.6906014962 0.0956384328 -0.9181665091
C -1.2971267839 -0.3023105588 -1.4034949314
C -0.5313747936 -1.4649894728 -1.3997719450
C 0.2906179305 -1.7531900598 -2.4854534157
C 0.3330162083 -0.8515525755 -3.5499224371
C -0.4155705485 0.3106195242 -3.5583167936
C -1.2467119172 0.5848491279 -2.4785262693
F 1.1376134961 -1.1332657720 -4.5961777967
O 1.1231854123 -2.8373091966 -2.5533664120
C 0.7528155092 -4.0054118526 -1.8893277060
C 1.7150889314 -4.6140942712 -1.0945032966
C 1.4105104916 -5.8261814764 -0.4785448816
C 0.1581964634 -6.4101397799 -0.6537667683
C -0.7930639261 -5.7823823317 -1.4572321491
C -0.5010189915 -4.5757267683 -2.0861659072
C 0.0815738208 3.9222293386 3.7818663715
C 0.3061709468 3.8097242381 5.0912441018
Cl 1.0995283609 2.4482492142 5.8356664232
Cl -0.1786850236 5.0428915441 6.2276554501
C 2.0154673297 2.4970246240 0.7594618978
H 1.8577343533 5.2503382010 1.3396693698
H 0.0842459548 5.3390173798 1.3555769433
H 0.9313062980 4.8499646227 -0.1179518651
H 0.9078571269 2.0161015269 3.1433095833
H -1.3015511058 3.4075357618 1.4634496866
H -2.0569083029 -0.7607539898 0.5592674751
H -0.5612018855 -2.1438050339 -0.5538802360
H -0.3507698156 0.9785756075 -4.4103416397
H -1.8468951308 1.4888929160 -2.4754266812
H 2.6832214963 -4.1413864646 -0.9673395493
H 2.1563435126 -6.3100680558 0.1440752427
H -0.0761835466 -7.3521963685 -0.1692061893
H -1.7675117651 -6.2369850703 -1.6052706591
H -1.2315373974 -4.0848332602 -2.7211099544
H -0.4274269706 4.8242847432 3.4560853427
H 1.9127925612 2.4950148795 -0.3315916036
H 2.0102938065 1.4652499092 1.1133167624
H 2.9834780253 2.9446267578 1.0079681303
