44
CONF58
C 3.5456563521 -1.5172096016 -2.0993127174
C 2.9020892402 -0.4565981827 -1.2116320075
C 3.8195643469 0.0068784065 -0.0186330710
N 2.9355810728 0.3732639667 1.0699124162
C 1.7080491380 -0.4226035110 1.2459541744
S 1.3804612431 -1.2006790896 -0.3871771756
C 0.9624014743 0.8995825410 1.6448690419
C 2.2857812765 1.5946729570 1.2270627423
O 2.6534531483 2.7308031815 1.0473370997
N -0.1985531383 1.2702214236 0.9099141742
C -1.3711118565 1.6247625414 1.4890784562
O -1.5384318517 1.7366621749 2.7027597715
C -2.5334127449 1.8325793681 0.5030615810
C -3.3932554499 0.5844953327 0.5485338902
C -2.9646078183 -0.6024169380 -0.0526805462
C -3.7370734279 -1.7559698816 0.0125128111
C -4.9563479978 -1.7347417553 0.6939095481
C -5.3954689512 -0.5594226699 1.3038857625
C -4.6133830814 0.5873969623 1.2269822609
O -5.7596829654 -2.8350904033 0.7910970934
N -2.0449951235 2.0799592863 -0.8602484794
C 4.8421839724 -1.0437710843 0.3842400188
O 4.3515664418 -1.9287606528 1.2651841920
O 5.9662527023 -1.0811692807 -0.0655468956
C 2.4965579671 0.7602155924 -2.0440118836
H 2.8553235737 -1.8006746596 -2.8984543178
H 3.8122059433 -2.4172241328 -1.5390349241
H 4.4482609255 -1.1052722482 -2.5626638306
H 4.3849551128 0.8894483454 -0.3327552241
H 1.7586558735 -1.1902217107 2.0198176933
H -0.1972921214 1.2006686203 -0.1029331421
H -3.1187483423 2.6641816033 0.9213108990
H -2.0157976322 -0.6301639166 -0.5802393232
H -3.3962786258 -2.6728978257 -0.4612831329
H -6.3465361510 -0.5523862573 1.8267128626
H -4.9620541662 1.5016145676 1.6990887963
H -5.3462575946 -3.5765447105 0.3281437469
H -2.8229991944 2.0071265471 -1.5075016853
H -1.6984701829 3.0321892389 -0.9298740354
H 3.3789751994 1.1686731415 -2.5496495942
H 1.7652663816 0.4653975675 -2.8010078224
H 2.0515143540 1.5479196569 -1.4302087989
H 0.7530645965 0.9670101977 2.7164759408
H 5.0438372876 -2.5826913996 1.4684367058
