50
CONF21
C 3.9424187704 0.0916258678 3.4972307505
C 4.0980262589 -0.1217972098 1.9868657286
C 4.8914952380 -1.4235967083 1.7643834970
C 4.8910552551 1.0666933528 1.4112424729
C 2.7481413799 -0.2259278276 1.2737830483
C 2.7061719805 -0.4225004654 -0.1114313302
C 1.5107100179 -0.5348423400 -0.8119071594
C 0.3162158760 -0.4376521555 -0.1076276507
C 0.3144867329 -0.2430585112 1.2645572804
C 1.5245867004 -0.1431659232 1.9435729003
O -0.9407392960 -0.5295677164 -0.7082012823
P -1.2292368898 -0.2093304431 -2.2643396090
O -0.4784472474 -0.9798015047 -3.2670065160
O -1.0271053977 1.3721617408 -2.4389293106
C -1.5077057647 2.2963756142 -1.4983263408
C -2.8223127847 2.7336525792 -1.5769223671
C -3.2618043129 3.6917661499 -0.6683313905
C -2.3953479300 4.1982497455 0.2965562029
C -1.0786109523 3.7496661761 0.3509543329
C -0.6237827254 2.7932790113 -0.5512959338
O -2.8309324561 -0.3402319227 -2.2644335765
C -3.4542857191 -1.5714966151 -2.0102480388
C -3.2313822749 -2.6648112579 -2.8363092084
C -3.9148509106 -3.8471758961 -2.5665026633
C -4.8058290664 -3.9234405264 -1.4998804042
C -5.0153018236 -2.8104234110 -0.6899307268
C -4.3346610764 -1.6234067218 -0.9395114930
H 3.4088044735 -0.7390642806 3.9703712618
H 3.4110914513 1.0220064475 3.7233249010
H 4.9326224246 0.1548101773 3.9588827435
H 5.8588946639 -1.3694199769 2.2757881518
H 4.3402904500 -2.2833619261 2.1582043317
H 5.0826502628 -1.6043807694 0.7029286854
H 5.8608911142 1.1519850612 1.9134863277
H 4.3434877728 2.0033894673 1.5569154648
H 5.0771944474 0.9485262394 0.3400834512
H 3.6307257011 -0.5003063340 -0.6742956776
H 1.5079164581 -0.7064176671 -1.8824159230
H -0.6323183419 -0.1650813779 1.7875740497
H 1.4948209582 0.0071733534 3.0159274071
H -3.4788542776 2.3275296979 -2.3373703464
H -4.2867404204 4.0444296840 -0.7194555417
H -2.7443821211 4.9454147445 1.0012481646
H -0.3973681289 4.1449670345 1.0972560023
H 0.3975382167 2.4293611157 -0.5270782669
H -2.5322123529 -2.5849902061 -3.6606945176
H -3.7495754734 -4.7118164330 -3.2008483824
H -5.3365229579 -4.8481569399 -1.3002480476
H -5.7079903502 -2.8645314932 0.1435498663
H -4.4719371505 -0.7433089646 -0.3211466305
