45
CONF187
C 7.6234084774 -0.4731308599 0.5935024337
C 6.1439187772 -0.4087111610 0.2174524802
C 5.6164089346 1.0263357713 0.1754150277
C 4.1112585663 1.1339077130 -0.0858699433
C 3.6826717597 0.6078243207 -1.4588430301
C 2.2262650730 0.9199445807 -1.8135649403
C 1.2095599177 0.2580448265 -0.8842734491
C -0.2376866517 0.5108374279 -1.3390430800
C -1.2590326605 -0.1102923044 -0.4229263457
C -1.5893311170 -1.4585824776 -0.5885866854
N -2.4990040452 -1.9642062959 0.2941680254
C -3.0582715631 -1.2028797013 1.3090602132
N -3.9092985958 -1.9835239928 1.9981796668
C -3.8176334225 -3.1729245570 1.3631883774
N -2.9824782971 -3.2380013863 0.3229567108
N -2.7450500488 0.0771438358 1.4962868944
C -1.8604291429 0.6047901524 0.6409339786
C -1.5096578254 2.0605258442 0.8442865628
C -2.0958955851 2.6976245737 2.0975081492
N -1.0761815366 -2.3096398255 -1.4977112527
H 7.9893521545 -1.5046688816 0.6106229413
H 7.7943289062 -0.0385799001 1.5848648653
H 8.2325898555 0.0874666626 -0.1245257832
H 5.5520652050 -0.9872593349 0.9400213165
H 5.9969952730 -0.8886971692 -0.7577133496
H 6.1611410191 1.5887042230 -0.5965749116
H 5.8474788131 1.5126458915 1.1330144554
H 3.8083361451 2.1871517692 -0.0040397165
H 3.5747854118 0.5949647324 0.7060624099
H 3.8348725960 -0.4781789183 -1.5091859715
H 4.3367433010 1.0486766292 -2.2237652229
H 2.0292326630 0.5904921319 -2.8427660057
H 2.0716876852 2.0082448805 -1.7992744138
H 1.3991017071 -0.8231008913 -0.8418732881
H 1.3266023435 0.6339588698 0.1390228972
H -0.4085399968 1.5886267722 -1.4062907795
H -0.3677810982 0.1340123595 -2.3623855240
H -4.3842909675 -4.0459106877 1.6652480398
H -1.8409254114 2.6169019898 -0.0434359532
H -1.7737196478 3.7408838175 2.1629594518
H -1.7622845470 2.1769618722 2.9993201569
H -0.5361269197 -1.9452136744 -2.2645637233
H -1.5303630255 -3.2002969881 -1.6324511528
H -0.4169338205 2.1560240701 0.8540275213
H -3.1881703676 2.6742839888 2.0839560905
