73
CONF1778
C -0.8220599999 3.0778322030 -0.8146060105
C -1.6892132315 2.3330053809 0.1767642499
O -2.9494549988 2.0742349640 -0.4944122533
C -3.8738407936 1.3253631622 0.2757197443
O -3.3789066462 0.0496897051 0.6405602312
C -3.4092231052 -0.9246775430 -0.4081776064
C -4.6081134623 -1.8477465392 -0.2266412112
O -5.7884578087 -1.0724704820 -0.4229005910
C -4.5493179543 -3.0279732852 -1.1950892956
O -5.6553217824 -3.9063482675 -0.9817673495
C -3.2069138769 -3.7505158018 -1.0586887918
C -3.0013789516 -4.8559380668 -2.0786733604
O -3.1063605943 -4.3892601503 -3.4239350471
O -2.1498887147 -2.7954811396 -1.2795127844
C -2.1324006344 -1.7552027126 -0.3202185836
O -1.0505862164 -0.9106602414 -0.6436747069
C 0.2101124455 -1.2894244312 -0.2811598724
C 0.5156992348 -2.5497500614 0.2335355730
C 1.8358054103 -2.8164928252 0.5794107544
O 2.1434328983 -4.0358471362 1.0469863965
C 2.8556197207 -1.8392321954 0.4183420544
C 4.2371519528 -2.1623503062 0.6521017473
O 4.6068601565 -3.2795956074 1.0670310573
C 5.2338808470 -1.0853161758 0.3173789508
C 4.6234509347 0.2965144303 0.5111734497
O 3.3996732839 0.4118645167 -0.2845889716
C 2.4879101876 -0.5730533225 -0.1023563851
C 1.1802361444 -0.2970042679 -0.4572923386
C 5.5330372804 1.4167070220 0.1051923574
C 6.0501904949 2.2876772859 1.0652973677
C 6.9277417805 3.3054214459 0.7108154180
C 7.2868864572 3.4686853371 -0.6273807497
O 8.1455449819 4.4851275762 -0.9289713199
C 6.7691613274 2.6109791550 -1.6025871712
C 5.9037702486 1.5904256215 -1.2309561648
C -4.2154547007 2.0647923791 1.5660846698
O -4.9512787670 3.2566634694 1.2651008191
C -2.9471343970 2.3994843307 2.3591933810
O -3.2749233901 3.1550261610 3.5241830446
C -1.9294806695 3.1225704169 1.4717778058
O -0.6972250312 3.3467716905 2.1585284721
H -0.6861646882 2.4804936045 -1.7208451162
H -1.2878663542 4.0309155790 -1.0862597719
H 0.1593712827 3.2781165523 -0.3784216410
H -1.2282697698 1.3702265543 0.4405265544
H -4.7632952673 1.2332927842 -0.3571022582
H -3.4430494284 -0.4377403602 -1.3923230128
H -4.5795854044 -2.2409212330 0.8056758649
H -6.5386081305 -1.6784770210 -0.3469896265
H -4.6525739819 -2.6590645368 -2.2217254057
H -5.5794301232 -4.2789266980 -0.0911207683
H -3.1165292263 -4.1823551180 -0.0462075981
H -3.7792816742 -5.6119897571 -1.9427486497
H -2.0234019522 -5.3239661832 -1.8977373267
H -2.4045825747 -3.7392094624 -3.5595778312
H -2.0123626532 -2.1617140527 0.6981788631
H -0.2219177999 -3.3343359516 0.3372103859
H 3.1330425923 -4.0357243598 1.1837801694
H 6.1228821211 -1.1964635327 0.9441943946
H 5.5410878711 -1.2193413241 -0.7295162165
H 4.3316399217 0.4193930172 1.5633371501
H 0.9063453433 0.6774542203 -0.8422046029
H 5.7656971050 2.1694629977 2.1072658156
H 7.3314266240 3.9804774259 1.4583765680
H 8.3127899993 4.4967748907 -1.8814462132
H 7.0473514300 2.7451767885 -2.6446839370
H 5.5076561935 0.9277577803 -1.9948551688
H -4.8793406182 1.4464239964 2.1784128594
H -4.5088046262 3.7092155748 0.5320173872
H -2.4968556123 1.4626091554 2.7134800055
H -3.8520333574 3.8744646922 3.2275691971
H -2.3079083985 4.1225015403 1.2184787392
H -0.3566577770 2.4871500586 2.4436752957
