44
CONF36
C -0.9379740429 -2.9970359959 0.7977966733
C -0.8364824555 -1.6430215704 1.4958972749
C -2.1676395788 -0.9100279000 1.3162100687
O -3.1177388118 -1.0939761195 2.0504591506
O -2.1696597279 -0.1358675396 0.2287792691
C -3.4086872617 0.5945100677 -0.0965164818
C -2.9655942667 1.8293987645 -0.8521374110
C -4.3110773792 -0.3178992058 -0.9038497539
N 0.3100599286 -0.8264563161 1.0438810027
C 0.9437957973 -1.0809732802 -0.2137316727
C 1.8699504100 -2.1149513328 -0.3410476999
C 2.4872901631 -2.3488548817 -1.5631434281
C 2.1816925596 -1.5374014686 -2.6423332935
C 1.2641033812 -0.4982856180 -2.5235321229
C 0.6335582435 -0.2740806957 -1.3080123498
Cl 0.9060311964 0.5074322216 -3.9040074672
F 2.7885815457 -1.7561022341 -3.8234215429
C 0.4491398985 0.3814122726 1.6828893585
O -0.3433368493 0.7273826944 2.5638880987
C 1.5946032995 1.2581286225 1.2985826164
C 1.3380781515 2.6156646123 1.0888896061
C 2.3797802527 3.4796975063 0.7692183483
C 3.6855964542 2.9986331124 0.6891938017
C 3.9472597972 1.6505429955 0.9281093637
C 2.9047983875 0.7777364894 1.2222093543
H -1.8085726898 -3.5210391964 1.2001308116
H -1.0638181751 -2.8865645483 -0.2825118329
H -0.0526046754 -3.6045889973 0.9948646838
H -0.7294596931 -1.7980552559 2.5733746914
H -3.8812676140 0.8671377128 0.8518945058
H -3.8416241760 2.4355174525 -1.0999292159
H -2.4622755053 1.5506464817 -1.7836812288
H -2.2842510524 2.4333782318 -0.2460403261
H -5.2316352832 0.2151626620 -1.1600195532
H -4.5765877774 -1.2128134217 -0.3350145583
H -3.8132568459 -0.6166699475 -1.8319501831
H 2.1256981556 -2.7227693319 0.5192541747
H 3.2146063156 -3.1437651803 -1.6868454439
H -0.0899751338 0.5259210557 -1.2094314088
H 0.3193363989 2.9823943780 1.1649981524
H 2.1738159116 4.5296530215 0.5868863353
H 4.4995995131 3.6746387865 0.4469675499
H 4.9654085162 1.2770473640 0.8842796652
H 3.1107357813 -0.2708357430 1.4085024178
