22
CONF31
C 2.0739025053 -1.3352065349 -0.0618723896
C 1.0828503263 -0.2602122611 -0.4806182246
C -0.1474266680 -0.2157870927 0.4243258951
C -1.1518611067 0.8588877802 -0.0213731510
C -2.2053001905 1.1428388223 1.0463267942
O -1.6262180798 1.6697559738 2.2417144073
O -1.8793080439 0.4321182299 -1.1816528284
O -0.7874684662 -1.4895389446 0.5291971063
O 0.6497467476 -0.4916585389 -1.8327650208
O 3.1775731135 -1.3928783346 -0.9793496906
H 1.5933567137 -2.3162692216 -0.1017095302
H 2.4166515892 -1.1467977762 0.9650415363
H 1.5773253043 0.7246885730 -0.4149532466
H 0.2012223082 0.0473767213 1.4306098277
H -0.5977748729 1.7896154125 -0.2290581418
H -2.9559444254 1.8273327445 0.6283204285
H -2.7056644965 0.2101612826 1.3252693996
H -1.2978642355 2.5567788707 2.0470238741
H -1.2196932381 0.2405166745 -1.8670472673
H -1.3465932863 -1.5788411016 -0.2569669765
H 1.4430399960 -0.6798186545 -2.3543307994
H 3.7054493048 -0.5930624183 -0.8561320130
