41
CONF43
C 5.2308527433 2.2918035317 1.1140920740
N 4.6992224844 1.2662736475 0.2246376050
C 3.5442541690 0.5850098305 0.3585448595
C 3.4568375778 -0.2886489032 -0.7205325681
C 4.6440209089 -0.0392360872 -1.4537797527
N 5.3801709727 0.9122614400 -0.8763028923
C 5.1619550758 -0.6119509509 -2.7253954837
F 5.5425857984 -1.9311842576 -2.5682870764
F 4.1920044158 -0.6017773893 -3.7055189892
C 2.4063910078 -1.2804545370 -1.0205102159
O 2.6268554048 -2.2695489115 -1.7184777784
N 1.1893366477 -0.9962062846 -0.4531000637
C 0.0050596105 -1.7496642052 -0.4714908653
C -0.1470298655 -2.9734729002 -1.1500702673
C -1.3694520103 -3.6409949078 -1.1314480499
C -2.4803046395 -3.1320387007 -0.4530872243
C -2.3161634517 -1.9395825162 0.2313204039
C -1.0932723146 -1.2565422411 0.2341353406
C -1.3029606643 0.0297177969 1.0140476864
C -2.2184957711 0.9349394269 0.1249335276
C -3.5799262359 0.1732683786 0.1182015736
C -3.3003892983 -1.0855148485 1.0051366234
C -2.3373799552 -0.4742847185 2.0021712818
C -2.3895805555 -0.3821740897 3.3195654510
Cl -3.7077083001 -1.0285827013 4.2680000884
Cl -1.1452016961 0.3925497406 4.2722417551
H 6.2197045347 1.9918809222 1.4683303525
H 4.5519894811 2.3980016683 1.9605924056
H 5.3040301419 3.2412328955 0.5779890925
H 2.8946720197 0.7468900916 1.2078824830
H 6.0293902595 -0.0544892973 -3.0928452517
H 0.6895051546 -3.3935704152 -1.6880798102
H -1.4512208148 -4.5837954787 -1.6638418686
H -3.4299742228 -3.6573208699 -0.4570629574
H -2.3207696410 1.9209910467 0.5860199109
H -1.7914816784 1.0594903029 -0.8731359121
H -4.3694286333 0.7762393138 0.5745327859
H -3.9012433961 -0.1211803151 -0.8837064864
H -4.1837718059 -1.5911742366 1.3902088359
H -0.4257627708 0.5238647885 1.4292474168
H 1.1198495782 -0.1103397843 0.0251419435
