42
CONF22
C -2.4162213074 -0.7461713025 1.0670081362
C -3.2316056512 -0.2173993221 -0.1177335401
C -2.4015328402 0.4030383714 -1.2477006508
C -1.4823986925 1.5396281344 -0.8000588972
C -0.8122906905 2.2370923759 -1.9830139184
C 0.1150659064 3.3789142686 -1.5569825858
C 1.3164950874 2.9663322415 -0.7461424346
O 1.7356018999 3.5575171501 0.2289668851
O 1.9216490088 1.8745786235 -1.2683144965
C 3.1620435185 1.4574194612 -0.6412299494
C 2.9340715973 0.6192302249 0.5882643753
O 2.2955007225 -0.6162659698 0.1706369098
C 2.2198844348 -1.5843960962 1.1101869440
O 2.6521896757 -1.4494781119 2.2374834013
C 1.5496810883 -2.8280667525 0.5883113745
C 0.4805355428 -3.3450416076 1.5620117081
C -0.6003280803 -2.3129737292 1.8960216874
C -1.3634429363 -1.7839794866 0.6823324121
H -3.1046805792 -1.1860139482 1.8009107465
H -1.9204008903 0.0896616758 1.5789266817
H -3.9433793886 0.5333298376 0.2508626849
H -3.8319567164 -1.0380686781 -0.5326778481
H -1.7990254427 -0.3709329558 -1.7413201763
H -3.0891778633 0.7856876075 -2.0138456613
H -0.7087266683 1.1513002699 -0.1227352734
H -2.0601401125 2.2756831479 -0.2230333292
H -0.2527134636 1.5068475774 -2.5780314750
H -1.5832924671 2.6564390940 -2.6405307800
H 0.5100630570 3.8885167760 -2.4463299717
H -0.4273576714 4.1242803587 -0.9688491588
H 3.6820745745 0.8816793037 -1.4097895864
H 3.7528438438 2.3375376469 -0.3727936987
H 2.2926606994 1.1253047407 1.3153025992
H 3.8974003993 0.3948376308 1.0576247804
H 1.1357873361 -2.6354265134 -0.4036177246
H 2.3360120303 -3.5846226509 0.4730306681
H 0.0199877196 -4.2334736154 1.1138104089
H 0.9705792653 -3.6690280412 2.4863591706
H -1.3098872154 -2.7654840278 2.6006924739
H -0.1425541135 -1.4659390959 2.4264308228
H -1.8417976039 -2.6202925016 0.1519640834
H -0.6572166005 -1.3318018260 -0.0243560843
