36
CONF122
C 3.9802445241 2.4051226751 -1.3213618856
C 2.5557110132 2.1975658061 -0.7897797547
C 2.0921682150 0.7825264518 -0.9515082358
C 1.0387074530 0.3960004603 -1.6731021791
C 0.5872657231 -1.0241503203 -1.8347568774
C -0.8376539517 -1.2549312683 -1.3181566441
C -1.1387619131 -0.8368527865 0.1278111205
C -2.6756083159 -0.7585810523 0.1630352524
C -3.0317999247 -0.1193841321 -1.1831559099
C -1.9247777143 -0.5552145237 -2.1240277253
O -1.8998520706 -0.3692906736 -3.3264084104
C -0.5241652450 -1.7800837409 1.1672078793
C -0.8919941670 -1.3595337104 2.5649164316
O -1.6795233208 -1.9361788090 3.2904396999
O -0.2581542299 -0.2236082990 2.9145495171
C -0.5872373436 0.3067331038 4.2229539722
H 4.0271048506 2.1952368392 -2.3948403018
H 4.6852334919 1.7364298950 -0.8159495946
H 4.3132100237 3.4347791769 -1.1576472538
H 1.8604968599 2.8735247107 -1.3012802507
H 2.5364461971 2.4638138178 0.2762192729
H 2.6889276171 0.0208362833 -0.4434683342
H 0.4399735954 1.1562541659 -2.1800821969
H 1.2776867897 -1.6967468386 -1.3139209714
H 0.6023812808 -1.3040610068 -2.8964767157
H -1.0784832660 -2.3285135360 -1.4162538635
H -0.7309143593 0.1709478837 0.2835249900
H -3.0483594718 -0.1882405994 1.0184553766
H -3.0917015190 -1.7720303215 0.2238903247
H -2.9755463579 0.9770460951 -1.1243944711
H -4.0178968206 -0.3730665934 -1.5816844913
H -0.8900744111 -2.7988690731 1.0112112013
H 0.5671945745 -1.7736453694 1.0687986447
H -1.6545447711 0.5338201007 4.2792487140
H 0.0040292808 1.2159513064 4.3232943051
H -0.3197320147 -0.4136067364 4.9996229637
