19
CONF8
F -1.1450981312 0.5498257421 -1.4914734144
C -0.7483694157 0.5307717939 -0.2031275335
F -0.2942283811 1.7592940508 0.1398122147
C 0.4318601980 -0.4694870001 -0.0692185320
F 0.1258599248 -1.6188047331 -0.7169062649
F 0.6790942819 -0.7498371862 1.2271687176
S 2.0685807557 0.1883364717 -0.8293271664
N 3.0378972092 -1.1758653472 -0.8153526722
O 1.7689937853 0.5009439229 -2.2199575566
O 2.6324112844 1.1240481376 0.1326831439
C -2.0126555581 0.2737278328 0.6958130972
F -2.9331282099 1.1928224809 0.3231203652
F -1.6831964784 0.4843359826 1.9882246014
C -2.6882575673 -1.1264255121 0.5986390648
F -2.9590635983 -1.4367650741 -0.6750438367
F -1.8884289384 -2.0695421124 1.1190410656
F -3.8311286140 -1.1069981039 1.2943165842
H 3.2767211494 -1.4810551379 0.1229403026
H 2.6890287924 -1.9219759430 -1.4083881341
