45
CONF33
C -4.8024245204 3.4581704480 1.3235123876
C -4.6464406192 1.9749412223 1.2207549507
C -3.5535851167 1.3543714118 0.7623252891
C -3.4584572267 -0.1102626892 0.6503292780
C -2.1956993057 -0.9041668622 1.0571900423
C -2.6505499476 -0.8126749239 -0.4038880257
C -1.8392053013 -0.0248319260 -1.4052698445
C -3.2253010497 -2.0945740313 -0.9669301604
C -0.9793891625 -0.2340374487 1.5297900229
O -0.5968185491 0.8925705282 1.2761070023
O -0.2698049167 -1.0793772703 2.3357667462
C 0.9946321505 -0.5633099654 2.8253651470
C 2.0097421355 -0.4823200339 1.7209151938
C 2.5686013259 0.7191051577 1.3001410193
C 3.4764114642 0.7674711595 0.2507834520
C 3.8833503036 -0.3788823303 -0.4211570287
C 3.3236475215 -1.5799970165 0.0018705900
C 2.4193346767 -1.6311256981 1.0502109681
F 1.9266104388 -2.8252157001 1.4249242600
F 3.6695695099 -2.7264740076 -0.6101689567
C 4.8372027465 -0.3290885350 -1.5766468098
O 4.0633346576 -0.2805812449 -2.7775370705
C 4.9102157017 -0.2595525172 -3.9291214283
F 3.9641961596 1.9658361834 -0.1177884316
F 2.2377821483 1.8686850138 1.9098744736
H -3.9045661996 3.9788255028 0.9780344172
H -5.0025159302 3.7610230203 2.3587023372
H -5.6556300555 3.8062936356 0.7283640474
H -5.4962387336 1.3724287249 1.5459682673
H -2.7009829691 1.9479390515 0.4451521470
H -4.3665660266 -0.6306679909 0.9490650811
H -2.3837257750 -1.8583277972 1.5374389100
H -1.3895957077 0.8719422190 -0.9803575867
H -2.4840767677 0.2706697577 -2.2403427604
H -1.0357233343 -0.6525478809 -1.8064383217
H -3.8142863694 -2.6326632566 -0.2189038902
H -2.4230779101 -2.7532543579 -1.3178516596
H -3.8757593135 -1.8670976671 -1.8190908566
H 0.8477294152 0.4141219537 3.2865846191
H 1.3060693215 -1.2872767060 3.5801020362
H 5.4777167848 -1.2225583676 -1.5715951152
H 5.4808836894 0.5575031378 -1.4981720103
H 4.2570844531 -0.2187621568 -4.8029839897
H 5.5653033256 0.6232009880 -3.9203619392
H 5.5310036556 -1.1654710308 -3.9779996998
