59
CONF918
C 0.6157804512 3.6105293665 -1.1201888517
C 2.0936385517 3.4645683079 -1.4830437198
C 2.5103950988 2.0305197081 -1.8237816327
C 2.4588426548 1.0612779040 -0.6409986613
C 2.9628411722 -0.3311825658 -1.0192169107
C 2.9573241217 -1.3247185216 0.1438291377
O 3.6929024975 -2.5231781009 -0.2167613677
C 1.5745206859 -1.6938024494 0.5877510164
C 1.0964034563 -1.5240184712 1.8203561973
C -0.2712792897 -1.9265150250 2.2796381161
C -0.1967007098 -2.8648536094 3.5121266066
O -1.1742861357 -3.9152572380 3.3005487841
C -0.5889929728 -1.9798810389 4.6970437839
C -1.7012002024 -1.0987211180 4.1266504412
O -2.9526181743 -1.8012834438 4.0542708188
C -1.1362458592 -0.7090757272 2.7424034828
C -2.1984777607 -0.2777465063 1.7250280959
C -1.5842673653 0.1765140225 0.4387623492
C -1.7881477826 -0.3816168746 -0.7555017701
C -1.1126722769 0.0541361840 -2.0186604874
C -2.0886441176 0.6193600898 -3.0582911861
C -1.3596685646 1.0353724542 -4.3291780922
C -2.2639577369 1.6073662966 -5.3837716269
O -1.5709865968 1.9792020411 -6.4846211778
O -3.4685133338 1.7354687834 -5.2962327414
H 0.3590472696 4.6574462492 -0.9286585162
H 0.3585537057 3.0377585767 -0.2234579102
H -0.0206723439 3.2527955876 -1.9383111553
H 2.7149877478 3.8315673646 -0.6549334634
H 2.3135374641 4.1089622138 -2.3433236986
H 1.8683190802 1.6494024276 -2.6317237752
H 3.5341133875 2.0407910690 -2.2212340864
H 1.4355508287 0.9841953078 -0.2547385943
H 3.0732940645 1.4585755587 0.1795540330
H 3.9921231778 -0.2582333408 -1.3936922420
H 2.3488739048 -0.7398115571 -1.8359868313
H 3.5137361098 -0.9006850983 0.9888146840
H 3.2461148458 -2.9147672227 -0.9798462856
H 0.9383867446 -2.1397130456 -0.1809857596
H 1.7342619663 -1.0583125827 2.5760953859
H -0.7752801425 -2.4621733549 1.4670610265
H 0.7968176710 -3.3165632322 3.6257734704
H -1.1451006969 -4.4978903603 4.0719287778
H 0.2672542016 -1.3509303977 4.9717837555
H -0.8937796162 -2.5521123064 5.5793929535
H -1.8986901191 -0.2110057873 4.7360520085
H -2.7525974727 -2.6729663978 3.6750414965
H -0.4598833368 0.1405648128 2.9139944621
H -2.7852331589 0.5381283865 2.1719122330
H -2.8873576492 -1.1087784845 1.5378197517
H -0.8807324329 1.0087061728 0.5133126001
H -2.4840738176 -1.2194364035 -0.8378836051
H -0.5827757923 -0.8013271656 -2.4635302169
H -0.3544799674 0.8104741192 -1.7842743971
H -2.6111771181 1.4840216249 -2.6332548217
H -2.8533305015 -0.1287773046 -3.2974560312
H -0.5873282033 1.7850964267 -4.1114014881
H -0.8271678634 0.1853090199 -4.7758394341
H -2.2013011662 2.3372247407 -7.1328244266
