39
CONF4
C -2.8161625534 2.0016686851 0.3796308177
C -2.1864647565 0.6807479271 0.8314823555
C -2.7140931841 -0.4994936926 -0.0057276205
C -1.8661651910 -0.4551364899 -1.2873579456
C -0.4603589397 -0.0045238041 -0.8291263117
C -0.6596764451 0.5983992838 0.6070089856
C 0.1046586808 1.9183479452 0.7633496582
C 1.5923438045 1.7019487475 0.7051705959
C 2.1569324167 0.4878414745 0.6602002584
C 1.2819399524 -0.7517732884 0.6940203829
C 0.0328235053 -0.4329899741 1.5193364085
C 0.6684081926 -1.0927324643 -0.7057647214
C 1.6670015951 -0.9732634116 -1.8596674031
C 0.1514393076 -2.5394708971 -0.6895753231
C 3.6415534454 0.2835324038 0.6113542260
H -3.9042936685 1.9573542488 0.4964455370
H -2.6009935480 2.2122404650 -0.6738450446
H -2.4506504808 2.8474611130 0.9696948634
H -2.4128833820 0.5383509085 1.8971296672
H -2.5435653925 -1.4426202725 0.5263448882
H -3.7893430445 -0.4257111827 -0.2031252948
H -2.2815642136 0.2899874749 -1.9743227136
H -1.8655918904 -1.4085146688 -1.8220629477
H -0.0895355001 0.7748183911 -1.5041753425
H -0.1944637011 2.6212086494 -0.0266651676
H -0.1630081465 2.4045776368 1.7155184216
H 2.2261515361 2.5889020778 0.7016911451
H 1.8610986694 -1.5991241869 1.0816962900
H -0.5893236047 -1.3209475583 1.6637721835
H 0.2689271168 -0.0166243896 2.5052653253
H 1.1596371469 -1.1652727138 -2.8123898874
H 2.1053149436 0.0285767701 -1.9049031661
H 2.4781663468 -1.7039070958 -1.7588266472
H 0.9803506448 -3.2179498319 -0.4590285059
H -0.2428424797 -2.8259729904 -1.6695348231
H -0.6369817951 -2.7064300683 0.0492993810
H 4.1787959265 1.2347009250 0.5529790058
H 3.9281030066 -0.3326234845 -0.2495715901
H 3.9843156742 -0.2555830640 1.5042802550
