53
CONF3
C -3.6829623340 -1.6713285244 -2.6359174611
C -3.6616749243 -1.4134866031 -1.1207936143
C -4.6610310233 -2.3734375423 -0.4563309048
C -4.1192150639 0.0387514384 -0.9043466249
O -4.1978952334 0.3076776102 0.4901603385
C -4.4186243648 1.6786251571 0.7795341419
C -3.2195112953 2.5595482186 0.5019532974
C -1.9273364111 2.0476832302 0.6267272980
C -0.8416136197 2.8836288171 0.4083729884
C -1.0056525106 4.2241338192 0.0788212113
C -2.2955637266 4.7286041238 -0.0436274461
C -3.3958536825 3.8996116254 0.1569615442
O 0.4392042184 2.3787762673 0.5823067243
C 1.1056328408 1.9047097676 -0.5234920619
C 2.3845797851 1.4004236864 -0.2888363975
C 3.1175337618 0.8780897224 -1.3446603050
C 2.5907703959 0.8633022101 -2.6362133744
C 1.3186249216 1.3807233538 -2.8575236897
C 0.5652008803 1.9023572033 -1.8083790863
C -2.2554711909 -1.5635052064 -0.5371026072
C -1.1159541666 -1.3283414091 -1.3120882990
C 0.1624302730 -1.3946111417 -0.7710540519
C 0.3081789920 -1.7063939622 0.5683083960
C -0.7921007337 -1.9531995471 1.3759347615
C -2.0620454896 -1.8707237180 0.8136461685
O 1.6440163309 -1.8129061598 1.0178897011
C 1.9580383352 -1.3681232231 2.2488557441
F 1.5976254504 -2.2374177497 3.2287268153
F 1.3796066927 -0.1881789661 2.5490770426
Br 3.9210265376 -1.1601061032 2.3325527965
H -4.7150251973 -1.6637454050 -2.9990885347
H -3.2483232182 -2.6488231582 -2.8648227175
H -3.1332132478 -0.9108888370 -3.1985005542
H -5.6362329923 -2.2856443522 -0.9460989008
H -4.8073388753 -2.1480962172 0.6007979161
H -4.3196153840 -3.4087716866 -0.5524444959
H -3.4018272621 0.7201844404 -1.3890450967
H -5.1098614983 0.1902794929 -1.3693665622
H -4.6613113533 1.7156075825 1.8485867153
H -5.2933748771 2.0591158291 0.2263425318
H -1.7641186228 1.0043521793 0.8802166157
H -0.1317440525 4.8464235471 -0.0807197413
H -2.4430188847 5.7718369325 -0.3039452682
H -4.4004435421 4.2992345650 0.0480681242
H 2.7793602726 1.4153167583 0.7207008364
H 4.1073249904 0.4759039211 -1.1534102958
H 3.1684165003 0.4570097796 -3.4593583131
H 0.8984403829 1.3796648859 -3.8587527946
H -0.4307208812 2.2921754799 -1.9843600310
H -1.2055764481 -1.0721048144 -2.3610175109
H 1.0401141596 -1.1902190738 -1.3741358069
H -0.6776339484 -2.2035615289 2.4231151535
H -2.9145463454 -2.0462951988 1.4567928661
