30
CONF5
O 6.1960982297 -0.8707710798 0.4482472603
S 5.1177288179 0.3157805494 0.6720753101
O 5.1232012789 0.5861651848 2.1000240376
O 5.2715278249 1.3548659995 -0.3396250996
C 3.5129701970 -0.6624805909 0.2688608728
F 3.7379422672 -1.3717356945 -0.8485798419
F 3.2921479951 -1.4989684374 1.2922472046
C 2.3090497862 0.3155404014 0.0452034967
F 2.3823405043 1.3038416117 0.9678889274
F 2.4492957681 0.8466153138 -1.1848416581
C 0.9103684731 -0.3827085984 0.1829978510
F 0.7618996390 -0.7477813803 1.4745175209
F 0.9140277473 -1.4877322954 -0.6010211770
C -0.3193027407 0.5103630931 -0.2132333076
F -0.4329606293 1.4946565459 0.7082151014
F -0.1133309917 1.0617603856 -1.4265840895
C -1.6726566808 -0.2935366843 -0.2779051801
F -1.7342878166 -1.1677422850 0.7487291861
F -1.7003414998 -0.9812517975 -1.4420080606
C -2.9356245335 0.6387213267 -0.2094841816
F -3.1227321137 1.0145135715 1.0756011467
F -2.7158102845 1.7400950069 -0.9623939138
C -4.2411137801 -0.0572778136 -0.7272802477
F -4.2210407667 -0.0721605955 -2.0768257348
F -4.2864514017 -1.3296632788 -0.2697141996
C -5.5605489850 0.6539564661 -0.2783907930
F -5.7803825436 0.4749607662 1.0280613555
F -5.4947726454 1.9669008309 -0.5389434641
F -6.5855168462 0.1263990562 -0.9604722536
H 6.4535897617 -0.9288165225 -0.4929964203
