32
CONF32
C 4.2259743470 0.7457027955 -2.6414061280
C 3.0424663730 0.4294639812 -1.7701008661
C 2.0659320971 1.3971751630 -1.5193903874
C 0.9562033737 1.1084017853 -0.7368234588
C 0.8113344237 -0.1627261404 -0.1918631983
C 1.7712170857 -1.1418934858 -0.4276296882
C 2.8780173983 -0.8402511150 -1.2096082175
N -0.3605945489 -0.4204936671 0.6099092815
S -0.0985317794 -0.9514712774 2.2327650839
C 0.0171696402 0.6647616525 3.0770977944
F 1.0819471917 1.3820716557 2.6598534822
Cl 0.2481935246 0.2307619110 4.8083622888
Cl -1.4273088280 1.7329852331 2.8869330898
S -1.6192386480 -1.3763045646 -0.2162632861
O -1.5519115235 -2.7462124970 0.2938968358
O -1.4109890116 -1.0525661166 -1.6225840273
N -3.0874211818 -0.7438831750 0.2421577773
C -3.6473173561 -1.1225774542 1.5456558226
C -3.3637444764 0.6285632275 -0.1924706598
H 4.6183760722 1.7443612572 -2.4287865431
H 3.9428854690 0.7243259306 -3.7002169765
H 5.0315871661 0.0216953462 -2.4982909722
H 2.1786488659 2.3922773945 -1.9405724827
H 0.1980037275 1.8587038752 -0.5383809766
H 1.6486628133 -2.1320059082 0.0006256241
H 3.6262583650 -1.6060125334 -1.3925966493
H -3.3574223394 -2.1454257781 1.7866520788
H -3.3226300696 -0.4491020184 2.3482123210
H -4.7383386428 -1.0787732108 1.4595335864
H -3.0277103193 0.7635473354 -1.2215918305
H -4.4480579398 0.7727920804 -0.1583546337
H -2.8816609571 1.3721087093 0.4552757200
