46
CONF122
C -4.6971574477 -1.9597262467 1.0396851283
C -4.0135026836 -1.5643044714 2.3285325893
C -2.5611912712 -1.8688035979 2.5630363793
C -3.0422921391 -0.3977539816 2.3797524201
C -2.5483061737 0.3263072730 1.1964804907
O -2.5082097602 -0.0756973108 0.0499175098
O -2.0622792935 1.5411437843 1.5691112242
C -1.3478165046 2.2625666562 0.5357590913
C -0.0419372583 1.5943155156 0.1855019358
C 0.4599583993 1.7228800600 -1.1077211120
C 1.6739427976 1.1296455808 -1.4398717553
C 2.3949967437 0.3918779376 -0.5034494003
C 1.8856610755 0.2731336222 0.7859144431
C 0.6801823727 0.8734874140 1.1386009037
O 2.0666355168 1.2358582369 -2.7610602093
C 3.4183231232 1.2900600368 -3.0618249410
C 3.8534228248 0.5483126478 -4.1548633164
C 5.1871260851 0.6344989050 -4.5464588487
C 6.0763782353 1.4477128479 -3.8475470772
C 5.6227845948 2.1858471395 -2.7550035285
C 4.2911507928 2.1165802927 -2.3571787414
C -1.7104359946 -2.4943473331 1.5442931789
C -0.4277907786 -2.8070388703 1.7301475068
Cl 0.5385303991 -3.5688699557 0.4950637038
Cl 0.4437571860 -2.4851885936 3.2038789240
C -4.9149302454 -1.6819449465 3.5412108225
H -4.0650360926 -1.8373662748 0.1619351962
H -5.0176378595 -3.0050512230 1.1075587768
H -5.5901146112 -1.3418320286 0.8986645609
H -2.2758585264 -2.0753490740 3.5904739790
H -3.0376516732 0.1876617154 3.2928173361
H -1.1775674935 3.2500761926 0.9738840088
H -1.9793305120 2.3682705826 -0.3507154990
H -0.0900272611 2.2678534779 -1.8692805025
H 3.3287157437 -0.0852528143 -0.7797625492
H 2.4353200133 -0.3043078811 1.5227157686
H 0.2946174844 0.7651001017 2.1469204209
H 3.1482014045 -0.0829681829 -4.6853233647
H 5.5306729851 0.0573295394 -5.3992207106
H 7.1156645436 1.5090224814 -4.1529335083
H 6.3070557342 2.8293934504 -2.2107933917
H 3.9311156397 2.6950301802 -1.5127940473
H -2.1269237954 -2.7206369001 0.5690769844
H -5.7899767048 -1.0335879547 3.4258713860
H -4.3930533680 -1.3995422574 4.4598456934
H -5.2651849613 -2.7143957841 3.6461757376
