46
CONF7
C -4.9804273495 -3.3384505001 -0.8877633985
N -4.4700025565 -1.9880060828 -0.6718192443
C -4.5528006150 -1.0970876436 -1.8247884051
C -3.7719542869 -1.7100296078 0.4446787672
O -3.6212045750 -2.4878877596 1.3938235541
C -3.2186070294 -0.3147069132 0.5994284844
C -1.9920084796 0.1363169409 0.1208845523
N -1.4576473040 1.3238328056 0.3602299026
C -2.1486848220 2.1703403408 1.1277516380
C -3.3890603294 1.8383809309 1.6691580888
C -3.9222947564 0.5868078964 1.4062917016
S -0.9582382583 -0.8813551958 -0.9856309596
O -0.8324675111 -0.2042760972 -2.2842184973
O -1.4180783104 -2.2718233043 -0.9341504272
N 0.5887675482 -0.7553368968 -0.3077047883
C 0.7840042154 -0.9805443099 1.0439882390
O -0.0313169357 -1.5448514060 1.7608960666
N 1.9967762412 -0.5402045297 1.5505184094
C 3.0076285963 0.2235261113 0.9723902071
N 2.8543944210 0.6364343568 -0.2867451689
C 3.8506744288 1.3804441979 -0.7874585152
C 4.9843713112 1.7046418112 -0.0542224120
C 5.0208210005 1.2056663858 1.2466370058
N 4.0421100770 0.4654697580 1.7783583090
O 6.1001513861 1.4948806584 1.9819439682
C 6.1528911775 0.9796455913 3.3342276580
O 3.7622399449 1.8353990999 -2.0409801140
C 2.5756266699 1.4976327454 -2.7992040531
H -4.3609616323 -3.8606142388 -1.6281419609
H -6.0060736827 -3.2813495171 -1.2647511526
H -4.9636331031 -3.8903464193 0.0513173504
H -5.5791678340 -1.0971415389 -2.2044432380
H -4.2870042652 -0.0764439150 -1.5481626913
H -3.8823519353 -1.4398313753 -2.6234994121
H -1.6951897459 3.1399227230 1.3157524543
H -3.9216594191 2.5504279025 2.2894137109
H -4.8818757834 0.2931304340 1.8203149926
H 1.2534256789 -0.1034269620 -0.7594875568
H 2.1413114804 -0.7764680323 2.5239404107
H 5.7857020766 2.3029920588 -0.4660552621
H 6.1197210806 -0.1123514125 3.3289981538
H 5.3244834919 1.3749634941 3.9267499975
H 7.1057210732 1.3308338220 3.7287075808
H 2.4942398637 0.4139370374 -2.9204393105
H 2.7160382420 1.9768790376 -3.7671323986
H 1.6816100014 1.8900284176 -2.3066595353
