48
CONF1376
C -2.5967910786 2.1471227122 -1.5383435686
C -1.1789197003 2.1838138422 -2.1023099816
C -0.1168496318 1.9014913189 -1.0387108168
C 1.3080447122 2.0430402562 -1.5841458999
O 1.6003125954 2.6122253441 -2.6137349563
O 2.1894088892 1.5100075696 -0.7305189755
C 3.5832935340 1.4482342935 -1.1562335339
C 4.2901941103 0.5175155751 -0.1946513113
C 3.6950696432 -0.8982320039 -0.2097436207
C 4.4274392215 -1.8391272202 0.6941277888
C 3.8732036286 -2.4940337679 1.7133620445
N -0.3021968709 0.5983490696 -0.3744927235
C -0.2952254873 0.5874666036 1.1117602302
C -1.5201647159 1.1548846006 1.7286136379
C -2.6225464443 0.6096049793 2.3149955888
C -3.4567249742 1.6978973299 2.7191071415
C -2.8056500295 2.8344258488 2.3579795027
O -1.6167895906 2.5258690777 1.7587145106
C -0.0258846581 -0.4907457850 -1.1326468870
O 0.4643793971 -0.4473790851 -2.2542353101
N -0.3676749868 -1.7597014379 -0.5653883825
C -1.5233763280 -2.1238332227 0.1103702747
C -1.3962538510 -3.4627782259 0.3473246331
N -0.1952554292 -3.9360663959 -0.1555960779
C 0.3892711799 -2.8985115357 -0.7084673952
H -2.7237803781 2.8854271890 -0.7398210275
H -3.3222917706 2.3693850313 -2.3258862738
H -2.8379384605 1.1612574277 -1.1275389549
H -1.0702610961 1.4683846307 -2.9226857933
H -0.9627519729 3.1741327283 -2.5141842922
H -0.2103088975 2.6592607330 -0.2514228505
H 4.0010218881 2.4596681267 -1.1359793474
H 3.6120731304 1.0677897077 -2.1827133574
H 5.3476785116 0.4832638499 -0.4836094124
H 4.2459832219 0.9312680939 0.8198481072
H 3.7319932734 -1.2767112116 -1.2420437026
H 2.6404091690 -0.8578125216 0.0845783141
H 5.4900657719 -1.9740627089 0.4857483911
H 4.4519749483 -3.1654196126 2.3409079458
H 2.8165857834 -2.3775580023 1.9477910360
H -0.1651378154 -0.4367852113 1.4611097297
H 0.5842191843 1.1588032513 1.4340510211
H -2.8155278680 -0.4438475767 2.4545868709
H -4.4120300237 1.6384830920 3.2192475728
H -3.0272443912 3.8863476553 2.4514170476
H -2.3156543528 -1.4183653349 0.3054320625
H -2.1034640480 -4.1154606668 0.8398678416
H 1.3495957818 -2.8828248750 -1.2066696481
