44
CONF4
C 2.9946199387 -2.6906843616 -1.4041936334
N 2.2560134903 -1.7006491811 -0.6279589352
C 1.5597318955 -2.3465208776 0.4811869426
C 3.1592195481 -0.6454661025 -0.1679147671
C 2.4256577436 0.5249301741 0.5046615847
C 1.3948420464 1.1021805574 -0.4116832286
C 0.0647480419 1.1223864098 -0.2379107897
C -0.8153838001 1.5651013153 -1.3490156427
C -0.8462105265 2.8881231925 -1.7866700504
C -1.6753740620 3.2622496635 -2.8410194982
C -2.4782128197 2.3107902267 -3.4608052356
C -2.4427334430 0.9863846307 -3.0306205149
C -1.6160059231 0.5999769955 -1.9782076108
C -1.5336976930 -0.8181091582 -1.4899369241
C -2.2098532810 -1.0060447431 -0.1274130562
C -1.6465701759 -0.2531514190 1.0638297816
C -2.2109665527 -0.5587280982 2.3081868217
C -1.7905628742 0.0482443556 3.4822427409
C -0.7780150826 1.0016387780 3.4325297362
C -0.2047992134 1.3179874191 2.2107313165
C -0.6080253616 0.6967502256 1.0168839961
H 3.7764191254 -3.2083681976 -0.8123285846
H 3.4793544264 -2.2077342692 -2.2592394101
H 2.3047780211 -3.4491163633 -1.7891754657
H 2.2543657006 -2.7988391417 1.2179755480
H 0.9176021452 -1.6328683813 1.0057991730
H 0.9172812594 -3.1430978549 0.0905889208
H 3.6964269008 -0.2660703580 -1.0472657785
H 3.9245403950 -1.0401361888 0.5336687942
H 1.9817575214 0.2064138118 1.4509758812
H 3.1828551102 1.2813508066 0.7535554214
H 1.7690458861 1.4431937436 -1.3775669366
H -0.2200307002 3.6233726438 -1.2900853381
H -1.6952061117 4.2948910480 -3.1746373247
H -3.1268111003 2.5961028451 -4.2830432809
H -3.0556567099 0.2390841419 -3.5282207471
H -0.4793672882 -1.1177721119 -1.4232920998
H -2.0210993562 -1.4858996240 -2.2082564062
H -3.2695410333 -0.7315572056 -0.2251895105
H -2.1984068951 -2.0753008293 0.1221104628
H -3.0044235234 -1.3015688408 2.3466205533
H -2.2544261271 -0.2151217712 4.4274562831
H -0.4451886299 1.5025274287 4.3359345387
H 0.5673101677 2.0791251844 2.1551902785
