52
CONF209
C 0.8290252966 -2.9300629367 1.7519543665
N 2.0949002429 -2.3656114655 1.2691971934
C 3.0566615356 -2.3581586325 2.3878319941
C 4.4275109530 -1.8595374131 1.9552436997
C 4.3110525222 -0.4517650040 1.3819396509
C 3.2640621973 -0.4339605540 0.2722212088
C 1.9160767649 -0.9978646352 0.7363505452
C 0.9021016667 -0.9749969777 -0.4119427280
C 0.6482067370 0.4504251906 -0.9186881333
N -0.6497279620 0.5562010887 -1.5974341327
C -0.7715419165 1.4393499544 -2.6939373614
C 0.1442151266 2.4707737870 -2.9349968308
C 0.0135975954 3.2827103505 -4.0593513579
C -1.0502318796 3.1122773851 -4.9394242150
C -1.9981451685 2.1243841839 -4.6832660682
C -1.8504004442 1.2890659678 -3.5805328058
S -3.0051779287 -0.0373693572 -3.3001874886
C -3.0214433563 0.0222106583 -1.5241034379
C -1.8138709358 0.2933687159 -0.8526622249
C -1.8138540753 0.2609471216 0.5465117767
C -2.9856771876 -0.0576495716 1.2245081176
C -4.1744413614 -0.3326943421 0.5680288095
C -4.1881575155 -0.2645662427 -0.8235592803
S -2.9257031179 -0.1959965688 3.0394208103
O -4.2837692149 -0.7425705900 3.4871792460
C -2.9614421458 1.6040251106 3.4006840000
H 0.3025998634 -2.2489414884 2.4494546750
H 0.1534122180 -3.1656585816 0.9259524861
H 1.0360813920 -3.8639658213 2.2832446159
H 3.1310268187 -3.3816469089 2.7730039337
H 2.6817890796 -1.7231214604 3.2180016267
H 4.8360011152 -2.5381721200 1.1950381423
H 5.1069836769 -1.8801118023 2.8150014484
H 5.2766926146 -0.1013440225 1.0001989387
H 4.0069398892 0.2410635387 2.1787628326
H 3.1215197310 0.5907986012 -0.0875302521
H 3.6124523738 -1.0336648269 -0.5803888409
H 1.5240039852 -0.3408519699 1.5460971637
H 1.2669331153 -1.5976237399 -1.2379516569
H -0.0441820594 -1.4050439553 -0.0813236799
H 0.7310511950 1.1809094175 -0.0972306900
H 1.4110390134 0.7121806109 -1.6523597101
H 0.9612052785 2.6492555662 -2.2464134338
H 0.7458451683 4.0646543777 -4.2334307911
H -1.1543234722 3.7483258584 -5.8119483297
H -2.8457475115 1.9865832075 -5.3475438370
H -0.9068402718 0.4652589336 1.1060505271
H -5.0655597610 -0.5930440623 1.1283504751
H -5.1049696578 -0.4631802123 -1.3699423234
H -2.9689705572 1.7052658753 4.4886618348
H -2.0622629810 2.0640141514 2.9819184442
H -3.8665476687 2.0251264833 2.9553416234
