48
CONF20
C -5.8100732086 0.5986697456 -0.0019855002
C -4.4975150522 0.9617916023 -0.6812349256
C -3.3140252936 0.5791452311 0.2094899712
N -2.0311863658 0.8775226046 -0.4645621345
C -1.9270036700 0.1814475638 -1.7504348150
C -3.1180401487 0.5654897180 -2.6296357919
N -4.4231241003 0.3232846056 -2.0058176672
C -0.8967434506 0.9523005714 0.3229055124
C -0.8262296172 1.8671547265 1.4088665096
C 0.2798212271 2.0126425757 2.1945488843
C 1.4320831576 1.2495550603 1.9373481897
C 1.4026517781 0.3525775227 0.8503233260
C 0.2582510228 0.2083368242 0.0637730913
N 2.5451027659 -0.4102089836 0.5821649182
C 3.6596727868 -0.2766268295 1.3287385617
C 3.7523949874 0.5970751331 2.3820411373
C 2.6208670084 1.4118204294 2.7495498500
O 2.6585146557 2.2173752653 3.7204001434
C 5.0339094141 0.6599189240 3.1276852196
O 6.0104967529 -0.0155723056 2.8441559448
O 5.0498034465 1.5187687386 4.1496498738
C 2.5518379681 -1.3553808443 -0.4960428716
C 1.9299356411 -2.5911528731 -0.3374181956
C 1.9176692469 -3.5397667006 -1.3432970977
C 2.5621569806 -3.2062820029 -2.5248866426
C 3.1981782561 -1.9920655506 -2.7306197956
C 3.1831481940 -1.0607819636 -1.6993186911
F 2.5658733977 -4.1154563639 -3.5203314675
F 1.3184738145 -2.8631298120 0.8281105697
F -1.8833890548 2.6822475406 1.6352606907
H -5.8959187526 1.0987654336 0.9672629240
H -6.6570216647 0.8978716305 -0.6253879025
H -5.8703762767 -0.4832015787 0.1658182607
H -4.4565740330 2.0489249098 -0.8455629172
H -3.3688895153 1.1147972182 1.1572378482
H -3.3611934108 -0.5039826753 0.4256246410
H -1.9033120594 -0.9145404919 -1.6081608938
H -0.9996528121 0.4852423446 -2.2473122934
H -3.0472976644 1.6341187005 -2.8723547125
H -3.0586543517 0.0056379228 -3.5693402975
H -4.5408519605 -0.6809376095 -1.8779049463
H 0.2867683606 2.7424091683 2.9961807755
H 0.2608530460 -0.5043742636 -0.7493383468
H 4.4967231475 -0.9094874350 1.0534750085
H 4.1304968618 1.9558967179 4.1828117498
H 1.4313433349 -4.4984872776 -1.2075810071
H 3.6874182852 -1.7841342440 -3.6746531595
H 3.6626256125 -0.0952188244 -1.8202423277
