38
CONF44
C 1.8009704629 3.2000875831 1.5620099452
C 2.0858442244 1.6995632921 1.5275491760
C 1.8799458659 1.0838133802 0.1595478787
O 0.4880967836 1.2166383676 -0.1900573183
C 0.1823710025 0.7372986130 -1.4713347923
C -0.3542073606 -0.6851741314 -1.4789514201
N -0.6148596259 -1.4498104245 -0.5028617181
C -0.4678824772 -1.1675409082 0.8508870545
C 0.6410781342 -1.6812258180 1.5362754455
C 0.7714935909 -1.5275576973 2.9078965799
C -0.2318824470 -0.8768944739 3.6153902552
C -1.3688599696 -0.4028101343 2.9797522752
C -1.4934121905 -0.5580592743 1.6010329375
C -2.7455120146 -0.0960120520 0.9178980177
F -3.6314137135 0.4508544090 1.7799929497
F -2.5104154452 0.8406909261 -0.0404664212
F -3.3917704815 -1.1189703322 0.2946800932
Cl -0.0695166260 -0.6649503887 5.3537173951
N -0.6274780285 -1.1876272170 -2.7719385194
C -0.4247898112 -0.5559670322 -3.9965657879
C -0.8624762971 -1.4362134416 -4.9401301944
N -1.3339975221 -2.5970997316 -4.3443795710
C -1.1839779644 -2.4206242888 -3.0554934079
H 0.7564495848 3.4087796033 1.3143059219
H 2.0003521948 3.6108241979 2.5562094501
H 2.4328629372 3.7323104270 0.8423672020
H 3.1252248535 1.5054127060 1.8187866141
H 1.4517645025 1.1736410186 2.2516168556
H 2.4877334821 1.6034667635 -0.5970746212
H 2.1635433434 0.0213465957 0.1616423648
H -0.5974096388 1.3783287469 -1.9052766651
H 1.0557680188 0.7871618021 -2.1386065530
H 1.4094002637 -2.2001809890 0.9735992029
H 1.6466409544 -1.9132039210 3.4188348348
H -2.1529690475 0.0802315853 3.5490253105
H -0.0031370386 0.4313954777 -4.0867774793
H -0.8670681077 -1.3045586633 -6.0129930610
H -1.4465050693 -3.1173642530 -2.2725757254
