41
CONF31
C 1.5386174887 3.0048154726 -1.2237976184
C 2.7733803719 2.1832510574 -0.8456329436
C 3.1415895087 2.4442314795 0.6188663964
C 3.9376275521 2.5358116901 -1.7765778914
N 2.3809180218 0.7622205825 -1.0295121630
C 3.1714377649 -0.2922303280 -0.7642641393
O 4.3470604332 -0.2679312134 -0.4459481208
O 2.5820679469 -1.5461835050 -0.9070155652
C 1.2093883400 -1.6764579922 -1.1194615257
C 0.7801113884 -2.1853081755 -2.3381691740
C -0.5873504313 -2.3818325927 -2.5180768678
C -1.4932559055 -2.0491964408 -1.5194953079
C -1.0412054932 -1.5262740228 -0.2989289023
C 0.3321862067 -1.3607856020 -0.0891071293
N -1.9841906332 -1.2445646809 0.6954289761
C -1.8649696737 -0.2269267030 1.6437312995
O -0.9161518116 0.5641456979 1.6426457203
N -2.8672544459 -0.1949013687 2.5726941554
C -3.0029112874 0.9768969299 3.4310516596
C -3.9873930427 -1.1314486956 2.5784669204
H 0.6932562618 2.7619177969 -0.5703765635
H 1.7626128991 4.0687749103 -1.1143796086
H 1.2487225789 2.8178283761 -2.2633152530
H 2.3014015505 2.1904643280 1.2733204044
H 4.0130973093 1.8562154009 0.9157078735
H 3.3768877688 3.5046380844 0.7514320335
H 3.6626958478 2.3481344707 -2.8192478822
H 4.8257503675 1.9491781362 -1.5330224442
H 4.1793698291 3.5973116957 -1.6669171073
H 1.4105633711 0.5860496042 -1.2461030989
H 1.5004067253 -2.4219218455 -3.1130205812
H -0.9532680433 -2.7858812102 -3.4564645178
H -2.5581556120 -2.1894642574 -1.6799303850
H -3.8817959379 1.5690970496 3.1428130641
H -2.1105094888 1.5949455094 3.3431552141
H -3.1217489087 0.6617432770 4.4732563357
H -3.6407470211 -2.1620039999 2.4581848782
H -4.4845012486 -1.0626072306 3.5484571682
H -4.7294448571 -0.9012022411 1.7997564590
H -2.9057995726 -1.6161217292 0.5220633584
H 0.7139106880 -0.9904562001 0.8527505438
