46
CONF137
C -3.8837833383 0.0360356144 -1.6676818573
C -2.4978550020 0.0298823250 -2.2694634951
C -2.4718705559 0.3577174494 -3.7450553822
C -1.5031495606 -0.9626156052 -1.7037538656
C -0.5435528600 -1.6684642821 -2.5572169442
C -0.3315440283 -2.9844572253 -2.5449944132
Cl 0.8324732213 -3.7535117599 -3.5928126224
Cl -1.1657432639 -4.0943767561 -1.4917398510
C -1.3085487312 0.5281050637 -1.4490641390
C -1.5017628946 1.0462794884 -0.0805155130
O -2.0425948089 0.4688683282 0.8416360967
O -1.0022014062 2.3051505092 0.0161623734
C -1.1161761086 2.9339300200 1.3137848395
C -0.1280711011 2.3894123596 2.3129694369
C 1.0080458585 1.7033248274 1.8954001683
C 1.9044300444 1.2210336704 2.8456845832
O 3.0602363762 0.5574773626 2.4759517149
C 3.0108154544 -0.3015959847 1.3887924866
C 1.9610728634 -1.2026035328 1.2168465619
C 2.0010854526 -2.0871580307 0.1439676447
C 3.0768346874 -2.0789706480 -0.7434092763
C 4.1213291831 -1.1779692145 -0.5504098021
C 4.0927174711 -0.2815286120 0.5155224973
C 1.7080756163 1.4447794484 4.2038712455
C 0.5791280764 2.1516968884 4.6090219863
C -0.3443497594 2.6114328075 3.6752245397
H -4.5167138013 -0.6727120679 -2.2122377476
H -4.3334329987 1.0312112421 -1.7606300173
H -3.8750406705 -0.2459425437 -0.6139099782
H -2.9587035438 1.3232214133 -3.9178308718
H -1.4576028885 0.4132020336 -4.1453495715
H -3.0236106643 -0.4051639700 -4.3055423664
H -1.8692530918 -1.5105285833 -0.8407470284
H 0.0458081996 -1.0923457434 -3.2643784419
H -0.5369484055 1.0316935315 -2.0221946313
H -0.9211009960 3.9917852476 1.1149993963
H -2.1382731479 2.8253572836 1.6882394758
H 1.1924878233 1.5290554637 0.8410746484
H 1.1288677739 -1.2099167340 1.9130560133
H 1.1879283753 -2.7931860744 0.0086835911
H 3.1004689783 -2.7737528471 -1.5762105612
H 4.9640262719 -1.1656481465 -1.2346131591
H 4.8962242603 0.4293252321 0.6777475218
H 2.4255768432 1.0612773186 4.9212015395
H 0.4097078387 2.3253108579 5.6670389910
H -1.2354566348 3.1388245939 4.0028839831
