53
CONF154
C -1.4200749189 4.0555699658 -1.6916385422
C -0.6366663797 4.0372773038 -0.3946238322
O -0.5259516768 2.6807920777 0.1143003934
C 0.4512975552 1.9042577120 -0.4094115887
O 1.2955816336 2.3327497118 -1.1886767797
C 0.3403527666 0.5278352292 0.0635886127
C 1.3367584157 -0.3601697291 -0.1994748198
N 1.2256391351 -1.6580188161 0.2196627249
C 0.2467397288 -2.1142764771 1.0694516361
C -0.7853071991 -1.2845221835 1.4016835190
C -0.9500978392 0.0845308302 0.7460740116
C -2.0892384943 0.0598126943 -0.2743339651
C -1.9765766144 -0.8135210226 -1.3636154096
C -2.9498627285 -0.8997300556 -2.3494230042
C -4.0838300394 -0.0952302545 -2.2675195480
C -4.2301366219 0.7825080841 -1.2004758683
C -3.2399039646 0.8503829938 -0.2221737116
Cl -3.5194139826 1.9946951832 1.0927457993
C -1.7914269041 -1.7257925884 2.3622488621
O -1.8393306170 -2.8043586294 2.9405501085
O -2.7252383251 -0.7607944944 2.5669409213
C -3.7722146827 -1.0921214419 3.5005781469
C 0.4624499689 -3.5148887975 1.5551556839
C 2.6294846083 -0.0707985994 -0.9472117551
O 3.5784755363 -1.1190482525 -0.7775832194
C 4.3573769964 -0.9908367509 0.4325927882
C 5.5250025921 -0.0251520209 0.2621926331
N 6.4730500690 -0.3811082707 -0.8020177394
H -1.5425577883 5.0895719522 -2.0290926468
H -2.4120784800 3.6180207136 -1.5457907196
H -0.8968929281 3.4970300636 -2.4724347230
H -1.1634025336 4.5764953812 0.3959523034
H 0.3643996226 4.4588013954 -0.5177109587
H 2.0132589302 -2.2577276744 0.0069198183
H -1.2064602376 0.8138173705 1.5153958058
H -1.0919144467 -1.4411318032 -1.4280103179
H -2.8248507803 -1.5897536572 -3.1774972064
H -4.8561376143 -0.1463111299 -3.0280668141
H -5.1074147080 1.4149954557 -1.1219526458
H -4.3301835758 -1.9665508434 3.1552062552
H -3.3540410320 -1.2944464232 4.4902881113
H -4.4187084997 -0.2150766501 3.5312178862
H 0.6200146119 -3.5276276988 2.6365517004
H -0.4148337650 -4.1339108914 1.3594127661
H 1.3329839128 -3.9581066342 1.0654724849
H 2.4156947638 0.0001870550 -2.0192377024
H 3.0296335146 0.8961798275 -0.6331989387
H 3.7128675930 -0.6764267144 1.2681157231
H 4.7323914871 -1.9984245463 0.6453328821
H 5.1492793760 0.9874135075 0.0688012053
H 6.0594703196 0.0207353119 1.2198359629
H 6.8393459251 -1.3120760338 -0.6222451344
H 5.9631982306 -0.4557191474 -1.6776630501
