47
CONF7
C -1.8503704452 1.9737606047 2.4140512728
C -2.3071144844 1.4531998154 1.0535474707
C -3.7715282487 1.7873212682 0.7677556516
C -4.2573657844 1.2630803647 -0.5647865807
O -4.1945686786 -0.1977447581 -0.4993268003
C -4.3709117394 -0.8583540605 -1.6415447824
O -4.6512573836 -0.3520972814 -2.7095628923
C -4.2303411919 -2.3708738562 -1.4658404442
C -5.6042052919 -2.9873270088 -1.2471206724
O -3.4309250479 -2.7284880779 -0.3358333456
C -2.1165219512 -2.3438082414 -0.3250283515
C -1.4359155599 -2.5709633958 0.8746790190
C -0.1012961395 -2.2112743137 0.9971427672
C 0.5447233369 -1.6243458735 -0.0824787455
C -0.1129921880 -1.4020603356 -1.2796607988
C -1.4533805467 -1.7613485780 -1.4079022760
O 1.9131695407 -1.3315972409 0.0212273616
C 2.2799493595 -0.0593128011 0.3280135199
N 1.3484820397 0.8486684506 0.5758206719
C 1.7542312990 2.0881734685 0.8792519444
C 3.0927689252 2.4458855155 0.9463216091
C 4.0637901944 1.4724575664 0.6781460666
C 3.6586736326 0.1938742425 0.3644410829
C 3.5031003126 3.8459536599 1.2608749462
F 4.5830801004 3.8845740415 2.0827714132
F 2.5176533091 4.5512205578 1.8620681358
F 3.8541946228 4.5424126452 0.1430050067
H -1.9353459394 3.0649729448 2.4679478684
H -0.8078058638 1.7049529651 2.6101034162
H -2.4625992916 1.5505572681 3.2182011903
H -2.1663140122 0.3667103433 1.0096761086
H -1.6788807021 1.8790971706 0.2598644233
H -3.9107659857 2.8761111381 0.7598724858
H -4.4119605152 1.3926962310 1.5670115404
H -5.2925829657 1.5501546548 -0.7739290723
H -3.6206623882 1.5952367249 -1.3914804115
H -3.7869561605 -2.7624334517 -2.3901863060
H -6.2527986107 -2.7496277858 -2.0934468963
H -5.5078703087 -4.0727587604 -1.1685945181
H -6.0530774011 -2.5978829309 -0.3292394144
H -1.9670107099 -3.0239524534 1.7051451122
H 0.4360285944 -2.3772289482 1.9249569147
H -1.9514003194 -1.5805356328 -2.3529657569
H 0.9718051032 2.8162897939 1.0788832570
H 5.1198358575 1.7180334538 0.7201324264
H 4.3665582397 -0.5984024046 0.1521178772
H 0.4139928374 -0.9459806925 -2.1112108620
