49
CONF29
C -3.5045709205 1.5576781866 -0.0712176842
C -3.2732938275 0.6723858924 1.1354662526
C -1.8506540002 0.4976393454 1.7076437085
C -2.5926849152 -0.6552145949 0.9889754592
C -2.9872546925 -1.8197984548 1.8770173470
C -2.1131326980 -1.1285547538 -0.3664218772
C -0.6714022416 1.1366039023 1.1307489781
O -0.4372792482 1.4084288007 -0.0296616665
O 0.2358287151 1.4136163056 2.1386034890
C 1.5057057509 1.9538370850 1.6856206352
C 1.9763734176 2.8197743298 2.7643939827
N 2.3678204851 3.5091897676 3.6038159484
C 2.4762525214 0.8367105925 1.3726689223
C 3.1049590577 0.1276702532 2.3973165418
C 3.9374097858 -0.9398645524 2.0776116130
C 4.1307295007 -1.3150838597 0.7515254917
C 3.4908243907 -0.6018273408 -0.2581079421
C 2.6735252049 0.4856047991 0.0396599163
O 3.7573610223 -0.9786298858 -1.5578754793
C 2.7527846193 -0.8556667263 -2.5090373514
C 3.1213365359 -0.3705307056 -3.7586713998
C 2.1638422189 -0.3023277898 -4.7679971633
C 0.8531243672 -0.7077506808 -4.5259680599
C 0.5023015265 -1.1935483792 -3.2669053748
C 1.4496556072 -1.2758581389 -2.2508436042
C -4.3632618876 0.8552244604 2.1746465977
H -3.5914685799 2.6020221297 0.2480243067
H -4.4515277661 1.2733059373 -0.5442800151
H -2.7131796328 1.4992622958 -0.8153453599
H -1.8018548248 0.3981561659 2.7869250652
H -2.1732853604 -2.5517108003 1.9070900886
H -3.2092329375 -1.5225312695 2.9025292191
H -3.8719699212 -2.3175443660 1.4630017834
H -1.7853478320 -0.3229927021 -1.0201166979
H -2.9259663673 -1.6713020731 -0.8627002253
H -1.2747499156 -1.8233113942 -0.2417833517
H 1.3417467469 2.5726905507 0.7959455766
H 2.9458911453 0.4061133970 3.4344573559
H 4.4345111747 -1.4936356781 2.8672767683
H 4.7693564168 -2.1522823339 0.4904603699
H 2.1857119514 1.0421024022 -0.7523713428
H 4.1453906434 -0.0548675887 -3.9287762128
H 2.4462537855 0.0757535457 -5.7455669278
H 0.1093616921 -0.6488347975 -5.3136748040
H -0.5142974626 -1.5211246188 -3.0725637005
H 1.1820468257 -1.6609597773 -1.2721922330
H -5.3224476654 0.5126645525 1.7692052901
H -4.4629093635 1.9175311447 2.4214810946
H -4.1683334508 0.3117872137 3.0996356795
