28
CONF5
C 1.3848938370 0.9656391216 -0.4627982463
N 0.4362936692 1.1719370788 0.6292399467
C -0.9349731286 1.5576821361 0.4142141565
N -1.8447506600 0.4007672748 0.5998167685
C -1.3759620316 -0.9702018189 0.4686639358
N -0.4360003518 -1.1657417746 -0.6330794812
C 0.9335830099 -1.5646107363 -0.4325302076
N 1.8491667211 -0.4071598163 -0.5781662774
N 3.1765524564 -0.6850026359 -0.2922682652
O 3.4352018516 -1.8658909677 -0.0757032796
O 3.9799763104 0.2341763985 -0.3283186655
N -0.9276005198 -1.1113034815 -1.9333002418
O -2.1199068269 -0.8636614129 -2.0474673596
O -0.1234159660 -1.2852792522 -2.8370925689
N -3.1767880008 0.6701182633 0.3113421236
O -3.9754281494 -0.2516786558 0.3669705719
O -3.4409441036 1.8456046974 0.0769859452
N 0.9195811276 1.1410451664 1.9335486659
O 2.1107597527 0.8953793155 2.0603696146
O 0.1089461308 1.3313668162 2.8281009641
H 2.2692869736 1.5945705741 -0.3423515866
H 0.8601588444 1.2563393216 -1.3772732364
H -1.0182037659 1.9441227829 -0.6072872131
H -1.2237171797 2.3429378713 1.1151606082
H -2.2587608810 -1.6025070399 0.3533326511
H -0.8408474530 -1.2645648610 1.3758253402
H 1.0171668339 -1.9865088557 0.5745679057
H 1.2157310971 -2.3275754303 -1.1605025742
