43
CONF90
C 2.0376695915 1.8937120407 3.7905769630
C 0.6188259829 1.5385780324 3.4089939587
O 0.6992062811 0.8177536261 2.1643062700
N -0.5731084299 0.4527145523 1.7660164182
C -0.5945982509 -0.0903105009 0.6107525024
C -1.8350610613 -0.6646778607 0.0706774397
C -2.2493221720 -0.3221555620 -1.2343028266
C -3.3993648743 -0.8858884790 -1.7817403619
C -4.1348452088 -1.8040720764 -1.0403974319
C -3.7328702618 -2.1575692058 0.2366355563
C -2.5843812672 -1.5934449635 0.8115665621
O -2.1421689622 -2.0099749290 2.0278240189
C -2.7993669769 -1.3952652457 3.1545165876
Cl -4.6376330474 -3.3717820261 1.1151646527
O -1.4729884389 0.5894627187 -1.8680447361
C -1.8507414880 1.0069547032 -3.1768779201
O 0.5369013928 -0.3080730850 -0.1626919002
C 1.2442126637 0.7868142528 -0.6237334581
O 0.8869804349 1.9252738323 -0.4780608642
C 2.4693168421 0.3561663145 -1.3389934243
C 2.8405758489 -0.9860445750 -1.4623480949
C 4.0032880033 -1.3206925190 -2.1459915026
C 4.7978431774 -0.3240378721 -2.7065683588
C 4.4297738479 1.0143156400 -2.5834000423
C 3.2698907933 1.3548185810 -1.9019182838
H 2.6422915102 0.9923455714 3.9229977685
H 2.4994297074 2.5138871782 3.0175506586
H 2.0374028129 2.4524852197 4.7308554501
H 0.1402505080 0.8998166123 4.1631169966
H 0.0030024722 2.4344672322 3.2626716551
H -3.7331150652 -0.6228230151 -2.7767032927
H -5.0236630300 -2.2570508688 -1.4643729458
H -2.3796645363 -1.8765397736 4.0393665438
H -3.8802103951 -1.5695122066 3.1203253099
H -2.5805309148 -0.3228444254 3.1706437705
H -2.8409498832 1.4795860954 -3.1708608159
H -1.0997041892 1.7387432909 -3.4758215148
H -1.8449134480 0.1646409552 -3.8803031073
H 2.2208419213 -1.7577897909 -1.0228303658
H 4.2915329045 -2.3625320115 -2.2405707375
H 5.7056046293 -0.5900860463 -3.2389016281
H 5.0498701618 1.7912729387 -3.0185102705
H 2.9644903402 2.3893582696 -1.7906150874
