36
CONF1
C 3.6169042237 0.8978065334 1.9423478262
C 3.4168490349 0.3139254486 0.5321667354
C 3.3213526663 1.4538852759 -0.5009935633
C 3.2207098526 0.9497355560 -1.9436074315
C 4.4064341474 0.0424836808 -2.2808737535
C 4.5230885206 -1.1035977215 -1.2744278960
C 4.6139921587 -0.5795468277 0.1598654523
C 2.1604234878 -0.5807141885 0.6268938123
O 2.2255915300 -1.7359499533 1.0190357463
N 0.9758979679 0.0478636776 0.3166743621
C -0.3257684452 -0.4619305214 0.3618045997
C -1.3754853186 0.3196235780 -0.1522529264
C -2.6936472011 -0.1362876707 -0.1187651821
C -2.9986278862 -1.3900165508 0.4224188148
C -1.9571555941 -2.1627390274 0.9272930915
C -0.6486415948 -1.7139634390 0.9019071863
O -4.2586010880 -1.8882932455 0.4803625598
Cl -4.0014436893 0.8338269583 -0.7513426633
Cl -1.0302018511 1.8900953796 -0.8414922325
H 3.6983025292 0.0951665500 2.6812256382
H 4.5367883945 1.4914724045 1.9716539683
H 2.7815918119 1.5473587133 2.2263345397
H 4.2391316780 2.0494679879 -0.3992412330
H 2.5086926227 2.1544573456 -0.2603040835
H 2.2867542034 0.3883784234 -2.0833764965
H 3.1799718761 1.8019308646 -2.6315310379
H 4.3026635991 -0.3506747690 -3.2984706224
H 5.3307977918 0.6373324619 -2.2624681476
H 5.4025062183 -1.7176147458 -1.4990643951
H 3.6503197157 -1.7641132875 -1.3618015564
H 5.5250555468 0.0242474156 0.2719609163
H 4.6775074607 -1.4100782554 0.8681015437
H 1.0513685851 0.9888906839 -0.0360436836
H -2.1965326093 -3.1334626351 1.3465399050
H 0.1488226912 -2.3262020161 1.2962040192
H -4.8719052322 -1.2469988129 0.0941959969
