32
CONF6
C 1.7446159176 1.7382347201 -0.5607286363
C 1.2805853684 0.5848498455 0.3271722454
C 0.3861991256 1.0185223165 1.5233885374
C -0.8538364143 0.1133469763 1.4189228928
C -0.4089791725 -1.3232751289 1.7603628105
C 0.4071681762 -1.7419549664 0.5055475113
C 0.3738087081 -0.4838192431 -0.3962207564
C -1.0841124677 0.0410255180 -0.1138521819
C -1.4799712472 1.3855471439 -0.7380765715
C -2.1787532536 -0.9497452939 -0.5353714022
C 0.7369768791 -0.7691892079 -1.8400634090
O 2.4734450858 0.0055643943 0.8998292905
H 2.2386751154 2.4894973089 0.0631220729
H 2.4724409810 1.3832965852 -1.3003904303
H 0.9332843504 2.2165444311 -1.1099978804
H 0.1268286800 2.0789807431 1.4557863076
H 0.9290507574 0.8735357732 2.4611960161
H -1.7109516353 0.4682671209 2.0003328618
H 0.1953661143 -1.3471096819 2.6717996577
H -1.2697320179 -1.9792793454 1.9209673791
H -0.0489287395 -2.5881981227 -0.0160172122
H 1.4296153868 -2.0259048272 0.7543677330
H -2.5433930952 1.5691314594 -0.5497789542
H -1.3453072934 1.3693047786 -1.8257581258
H -0.9355216739 2.2406119851 -0.3402528673
H -2.2884537859 -0.9529590957 -1.6257573341
H -3.1399541743 -0.6351586593 -0.1139893537
H -1.9992185481 -1.9761503986 -0.2161562788
H 1.7735024857 -1.1186932464 -1.9267445587
H 0.6300765160 0.1146508291 -2.4768164215
H 0.0981667628 -1.5592281627 -2.2487729697
H 3.0573072140 -0.2402468508 0.1719497158
