63
CONF20
C 4.1754203809 0.1260028774 5.0614662438
O 4.8947696237 0.0095820950 3.8065389624
C 4.1651150895 0.2675581916 2.7233285357
O 3.0008870662 0.5992292648 2.7012061802
O 4.9681345507 0.1211583751 1.6472197629
C 4.3005749187 0.1701727905 0.3733059886
O 3.7702530115 -1.1027663288 0.0707021574
C 2.4530159945 -1.3376307663 0.3296821206
C 1.4528062265 -0.8776772453 -0.4966013936
C 1.7174431213 -0.1399233586 -1.7775705327
O 2.8337798464 0.2955447756 -2.0532171869
N 0.6545760470 -0.0275195508 -2.6296322112
C 0.8881686529 0.1213444763 -4.0699250362
C 0.8042718479 -1.2692321624 -4.6966024000
O -0.4520748422 -1.8959737433 -4.3995817617
C -0.6608173351 -2.0521311130 -2.9946493523
C -0.6369623059 -0.6682038805 -2.3418764505
N -0.9234143101 -0.6825183554 -0.9236895298
N 0.1515172270 -1.2812748400 -0.2361414749
C -0.1540990483 -2.1218745329 0.7849272476
C 0.8075923120 -2.6014741215 1.6182981362
C 2.1833680451 -2.2160598674 1.4773558759
O 3.0956584051 -2.5843870075 2.2401817472
C -1.2010573208 0.6970403048 -0.3583633316
C -2.3416268664 1.3712263168 -1.0845922666
C -3.6143598636 0.7825034922 -1.1909681739
C -3.9065290727 -0.5721479499 -0.6364866400
S -4.0034112180 -0.5663708918 1.1978658405
C -2.4906594135 0.1290928861 1.8377386132
C -2.4893980700 0.1392229212 3.2425957942
C -1.4086252943 0.6241110511 3.9609753541
C -0.2968554745 1.1234920008 3.2880125714
C -0.2980724971 1.1273178959 1.9020929036
C -1.3729130740 0.6359712053 1.1459634055
C -4.6143437902 1.5087737977 -1.8265589417
C -4.3756993875 2.7710040535 -2.3549242595
C -3.1262209767 3.3490988381 -2.2598765143
C -2.1138350995 2.6376590223 -1.6236211836
F -5.3860173190 3.4153857669 -2.9686526122
F -5.8523773689 0.9907706868 -1.9507320289
H 4.9043804262 -0.1251329382 5.8302908766
H 3.3395733993 -0.5770629783 5.0767452002
H 3.8121809612 1.1477725014 5.1924736666
H 5.0889125056 0.3759481845 -0.3478136659
H 3.5246717285 0.9376549505 0.3817808043
H 1.8696478788 0.5687285871 -4.2358715852
H 0.1138050084 0.7770751358 -4.4837768533
H 0.8642265983 -1.2031277569 -5.7859777121
H 1.6311969999 -1.8934046597 -4.3228631855
H 0.1139776181 -2.7005360417 -2.5551878489
H -1.6437424280 -2.5138379338 -2.8673574263
H -1.4129587437 -0.0588479412 -2.8205951727
H -1.2070761091 -2.3626475685 0.8769116157
H 0.5290606241 -3.2743546817 2.4209210897
H -0.3176155366 1.3248899060 -0.5318383201
H -3.1678363095 -1.3064690817 -0.9555887248
H -4.8987968607 -0.9172331660 -0.9347192351
H -3.3539557792 -0.2481290923 3.7750739037
H -1.4391288751 0.6094848336 5.0457599605
H 0.5629894117 1.4987712286 3.8308842686
H 0.5702039160 1.5100021919 1.3735069629
H -2.9552870177 4.3334629217 -2.6812018503
H -1.1264145393 3.0808953247 -1.5449084597
