73
CONF1440
C 0.4121809819 2.4429248772 -2.3882520582
C -0.7170402345 2.5900760309 -1.3922731683
O -1.9487884568 2.4394902333 -2.1379307618
C -3.1228021827 2.5107301949 -1.3594377548
O -3.2076145036 1.4662181610 -0.3988767642
C -3.5278342437 0.1788031042 -0.9303209539
C -5.0011874608 -0.1285410071 -0.6818124988
O -5.7714272862 0.7658378710 -1.4803427890
C -5.3385770904 -1.5835147407 -0.9943987441
O -6.6977605818 -1.7754966531 -0.5878726968
C -4.3835761601 -2.4996207420 -0.2258999023
C -4.5558141517 -3.9684800851 -0.5555268723
O -3.6906268456 -4.7925851137 0.2245366525
O -3.0370049402 -2.1622485076 -0.6117116481
C -2.6730958954 -0.8568021154 -0.2048656140
O -1.3324705594 -0.6577071153 -0.5910423539
C -0.3447527342 -1.2216998633 0.1648473177
C -0.5905597358 -2.1141955803 1.2090208866
C 0.4963435632 -2.6123716648 1.9190894791
O 0.2693347597 -3.4916515352 2.9060439649
C 1.8275200954 -2.2324484778 1.5966170796
C 2.9524520969 -2.8505097984 2.2449290219
O 2.8265344264 -3.6868683143 3.1616195367
C 4.3103186588 -2.4666728355 1.7204018252
C 4.2990217884 -1.0434279261 1.1780022452
O 3.2569554849 -0.9106782735 0.1586621518
C 2.0194772469 -1.3196379341 0.5292330185
C 0.9478362013 -0.8182686335 -0.1863900195
C 5.5969177075 -0.6300000584 0.5526314810
C 6.0603570758 -1.2514402066 -0.6118322469
C 7.2737703640 -0.8900038810 -1.1772744368
C 8.0516173183 0.1001811416 -0.5707420562
O 9.2383075661 0.4137358140 -1.1663366072
C 7.6050342988 0.7274854449 0.5927642190
C 6.3789106698 0.3629956029 1.1406751977
C -3.2191272910 3.8217040253 -0.5682472383
O -3.3527524993 4.9312544992 -1.4627882281
C -1.9390639830 4.0484112498 0.2269132039
O -1.9591874249 5.3038016038 0.9121659438
C -0.7209717354 3.9453195971 -0.6875708812
O 0.4846357509 4.0433105326 0.0742446816
H 1.3751113068 2.5106970916 -1.8764286903
H 0.3580139599 3.2332420840 -3.1440709650
H -0.6603459063 1.8001908203 -0.6304663637
H -3.9461350080 2.4413837319 -2.0801831803
H -3.2993413624 0.1289683252 -2.0037792242
H -5.2090439363 0.0420525078 0.3887273644
H -5.2226174567 -1.7599037905 -2.0740253116
H -7.0948129539 -2.4551334028 -1.1452803072
H -4.5100576278 -2.3444712708 0.8585252840
H -4.3838378064 -4.1172189598 -1.6327336473
H -5.5789807241 -4.2742983853 -0.3190557431
H -2.7837459052 -4.5242854346 0.0252975347
H -2.7807116797 -0.7402643372 0.8872239556
H -1.5834508320 -2.4608485542 1.4628947412
H 1.1687009876 -3.7605712933 3.2471533546
H 4.5794418912 -3.1735865108 0.9229522165
H 4.0406663945 -0.3494613413 1.9898931529
H 5.4611630505 -2.0211078089 -1.0893534144
H 7.6316983360 -1.3653939888 -2.0847187900
H 9.6824684121 1.1054494309 -0.6578814243
H 8.2086875256 1.5010100143 1.0598088248
H 6.0303231582 0.8604290450 2.0415203349
H -4.0784882344 3.7652842644 0.1125688120
H -4.2738147739 4.9827432863 -1.7454779787
H -1.8574875470 3.2771024161 1.0014336654
H -2.2441048351 5.9646173678 0.2635404812
H -0.7625521369 4.7439041641 -1.4459272181
H 0.3865792259 4.8199012748 0.6424558548
H 0.3492287640 1.4719075445 -2.8881482910
H 5.0536585309 -2.5626234544 2.5165711099
H -6.7007991151 0.5547553996 -1.3161084595
H 1.1028802777 -0.1084270670 -0.9893636065
