55
CONF139
C -5.8544015723 -3.4004461362 -1.0637772598
C -4.4798019908 -3.8680993439 -0.6362028275
O -3.7914820668 -2.8366530099 0.1307833261
C -3.1638736895 -1.8797127074 -0.5929033408
O -3.0917306788 -1.8563138240 -1.8089740726
N -2.6198868399 -0.9579571291 0.2653957856
C -1.8023830311 0.1243807437 -0.0894249799
C -0.9019133624 0.5929003351 0.8721507982
C -0.0316143179 1.6308356379 0.5662014654
C -0.1314361501 2.2903063189 -0.6633027307
C -1.0615287360 1.8512105021 -1.6024470475
C -1.8785196242 0.7606551144 -1.3343427617
S 0.9218096097 3.6859251477 -0.9877496500
C 0.9839797218 4.3483927512 0.6662125272
C 1.0418860693 5.7261949611 0.8763273387
C 1.1045276134 6.2188404507 2.1755346503
C 1.0753176229 5.3452498729 3.2619623135
C 1.0009669900 3.9721915538 3.0534678973
C 0.9803532540 3.4719290595 1.7548546672
N 0.9561169191 2.0654543786 1.4997536376
C 2.0569107307 1.2916131599 1.8779711941
O 2.9357336587 1.7641810134 2.5909344104
C 2.1619076855 -0.0943507069 1.3004678316
C 2.7501383543 -0.0133751259 -0.1417439565
N 2.6104438196 -1.2197578442 -0.9467175488
C 3.2163894752 -2.4067313062 -0.3376320776
C 3.1457904422 -3.5676195056 -1.3175929387
O 1.7906633986 -3.8467163851 -1.6894021787
C 1.1960851989 -2.6863182187 -2.2836101269
C 1.2248995145 -1.5069834835 -1.3251909995
H -6.3676175240 -4.2173846649 -1.5807725799
H -5.7848174384 -2.5504944554 -1.7476046456
H -6.4528302801 -3.1126799956 -0.1947144192
H -3.8587050505 -4.1464191220 -1.4914173128
H -4.5403699366 -4.7107176174 0.0556128109
H -2.6585250580 -1.1959992487 1.2465424292
H -0.8513579809 0.1239830008 1.8500658003
H -1.1522405649 2.3662710306 -2.5534083555
H -2.5883075853 0.4237676932 -2.0763381665
H 1.0345192673 6.4034304646 0.0282917683
H 1.1562221886 7.2903729513 2.3384725246
H 1.1066104641 5.7332872466 4.2745698844
H 0.9785623739 3.2808181296 3.8880449820
H 2.8341598367 -0.6569411017 1.9508351468
H 1.1986873145 -0.6029444157 1.2751567019
H 2.2624884124 0.8033811175 -0.6875665259
H 3.8153076447 0.2359300535 -0.0622551865
H 4.2655650454 -2.1940622980 -0.0966832334
H 2.7020655867 -2.7008063690 0.5968966340
H 3.7361471884 -3.3346463979 -2.2186289776
H 3.5379819896 -4.4799171512 -0.8590052343
H 1.7335295394 -2.4296540659 -3.2108234181
H 0.1638776041 -2.9532529233 -2.5289166886
H 0.5891212816 -1.7500477091 -0.4519363096
H 0.7945782765 -0.6245013154 -1.8154195037
