46
CONF14
C 4.4246602136 -3.2230710049 2.5413589018
C 4.1670098655 -3.9310713539 1.2269227283
O 4.0697403605 -2.9842311148 0.1305558522
C 2.9063008152 -2.3634872333 -0.0756830965
N 2.9413947794 -1.4767170284 -1.0716855560
C 1.7648426065 -0.8811827447 -1.3084928972
N 0.6117302391 -1.1514026901 -0.6483697967
C 0.7388065242 -2.0132355551 0.3485223891
N 1.8595870934 -2.6640019951 0.7015705419
N -0.3635301210 -2.2803251918 1.1407805522
C -1.6532256698 -1.7190185877 1.1317406818
O -2.3891052673 -1.8670074362 2.0862479770
N -1.9772356390 -1.0636357219 -0.0439507023
S -3.3857293226 -0.1179903921 -0.1975763265
O -3.2991513712 0.4228965959 -1.5571143264
O -4.5360837208 -0.8905672868 0.2492554396
C -3.1218894946 1.2387555640 0.9547474460
C -3.7118548812 1.1535313671 2.2095874287
C -3.5767796877 2.2177223942 3.0951544179
C -2.8784056692 3.3576738525 2.7124489743
C -2.3007664611 3.4379696167 1.4492502467
C -2.4007083006 2.3695556649 0.5593273314
C -1.6733202038 2.4549529478 -0.7480047708
O -0.7212193229 1.7645859692 -1.0446858908
O -2.1597840182 3.4470634032 -1.5042099493
C -1.5349504990 3.5869286434 -2.8007874290
N 1.6852153386 0.0571389878 -2.2696129115
C 2.8535319587 0.5502001605 -2.9788239691
H 4.5875227665 -3.9648375674 3.3297882295
H 5.3158342010 -2.5934917538 2.4701831417
H 3.5707444449 -2.6026352393 2.8228514139
H 5.0143252233 -4.5607948836 0.9444695243
H 3.2598588050 -4.5395746229 1.2649778553
H -0.1816748713 -2.8491540338 1.9552066251
H -1.1749929226 -0.7908151482 -0.6403092683
H -4.2688487512 0.2617552287 2.4721058942
H -4.0287968826 2.1573559429 4.0792012298
H -2.7851427037 4.1940287765 3.3972043969
H -1.7609616329 4.3294986733 1.1479149840
H -2.0552362033 4.4127458814 -3.2839310224
H -1.6620836637 2.6627329447 -3.3701605146
H -0.4708230565 3.8108859363 -2.6884330206
H 0.8407095457 0.6122936761 -2.2543439403
H 3.5135379137 1.1379920064 -2.3281338672
H 3.4306452753 -0.2871303752 -3.3770170438
H 2.5163020766 1.1771143096 -3.8071051973
