45
CONF8
C -4.4288509866 3.7549837931 0.8131769803
C -4.3604885469 2.2616214206 0.8123088135
C -3.2829170085 1.5489836878 0.4651165615
C -3.2737475305 0.0771086500 0.4494489819
C -2.0906470155 -0.7619280176 0.9825352175
C -2.4520185625 -0.7392710962 -0.5077759138
C -1.5362751865 -0.0657236548 -1.5029485272
C -3.0707733974 -2.0188284403 -1.0274377816
C -0.8587025677 -0.1413312936 1.4819749301
O -0.3899751165 0.9407032743 1.1832346049
O -0.2466639477 -0.9805377934 2.3700482953
C 1.0414384598 -0.5343036900 2.8675207248
C 2.0847661646 -0.6139161144 1.7897532166
C 2.7573911764 0.5032972381 1.3101735573
C 3.6759546779 0.4067145791 0.2728015771
C 3.9751399891 -0.8060936575 -0.3344791194
C 3.3081407752 -1.9246719692 0.1556073866
C 2.3952274599 -1.8331791908 1.1927077929
F 1.7940069943 -2.9544131840 1.6301405312
F 3.5555617388 -3.1324443297 -0.3832494445
C 4.9213787484 -0.9242939642 -1.5061448559
O 4.2208460314 -1.1357456223 -2.7309901244
C 3.4782734130 0.0150051680 -3.1432927932
F 4.2754301619 1.5355783326 -0.1521342421
F 2.5258602886 1.7136328840 1.8446861473
H -4.6761377714 4.1359732606 1.8117045117
H -5.2179165245 4.1130513297 0.1405002423
H -3.4793604983 4.1981513614 0.4991291593
H -5.2652131569 1.7330144514 1.1173745376
H -2.3766945921 2.0689990152 0.1681423793
H -4.2290502099 -0.3681360777 0.7215613759
H -2.3666568627 -1.6702949292 1.5070136129
H -2.1127578401 0.2141356150 -2.3916983958
H -0.7517653944 -0.7634845127 -1.8168470227
H -1.0573200791 0.8278631374 -1.1046069082
H -2.2912157127 -2.7426044105 -1.2902794360
H -3.6571331154 -1.8085345779 -1.9291479939
H -3.7325316881 -2.4753548791 -0.2860165999
H 0.9640359512 0.4818744879 3.2561150956
H 1.2706704264 -1.2265758835 3.6794100460
H 5.5647886197 -1.7967781625 -1.3697601894
H 5.5486820696 -0.0262405835 -1.5678598520
H 3.0313539098 -0.2289199885 -4.1089729569
H 2.6780090254 0.2555858110 -2.4290904668
H 4.1378580400 0.8873282456 -3.2527865560
