32
CONF10
C -3.6877473721 -0.6185084232 0.3862929709
C -3.6909508527 0.7095734882 0.0757227575
C -2.4927431761 1.4107342995 -0.2093012303
C -1.2633468348 0.7037378818 -0.1345723229
C -1.2598572721 -0.6959706624 0.1901792856
C -2.4862363568 -1.3686918492 0.4374824532
N -2.5908174604 -2.7039378867 0.6931827754
C -0.0002169992 -1.4237923499 0.2798335666
O 0.0021649218 -2.6594074351 0.5591200493
C 1.2569949800 -0.7223913272 0.0518070162
C 2.4867798687 -1.4288663241 0.1279840180
C 3.6905547049 -0.7088159164 -0.0761549862
C 3.6897064820 0.6297046948 -0.3378101931
C 2.4848868736 1.3711250259 -0.4252303725
C 1.2556554939 0.6856106757 -0.2349788163
C -0.0052713740 1.4069513940 -0.3536954582
O -0.0075151367 2.6409365668 -0.6404070412
N 2.5883975128 2.7119562768 -0.6511942474
N 2.5881952699 -2.7700280924 0.3507302526
N -2.6030211972 2.7224072445 -0.5689298526
H -4.6251364304 -1.1271858009 0.5942373092
H -4.6308671775 1.2535115408 0.0370089924
H -1.7322417091 -3.2012531886 0.8865323547
H -3.4654627802 -3.0481405917 1.0552360632
H 4.6324439262 -1.2476597241 -0.0201682920
H 4.6311653977 1.1522150995 -0.4836780927
H 1.7340457480 3.2043306265 -0.8740058339
H 3.4740021868 3.0690021749 -0.9717884507
H 3.4944845342 -3.1436827131 0.5819340403
H 1.7505162629 -3.2487914721 0.6519277194
H -3.4742166618 3.1897677009 -0.3747113795
H -1.7443453775 3.2555590506 -0.6025852506
