47
CONF208
C -6.5485687990 2.9866683049 1.5670189310
C -5.6583279069 1.7489633009 1.4797684578
C -6.4726713152 0.4552438722 1.4522235811
C -5.6231350306 -0.7942909422 1.4147029131
O -4.8879361730 -0.7885659292 0.1478314208
C -3.9921944928 -1.7664120611 -0.0231623003
O -3.7402271731 -2.6321130404 0.7861080544
C -3.3627562029 -1.6688494757 -1.4141769968
C -4.2140004063 -2.4428221040 -2.4101708489
O -2.0700190956 -2.2712461497 -1.4156044900
C -1.0768688307 -1.6722357886 -0.6864381798
C 0.1425810706 -2.3579446453 -0.6659074408
C 1.2195358969 -1.8430127980 0.0382566902
C 1.0724696190 -0.6396166579 0.7175821845
C -0.1264740516 0.0490250785 0.7083212776
C -1.2143344455 -0.4657750955 0.0027451505
O 2.1250570219 -0.1531144580 1.5070185038
C 3.1331994195 0.5253514209 0.8989424712
N 3.0738858440 0.7613676870 -0.4027716305
C 4.0892652363 1.4373739506 -0.9573924209
C 5.1787348733 1.8894811700 -0.2282635053
C 5.2201136337 1.6353905409 1.1492095834
C 4.1839091634 0.9398815066 1.7306078446
C 6.2832003301 2.6594790644 -0.8714567643
F 6.2267163887 2.6229248293 -2.2214248149
F 7.5060642302 2.1897519643 -0.5087231823
F 6.2651425909 3.9742519668 -0.5130108197
H -5.9533092257 3.9046122210 1.5869678617
H -7.1635604340 2.9630162515 2.4734495094
H -7.2242146980 3.0419784707 0.7063689576
H -4.9726890202 1.7206932293 2.3368580396
H -5.0337199327 1.8062228945 0.5806056623
H -7.1585593098 0.4564298526 0.5953526260
H -7.0954508021 0.3927944198 2.3541108992
H -4.8934644443 -0.8152496847 2.2309152714
H -6.2262538016 -1.7067528330 1.4529016772
H -3.2973560303 -0.6150326471 -1.7129411799
H -4.2789038195 -3.4933779392 -2.1139674104
H -5.2198788286 -2.0178193965 -2.4479091464
H -3.7642646974 -2.3752597492 -3.4035955637
H 0.2277525263 -3.2967889424 -1.2027170513
H 2.1684111191 -2.3685001678 0.0637839553
H -2.1451240008 0.0890414738 0.0077701721
H 4.0200096872 1.6186846341 -2.0266750926
H 6.0567183779 1.9770916325 1.7501461621
H 4.1657944995 0.7115104336 2.7895383016
H -0.2169870950 0.9845462931 1.2500943184
