46
CONF18
C -1.1156371620 2.0822431485 -1.3393908509
C -0.8327561339 1.0271204576 -0.2784025211
C -2.0406060364 0.1052982555 -0.0970428199
O -2.5667327308 -0.6168161151 -0.9087509868
N -2.4062167077 0.2572235933 1.2295032971
C -1.6194837083 1.2079687707 1.9064971232
O -1.7206457811 1.5626124828 3.0420398744
O -0.7173980700 1.6951035421 1.0139075554
N -3.4583586737 -0.4002907037 1.8339867347
C -4.7552221671 0.1093467271 1.5752069462
C -4.9706607942 1.4634438845 1.3218113982
C -6.2685203622 1.9292554143 1.1407656580
C -7.3542718225 1.0636232391 1.2170414248
C -7.1305841520 -0.2856923493 1.4788160612
C -5.8403417398 -0.7658766472 1.6553591059
C 0.4237481539 0.2245070156 -0.5553892478
C 0.4746480543 -0.6027676190 -1.6812329733
C 1.6222486216 -1.3235227003 -1.9747134431
C 2.7315813776 -1.2238720353 -1.1384350627
C 2.6913470082 -0.4160116854 -0.0055342046
C 1.5373977446 0.3053903673 0.2797481046
O 3.8137968093 -2.0134205228 -1.4547848115
C 5.0885710298 -1.5754352855 -1.1382461908
C 5.5050787595 -0.2756888787 -1.4149346823
C 6.8206474285 0.0828897373 -1.1432837391
C 7.7128388323 -0.8449667186 -0.6112745039
C 7.2823957785 -2.1425882942 -0.3508075781
C 5.9667266665 -2.5138595552 -0.6093320286
H -2.0244696870 2.6395053722 -1.0945605262
H -0.2686611300 2.7697010606 -1.3964620707
H -1.2497185538 1.5958841233 -2.3078312111
H -3.3815872147 -1.3971133101 1.6678415747
H -4.1376109524 2.1565525089 1.2829176194
H -6.4276986087 2.9846178170 0.9444377031
H -8.3631340131 1.4348103941 1.0754774663
H -7.9663595213 -0.9752872307 1.5386126323
H -5.6719622636 -1.8208221221 1.8532470232
H -0.3928670540 -0.6953167086 -2.3255974358
H 1.6726443335 -1.9697894120 -2.8438416797
H 3.5527466350 -0.3523075995 0.6497771349
H 1.5069236001 0.9319003544 1.1629926976
H 4.8066727702 0.4383411385 -1.8379012937
H 7.1517391793 1.0936429629 -1.3591766433
H 8.7381562528 -0.5582102251 -0.4046813073
H 7.9714681042 -2.8725633476 0.0613858562
H 5.6101256942 -3.5187630156 -0.4121648757
