70
CONF178
C -2.9695705460 0.0897010255 -0.0777533324
C -4.2245999142 0.9593553263 0.1688471867
C -5.1440032431 0.2496038753 1.1087424726
C -6.4997174015 0.2621736257 1.3315395686
N -6.8048086322 -0.6413057092 2.3451020686
C -5.6514971773 -1.2547427924 2.7777184582
C -5.3785730696 -2.2330291025 3.7374875188
C -4.0468164975 -2.6176713837 3.8745761055
C -3.0033023471 -2.0639523897 3.0972472154
C -3.2724164397 -1.0833508685 2.1483614913
C -4.6056014040 -0.7017979859 2.0111615719
C -2.2892385502 -0.3562034006 1.2531261364
C -1.0356825978 -1.1848366710 0.9792702031
C -0.0804759603 -0.4304698268 0.0521224305
C -0.8316126349 -0.0377764102 -1.2220374063
N -1.9725335751 0.8207005945 -0.8853316050
C -2.5040681740 1.4537249690 -2.1134447590
C -3.1061014317 0.5064558003 -3.1164171219
C -2.6133697157 0.3044195297 -4.3371441310
C 1.1097308151 -1.2998496426 -0.3089838729
O 0.9777964790 -2.2917335350 -1.0319557887
N 2.3445770808 -0.9125369145 0.1395011819
C 3.5227157379 -1.7208647341 -0.2472406337
C 3.9819750673 -1.5434139669 -1.6979131139
C 4.8568204612 -0.3238030508 -1.9776897133
N 4.2121712976 0.9778375016 -1.7379737501
C 3.0821740638 1.2125164165 -2.6424161398
C 5.1996316098 2.0551371873 -1.8778435278
C 2.4963272329 0.0208511166 1.2430943703
O 1.9308040335 -0.1724446075 2.3197488586
N 3.3084694548 1.0358324790 0.9429691217
C 3.7849016363 1.9733477967 1.9538103836
C 5.0371861047 1.4635822443 2.6633184365
H -3.2948227214 -0.8371951052 -0.5940828422
H -3.8991317233 1.9245070410 0.5843419970
H -4.7378783905 1.1712346728 -0.7731744636
H -7.2887330779 0.8322618979 0.8604508501
H -7.7332650219 -0.8216667854 2.6909944631
H -6.1581111534 -2.6792157658 4.3467443491
H -3.7975958291 -3.3786653675 4.6083342946
H -1.9913730309 -2.4206059439 3.2609535116
H -1.9817994463 0.5697562711 1.7666754282
H -0.5255780384 -1.4212939425 1.9177457639
H -1.3218063336 -2.1329562681 0.5047571483
H 0.2480693760 0.4875735432 0.5486640986
H -0.1665103439 0.5219212264 -1.8907687628
H -1.1410624872 -0.9552319310 -1.7526745089
H -3.2437760940 2.2080103239 -1.8243302677
H -1.6715254496 1.9919773251 -2.5822426253
H -3.9952241529 -0.0414440171 -2.8035648841
H -1.7254588575 0.8338061103 -4.6782146712
H -3.0784308967 -0.3869216975 -5.0343044916
H 3.2634003729 -2.7718580093 -0.0811766476
H 4.3348891268 -1.4637453673 0.4405072434
H 4.5903317603 -2.4211772784 -1.9474390304
H 3.1156748787 -1.5810449187 -2.3647107008
H 5.2207685901 -0.3809105112 -3.0213469137
H 5.7401805292 -0.3702121363 -1.3270070142
H 2.6446717460 2.1924027154 -2.4266892057
H 2.3077126825 0.4557524938 -2.4941244525
H 3.3920184351 1.1929649866 -3.7025509212
H 6.0164108139 1.9011722723 -1.1648030137
H 5.6270718792 2.0952945758 -2.8953517340
H 4.7250441829 3.0180355774 -1.6632861179
H 3.6861278381 1.0684658976 -0.0329315377
H 3.9935791869 2.9216916062 1.4480253020
H 2.9808057580 2.1497427588 2.6751532726
H 4.8316869010 0.5189820601 3.1764985832
H 5.3750430030 2.1934256429 3.4055423361
H 5.8473027379 1.2997092484 1.9457870105
