26
CONF41
C -3.4674199657 -1.5877560865 1.6924506940
N -2.9902695348 -0.4071888652 0.9699325330
C -1.5516086355 -0.4661652571 0.7273350751
C -1.0856171918 0.7305525312 -0.0919577779
O -1.7585180134 0.6306742268 -1.3608022319
C 0.4170455293 0.7439883842 -0.2418362458
C 1.2039316422 1.5742370934 0.5537548063
C 2.5934946428 1.5505663239 0.4517628373
C 3.2107668110 0.6999276994 -0.4550638693
O 4.5723345796 0.6913166689 -0.5544857001
C 2.4226026972 -0.1334005655 -1.2634037874
O 3.1154527611 -0.9362705340 -2.1367893304
C 1.0403945957 -0.1122719987 -1.1554522790
H -3.2058327387 -2.5435730264 1.2031385205
H -4.5558921222 -1.5411156329 1.7969372997
H -3.0344532333 -1.6005990023 2.6996141191
H -3.4563147697 -0.3593561942 0.0693553990
H -1.0259693310 -0.4486370631 1.6909945149
H -1.2347134339 -1.3894310405 0.2014268307
H -1.4029820372 1.6478363639 0.4271047201
H -1.5100769069 1.4025287031 -1.8837701075
H 0.7304363523 2.2473767294 1.2625905458
H 3.2134395408 2.1962088207 1.0652796405
H 4.8249791074 0.0455099808 -1.2289431319
H 2.4966391516 -1.4713809477 -2.6481959766
H 0.4381506195 -0.7568961282 -1.7909769711
