55
CONF45
C 5.8675985932 -3.1086133200 -2.2511199855
O 4.9275946272 -2.0519333130 -2.4861039399
C 3.8127555519 -2.0162408245 -1.7051551380
C 3.5243418710 -2.9354563411 -0.6939862807
C 2.3458995470 -2.7956919999 0.0366969906
C 1.4483270517 -1.7585222784 -0.2114362417
C 1.7500876539 -0.8522855966 -1.2369705364
C 2.9152033309 -0.9746420386 -1.9737764852
C 0.2090092761 -1.6451863990 0.6364607633
S -1.2661120560 -1.4878655918 -0.4897032508
C -2.4911061687 -0.7166491206 0.5512033943
C -3.6732009771 -1.4118922673 0.8206316774
C -4.7058261616 -0.8115664175 1.5315559754
C -4.5473816830 0.4854925187 2.0124462898
C -3.3695204916 1.1807200266 1.7691850978
C -2.3404084333 0.6026620137 1.0208297025
N -1.1692622829 1.3623517866 0.7580440794
C -1.3020317291 2.7121076634 0.1770602048
C -1.1763776604 2.6977731461 -1.3428937739
N -2.2534133919 1.9617897777 -2.0047674749
C -3.5178550625 2.6960041949 -1.9673199053
C -1.8861372591 1.6663097432 -3.3900505436
C 0.0942149948 0.9015978111 0.9933467234
O 1.0987047222 1.5611926249 0.7397460383
C 0.1999100355 -0.4828169013 1.6432949835
O 1.4375853829 -0.5825225069 2.3666557880
C 1.5401781674 0.2200567653 3.4573749226
C 2.8923869847 0.1010852890 4.0854082018
O 0.6394568954 0.9403590862 3.8322342569
H 6.2684117499 -3.0586112459 -1.2319958459
H 6.6725086976 -2.9528986388 -2.9697863353
H 5.4067958428 -4.0888508300 -2.4204387456
H 4.1940065404 -3.7561567634 -0.4690781326
H 2.1277930449 -3.5139784036 0.8222948055
H 1.0627714368 -0.0446536931 -1.4650348760
H 3.1475429791 -0.2726704078 -2.7681878630
H 0.0974055953 -2.5656877979 1.2181867053
H -3.7772999080 -2.4288552009 0.4572302425
H -5.6215419193 -1.3612698023 1.7220251031
H -5.3348504822 0.9553163270 2.5925792630
H -3.2396997047 2.1809497969 2.1689885313
H -0.5127562053 3.3413990208 0.5952221652
H -2.2622954950 3.1245827138 0.4894107130
H -1.1226861196 3.7498280302 -1.6907284588
H -0.2234969631 2.2224044594 -1.6019361259
H -3.4467913357 3.6851216486 -2.4604290123
H -3.8479983671 2.8501544252 -0.9353912554
H -4.2912402865 2.1132148542 -2.4777130762
H -1.7194229563 2.5810841917 -3.9915356210
H -0.9681028168 1.0692198499 -3.4105365486
H -2.6841108454 1.0877343907 -3.8669822841
H -0.6281653940 -0.6250130863 2.3442379261
H 3.6031726968 0.6737638714 3.4793480099
H 2.8677828899 0.5142597349 5.0930929707
H 3.2276442240 -0.9380036686 4.0982658145
