49
CONF4
C -5.7141645875 0.2227830636 -2.0821283817
C -4.3183590961 -0.3956953624 -1.9604405552
C -3.4476226729 0.0143490496 -3.1518312188
C -3.6633853205 0.0270415945 -0.6436812504
C -4.3171582566 -0.4798488161 0.6732965621
C -4.0480068556 -2.0151909658 0.5834758459
C -2.6502170197 -2.0954465582 -0.0974725165
C -2.2769397087 -0.5966152517 -0.3084708456
C -2.0659302387 -0.0283772629 1.0750971411
C -3.3273348314 0.0495027527 1.6796908612
C -3.4731681983 0.4799532855 2.9892086494
C -2.3181055451 0.8473205831 3.6867248875
C -1.0538416177 0.7596006466 3.1094681931
C -0.9132997659 0.2981219057 1.7882998974
N 0.3274032004 0.1056667358 1.1536137440
C 1.5588761135 0.5688867150 1.5232447944
O 1.7546975526 1.3398254262 2.4646596958
C 2.6851920225 0.0900013329 0.6937669975
C 3.8933086710 0.7689536870 0.6118710026
N 4.7044339375 0.0477927783 -0.1857005204
N 4.1236723395 -1.0780238253 -0.6277857473
C 2.8938523078 -1.0639937634 -0.1062101140
C 2.0298540125 -2.2379965831 -0.3896956656
F 1.5412553127 -2.7835276074 0.7770859368
F 0.9048263591 -1.8615632315 -1.1217335737
C 6.0674371153 0.3710592281 -0.5873834418
H -5.6506617920 1.3174634857 -2.0569209858
H -6.3715192110 -0.0976649369 -1.2680307562
H -6.1833516796 -0.0662735843 -3.0283114857
H -4.4286783399 -1.4868153892 -1.9808957919
H -3.9378495194 -0.2451843062 -4.0959714951
H -3.2764631506 1.0977890491 -3.1465815010
H -2.4728066564 -0.4828191555 -3.1323230186
H -3.5910060480 1.1235891909 -0.6296309888
H -5.3589847579 -0.2117196526 0.8549570223
H -4.8169979744 -2.5021690907 -0.0235607981
H -4.0617967404 -2.4763044186 1.5743899396
H -2.7009424170 -2.6143413727 -1.0595227959
H -4.4500641523 0.5385245231 3.4598492152
H -2.3978893448 1.2082226311 4.7078528815
H 4.2035224426 1.7009122700 1.0611400765
H 2.5518907247 -3.0146776820 -0.9549989722
H 6.3712576478 1.2798786223 -0.0676097393
H 6.1064656488 0.5323599993 -1.6675779161
H 6.7326475308 -0.4512298410 -0.3143774636
H -1.9056533249 -2.6056985834 0.5195553845
H -1.4819525361 -0.4223665672 -1.0351869945
H 0.2803531769 -0.3944831792 0.2772015657
H -0.1779424970 1.0422559842 3.6755147021
