47
CONF97
C -3.7329861217 -3.2528777499 -0.1021763137
C -3.0118992059 -2.4174483793 -1.1648538282
C -2.5718986092 -3.3249683391 -2.3211217917
C -1.8027948018 -1.6037886707 -0.6596023634
C -0.8080183612 -2.3374876274 0.2634978617
C -0.0377244642 -1.2229685730 1.0159604563
C -0.6416966928 0.1099980643 0.5315113409
C -0.5599535880 1.2462583864 1.5574109239
C 0.8709839457 1.5953238547 1.8751965351
C 1.6391004419 2.3255481680 0.9622491206
C 2.9743484228 2.6229746196 1.2144886754
C 3.5433567041 2.1773971805 2.4017428269
Cl 5.2360367523 2.5493845736 2.7362310707
C 2.8126549046 1.4520849104 3.3327954995
C 1.4767494689 1.1676533284 3.0586146969
C -2.0662990057 -0.2792440998 0.0815241800
O -2.9138748159 -0.5570877870 1.2072768735
C -2.7959805985 0.7921450505 -0.7521075778
N -2.1010051887 1.1976763890 -1.9660911269
C -2.2064461313 0.6819636021 -3.2068750751
N -1.3729700128 1.2997218048 -4.0370192490
C -0.7651159288 2.2093699953 -3.2251602366
N -1.1727870205 2.1870322857 -1.9622095053
H -4.0220253009 -2.6547614809 0.7637433886
H -4.6367898581 -3.6946030844 -0.5357859040
H -2.1337417971 -2.7427477731 -3.1392684393
H -1.8221195374 -4.0484924552 -1.9800369356
H -3.4226701335 -3.8881566622 -2.7190493829
H -1.2428586561 -1.2994249760 -1.5555850927
H -1.3461623815 -2.9665002963 0.9767683100
H -0.1432414273 -2.9905935049 -0.3084756698
H 1.0392590183 -1.2576344280 0.8302702942
H -0.1804945542 -1.3212213136 2.0975674235
H -0.1060453498 0.4340424420 -0.3694800913
H -1.0690445284 2.1355612882 1.1657469349
H 1.1871644504 2.6705667545 0.0360424220
H 3.5595133304 3.1935882569 0.5018933422
H 3.2725355486 1.1160249587 4.2554872548
H 0.8988638296 0.6014799699 3.7835828047
H -2.9494778605 1.6905810055 -0.1459658217
H -3.7786571761 0.4106099326 -1.0428086577
H -2.8944373669 -0.1169821045 -3.4528143553
H -0.0121876116 2.9081781094 -3.5677105644
H -3.1016433745 -4.0784804107 0.2440906133
H -3.7415245417 -1.7038745367 -1.5737836534
H -1.0667907080 0.9472951948 2.4827834323
H -2.9937700584 0.2467007897 1.7384497630
