45
CONF23
C 2.9871736659 2.3829824900 -3.1142581369
C 2.9582190330 1.5553610506 -1.8388497254
C 1.5191055792 1.4372753589 -1.3303305740
O 1.0201901165 2.3194187202 -0.6349976405
N 0.8361118766 0.3445357349 -1.7447425523
C -0.5149765061 0.1004130670 -1.3481069045
C -0.8729628440 -0.1210222521 0.1585518587
N -1.7906057794 1.0248972351 0.0675100417
C -1.5251233927 1.2732858796 -1.2692389853
O -2.0124180057 2.0536913341 -2.0525027518
C -3.0886191262 0.9256406374 0.7086171005
C -3.0586751322 -0.3828753565 1.5809108829
S -1.9594004071 -1.5348895818 0.5869610113
C -2.4372578183 -0.1423660150 2.9570986204
C -4.4451812806 -0.9989843922 1.7050313043
C -3.4789447989 2.1241399713 1.5591308667
O -4.6239023749 2.3281648628 1.9014276615
O -2.4413264300 2.9042546971 1.8944178579
O 3.5338870954 0.2795209578 -2.1554150813
C 3.8544704279 -0.5632557350 -1.1164614510
C 3.6086690896 -0.2874745287 0.2298356663
C 3.9751149096 -1.2285543264 1.1932914156
C 4.5750366768 -2.4292186919 0.8307196198
C 4.8122845552 -2.6925503986 -0.5192471905
C 4.4547663084 -1.7684902364 -1.4916230968
H 4.0210839714 2.5239293397 -3.4383339939
H 2.4257505336 1.8809086106 -3.9073164512
H 2.5383518456 3.3610144810 -2.9250639402
H 3.5408820212 2.0509866720 -1.0530231279
H -0.9373729952 -0.6929634788 -1.9705587483
H -0.0457146527 0.0074753997 0.8621744760
H -3.8712255718 0.8263954729 -0.0538689352
H -3.0783808504 0.5212288286 3.5495988503
H -1.4438811945 0.3093928553 2.8880174566
H -2.3521986537 -1.0922117002 3.4898088023
H -5.0979889899 -0.3136016780 2.2542771418
H -4.8842476092 -1.1925937587 0.7226470985
H -4.3915164317 -1.9373244472 2.2643721710
H -2.7771689415 3.6289685806 2.4510121319
H 3.1390898611 0.6364103125 0.5462296816
H 3.7813845384 -1.0100331039 2.2389706889
H 4.8547937778 -3.1533324650 1.5884637342
H 5.2803936702 -3.6251497445 -0.8189265396
H 4.6347378863 -1.9611494196 -2.5443742025
H 1.3153836730 -0.3461165821 -2.3047255042
