47
CONF227
C -7.4011765218 0.3951200084 2.5741138159
O -6.4140740807 0.2408418612 1.5145255333
P -5.5915703415 -1.1311987705 1.3878003399
S -4.7842663990 -1.8230807724 3.0099410066
O -6.5511773619 -2.1975773992 0.6909682298
C -7.3020905414 -1.8398023287 -0.5120372496
O -4.5993776557 -0.7465800058 0.1659131314
C -3.4817267468 0.0745383366 0.3706715156
C -3.6287056480 1.4549670001 0.3728557371
C -2.4975534510 2.2528522166 0.5069711565
C -1.2365232755 1.6668476205 0.6522088001
C -1.1093478240 0.2757391497 0.6534320400
C -2.2363060393 -0.5241062002 0.5032099833
S 0.1552233758 2.7646375472 0.8966266216
C 1.5342343339 1.7874890525 0.3102779162
C 1.5998410080 1.3806882278 -1.0256301837
C 2.6951842591 0.6579031519 -1.4776368708
C 3.7250247026 0.3633444174 -0.5909694725
C 3.6819555916 0.7678588321 0.7366169901
C 2.5739567467 1.4800637139 1.1880347533
O 4.7818803215 -0.4038417544 -1.0744138782
P 6.3312792925 0.1120579168 -1.0488660936
S 6.5835037771 1.9973220566 -1.4203366021
O 6.9811836111 -0.9622286064 -2.0346404145
C 6.6687344093 -0.9265938285 -3.4570102141
O 6.9314167206 -0.3186993648 0.3625201876
C 6.7917334465 -1.6945206325 0.8405186876
H -7.8283626220 1.3874626166 2.4332182696
H -6.9139869364 0.3245063618 3.5497484791
H -8.1790390732 -0.3677352761 2.4793698225
H -6.6133283876 -1.6615778737 -1.3407228275
H -7.9353836335 -2.7003071299 -0.7241667521
H -7.9152312721 -0.9554834588 -0.3235478355
H -4.6097329242 1.9000713168 0.2517219789
H -2.6002155691 3.3333399346 0.4896695924
H -0.1365717703 -0.1890406868 0.7705962180
H -2.1529894776 -1.6054900827 0.4968640325
H 0.7952737102 1.6272747614 -1.7106719913
H 2.7651403332 0.3328381455 -2.5101375880
H 4.4905928805 0.5181688218 1.4154357278
H 2.5185815843 1.7871704793 2.2268689191
H 7.2411062254 -1.7390656126 -3.9029094560
H 5.5985622018 -1.0887790966 -3.6087788276
H 6.9765583189 0.0325711660 -3.8812805374
H 7.3828052597 -2.3656424016 0.2144893235
H 7.1758943365 -1.6859370542 1.8596609871
H 5.7390700000 -1.9883861807 0.8359530105
