49
CONF85
C -3.0796210725 0.6701301679 4.2145730808
C -3.3813857775 -0.1874603059 3.0038077766
C -2.2289350122 -0.7080032270 2.1188880669
C -3.2255529723 0.3656047655 1.6190930230
C -4.1507999085 -0.0860821176 0.5055215012
C -2.7550155077 1.7888098974 1.4078179508
C -0.8231934646 -0.4046868738 2.3719855049
O -0.3232326242 0.5945951537 2.8468138142
O -0.0455324344 -1.4752716652 1.9659644878
C 1.3777043764 -1.2503302915 2.0735135782
C 1.9835661914 -2.5826516076 2.0786770119
N 2.4988055382 -3.6161855620 2.0716967456
C 1.9101820267 -0.4175993770 0.9243418496
C 2.7230079044 0.6831833166 1.1816999923
C 3.1979025165 1.4428349282 0.1151572015
C 2.8677100294 1.1158323682 -1.1952593095
C 2.0580991533 0.0042893253 -1.4334312206
C 1.5787598379 -0.7691858932 -0.3822787172
O 1.6328118680 -0.3482941766 -2.6964891897
C 2.4637189853 -0.1017686305 -3.7818265418
C 3.8030089385 -0.4832482846 -3.7693245075
C 4.5707835038 -0.2800866144 -4.9122438231
C 4.0054573892 0.2867171570 -6.0541915750
C 2.6611109330 0.6519329411 -6.0504904823
C 1.8822160549 0.4627370333 -4.9110604768
C -4.4714827149 -1.2003320996 3.2986067227
H -2.8175070257 0.0303860021 5.0643364126
H -3.9803462303 1.2328325201 4.4856665885
H -2.2643923231 1.3734579894 4.0598515723
H -2.3864015208 -1.6971193412 1.7019327262
H -5.0805259554 0.4941431401 0.5376639626
H -3.6754448786 0.0952703620 -0.4642865226
H -4.4055931394 -1.1449216202 0.5615192079
H -3.6255105253 2.4548868308 1.4079695666
H -2.2673655358 1.8765773942 0.4306594877
H -2.0548550589 2.1336662984 2.1655833035
H 1.6122496629 -0.7619402031 3.0264834713
H 2.9708266919 0.9501518130 2.2038399572
H 3.8208780826 2.3106373846 0.3057739630
H 3.2282523414 1.7176042034 -2.0222088667
H 0.9489211932 -1.6279076316 -0.5921513935
H 4.2342413675 -0.9324299195 -2.8805644982
H 5.6151092211 -0.5762883431 -4.9106995841
H 4.6096869570 0.4393653497 -6.9423079609
H 2.2127576259 1.0922125102 -6.9355821212
H 0.8348062140 0.7449384376 -4.8890131531
H -5.4166956716 -0.6804763214 3.4939338955
H -4.2112056518 -1.7726611056 4.1953411852
H -4.6319800067 -1.9078662841 2.4843653433
