38
CONF12
C 3.0519901087 -2.0692404715 1.2798149246
C 3.6307634235 -0.7418312398 0.7797233152
C 4.6371097950 -0.1756208379 1.7768264222
N 2.6015749776 0.2828510226 0.5161052506
C 1.6241042846 -0.0829889154 -0.5169204115
C 1.0093410485 1.1860397397 -1.1087190888
O 2.0410363806 2.0851301073 -1.5262461218
C 0.1139692645 1.9330269474 -0.1137672346
O -0.9340118653 1.1040488715 0.4146731180
C -2.0198019144 0.8320087836 -0.3715988236
C -2.2969070507 1.4098241070 -1.6057736116
C -3.4687546844 1.0618658115 -2.3095597683
C -4.3837005042 0.1450365380 -1.8181958788
C -4.0903684221 -0.4281282364 -0.5766147648
N -4.7872672321 -1.3537143752 0.1629953884
C -4.1057424651 -1.6226088449 1.3297267941
C -2.9537895541 -0.8759055793 1.3682729419
C -2.9228878024 -0.1070508082 0.1620033967
H 2.3526565186 -2.5012159956 0.5574680133
H 3.8509455108 -2.7977569648 1.4536300280
H 2.5187029773 -1.9138588516 2.2258193168
H 4.1438054848 -0.9194397290 -0.1762459388
H 4.1459352063 0.0398052076 2.7336599952
H 5.0808228881 0.7511887798 1.4008222908
H 5.4383561160 -0.8964375316 1.9653025720
H 2.1156483776 0.4696037649 1.3900647008
H 2.1576874013 -0.6054424721 -1.3203848173
H 0.8207100759 -0.7484356605 -0.1649409341
H 0.4304913042 0.9158815766 -1.9989286040
H 2.7270060350 1.9826190488 -0.8408434724
H 0.7031306613 2.2365091519 0.7572136992
H -0.2950996608 2.8387168260 -0.5763099767
H -1.6217735809 2.1313503942 -2.0490536021
H -3.6500335901 1.5330241891 -3.2707512175
H -5.2812606536 -0.1170471042 -2.3679907510
H -5.6631607855 -1.7723917531 -0.1060078469
H -4.5007215420 -2.3311948891 2.0438725565
H -2.2205066330 -0.8782201048 2.1605270330
