49
CONF38
C -1.0123382629 1.0393843259 5.3384032397
C -0.8388527499 -0.3279412751 5.1335061580
C -0.6801869961 -0.8342080629 3.8479635183
C -0.7100894584 0.0443649790 2.7646755051
C -0.9001692307 1.4118812841 2.9539447505
C -1.0370422617 1.9051552697 4.2475693246
N -0.5452007790 -0.4375732209 1.4350377013
C 0.5239551963 -0.0900826403 0.6230482505
O 1.2042111043 0.9109218942 0.7628351382
C 0.6989987137 -1.2001975605 -0.3901505398
C -0.3379959532 -2.2318147930 0.0073508539
O -0.6168068189 -3.2633424544 -0.5754736095
N -0.9925903964 -1.7510771543 1.1291770077
C -2.3243237945 -2.1161114320 1.4787086863
C -2.5868525324 -3.4492799950 1.7882247785
C -3.8877095478 -3.8288402855 2.1034602746
C -4.9095959825 -2.8829391609 2.1370072327
C -4.6295658158 -1.5502494376 1.8419878325
C -3.3385462179 -1.1585232961 1.5047297208
C 0.4815548323 -0.7654554969 -1.8525808095
C 1.5796605625 0.1707756322 -2.3316884837
S 1.2526145746 0.6324077701 -4.0993836036
O -0.0201074396 1.4811735108 -4.0800507485
C 2.6592275613 1.7786246323 -4.2533064192
C 2.4279103389 3.1431356168 -4.1417116088
C 3.5028011020 4.0183417978 -4.2842199160
C 4.7806489886 3.5242874235 -4.5381967974
C 4.9915111054 2.1509864152 -4.6571515040
C 3.9249229621 1.2664317071 -4.5231387266
H -1.1331518082 1.4273748910 6.3444633791
H -0.8194268892 -1.0082561654 5.9788168370
H -0.5345319968 -1.8970503064 3.6888309342
H -0.9440157501 2.0736944238 2.0969655207
H -1.1796947379 2.9701952645 4.3991589091
H 1.7075014916 -1.6167299620 -0.2725576021
H -1.7803578833 -4.1729781008 1.7835783795
H -4.0971250337 -4.8672516645 2.3390188074
H -5.9198606865 -3.1815738148 2.3967448797
H -5.4208703963 -0.8079957353 1.8662573610
H -3.1221847208 -0.1236319808 1.2634792313
H 0.4607344607 -1.6744283344 -2.4635629261
H -0.4965618707 -0.2796379111 -1.9399055432
H 1.6133155188 1.1082507839 -1.7686290918
H 2.5649933998 -0.3090117850 -2.3107259790
H 1.4229641526 3.5068906281 -3.9521268524
H 3.3393865837 5.0880312253 -4.1983945116
H 5.6137641155 4.2106152727 -4.6510351590
H 5.9854755701 1.7672732825 -4.8638827648
H 4.0796026923 0.1959850964 -4.6274099238
