21
CONF136
C 1.1516291702 -0.9051119828 -0.5855826932
C 0.0460413153 -0.0008116720 -0.0209276546
C 0.4772530179 1.4667105776 -0.2075631242
O 1.5288199827 1.8629935608 0.6799033918
C -1.2936921764 -0.2220654576 -0.7403723474
O -1.3021984071 0.2256330549 -2.1017956970
C -0.1376838039 -0.3229474495 1.4763987603
O -0.7078591369 0.7591165020 2.2323020031
O 0.9793385318 -2.2960123994 -0.2787378015
H 2.1043498451 -0.6144038476 -0.1302511383
H 1.2445627509 -0.7556005053 -1.6717091939
H 0.8603870697 1.6107713263 -1.2225059555
H -0.3967246954 2.1216328320 -0.0861924427
H 1.1335843841 1.9077539537 1.5615193191
H -1.5834588225 -1.2816022745 -0.6759266578
H -2.0747236568 0.3608757570 -0.2372426105
H -0.7889305507 -0.3981050887 -2.6293070229
H -0.7397538036 -1.2332098359 1.5941488878
H 0.8399616313 -0.5117658519 1.9306310460
H -1.6265144766 0.8763128621 1.9610590906
H 0.2856121434 -2.6501637648 -0.8478481540
