39
CONF11
C -2.4052382708 -3.5560489357 1.7326167164
O -2.9840992003 -2.4604129008 1.0096736757
C -2.2207695921 -1.3457114943 0.8473398009
C -0.9231144411 -1.1939064036 1.3506176059
C -0.2233651718 -0.0106304027 1.1169695192
C -0.8042286633 1.0230528297 0.3817314579
C -2.1001314001 0.8755077842 -0.1166530021
C -2.8177932098 -0.3080214775 0.1193484755
O -4.1071478341 -0.4381869844 -0.3410575317
C -4.1732733752 -0.9885017391 -1.6737286171
O -2.7593627749 1.8191588837 -0.8420918625
C -2.0593585992 3.0391994684 -1.1237348051
C 1.1812438546 0.1600074473 1.6704347730
C 2.1663991454 0.7012576683 0.6733973286
C 2.7997994301 1.9168608902 0.8349856550
N 3.6944627838 2.4365858444 -0.0224795547
C 3.9522923909 1.6743260890 -1.1009836508
N 3.4048184765 0.4798342091 -1.3845836437
C 2.5152395984 -0.0056238457 -0.5060992207
N 1.9929010038 -1.2343763672 -0.7677021581
N 4.8212445138 2.1855462636 -2.0296315823
H -3.1658901432 -4.3370138721 1.7386392745
H -1.5022468782 -3.9232702393 1.2315786976
H -2.1665649014 -3.2655877941 2.7621485290
H -0.4521649174 -1.9871134241 1.9193836270
H -0.2365272269 1.9280918708 0.2018254210
H -3.7345449090 -1.9929003228 -1.6956155811
H -5.2317889020 -1.0422795642 -1.9355053794
H -3.6483833443 -0.3390332964 -2.3838032621
H -2.7503283144 3.6441830001 -1.7112695627
H -1.8013006203 3.5669266466 -0.1984861131
H -1.1508549733 2.8454203680 -1.7056500520
H 1.5255532897 -0.8072840919 2.0588168981
H 1.1481796153 0.8448937435 2.5269662933
H 2.5775999998 2.5167215716 1.7185127546
H 2.1337089886 -1.6027182842 -1.6964551963
H 1.1339285729 -1.5022977752 -0.3105709338
H 5.2273332151 1.5278485918 -2.6768897862
H 5.4325437503 2.9212409654 -1.7111326746
