43
CONF28
C 1.1407937879 0.8246844161 4.5066200823
C 0.6704286500 -0.5580027692 4.1077405831
O 0.6940801061 -0.7419072908 2.6683320097
N -0.3549040289 -0.0326498413 2.1033242011
C -0.3269123026 -0.0259078943 0.8264381757
C -1.3687614898 0.6611025622 0.0478328354
C -2.7201128248 0.2596952940 0.1384820339
C -3.6778564511 0.8402873592 -0.6942003243
C -3.2971914946 1.8047540051 -1.6200211709
C -1.9757113383 2.2091225256 -1.7093813048
C -0.9974857083 1.6523212048 -0.8764588148
O 0.2884871647 2.0653495249 -1.0333178134
C 0.9702574378 2.5801850792 0.1376034621
Cl -1.5221193266 3.4507991166 -2.8620144633
O -2.9937807206 -0.7207231032 1.0284105327
C -4.3410512721 -1.2173271589 1.0893336141
O 0.7634037317 -0.5444122003 0.1404875604
C 0.5369965286 -1.3134051086 -0.9802928998
O -0.5355515095 -1.8223507591 -1.2135955286
C 1.7536970462 -1.4416058856 -1.8033165408
C 1.7310181212 -2.3498157075 -2.8690637065
C 2.8481173677 -2.4930627336 -3.6801016680
C 3.9890452662 -1.7286077696 -3.4361077429
C 4.0125528023 -0.8206136272 -2.3787312573
C 2.9000720904 -0.6752324658 -1.5589374266
H 0.4656799230 1.5927068653 4.1183962462
H 1.1596022733 0.9036912496 5.5982629261
H 2.1497368105 1.0139996342 4.1280390943
H 1.3498722838 -1.3331534599 4.4727947445
H -0.3409546693 -0.7680585051 4.4736897378
H -4.7168322395 0.5428441375 -0.6449153737
H -4.0424503546 2.2537471319 -2.2671507851
H 0.2602436040 3.0904043743 0.7950318727
H 1.7067546317 3.2917371034 -0.2391349160
H 1.4827511763 1.7817080430 0.6819188213
H -4.3230558902 -2.0080979717 1.8389935002
H -5.0344811658 -0.4284838851 1.4002628046
H -4.6491649091 -1.6288829835 0.1218730655
H 0.8367029360 -2.9365857365 -3.0478708430
H 2.8317055234 -3.1996894822 -4.5033043560
H 4.8612110024 -1.8403627748 -4.0725650344
H 4.8997820498 -0.2241282674 -2.1936011395
H 2.9153852802 0.0339283683 -0.7397847090
