52
CONF84
C 1.3084774465 -2.3435177367 -1.9347017918
C 1.5290193316 -0.8801795808 -1.6260262234
C 2.6098120661 -0.2342538166 -2.4957514631
C 2.9004710657 1.1990202002 -2.0364724338
C 3.2309822630 1.2304218223 -0.5437343940
C 2.1888726676 0.4592943981 0.2758098077
O 1.9138163612 -0.8129337737 -0.2218956677
O 0.9956771308 1.3038783543 0.3045585334
C 0.0615566634 0.9062160313 1.2327693846
C -1.1335421980 0.3840739454 0.8262908956
O -2.0549166747 -0.0649266242 1.7217670188
C -1.8137210320 -0.0049196573 3.0656483888
C -2.7967722142 -0.5185689192 3.8952345119
C -2.5809342589 -0.4423759614 5.2721937582
C -1.4209151365 0.1281590547 5.8104645422
C -0.4532810738 0.6332414957 4.9587285023
C -0.6315372143 0.5739325978 3.5482156696
C 0.3662073296 1.0730453315 2.6380023720
O 1.4379938492 1.6025441732 3.0344563091
O 0.6652852343 1.1781956821 5.4670561245
O -3.4860935362 -0.9146576162 6.1623186922
C -1.5724166360 0.2284744624 -0.5568307851
C -2.1045639293 -1.0005170553 -0.9732454126
C -2.4556966104 -1.1867281457 -2.2995075545
C -2.3024678175 -0.1373751042 -3.2250647625
C -1.8106340429 1.0921610560 -2.7997334056
C -1.4429823598 1.2768783839 -1.4728934844
O -2.6347206446 -0.3045924898 -4.5303121181
O -2.9462131315 -2.3533627029 -2.8092556293
O 4.5020765242 0.5991485327 -0.3990042274
O 1.8045870878 2.0640353889 -2.3588649223
O 2.2147144817 -0.2397138507 -3.8668101372
H 0.9841179855 -2.4578872893 -2.9716297492
H 2.2340685400 -2.9100330062 -1.7885108866
H 0.5325961339 -2.7538167984 -1.2818911384
H 0.5887680561 -0.3287746684 -1.7605418064
H 3.5298702433 -0.8256503923 -2.4242814865
H 3.7600190117 1.5853445631 -2.5949251368
H 3.2572823085 2.2719363070 -0.1950143200
H 2.5414786541 0.3106052187 1.3012732210
H -3.6986908234 -0.9543542484 3.4796048719
H -1.2830840744 0.1720125321 6.8847905747
H 1.2100347013 1.4651408232 4.6793279889
H -4.2479809773 -1.2855742846 5.6947790346
H -2.2072902694 -1.8220951761 -0.2701129256
H -1.7199464299 1.8980825541 -3.5205148199
H -1.0794380698 2.2439036918 -1.1424873599
H -2.9618633139 -1.2075083452 -4.6618070512
H -3.0032635506 -3.0260647147 -2.1166198963
H 4.7972789651 0.7181919335 0.5134044570
H 1.1065839292 1.9331646729 -1.6989722756
H 1.5713173581 0.4792780423 -3.9653033693
