47
CONF74
C -0.2092738420 1.2251659027 2.8018158624
C -0.9250355847 1.5755790156 1.5176425424
C -2.3758882699 2.0045825518 1.5409616833
C -2.0181597708 0.5963181856 1.0770552364
C -2.1610339582 0.2586015683 -0.3450821519
O -2.3570843409 1.0157623784 -1.2702031919
O -1.9914701133 -1.0919050525 -0.5181654213
C -1.9031597798 -1.5075265638 -1.8973857373
C -2.0510377788 -2.9637019050 -1.8766976303
N -2.1467134397 -4.1140788889 -1.9051006928
C -0.5779619213 -1.1148667559 -2.5302212307
C -0.5254102223 -0.8419835766 -3.8934957055
C 0.6945415494 -0.4861454327 -4.4658807719
C 1.8429926310 -0.3994959674 -3.6901623979
C 1.7691583515 -0.6736026566 -2.3236789431
C 0.5625599376 -1.0406666443 -1.7335349947
O 2.9342006709 -0.5110828599 -1.6109262243
C 3.0188803869 -1.0437084696 -0.3272095379
C 3.2585084932 -0.1681269398 0.7236742218
C 3.4200939535 -0.6840543106 2.0083214216
C 3.3350643356 -2.0561698334 2.2310526575
C 3.0974389034 -2.9198025305 1.1618390252
C 2.9421232162 -2.4187226482 -0.1270848836
C -3.1284583443 2.1614305423 2.7878426402
C -4.0147679495 3.1262902656 3.0345954862
Cl -4.8679151962 3.2404348128 4.5532788561
Cl -4.4344246011 4.3832321815 1.9024843962
C -0.0325552403 2.2203339416 0.4825749680
H 0.6609884585 0.5998603103 2.5745419134
H -0.8419853025 0.6795819463 3.5046464905
H 0.1482812331 2.1386321302 3.2899104283
H -2.6515857292 2.6728874526 0.7309729759
H -2.1997022548 -0.2222414025 1.7653765604
H -2.7337552648 -1.0842660844 -2.4750345949
H -1.4251029943 -0.8975415825 -4.4980538230
H 0.7493680899 -0.2661223067 -5.5270596812
H 2.7954413617 -0.1136974868 -4.1237820644
H 0.5059385696 -1.2455853108 -0.6706559778
H 3.3184335198 0.8978731316 0.5307463398
H 3.6085137614 -0.0072860512 2.8358291910
H 3.4575443197 -2.4533879921 3.2333378070
H 3.0393457343 -3.9907658587 1.3287377520
H 2.7621746425 -3.0799154617 -0.9689142182
H -2.9666000047 1.4414275161 3.5844592463
H -0.5788276572 2.5030889128 -0.4186477362
H 0.7751900164 1.5346590719 0.2022155635
H 0.4211280223 3.1207090517 0.9101101410
