45
CONF20
C -4.7542015625 3.1200197782 2.6360687208
O -4.7069274397 2.2208933985 1.5105398451
N -3.4969961831 1.5599822762 1.5040924375
C -3.3847831808 0.7178066235 0.5234302054
C -4.3604596682 0.4233108203 -0.4917106790
C -5.5571591334 0.9810037646 -0.8827357790
C -6.0598364124 0.1736825422 -1.9361218250
C -5.1553131337 -0.8295403511 -2.1190455033
O -4.1174298515 -0.6987610082 -1.2568453745
C -2.0343449918 0.0460024010 0.4612761547
O -1.4358844335 -0.1160974086 -0.5984248805
N -1.5284312304 -0.3423540997 1.6582518272
C -0.2349543729 -0.9390736806 1.7596582360
C 1.0377051104 -0.1497126962 1.3204390971
N 1.3388232256 -1.2413038261 0.3952553758
C 0.2002771399 -1.9823841487 0.6971544967
O -0.2013645828 -3.0546434633 0.3207844504
C 2.5833272295 -1.5633138701 -0.1371933229
C 3.7027904042 -0.9269534859 0.2709762577
C 3.6891038446 0.1641664893 1.3091811503
S 2.3590966284 0.0149508685 2.5750114009
C 5.0550010772 -1.1855248612 -0.3245638209
O 5.6340406303 0.0599890759 -0.8053000258
C 5.1525082561 0.4837724311 -2.0120343681
O 4.3637377071 -0.1540432111 -2.6927739530
N 5.6530487138 1.7011986423 -2.3202360194
C 2.5759688755 -2.5885990449 -1.2238548206
O 3.3845883769 -3.4856926573 -1.3348871871
O 1.5641756543 -2.3739209441 -2.0803901935
H -5.7319815053 3.6001752339 2.5760895845
H -4.6630484946 2.5625170936 3.5731952803
H -3.9595313273 3.8680948435 2.5589260801
H -6.0123245454 1.8645547856 -0.4686596789
H -6.9771071007 0.3180540233 -2.4869803071
H -5.1064500411 -1.6746053567 -2.7887628412
H -2.0645149405 -0.1771848125 2.4971535716
H -0.1153135432 -1.3662203527 2.7599312655
H 0.8521591587 0.8009023472 0.8125397492
H 4.6335103077 0.1532306273 1.8626197448
H 3.6095337728 1.1472151800 0.8292411706
H 5.7481967006 -1.5137939690 0.4554405124
H 5.0354058837 -1.9189667208 -1.1272840539
H 5.5011951608 2.0500426663 -3.2518060765
H 6.4008822967 2.0952773925 -1.7729578519
H 1.5832808268 -3.0751849167 -2.7546882535
