32
CONF3
C 3.5102660721 0.2909872153 -0.9509724772
C 2.5220405628 1.2471700652 -1.1015012898
C 1.5196707278 1.4050453477 -0.1371951368
C 1.5497725268 0.5848951133 1.0068168094
C 2.5435282362 -0.3608925940 1.1880776598
C 3.5045272636 -0.4971598541 0.1942622555
N 4.5528348703 -1.5094150488 0.3724367667
O 5.3759530150 -1.6453586041 -0.5278257281
O 4.5500925758 -2.1665496189 1.4091325744
Cl 0.3119014467 0.7445078515 2.2295931096
N 0.5222313110 2.3837189427 -0.3266962087
S -0.6592696303 2.0805565546 -1.5491696497
O 0.0696076030 1.8530657763 -2.7990227606
O -1.6276080560 3.1711480114 -1.4088216208
C -1.4243152065 0.5386995354 -1.0574733393
C -2.5625562708 0.5817953019 -0.2637863690
C -3.1277133058 -0.6086718808 0.1803714888
C -2.5205979676 -1.8222187867 -0.1731543584
C -1.3788419197 -1.8504629347 -0.9671264593
C -0.8233977716 -0.6621544833 -1.4201058320
Cl -3.1724216744 -3.3483728562 0.3598485234
C -4.3749710604 -0.5578852012 1.0269180856
F -4.1848443867 -1.1179074703 2.2450350743
F -4.7817278806 0.7109634543 1.2384612237
F -5.4087405421 -1.2095289859 0.4427280565
H 4.2842219175 0.1723567658 -1.6977717066
H 2.5175224716 1.8963052232 -1.9682299313
H 2.5608072896 -0.9900703708 2.0683298980
H 0.0296613632 2.6334926567 0.5312814771
H -3.0069611301 1.5322910361 0.0043821061
H -0.9295539243 -2.7997061068 -1.2338805707
H 0.0588816805 -0.6806435575 -2.0500975833
