70
CONF194
C -2.8921216230 0.7160663795 -0.3428730223
C -4.2282302574 0.8237625554 0.4285570268
C -4.4262116103 -0.4061490816 1.2532340964
C -5.5171105457 -1.0835617314 1.7418317920
N -5.0820470422 -2.1952188046 2.4582599778
C -3.7075287532 -2.2525130042 2.4293773581
C -2.7647543559 -3.1391221246 2.9565177780
C -1.4265413466 -2.8564759308 2.6919995459
C -1.0134059282 -1.7382957036 1.9314396597
C -1.9507622142 -0.8514280670 1.4122184444
C -3.2880459085 -1.1357580444 1.6783060942
C -1.6950229280 0.4045581949 0.6037982391
C -0.3844633712 0.3262883524 -0.1732851204
C -0.1762719708 1.6052042027 -0.9895818388
C -1.3823490095 1.8206708713 -1.8937712830
N -2.6122717152 1.9578878769 -1.0940807476
C -3.7305879761 2.3507204966 -1.9800523187
C -4.6776046663 3.3390578975 -1.3612006653
C -5.9999799403 3.3190563789 -1.5099703134
C 1.1002073180 1.5289477310 -1.8132898621
O 1.0742067073 1.5657164983 -3.0431089268
N 2.2977580054 1.3076155654 -1.1569774299
C 3.4736258415 0.9629883103 -1.9903869465
C 3.3792415240 -0.3974459076 -2.6883921539
C 2.9604503791 -1.5587045896 -1.7945011908
N 3.7867189152 -1.7247224850 -0.5879866048
C 5.1778216845 -2.0560670699 -0.9090442154
C 3.2014406145 -2.7564029716 0.2749928077
C 2.4693305332 1.5614122900 0.2508961948
O 1.9185203390 2.5177643476 0.8014405003
N 3.2909116299 0.6979199121 0.8624184560
C 3.6542937364 0.8578031255 2.2665857656
C 4.9633066181 0.1367012138 2.5554563566
H -2.9811665203 -0.1387068960 -1.0483104527
H -4.1882875559 1.7222693560 1.0618518741
H -5.0589447516 0.9649885253 -0.2654001368
H -6.5754059737 -0.8816233053 1.6482898500
H -5.6897774243 -2.8600909931 2.9086232459
H -3.0507330001 -4.0079236066 3.5408061725
H -0.6654793513 -3.5250545843 3.0837051257
H 0.0492180609 -1.5894364921 1.7665633226
H -1.6233053953 1.2536699540 1.3037591335
H 0.4449654266 0.1633882209 0.5207604521
H -0.4155500889 -0.5366578111 -0.8537955546
H -0.0993597975 2.4503442655 -0.2995164335
H -1.2439975256 2.7389111845 -2.4719235584
H -1.4592390204 0.9839811036 -2.6140544166
H -3.2891960515 2.8464334547 -2.8549165630
H -4.2805399828 1.4769496696 -2.3706433043
H -4.2028000244 4.1454985042 -0.8021452353
H -6.4944973350 2.5171554617 -2.0547400489
H -6.6301335699 4.0972940742 -1.0902885100
H 4.3491178920 1.0024054940 -1.3399632572
H 3.5935378180 1.7431396241 -2.7497877859
H 2.6535183602 -0.3394392385 -3.5043409696
H 4.3526279842 -0.5905057069 -3.1534354899
H 2.9568245569 -2.4876619942 -2.3953506812
H 1.9288982038 -1.3946110927 -1.4570522544
H 5.2549363453 -2.9811598077 -1.5082187992
H 5.7382388750 -2.1974117036 0.0204161018
H 5.6469034945 -1.2411493318 -1.4673113972
H 2.1827205895 -2.4651753442 0.5546627525
H 3.1582976287 -3.7405912549 -0.2241146568
H 3.7983886216 -2.8573536866 1.1869911915
H 3.5672153743 -0.1779619345 0.3670258811
H 3.7450054528 1.9273479411 2.4822066500
H 2.8538471361 0.4659351225 2.9110940936
H 5.7777984339 0.5520500106 1.9536238110
H 4.8808359119 -0.9323397490 2.3341210846
H 5.2229930055 0.2448156069 3.6119820290
