41
CONF20
C -3.9627350595 0.7612230622 -1.4465637962
C -3.8155623183 0.2104106056 -0.0667456727
C -4.8750935073 0.1209723069 0.8275857956
C -4.6269324845 -0.4097212043 2.0948660049
N -3.4013734729 -0.8255917304 2.4476080144
C -2.4473224293 -0.7008519009 1.5197542890
N -2.5874273555 -0.2076626128 0.2872159156
N -1.1893608151 -1.1394925009 1.9264816287
C 0.0278535850 -1.1738828311 1.2583431268
O 1.0451016495 -1.5457278427 1.8243355044
N -0.0206475423 -0.7604537007 -0.0589193284
S 1.3483598339 -0.6531224703 -1.0426563890
O 0.8261739329 -0.0875418708 -2.2939861150
O 2.0433837648 -1.9441963438 -1.0513943818
C 2.3923927647 0.5519463977 -0.1947314734
C 1.7865504039 1.5345734274 0.5803295888
C 2.5796768228 2.4263209040 1.2949026771
C 3.9660321183 2.3174390013 1.2504896261
C 4.5639002600 1.3344317394 0.4704684175
C 3.7853985442 0.4527504924 -0.2798994093
C 4.5032604253 -0.5220935726 -1.1566570308
O 5.3933755686 -1.2499152870 -0.7728081137
O 4.0805795915 -0.4246040271 -2.4234543934
C 4.6579031817 -1.3796873492 -3.3514378746
C -5.7023933171 -0.5337679479 3.1250369972
H -3.6782176045 0.0014345745 -2.1820314756
H -4.9869443151 1.0829331063 -1.6394769415
H -3.2848532609 1.6104013835 -1.5817411464
H -5.8676252216 0.4531642169 0.5476921077
H -1.1386523819 -1.4724957679 2.8804773976
H -0.9211122394 -0.3740121007 -0.4013661690
H 0.7057156255 1.5975692267 0.6452099780
H 2.1079602678 3.1932431705 1.8995498756
H 4.5852154976 3.0006264743 1.8217828228
H 5.6443963173 1.2506455534 0.4189130803
H 4.4292667419 -2.3956661115 -3.0211878744
H 5.7391710143 -1.2374154023 -3.4097022435
H 4.1866617820 -1.1681667735 -4.3098712948
H -5.4915209607 0.1441319252 3.9596401330
H -5.7190865563 -1.5496952631 3.5302324732
H -6.6814687245 -0.2884534750 2.7108741998
