45
CONF2
C -1.5039858122 -1.6184534239 3.1280855289
C -1.2233692586 -1.8368338534 1.6534085805
C -2.3491614592 -1.3603694582 0.7501309622
C -2.0963251723 -1.6737873755 -0.7234513086
C -3.1228539299 -1.0139151209 -1.6656176377
C -2.9728794161 0.4937593696 -1.6609701512
O -3.6985105011 1.2082319708 -0.9910961581
C -1.8705805529 1.0575422764 -2.5351245707
C -1.5350174587 2.5223811238 -2.2820047309
C -0.8476609890 2.7730505794 -0.9300633247
C 0.4464786844 2.0355629540 -0.7841573329
C 0.7948098252 1.3231484235 0.2944255590
C 2.0949911814 0.6491000741 0.4516601151
C 2.2568230357 -0.6326289441 1.0589227276
C 3.5800917180 -1.1561815855 1.1901410459
C 4.6866941014 -0.4523957423 0.7227380633
C 4.4997137308 0.7842158279 0.1297506875
C 3.2213773931 1.3363526005 0.0059621411
O 5.6078946349 1.4423026370 -0.3026901713
O 3.8246068958 -2.3480385013 1.7534206991
C 1.1607115337 -1.4936105405 1.5054584000
O 1.3333253942 -2.5909666735 2.0554037195
O -0.0659930621 -1.0268564249 1.2545321354
H -0.6483980784 -1.9176952105 3.7373842771
H -2.3683164282 -2.2184080440 3.4282933184
H -1.7308636937 -0.5647444895 3.3185423662
H -0.9779197330 -2.8862941066 1.4566389833
H -3.2797073408 -1.8379816269 1.0796817918
H -2.4784138567 -0.2810542236 0.8992869660
H -1.0865228195 -1.3478446178 -0.9973388197
H -2.1295400285 -2.7587471743 -0.8770131824
H -4.1406688286 -1.2635828845 -1.3495929416
H -2.9622628948 -1.3891427191 -2.6830660152
H -0.9812241140 0.4208556085 -2.4388621998
H -2.2146096867 0.9148811786 -3.5707788939
H -2.4523106046 3.1178439262 -2.3308642774
H -0.8778125193 2.8744352386 -3.0864880201
H -0.6541083885 3.8526621655 -0.8489247372
H -1.5220187117 2.5113259239 -0.1075222988
H 1.1288447067 2.0819962349 -1.6353287812
H 0.0869201717 1.2395539420 1.1116327542
H 5.6779683708 -0.8750088749 0.8347149290
H 3.1051947288 2.3350805737 -0.4030540361
H 5.3477398744 2.2868937951 -0.6918932099
H 2.9368498608 -2.7166348135 2.0165480270
