41
CONF11
C -7.2887146523 0.2816995874 2.3955308175
C -6.7436977557 -0.2432400265 1.0907113156
O -5.7883893807 0.7493994333 0.5912475458
C -5.1924473647 0.4615423158 -0.5708625357
O -5.3643177186 -0.5526339015 -1.2106818907
C -4.3017359528 1.6250537244 -1.0090242817
C -5.1432563133 2.6635183742 -1.7371370099
O -3.3134544568 1.1713941772 -1.9326463296
C -2.3216545911 0.3503736583 -1.4733538773
C -1.4111654002 -0.0808288852 -2.4446292291
C -0.3571348622 -0.9092064709 -2.0926650865
C -0.2284834327 -1.2959467040 -0.7674864152
C -1.1160364314 -0.8877754284 0.2078729160
C -2.1769784487 -0.0543270962 -0.1439979023
O 0.8074145706 -2.1951170325 -0.4137925614
C 1.9717175071 -1.6481728908 -0.1089764040
N 2.3267816329 -0.4043790576 -0.0690548536
C 3.6700399929 -0.4708821448 0.3173548946
C 4.0315645143 -1.8117937118 0.4864465159
O 2.9188604587 -2.5821642319 0.2069269100
C 5.2811433282 -2.2485400388 0.8648330170
C 6.2035260175 -1.2230955150 1.0777046824
C 5.8944053880 0.1302849085 0.9228779994
C 4.6132103524 0.5247863084 0.5377331363
Cl 7.8363995323 -1.6641261396 1.5646626778
H -8.0068260500 -0.4385289902 2.7980447030
H -6.4881756378 0.4163733124 3.1281276413
H -7.8022864611 1.2360423753 2.2501134049
H -6.2127168110 -1.1916698101 1.2146100970
H -7.5254406306 -0.3727823835 0.3362948782
H -3.8273030052 2.0750210029 -0.1279072938
H -4.5036438450 3.4886902595 -2.0590432184
H -5.9129742774 3.0533465932 -1.0670862743
H -5.6219999847 2.2157748424 -2.6123831813
H -1.5443655509 0.2406778850 -3.4718761040
H 0.3561547051 -1.2519811353 -2.8344735153
H -0.9873682445 -1.2135910986 1.2344030102
H -2.8671688636 0.2602047406 0.6294399305
H 5.5310610166 -3.2949860650 0.9873863891
H 6.6592442779 0.8763273557 1.1042975479
H 4.3683274417 1.5740065813 0.4163396642
