44
CONF2
C -1.0511429474 -3.5963532775 1.1828838038
C -1.4492770826 -3.2018515665 -0.2309955199
N -1.8854187193 -1.7766817129 -0.3016466167
C -3.2071577366 -1.5530746143 -0.3710678432
C -3.7923952913 -0.3121840804 -0.2827805096
C -2.9764304557 0.8451375899 -0.0691710613
O -3.4624541418 2.0072364589 0.0465897347
C -1.5465615312 0.6093680875 -0.0028392387
C -0.6915640078 1.7056734533 0.1885055466
C 0.6547647269 1.5110698328 0.2678843169
C 1.2681096921 0.2427943110 0.1205670354
C 0.3899183271 -0.8221835506 -0.1235380652
C -1.0107919998 -0.6982043619 -0.1293124141
F 0.9635273169 -2.0110865775 -0.4139676379
N 2.6304005757 0.1026618652 0.2476153170
C 3.2362913045 -1.1251326070 0.7683341113
C 4.5197211738 -0.7472239004 1.5128590547
N 5.4677683130 0.0234302265 0.6980055479
C 4.8278458103 1.2176126495 0.1179836515
C 3.5328580083 0.8716553440 -0.6226657869
C 5.8006340249 1.9290172794 -0.8103763361
F 1.4541514969 2.5644155447 0.5439368447
C -5.2657865206 -0.2166383109 -0.3896606512
O -5.9955237460 -1.1791342785 -0.5769938228
O -5.7601610852 1.0185144696 -0.2652744103
H -1.8965142439 -3.4744535909 1.8664024125
H -0.7523233118 -4.6483099338 1.1836497195
H -0.2104330602 -3.0050518693 1.5537173279
H -2.3094965306 -3.7880301151 -0.5573104405
H -0.6494400258 -3.3693704833 -0.9492825674
H -3.8325817036 -2.4302739869 -0.4963653705
H -1.1152036180 2.6948066681 0.3150786789
H 3.4758503036 -1.8318653746 -0.0423198466
H 2.5378906752 -1.6070254256 1.4584327658
H 5.0098670644 -1.6634254925 1.8609783102
H 4.2578486471 -0.1480822505 2.3950912785
H 5.7870642711 -0.5662121682 -0.0697814668
H 4.5659616990 1.8806641741 0.9561465690
H 3.7785532486 0.2645230018 -1.5127794957
H 3.0320660837 1.7792861387 -0.9649973027
H 6.0822653097 1.2775754754 -1.6462083779
H 6.7096363468 2.2083558184 -0.2704245576
H 5.3483636211 2.8357292462 -1.2235290459
H -4.9627125679 1.6396090074 -0.1191843864
