71
CONF97
C 3.6852572973 1.3927184778 -2.2609039448
C 3.8729675679 -0.0514613760 -1.8973706908
C 3.6248009370 -0.5134328490 -0.5958618773
C 3.7502992587 -1.8688435437 -0.2518413727
C 4.1459329737 -2.7691007203 -1.2416150828
C 4.4129291097 -2.3306670931 -2.5346945795
C 4.2768554137 -0.9842616012 -2.8563912063
C 3.4700962370 -2.3263042504 1.1510661553
N 3.1903697455 0.3899322396 0.4096281557
C 3.9364871343 1.3764207320 0.9614947554
O 5.0822102440 1.6692339066 0.6193087526
C 3.2467804879 2.0928647151 2.1245591341
N 1.8116428096 1.8591421242 2.1580639731
C 1.2173925024 1.9230049507 3.4950658448
C -0.2432895902 1.4964767190 3.4140938238
N -0.9790737040 2.3654637563 2.4928597975
C -0.3640493613 2.3361598352 1.1667356955
C 1.0922639182 2.7602978931 1.2520147173
C -2.4224942490 2.0841933286 2.4733116391
C -2.8724713481 0.7410616632 1.8544401411
C -3.2412991236 0.8343466865 0.3719806145
C -3.5202169701 -0.5425813790 -0.2488359495
C -4.1076078316 -0.4780051219 -1.6501058932
C -4.8761652945 -1.5532913113 -2.1103661367
C -5.4053890914 -1.5711489525 -3.3962630585
C -5.1490765616 -0.4883877726 -4.2211939758
C -4.3976347705 0.5972928366 -3.8115113766
C -3.8783035970 0.5927493465 -2.5173131369
F -5.6607894253 -0.4924414304 -5.4815622303
C -2.2780932338 -1.4229480284 -0.2470447002
C -1.1432412253 -1.0658534514 -0.9834835547
C -0.0099984406 -1.8740376617 -1.0019082658
C -0.0370628730 -3.0537753243 -0.2746089973
C -1.1317016861 -3.4419052214 0.4758822761
C -2.2523832690 -2.6130015619 0.4818107047
F 1.0513195567 -3.8674485282 -0.3061938932
H 4.4698807961 2.0139494273 -1.8167480079
H 3.7105051273 1.5210456355 -3.3452574588
H 2.7284507932 1.7703952103 -1.8843136805
H 4.2463787104 -3.8209765943 -0.9901350113
H 4.7223357485 -3.0409251692 -3.2953642818
H 4.4718508786 -0.6454850166 -3.8700688055
H 3.6812656194 -3.3922500997 1.2569559757
H 2.4205523655 -2.1625238990 1.4234797775
H 4.0787055182 -1.7720746216 1.8741357606
H 2.3052760990 0.2273674606 0.8865686422
H 3.7058238879 1.6942335539 3.0388712780
H 3.5217050581 3.1600221210 2.0680515048
H 1.7580782879 1.2379553363 4.1577860513
H 1.2838432273 2.9416565562 3.9223564733
H -0.7002682534 1.5705275306 4.4082487905
H -0.2730858701 0.4331562724 3.1056205558
H -0.3955177035 1.3268720519 0.7104604855
H -0.9083360484 3.0230089917 0.5068649629
H 1.1627553498 3.8083514178 1.5998801973
H 1.5461687476 2.7032847542 0.2554551024
H -2.9135113406 2.9072053691 1.9342646707
H -2.7634844018 2.1376097077 3.5141199939
H -2.0863975765 -0.0111434144 1.9944394781
H -3.7451502204 0.3685525750 2.4056316574
H -4.1357950806 1.4607642658 0.2598965415
H -2.4411106602 1.3338068587 -0.1830533096
H -4.2636511895 -1.0437968084 0.3844404167
H -5.0625313388 -2.3955099110 -1.4491253879
H -6.0053348097 -2.4008924957 -3.7542527877
H -4.2248601464 1.4274904634 -4.4879511915
H -3.2915716611 1.4451029956 -2.1925649378
H -1.1425716296 -0.1484594377 -1.5654772654
H 0.8737264557 -1.6058021513 -1.5724929591
H -1.1085987597 -4.3717814637 1.0339386273
H -3.1227897498 -2.9031992986 1.0635503927
