56
CONF42
C -4.4436825988 1.6072775825 -1.1281152031
C -3.2239539723 2.4550890011 -0.7720814487
C -3.2657782106 3.8056253774 -1.4894293762
C -1.9244998616 1.7017533010 -1.1330870387
C -1.7778677920 0.3486429661 -0.4590535648
C -1.9206985844 0.2130338113 0.9260845022
C -1.8252779135 -1.0299617766 1.5304796834
C -1.5684750048 -2.1581440200 0.7549340205
C -1.3899985080 -2.0474574889 -0.6195979609
C -1.4950371948 -0.7891737211 -1.2102079485
O -1.5532857379 -3.3608837186 1.4431088758
C -0.8167275363 -4.3971471712 0.9205191921
F -1.4932061886 -5.0080309911 -0.1085931547
F -0.6982959198 -5.3140033535 1.9029758833
C -0.7111556781 2.5210613787 -0.7446350865
O -0.5077225058 3.0199933038 0.3316651289
O 0.1773175443 2.5902462885 -1.7852950499
C 1.4821691192 3.1297949680 -1.4533423790
C 1.3993085725 4.5341856783 -1.0493466985
N 1.3850814021 5.6601349241 -0.7944579078
C 2.2152463721 2.2391162923 -0.4683172718
C 2.9354873184 2.7499801400 0.6052553493
C 3.6045479429 1.8747297438 1.4575437703
C 3.5496669696 0.5018340765 1.2574940363
C 2.8102108314 0.0071550518 0.1845312081
C 2.1537563784 0.8635837683 -0.6865644826
O 2.7562665250 -1.3402720582 -0.1089065291
C 2.5415840920 -2.2359660912 0.9206593713
C 3.1299543287 -3.4905029523 0.7890840022
C 2.9034304296 -4.4539709430 1.7670019241
C 2.1024536370 -4.1669421550 2.8689180577
C 1.5111572706 -2.9113023673 2.9792911100
C 1.7199256415 -1.9390310794 2.0066045853
H -4.4665382800 1.3986435745 -2.2044451849
H -4.4422687335 0.6507210044 -0.5981933036
H -5.3648634846 2.1388722670 -0.8715790409
H -3.2123028006 2.6378374020 0.3093889216
H -2.4198576542 4.4424147397 -1.2111265303
H -4.1835936496 4.3451802182 -1.2381433401
H -3.2472401610 3.6662894988 -2.5768949068
H -1.8998914201 1.5499393734 -2.2177661980
H -2.1031941045 1.0895025242 1.5382940209
H -1.9481865994 -1.1460651211 2.6017519094
H -1.2118113321 -2.9201591071 -1.2353657538
H -1.3752922267 -0.7039777406 -2.2866368681
H 0.1744077413 -4.0907551667 0.5582921584
H 2.0022640619 3.1103685575 -2.4187291452
H 2.9611976531 3.8188735233 0.7865637993
H 4.1719838053 2.2698520582 2.2935661899
H 4.0646526633 -0.1827161785 1.9224320978
H 1.5843638057 0.4447833165 -1.5089961415
H 3.7568456077 -3.6918771817 -0.0726689618
H 3.3613616028 -5.4327232350 1.6672010904
H 1.9238140769 -4.9215817189 3.6263723303
H 0.8649649435 -2.6880589752 3.8220545230
H 1.2472845233 -0.9658115843 2.0814094346
