56
CONF7
C 2.6380566200 -1.2208096527 2.2974891352
C 2.4758316428 -1.3111376788 0.7792278933
C 1.2380638635 -0.5463274286 0.2541802551
C -0.0643470533 -0.9759750624 0.9256982064
C -1.2112421254 -0.1679358934 0.3390267368
C -2.6028978564 -0.6717747542 0.7494378507
C -3.7292728809 0.2929875896 0.3292493454
O -4.9002279527 -0.0902956915 0.4389367320
C -3.3702840776 1.5650690406 -0.2706387249
C -2.0697616455 2.0654088070 -0.1767605672
C -1.0731275992 1.3133503176 0.7033310720
C 0.3588525481 1.7924610643 0.5889909753
O 0.5008687835 3.0888428313 0.8196018595
C 1.4216300673 0.9490868499 0.3720475222
C 2.7381661878 1.5187870174 0.2469359299
C 3.8587016356 0.6404181279 -0.0461428469
C 3.7313787449 -0.7572502317 0.1193293243
C 4.7842873675 -1.5914841892 -0.2158402688
C 5.9680547781 -1.0472107841 -0.7258601298
C 6.1274461979 0.3178077530 -0.8741401929
C 5.0858518162 1.1788202973 -0.5148346467
O 5.2837893117 2.4970027328 -0.6472302728
O 2.9205817621 2.7785615156 0.3449514597
O -1.4699385160 1.4757369307 2.0800757533
O -1.7103542434 3.1555964416 -0.7663251490
C -4.3329145580 2.4069738891 -0.9816430774
O -3.9413811278 3.4700820682 -1.5565963284
N -5.6170061872 2.0424928007 -1.0233379122
N -2.8087119392 -2.0308194321 0.2473513433
C -3.2202865033 -2.1131396647 -1.1512754221
C -3.6492750061 -2.8733495490 1.0950542981
O 2.3186932896 -2.7057558904 0.5012440599
H 3.5823941027 -1.6872457376 2.5876413119
H 1.8215666106 -1.7485023817 2.7950072206
H 2.6460538330 -0.1774123070 2.6234695890
H 1.1701207834 -0.8074999106 -0.8183794414
H -0.0146680256 -0.7885103684 2.0042989583
H -0.2459061839 -2.0409418694 0.7667709207
H -1.1390092988 -0.2181222779 -0.7578050774
H -2.6345703659 -0.7144004342 1.8450450312
H 4.6920574120 -2.6592776692 -0.0567531006
H 6.7863781961 -1.7086536042 -0.9939395765
H 7.0488330135 0.7490365509 -1.2489149076
H 4.4752749552 2.9401390830 -0.2891293093
H 1.4925390874 3.2707206709 0.7024526668
H -1.2917008947 2.3944406772 2.3234738052
H -2.6506911445 3.4896810368 -1.2521519467
H -6.2707363266 2.6314883461 -1.5117380918
H -5.8862499495 1.2041854225 -0.5140124562
H -4.2777752340 -1.8396115852 -1.3104727602
H -2.6010743272 -1.4581611368 -1.7735612420
H -3.0749027475 -3.1398163303 -1.5050561325
H -3.2875729167 -2.8334079217 2.1278256847
H -4.7108975852 -2.5808197272 1.0830136884
H -3.5685915854 -3.9112500887 0.7504559610
H 2.2599035539 -2.8122779104 -0.4571748162
