63
CONF15
C 0.9560089165 -0.6671105398 2.4093476587
C -0.2888232018 -1.5262675240 2.2158765828
N -0.2755862594 -2.1772367568 0.9007435635
C 0.8722206435 -3.0862061505 0.8153281915
C 2.1794080717 -2.3065919487 0.9275417715
C 2.2110407014 -1.5241486725 2.2413065373
N 3.4350056937 -0.7355064766 2.3807724328
C 3.8639583831 0.3343197041 1.5985067350
C 3.3183434307 0.9702096930 0.4893120459
C 4.0296209649 2.0396049704 -0.0631426058
C 5.2482126769 2.4602795007 0.4723247963
C 5.8028389743 1.8230704101 1.5850342902
C 5.0966494419 0.7646694085 2.1322879046
N 5.3715291564 -0.0544300191 3.2116790449
C 4.3658517633 -0.9872082774 3.3872964137
O 4.3042139849 -1.8587427023 4.2524267654
C -1.5433393184 -2.8747217528 0.6398104994
C -2.6429880960 -1.9128794145 0.1890070019
C -2.3668778771 -1.3284690517 -1.1988197734
C -3.1478699632 -0.0363151226 -1.4878403997
C -2.7906826290 1.1231514788 -0.5697940055
C -3.7268959722 2.1446542539 -0.3765302496
C -3.4383011903 3.2573618075 0.4073620202
C -2.1886997912 3.3300127546 1.0000277959
C -1.2328584144 2.3430719417 0.8445530518
C -1.5459539754 1.2380287592 0.0544892080
F -1.8924233101 4.4127471298 1.7697943035
C -2.9775929021 0.3673894149 -2.9436204228
C -4.0244602684 0.2054304715 -3.8531787745
C -3.8714835086 0.5370059707 -5.1987799988
C -2.6481307166 1.0311316190 -5.6127935298
C -1.5813755510 1.2082696532 -4.7467890214
C -1.7592088174 0.8732771381 -3.4081425564
F -2.4850172553 1.3606729341 -6.9235301965
H 0.9462358968 -0.2172444751 3.4083422142
H 0.9478440700 0.1464999552 1.6772739807
H -1.1785964617 -0.8942083854 2.3001071822
H -0.3459438511 -2.2834576694 3.0254114827
H 0.8324863079 -3.8592487005 1.6107093609
H 0.8384034520 -3.6061308518 -0.1483473048
H 2.2614188189 -1.6240520179 0.0746032548
H 3.0302178596 -2.9958760688 0.8899778268
H 2.2459696123 -2.2445493381 3.0677042708
H 2.3768524178 0.6593998846 0.0538783956
H 3.6197893702 2.5496224755 -0.9287892945
H 5.7756770919 3.2935373477 0.0199109957
H 6.7497447336 2.1407505177 2.0085808672
H 6.1826817267 -0.0067493071 3.8077328266
H -1.8750244944 -3.4440449068 1.5289958251
H -1.3678853216 -3.6069964436 -0.1589776650
H -3.6009785813 -2.4468614254 0.1802642629
H -2.7516887722 -1.1046922137 0.9215035315
H -1.2928213169 -1.1425045914 -1.3154584318
H -2.6338086446 -2.0656042131 -1.9658561125
H -4.2144041669 -0.2483279262 -1.3371477565
H -4.7014204742 2.0711888147 -0.8522153039
H -4.1630330423 4.0499446236 0.5601280968
H -0.2681206005 2.4341474440 1.3331745793
H -0.8050948102 0.4520338291 -0.0550038174
H -4.9779810618 -0.1854510615 -3.5091577567
H -4.6820517708 0.4171098190 -5.9096315310
H -0.6399211451 1.6024207537 -5.1143849956
H -0.9348772139 1.0158569989 -2.7151951648
