21
CONF59
C 1.0357641794 -1.1445929140 -0.0332348937
C 0.1052345748 0.0792084174 -0.0575264952
C 0.9374295209 1.2928787890 -0.5211398000
O 2.0536433927 1.5926873811 0.3290314529
C -1.0059312657 -0.1581059931 -1.0807110674
O -1.8885309574 0.9734509994 -1.1039675685
C -0.4682547486 0.3591339573 1.3426201294
O -1.4146508904 -0.6196400068 1.7876936622
O 0.4277150527 -2.3325729059 0.5186414341
H 1.8904003325 -0.9228288726 0.6114602694
H 1.4116602436 -1.3502086920 -1.0454314002
H 1.3593716071 1.0733249472 -1.5094322856
H 0.2826262855 2.1670914604 -0.6175970458
H 1.7304865392 2.0939937703 1.0866792396
H -0.5483349626 -0.3096705442 -2.0714354758
H -1.5663406613 -1.0656500686 -0.8187742463
H -2.6271495170 0.7529060963 -1.6836669440
H 0.3654237458 0.4323666572 2.0582529804
H -0.9958893886 1.3187285665 1.3363002641
H -0.9859502930 -1.4791266075 1.6447726946
H -0.0987224773 -2.7533741466 -0.1725349149
