59
CONF386
C 2.1777172095 1.0581446353 4.2114399125
C 1.1951102744 0.7783063187 3.0374900070
C 1.8691078660 1.3712962382 1.7847959992
C 3.3764320467 1.3722449964 2.1113135616
C 3.3661388448 1.8123494538 3.5828608831
C 4.1852718546 2.3001316531 1.2158560905
C 4.2368302847 1.8488627727 -0.2197965931
O 4.3341549340 2.6391924429 -1.1484004693
N 4.1920889030 0.4725348604 -0.4697533631
C 4.1040484014 -0.4972719056 0.5352536838
O 4.1391993440 -1.6883977677 0.2583718316
C 3.9863678740 -0.0221146999 1.9606917030
C 4.2281927290 0.0360769339 -1.8824444019
C 2.8564767145 0.1402609343 -2.5484791771
C 1.8110493829 -0.7972873888 -1.9468426437
C 0.4344802142 -0.5708194472 -2.5633947728
N -0.6084020845 -1.4222563641 -1.9725030128
C -1.8116854780 -1.4069521600 -2.8161307045
C -2.8941713096 -2.3085754740 -2.2298007540
N -3.2237615348 -1.8765987532 -0.8706194417
C -2.0370842969 -1.8691187133 -0.0141918877
C -0.9589366009 -0.9734572221 -0.6170022571
C -4.2914668506 -1.0598748719 -0.6197572979
N -5.2202391826 -0.9248872608 -1.5983936533
C -6.2809817244 -0.1736104903 -1.3091235555
C -6.4566886089 0.4579376711 -0.0832948397
C -5.4419613429 0.2617247514 0.8462317828
N -4.3628550614 -0.4800527706 0.6037735811
H 2.5143054705 0.1184767469 4.6603284053
H 1.7118483932 1.6433147682 5.0087449435
H 1.0380832875 -0.2981852518 2.9164725657
H 0.2117281653 1.2250324567 3.2071067076
H 1.5513674567 2.4107384436 1.6376890921
H 1.6228976607 0.8222053210 0.8695501666
H 3.1867407495 2.8941988209 3.6162107669
H 4.3192731443 1.6162193121 4.0851330433
H 3.7880905490 3.3190339289 1.2190256259
H 5.2242548004 2.3501090838 1.5742743082
H 5.0039171207 -0.0234375272 2.3777940663
H 3.4214995793 -0.7886133778 2.4976355816
H 4.5850661709 -0.9948587837 -1.8900747533
H 4.9517577883 0.6679137689 -2.4011608109
H 2.5067314121 1.1776039340 -2.4851568396
H 2.9889599673 -0.0848226946 -3.6143847228
H 1.7622742349 -0.6346731173 -0.8655684751
H 2.1109966682 -1.8417036617 -2.0960819212
H 0.4842485901 -0.8005941795 -3.6355828304
H 0.1624488994 0.5008943515 -2.4781858851
H -2.2193043995 -0.3806810907 -2.9220843241
H -1.5456916693 -1.7674643792 -3.8166644459
H -2.5222174617 -3.3395112176 -2.1741032311
H -3.7865227962 -2.2887939581 -2.8535253843
H -1.6629708463 -2.8986355536 0.0515288892
H -1.3225708158 0.0748204271 -0.6267771421
H -0.0745320240 -1.0142287479 0.0269660429
H -7.0245013810 -0.0698833316 -2.0990281750
H -7.3249578506 1.0679131072 0.1314805959
H -5.4940159542 0.7241076734 1.8316278075
H -2.3013898662 -1.5259679130 0.9849286349
