37
CONF8
C 3.8332071205 -3.7639170842 0.4869934075
C 4.1739012434 -2.4031095002 1.0554159347
C 3.9957993008 -2.3140930738 2.5591721692
O 3.2391541470 -1.4617979928 0.4104589193
C 3.6113660019 -0.1743433350 0.3418515310
O 4.6864226271 0.2570983137 0.7061185020
C 2.5064320171 0.6590578781 -0.2164424071
C 2.7217345078 1.7870606658 -1.0196689255
C 1.6586089415 2.5617552990 -1.4647249644
C 0.3756035447 2.2069256013 -1.0901979454
C 0.0974826128 1.0977299872 -0.2895266397
C 1.1905434254 0.3374485523 0.1245663689
C -1.2658721977 0.7318211683 0.0937632716
N -2.1397830952 1.6486075983 0.5402299623
N -3.2732092710 0.9988137355 0.8154176300
C -3.1651280368 -0.3333212272 0.5611892209
C -1.8750092256 -0.5366840652 0.0924215069
Br -1.1482549802 -2.1667497192 -0.4992628351
C -4.2371001975 -1.3539165395 0.7405342553
F -4.5752641596 -1.9277455216 -0.4405394299
F -5.3634837491 -0.8405087902 1.2724308271
F -3.8270357543 -2.3565788973 1.5540336512
C -4.4100545774 1.7606462251 1.3346626579
F -0.6368297744 2.9613258912 -1.5508833582
Cl 4.3170892887 2.2441797234 -1.5649414332
H 4.5068403184 -4.5118408724 0.9147568059
H 2.8042744361 -4.0399932501 0.7386080368
H 3.9489372497 -3.7736873920 -0.6000266165
H 5.1858131441 -2.1025457745 0.7678368881
H 2.9707059141 -2.5803717748 2.8358922458
H 4.2162603045 -1.3077646832 2.9240790431
H 4.6799963574 -3.0148895513 3.0468933280
H 1.8145807931 3.4195717700 -2.1077764772
H 1.0197646194 -0.5200438894 0.7636605392
H -4.0933893265 2.8021389364 1.3728074205
H -4.6718234063 1.4142223904 2.3363891407
H -5.2685693603 1.6570857520 0.6684181090
