35
CONF9
C -5.7907617040 0.2205878226 0.6485576017
C -4.3883514863 -0.0242285532 0.1057072015
C -3.9372626235 -1.4274953657 0.5079520440
O -3.3237808410 -1.7104535030 1.5017766215
O -4.3792838710 -2.3405472981 -0.3986841815
O -3.5458143075 0.9588415031 0.6802900810
C -2.2595885026 1.0601486650 0.2175368111
C -1.4851300740 2.0488674548 0.8275652290
C -0.1746241384 2.2516068774 0.4255550762
C 0.3560441192 1.4650349262 -0.5867744828
C -0.3994779868 0.4829895263 -1.2003736759
C -1.7160643724 0.2720793944 -0.7982715080
O 1.6524198818 1.7410382838 -1.0431114925
C 2.6630277331 0.9211390589 -0.6540826679
N 2.4199829191 -0.0643353047 0.1931286487
C 3.4481621892 -0.8409165430 0.5523753813
C 4.7384688183 -0.6541799188 0.0781558984
C 4.9752471141 0.3949377840 -0.8185995543
C 3.9264533931 1.2030566513 -1.1960876047
C 5.8627540838 -1.5546482029 0.4747330628
F 6.2545924848 -2.3537144999 -0.5536718207
F 6.9614592665 -0.8487406562 0.8463292106
F 5.5358685835 -2.3648432209 1.5043606679
H -5.7848142990 0.1388054894 1.7384168012
H -6.1178439776 1.2244937160 0.3688272541
H -6.4885343317 -0.5109250708 0.2342368307
H -4.3896755141 0.0542327172 -0.9905826558
H -4.1228608219 -3.2146203382 -0.0631282160
H -1.9283815568 2.6458923788 1.6164290661
H 0.4400923638 3.0141330365 0.8908104593
H 0.0389873326 -0.1227327725 -1.9856598862
H -2.2898538230 -0.5071362459 -1.2855143505
H 3.2247946083 -1.6418490940 1.2523287841
H 5.9736372965 0.5687832141 -1.2067245103
H 4.0501120333 2.0307928992 -1.8838062251
