111
CONF103
C 3.0642789238 -1.2963983562 1.1646349107
N 2.1671243090 -1.9884533294 2.1004200950
C 2.5805132003 -3.2089176202 2.7665905980
C 0.8671418579 -1.8152595982 1.6545200996
C -0.2696721259 -2.5436333119 1.9967784100
C -1.4944007709 -2.1279689494 1.4593326167
O -2.6636351085 -2.7904134283 1.7078326080
C -2.6288308129 -3.9484518245 2.5492205034
C -1.6013170462 -1.0104487770 0.6065999454
C -0.4236648020 -0.3292693287 0.2694182756
C 0.7952122557 -0.7304058751 0.7749609618
C 2.1713725774 -0.1140818688 0.6786567028
C 2.3052535211 1.0935889549 1.6817881176
C 2.6843137067 2.2853869374 0.8030994951
N 3.4062359086 1.6561639534 -0.3019831357
C 3.6514620467 2.5495530137 -1.4246372646
C 4.1293763964 1.7767428740 -2.6152296772
C 3.9421745206 0.4645863331 -2.7360726502
C 3.1625158599 -0.3738840649 -1.7492463765
C 2.0406861928 -1.1141330543 -2.5387137853
C 1.2260147000 -0.2347420337 -3.4865149543
C 4.1425224493 -1.4108090976 -1.1493145862
O 5.3066995730 -0.6963967434 -0.6658882156
C 6.5309946294 -1.1815594668 -0.9684003379
C 7.6000338153 -0.2937922578 -0.4114158867
O 6.7184122480 -2.1918173710 -1.6173925896
C 3.5662885347 -2.2413643222 0.0365644778
O 2.5023583165 -3.0467040457 -0.4281861832
C 4.6752210829 -3.2038506885 0.5107640652
O 4.7225234971 -4.3549984884 0.1184198709
O 5.5637555551 -2.6518773234 1.3327538705
C 6.6549940009 -3.5175065486 1.7556745936
C 2.5396206379 0.5289481134 -0.6747091663
C -2.9859894989 -0.5430958525 0.1520126217
C -3.8218447166 -0.0345927821 1.3519686688
C -3.1596752298 1.0024055078 2.2947638869
C -2.3731838159 2.1512983361 1.6476791763
N -3.2121736013 3.1898126654 1.0423953155
C -4.0225672148 3.8190435356 2.0931177975
C -4.6537635826 2.8538349296 3.0758714603
C -5.7657165081 3.4071881064 3.9261447068
C -7.0906567679 3.5219531158 3.1569280373
C -4.2351001454 1.5862882536 3.1731540719
C -4.0928739637 2.6644752670 -0.0300209460
C -3.3786248624 1.8111577328 -1.0325069399
C -2.9249314413 0.5001186930 -0.9531013605
N -2.3421508428 0.1588361973 -2.1627003435
C -2.3868449722 1.2199364162 -3.0280089701
C -1.9412031970 1.3354382054 -4.3450021591
C -2.1285519886 2.5583661617 -4.9755270764
C -2.7479402651 3.6349511980 -4.3118523226
C -3.2003873908 3.5097478681 -3.0060333357
C -3.0259471749 2.2854559926 -2.3424262859
C -3.7798429379 -1.7147598134 -0.4802510386
O -4.9766222089 -1.8760805612 -0.3738481695
O -2.9897991028 -2.4977025198 -1.2344238375
C -3.6575724350 -3.5839960390 -1.9248931064
H 3.9469435558 -0.9169388562 1.6838555080
H 1.9213643502 -3.4007145220 3.6189175206
H 3.5952460661 -3.0844547289 3.1541706266
H 2.5519109241 -4.0881975047 2.1035245981
H -0.2060369104 -3.4088368496 2.6431570527
H -3.6585223314 -4.3037762180 2.6017612527
H -1.9906030677 -4.7286637257 2.1183862129
H -2.2749228532 -3.6932719141 3.5547719162
H -0.4765454873 0.5225966838 -0.4013911619
H 3.0907953547 0.8896215925 2.4147232849
H 1.3718039511 1.2627344657 2.2233793572
H 3.3101476020 3.0231425459 1.3168519991
H 1.7732923290 2.8009148503 0.4372173738
H 4.4029542991 3.2959508322 -1.1350911734
H 2.7358757299 3.1195252100 -1.6984311828
H 4.6428222051 2.3327521663 -3.3960149759
H 4.3170428010 -0.0662147691 -3.6109740066
H 1.3679906869 -1.5928197597 -1.8258870093
H 2.5100483094 -1.9211121210 -3.1146786539
H 1.8397915472 0.1986474337 -4.2812052264
H 0.4454412483 -0.8417491155 -3.9560712372
H 0.7247356265 0.5864472685 -2.9639899224
H 4.4512927589 -2.1092976538 -1.9344803776
H 7.6209437033 0.6371172648 -0.9885442914
H 7.3766167008 -0.0344774517 0.6262088215
H 8.5683147318 -0.7875517517 -0.4850660498
H 2.8990593849 -3.8830342461 -0.7246345495
H 7.2725177895 -2.8990907207 2.4046674473
H 7.2186274978 -3.8526926599 0.8823619808
H 6.2540743745 -4.3758580067 2.2988069542
H 1.5977839255 0.9336148163 -1.0972081683
H -4.7691791257 0.3427780457 0.9669017563
H -4.0753172449 -0.9041648132 1.9624688107
H -2.4485837421 0.4474822523 2.9245752327
H -1.6680909838 1.7793982796 0.9042197262
H -1.7800735660 2.6377437328 2.4335329133
H -3.3911116874 4.5231591624 2.6592988038
H -4.8000287555 4.4294648764 1.6153510252
H -5.9091038936 2.7650254690 4.8023916056
H -5.4793771363 4.4011548917 4.2977905519
H -7.8721810054 3.9516071420 3.7915282275
H -6.9871443696 4.1601054269 2.2737769741
H -7.4235073101 2.5340214584 2.8226845581
H -4.7180069792 0.9177181624 3.8874373558
H -4.4992857372 3.5335879759 -0.5611215134
H -4.9641579871 2.1383403514 0.3892096126
H -1.9311741024 -0.7406095568 -2.3608271549
H -1.4681107614 0.5032039350 -4.8553433367
H -1.7924071846 2.6859815440 -5.9998633596
H -2.8750940233 4.5774598591 -4.8355141681
H -3.6802800129 4.3477454512 -2.5089963780
H -4.1211910473 -4.2562542901 -1.1989985247
H -4.4160574147 -3.1892520546 -2.6050910828
H -2.8729604976 -4.0979235592 -2.4785520127
