28
CONF31
C -3.2826761732 1.3788649327 0.3231565177
N -1.9409609102 0.9943291378 -0.0971643310
C -1.1880708240 2.0499684305 -0.7941371204
O 0.1331931530 1.6629344489 -1.0708982195
C 0.1752843746 0.2638648486 -1.3509026362
N -0.1654465604 -0.4680175295 -0.1517402184
C -1.3430269056 -0.1050384272 0.4353509694
N -1.9255071823 -0.6657193997 1.4867963373
N -1.8003534422 -2.0461769073 1.6125686332
O -1.9106165147 -2.4842518239 2.7486423545
O -1.6671105854 -2.7488955839 0.6017174271
C 0.8189292341 -1.3177567791 0.5350000287
C 2.2094214248 -0.7831989293 0.4581792695
C 3.3006583133 -1.3721881751 -0.1163019756
N 4.4924199165 -0.6988420824 -0.0221429028
C 4.3211747903 0.4066224256 0.6227184331
S 2.6926749209 0.7353651027 1.1762957030
Cl 5.5778129415 1.5428342887 0.9375374356
H -3.8911540394 0.4869726517 0.4707495468
H -3.2651328049 1.9469795005 1.2615473997
H -3.7256040688 1.9981555288 -0.4641677911
H -1.7409489125 2.2896537220 -1.7199891492
H -1.1276889163 2.9516241498 -0.1682619835
H 1.1951459712 0.0238143299 -1.6529820853
H -0.5330165984 0.0202450702 -2.1575703405
H 0.5120271310 -1.4003268703 1.5823237309
H 0.8057173525 -2.3318952797 0.1163909779
H 3.2728555231 -2.3299207807 -0.6251302140
