33
CONF12
C -5.2496951145 0.2677676327 -0.8950109998
C -3.9531837421 0.6922287577 -0.2158677607
C -4.0533219049 0.3905887360 1.2788055075
O -3.6978233681 -0.6232750068 1.8174695741
O -4.6600817144 1.4220898494 1.9266505996
O -2.9110381595 -0.0559431167 -0.8126076949
C -1.6165895354 0.2574879270 -0.4769833697
C -1.2432983149 1.2918622554 0.3816177327
C 0.1049819914 1.5196818035 0.6418565386
C 1.0706652889 0.7257523106 0.0437721293
C 0.7068030832 -0.3036025763 -0.8196086535
C -0.6366602019 -0.5362875776 -1.0721881438
O 2.3957667911 1.0463356122 0.3219518901
C 3.3479994532 0.0802123543 0.1216315891
C 3.4478367000 -1.0461514885 0.9467225668
C 4.4628005316 -1.9768549681 0.7564575854
C 5.3869158675 -1.7624464044 -0.2589136207
C 5.3191019215 -0.6437265721 -1.0800200149
C 4.2913194880 0.2697117754 -0.8826959064
Cl 6.6681660460 -2.9320339421 -0.4972908291
Cl 2.3084078967 -1.2827540981 2.2403117561
H -5.4084368360 -0.8039235217 -0.7507835393
H -5.1824237653 0.4764721035 -1.9650322643
H -6.0944581362 0.8191532723 -0.4755278932
H -3.7918192186 1.7709042346 -0.3545083426
H -4.7542478321 1.1522543999 2.8543443446
H -1.9774272129 1.9224823789 0.8690669586
H 0.4123548230 2.3095944436 1.3178568554
H 1.4638270068 -0.9244533654 -1.2863912803
H -0.9455368024 -1.3375107610 -1.7341812476
H 4.5337595045 -2.8447782112 1.3998755451
H 6.0524855999 -0.4926639178 -1.8626167034
H 4.2028498658 1.1518258818 -1.5074415958
