53
CONF16
C 1.6732586674 1.5716141075 -0.2863829030
C 0.5709802534 1.1888248059 0.6869981359
N -0.4510157460 0.3744513765 0.0121822230
C 0.2016727258 -0.8364701860 -0.5095032906
C 1.3038590542 -0.4622590949 -1.4860688787
N 2.3253386425 0.3711418680 -0.8312035391
C 3.3999046644 0.7308875568 -1.7718888615
C 4.4484979134 -0.3595314468 -1.9161656371
O 5.2121443913 -0.4331536468 -0.7061190376
C 5.3381134681 -1.7331447263 -0.1267833882
C 4.0165164185 -2.2795212603 0.4029770127
O 3.3540336695 -1.3448088568 1.2481374528
C -1.5391626588 0.0211147285 0.9375933792
C -2.6123119844 -0.8143399849 0.2538630953
C -3.2092795000 -1.8684271136 0.9461350516
C -4.2388389098 -2.6071363179 0.3664814732
C -4.6784845241 -2.3014295437 -0.9187662344
C -4.0808032680 -1.2541418245 -1.6191849493
C -3.0572111668 -0.5136377010 -1.0364183663
C -2.1956674368 1.2591096072 1.5282968824
C -2.5585368457 2.3415377810 0.7228772240
C -3.1987625381 3.4512946618 1.2616511443
C -3.4829468906 3.4654648612 2.6230871135
C -3.1376140078 2.4056899477 3.4498832527
C -2.4895005986 1.3068767131 2.8901331744
Cl -4.2958117315 4.8679697372 3.3153518120
H 2.4250511261 2.1712865737 0.2389214305
H 1.2452995791 2.1913021614 -1.0970082904
H 1.0090709522 0.6427087156 1.5461587630
H 0.1121917326 2.1033855124 1.0738713289
H -0.5365182749 -1.4517742201 -1.0321004254
H 0.6257864368 -1.4426786568 0.3148476884
H 0.8618271050 0.0753785047 -2.3462939018
H 1.7682147649 -1.3778210241 -1.8675749636
H 2.9899827173 0.9820365126 -2.7672595445
H 3.9027565610 1.6281240301 -1.3925859814
H 5.1214469417 -0.0988066048 -2.7456889437
H 3.9909223294 -1.3270217714 -2.1564582630
H 6.0396059171 -1.6026993533 0.7040692917
H 5.7751416251 -2.4478967004 -0.8437778770
H 4.2285479525 -3.1820906706 0.9892416011
H 3.3606882431 -2.5822782733 -0.4283692066
H 3.0116119367 -0.6484094418 0.6339688700
H -1.1464380099 -0.5753661192 1.7837561091
H -2.8648415639 -2.1112134105 1.9481332335
H -4.6925853230 -3.4249742698 0.9180247253
H -5.4779155967 -2.8773373471 -1.3745132709
H -4.4130095479 -1.0144225186 -2.6249005124
H -2.5870945849 0.2931071737 -1.5897471751
H -2.3259889841 2.3256258592 -0.3367062433
H -3.4716944541 4.2921130586 0.6338585982
H -3.3614171940 2.4361260492 4.5102520014
H -2.2090138503 0.4756200813 3.5309902179
