41
CONF30
C 3.4379281487 0.6465484774 0.0226370169
C 2.9736767027 1.8631455173 -0.7820672236
C 4.0538170858 2.2652435083 -1.7905727535
C 2.6504379375 3.0206560448 0.1690206376
N 1.7445335708 1.4257129212 -1.4929292968
C 0.9847952406 2.2163357902 -2.2704332244
O 1.2284221968 3.3579043981 -2.6190222836
O -0.1901842785 1.6462829783 -2.7551272013
C -0.6292032072 0.4031348003 -2.2989922073
C -0.6637498065 -0.6514387980 -3.2021682440
C -1.1684374754 -1.8728134991 -2.7615679053
C -1.5920252235 -2.0382962733 -1.4492532637
C -1.5384701920 -0.9647180332 -0.5486119350
C -1.0757512363 0.2799156328 -0.9889591411
N -2.0094105706 -1.1600614230 0.7545471537
C -1.4922606460 -0.5323757933 1.8898827127
O -0.5175446194 0.2247205009 1.8361907822
N -2.1630503863 -0.8115863036 3.0478907761
C -3.3210206491 -1.6988816954 3.1100928387
C -1.5550869955 -0.4552711641 4.3252780879
H 4.3470111839 0.8990748980 0.5740713483
H 2.6705992240 0.3424469885 0.7431795261
H 3.6581929697 -0.1978555034 -0.6392086247
H 3.7330466631 3.1215371777 -2.3876840223
H 4.9675709689 2.5372884639 -1.2535408051
H 4.2804548388 1.4302341304 -2.4610176065
H 1.8800231259 2.7191672158 0.8860867961
H 2.2986415182 3.8953608256 -0.3826821786
H 3.5520151480 3.2987132848 0.7232107270
H 1.3893357930 0.5107075491 -1.2557712525
H -0.3090800994 -0.5103834283 -4.2168347119
H -1.2158811426 -2.7128252171 -3.4469957025
H -1.9623232841 -3.0020548201 -1.1122880797
H -4.0415049881 -1.4619069854 2.3218160677
H -3.8194077932 -1.5437957921 4.0695240923
H -3.0396848803 -2.7602582097 3.0422119713
H -1.2000449028 -1.3526521915 4.8496947703
H -0.7135297769 0.2138630322 4.1515729699
H -2.2922354084 0.0497688819 4.9585647778
H -2.5322441192 -2.0117151813 0.8919704180
H -1.0559638553 1.1350988037 -0.3266981525
