74
CONF29
C -0.5023172873 -0.4842887789 0.9010427979
C 0.3201024507 -1.3674754576 1.8273377070
O -0.3980611797 -1.2813630172 3.1086810933
C -1.1409750497 -0.1452985124 3.1591335440
O -1.7552009358 0.1606890214 4.1551985768
C -0.9870939070 0.5966061841 1.8539292528
C -2.1648294171 1.3832424655 1.2711191062
C -3.4675182418 0.5915492180 1.2368936064
C -4.3212069544 0.6414601665 2.3407762099
C -5.5015980178 -0.1041820909 2.3564427399
O -6.3970716585 -0.1265110137 3.3859612840
C -6.0776570512 0.6541247913 4.5451905358
C -5.8368793246 -0.9024853034 1.2567057537
O -6.9978051024 -1.6232865315 1.2847650549
C -4.9841817734 -0.9348765635 0.1479360732
O -5.4254986648 -1.7392300179 -0.8671445737
C -4.6054831201 -1.8300006407 -2.0401838148
C -3.8069742910 -0.1904728396 0.1307003112
C -1.7589630043 1.8578962302 -0.1190230288
C -2.5137065186 2.9136258261 -0.6727374264
C -2.2055263386 3.3264361616 -1.9442949763
C -1.1927973588 2.7232734925 -2.6858752479
O -1.1349498788 3.2860787489 -3.9362209717
C -1.9813989177 4.4525657164 -3.8631069321
O -2.8194917476 4.2928356213 -2.6975159428
C -0.4515824332 1.6875064498 -2.1794751105
C -0.7387073071 1.2510145127 -0.8660405171
C 0.1476356484 0.1507331163 -0.3111599279
O 1.4242799236 0.7456023644 0.0672929346
C 2.5268670182 0.2346989421 -0.6040642823
O 2.7967816805 -1.0798542905 -0.0908435169
C 3.9180316815 -1.6606779859 -0.7545728581
C 4.1201331109 -3.0899868366 -0.2818667556
O 5.3212925027 -3.5908078040 -0.8880814620
C 6.4564521769 -2.8018890370 -0.5499250012
C 7.6671269181 -3.4069381011 -1.2073638887
O 6.3071409513 -1.4631304245 -1.0274365364
C 5.1675705352 -0.8515607256 -0.4160320630
C 4.9972718011 0.5631155931 -0.9295907222
O 6.0617413082 1.4316704745 -0.5354217523
C 3.7158602720 1.1587745859 -0.3437917418
O 3.4218034343 2.4171124713 -0.9426625860
H -1.3702273605 -1.0569327339 0.5498559774
H 0.3508641226 -2.4204906831 1.5457519727
H 1.3308052081 -0.9835973761 1.9828648540
H -0.1604421422 1.3053409032 2.0292170850
H -2.3343108756 2.2656870350 1.8983318683
H -4.0506466365 1.2564178157 3.1889274914
H -6.0139519612 1.7200731903 4.2970187817
H -6.8967260218 0.4889992008 5.2457224604
H -5.1341672558 0.3222521563 4.9944841825
H -7.0635079561 -2.1056239197 0.4468321942
H -3.6128142230 -2.2224623547 -1.7914275155
H -5.1199726113 -2.5213989238 -2.7076704456
H -4.5076317510 -0.8511611709 -2.5234712837
H -3.1670727798 -0.1974217918 -0.7429075266
H -3.3180709695 3.3727501473 -0.1069480547
H -1.3558555248 5.3463114546 -3.7369200380
H -2.6080360621 4.5032638269 -4.7554133963
H 0.3273822210 1.2120924922 -2.7665095286
H 0.3328119270 -0.6010897948 -1.0874796511
H 2.3404615945 0.1580525004 -1.6911976325
H 3.7644724411 -1.6553772682 -1.8463028282
H 3.3036872167 -3.7427454684 -0.6001706957
H 4.2019914634 -3.1139913127 0.8163477702
H 6.5471911868 -2.7675846352 0.5510670516
H 7.8109578478 -4.4282418265 -0.8479022472
H 8.5533496720 -2.8171974302 -0.9628149771
H 7.5320833633 -3.4222359241 -2.2925215908
H 5.2983328545 -0.8354638484 0.6799039390
H 4.9089367627 0.5390531946 -2.0275801293
H 6.8441085017 1.1957730060 -1.0498663651
H 3.8366772525 1.2606094418 0.7470765653
H 4.2267038440 2.9500450269 -0.8835004260
