68
CONF56
C 2.3208556847 -4.4501774767 -2.3793168006
C 2.0636624231 -3.6950054204 -1.0771721918
C 1.4822576148 -2.2638031119 -1.2490740897
C 0.1490640671 -2.2953826906 -2.0017336384
C 1.3426015964 -1.7268407944 0.1749667860
O 0.0657333698 -1.6213191462 0.5772277790
C -0.1909643837 -1.1478261241 1.9403991006
C -0.3495653334 -2.3771850140 2.8179949429
C -0.6405522157 -1.9905706192 4.2672893029
C -1.7225373514 -0.9543383942 4.3083900425
C -2.1046580016 -0.2061262640 3.2568989180
C -3.1756902383 0.7721819194 3.3790421480
C -3.4446983923 1.6796273358 2.4275084103
C -2.6245382386 1.8296085229 1.1784902905
C -1.2515446899 1.1418386330 1.3508992192
C -1.4584938750 -0.2997582414 1.8856103615
C -0.3827967506 1.2191304690 0.0925933517
C -0.1778490351 2.6411294395 -0.4320613092
C 0.8771266280 2.7078062027 -1.5213835340
C 1.1287464561 4.1041311087 -2.0530103519
C 2.1189136750 4.0367780660 -3.2032982046
C 1.5277485322 3.1724245681 -4.3124371716
C 0.8424152917 1.9022914731 -3.8613900748
O 0.4233135453 1.7958789171 -2.5874183704
O 0.5864833206 0.9951468831 -4.6287618044
O 2.4910335190 5.3258864700 -3.6971077656
C -3.4212636431 1.3539499075 -0.0497180890
C -1.0110008907 -3.2196147438 5.1041227308
O 2.2953625810 -1.4419076710 0.8788136170
C 2.4729229758 -1.3454623176 -1.9848044194
H 3.0261535898 -3.9180077610 -3.0244979700
H 2.7529552566 -5.4305178921 -2.1561106993
H 1.3995929475 -4.6167640178 -2.9446394156
H 1.3664816623 -4.2736954522 -0.4561298326
H 2.9993917962 -3.6118539182 -0.5125838442
H 0.3189203305 -2.6115269674 -3.0346033866
H -0.5598395607 -2.9884352960 -1.5403224842
H -0.3065060700 -1.3015211955 -2.0302029649
H 0.6654185196 -0.5494548953 2.2706554561
H 0.5586291723 -2.9873777115 2.7573365832
H -1.1846543777 -2.9765408942 2.4304304169
H 0.2739622680 -1.5550632319 4.7030456286
H -2.2287874129 -0.8051832598 5.2624890237
H -3.7718369304 0.7422125448 4.2892429254
H -4.2852114050 2.3599165944 2.5529112158
H -2.4431606802 2.9054883894 1.0444089762
H -0.7246335640 1.6935990948 2.1455776458
H -2.1616979823 -0.8190096869 1.2167134514
H -0.8028665162 0.5891969602 -0.6970481283
H 0.6081892372 0.8116715243 0.3236406731
H -1.1089046355 3.0680221062 -0.8229104055
H 0.1596895832 3.2945175831 0.3833149037
H 1.8178393472 2.2768196859 -1.1502568723
H 1.5316093580 4.7175281749 -1.2405417333
H 0.1855395199 4.5547183156 -2.3923696887
H 3.0552174252 3.5911755164 -2.8461852729
H 0.7418847794 3.7480934431 -4.8242434314
H 2.2707215240 2.9058885418 -5.0681890098
H 1.6903054213 5.7633518749 -4.0171111326
H -2.8986173558 1.5814510384 -0.9836801519
H -4.3944076046 1.8544083150 -0.0788409236
H -3.6038359171 0.2756231983 -0.0114340069
H -0.2083646199 -3.9634787819 5.0733914256
H -1.9253095706 -3.6828513244 4.7169970502
H -1.1836810248 -2.9432667081 6.1491107888
H 2.0977054535 -0.3165665102 -1.9973756127
H 3.4529633425 -1.3542212853 -1.5008653008
H 2.5870566268 -1.6708365852 -3.0221221710
