34
CONF29
C -2.0558085916 -0.4321507009 1.7876896630
C -1.1480672024 -0.0778329722 0.7983298428
C 0.2318112320 -0.2595480492 0.9436801275
C 0.6617602245 -0.8327762163 2.1454108542
C -0.2139481397 -1.1990294623 3.1625110011
C -1.5703567665 -0.9881250620 2.9632928433
Cl -2.6926393560 -1.4389896906 4.2361194128
Cl 2.3722626456 -1.1375206647 2.4327747794
C 1.1926889130 0.1252147063 -0.1595471879
C 0.8570063729 1.4699990234 -0.8224621612
N 0.7881871350 2.5343908976 0.1673872820
C -0.2697492975 3.2837950267 0.5313857436
N 0.0664847653 4.1044135086 1.5210822888
C 1.3768894471 3.7971044581 1.7296670826
N 1.8593873305 2.8482374465 0.9356508370
C 1.3308194856 -0.9706163289 -1.2075353968
O 0.0299642532 -1.1243866854 -1.8550965700
C -0.1000015671 -2.1546264713 -2.7032815283
C -1.5187744283 -2.1279929498 -3.3012131877
F -1.6506811284 -3.1801676159 -4.1585937698
F -2.4225128857 -2.2935053923 -2.2920792497
F 0.8023533474 -2.0984577788 -3.7417564172
F 0.1212847709 -3.3687032471 -2.0965869551
H -3.1183411880 -0.2763644852 1.6435684267
H -1.5342099327 0.3548325399 -0.1174797281
H 0.1565089333 -1.6365646757 4.0812780258
H 2.1934552233 0.2278959585 0.2699589479
H -0.1020587632 1.4529988914 -1.3447206332
H 1.6369566457 1.7122567614 -1.5517906380
H -1.2376636760 3.2015435033 0.0539369860
H 1.9928050690 4.2802030111 2.4779504161
H 2.0704727354 -0.6894681339 -1.9638002303
H 1.6149369598 -1.9152842758 -0.7357450370
H -1.7212222645 -1.1907749589 -3.8299854842
