46
CONF3
C -3.2013287605 -2.9097900979 3.2972551524
O -3.5281293713 -2.2315950268 2.0793273172
C -2.8379048546 -1.0886551461 1.8017569368
C -3.1822783591 -0.4452218912 0.5901676027
C -2.5304110098 0.7275593105 0.2243785272
C -1.5287065209 1.2809156555 1.0335441768
C -1.1950144812 0.6395053601 2.2192974964
C -1.8464659149 -0.5356728868 2.6044821497
C -0.8241369905 2.5553952980 0.6096584787
C 0.6803369205 2.4785684608 0.7240790708
N 1.2537037154 3.2558460987 1.6335213939
C 2.6051686672 3.2114312064 1.7677826174
C 3.4199460397 2.4076778594 1.0107524831
C 2.8410241843 1.5689588427 0.0333302129
C 3.6119260754 0.7128038761 -0.7903689906
C 3.0036559655 -0.0943504756 -1.7237079755
C 1.5747803216 -0.0712791074 -1.8679462702
C 0.8171863447 0.7627420022 -1.0822072781
C 1.4263734107 1.6007371040 -0.1147863489
O 1.0834522001 -0.9172437339 -2.8061492703
C -0.3432266701 -0.9701073202 -2.9495481210
O 3.6418402051 -0.9482579239 -2.5553330038
C 5.0725207604 -1.0150818567 -2.4559242920
O -4.1533067161 -1.0572280715 -0.1443251292
C -4.5060036978 -0.4550682163 -1.3946552446
H -3.3911463906 -2.2704844497 4.1678214997
H -2.1535504101 -3.2336895904 3.2994103290
H -3.8547074065 -3.7820174245 3.3335919182
H -0.4165292706 1.0477003314 2.8571394430
H -1.5662838149 -1.0140590156 3.5351054846
H -1.1039238055 2.7933162620 -0.4236495335
H 3.0266333940 3.8657235183 2.5281020526
H 4.4958500314 2.4127711021 1.1575824182
H 4.6879679835 0.7063318219 -0.6651601917
H -0.2581563026 0.7720263772 -1.1879526385
H -0.5332067647 -1.7107781628 -3.7263053280
H -0.8167470911 -1.2832610342 -2.0108704000
H -0.7424271669 0.0033467269 -3.2581110285
H 5.3835540455 -1.7485223580 -3.1995058871
H 5.3774185100 -1.3450552650 -1.4563992166
H 5.5232168526 -0.0418354676 -2.6808919673
H -3.6431769778 -0.4189930485 -2.0713340917
H -5.2799461002 -1.0938912776 -1.8210399178
H -4.9023367209 0.5567335707 -1.2482719045
H -2.7873427082 1.2229180192 -0.7054505404
H -1.1569721265 3.3916445849 1.2330651233
