33
CONF102
C -3.6640682564 -0.3558046173 1.6251818329
C -2.9641988690 -1.4627594174 0.8441738922
C -1.5664054375 -1.7961728489 1.3499318072
S -0.3641595901 -0.3754916890 1.2966357120
P -0.1620720596 -0.2605150819 -0.7913665940
O -0.2801425531 -1.5534041941 -1.4967751608
O -1.1551450712 0.8446859067 -1.3738580710
C -1.1631067566 2.2100694464 -0.8593718460
C -2.4729550074 2.8402437150 -1.2684621524
O 1.2571030501 0.5453824971 -0.9464156464
C 2.4427599535 -0.0015168958 -0.5005957788
C 2.9262298605 -1.1980992558 -1.0177766749
C 4.1479646833 -1.7020279919 -0.5897722809
C 4.8787604802 -0.9891978650 0.3524181779
C 4.4181100231 0.2091613920 0.8812158344
C 3.1895051205 0.6957242931 0.4502947739
Cl 2.5771910883 2.1880622789 1.1096464942
Br 6.5659572454 -1.6644336733 0.9382466359
H -3.7460098364 -0.6121543522 2.6871591027
H -3.1112514128 0.5857341018 1.5515066396
H -4.6738368103 -0.1870744920 1.2407021146
H -3.5502230962 -2.3895873264 0.9084958356
H -2.9134902563 -1.2082189208 -0.2206915792
H -1.1181885504 -2.6134146300 0.7804576756
H -1.5847763584 -2.0714379632 2.4104724664
H -1.0549076106 2.1812418985 0.2319351020
H -0.3020954175 2.7356443910 -1.2846353641
H -2.5043696219 3.8764769623 -0.9185145194
H -2.5813809390 2.8366650990 -2.3560006678
H -3.3159685560 2.2990357949 -0.8305003934
H 2.3273338487 -1.7291739675 -1.7492915467
H 4.5254145624 -2.6347203483 -0.9900743514
H 4.9924201343 0.7570779549 1.6170559263
