22
CONF153
C 2.7022391600 -0.0052181000 0.4558961059
C 1.3501675294 0.6511477950 0.1843768980
C 0.2036501221 -0.3670813833 0.0898352422
C -1.1671220490 0.3096897617 0.1041856489
C -2.3034605017 -0.6905589645 0.0224023956
O -3.5237931828 0.0656684506 0.0908183644
O -1.2358972891 1.2296872025 -1.0006999408
O 0.3758099300 -1.2205885290 -1.0434873318
O 1.5144011747 1.3536763951 -1.0561635478
O 2.7510939235 -0.6216809480 1.7450362991
H 3.4691466216 0.7760387832 0.4443883820
H 2.9310043071 -0.7245122834 -0.3410989115
H 1.1259900551 1.3503855606 1.0053779875
H 0.2415684622 -1.0114532992 0.9777805210
H -1.2548776177 0.8650368812 1.0527157413
H -2.2406576426 -1.2451334702 -0.9213311239
H -2.2312550113 -1.3978636400 0.8617358379
H -4.2353125995 -0.4812225800 -0.2616763008
H -2.1428911063 1.5641570360 -1.0331873055
H 0.6146063373 -0.6454380485 -1.7855798736
H 0.6569967514 1.7610987662 -1.2592066998
H 2.3985934249 -1.5158351691 1.6678816225
