44
CONF70
C -4.3556718826 -1.0684455990 1.2516046326
C -2.9424815860 -0.5211759118 1.2299582416
C -1.8540841395 -1.5936919914 1.1706297955
O -1.6340226706 -1.7471458889 -0.2428364727
C -1.7502917212 -0.4476256257 -0.7861125015
O -2.7228454279 0.2259770792 0.0011382493
C -2.2229883289 -0.6042860737 -2.2421654973
N -3.5319187682 -1.2206573680 -2.3325525899
C -3.8520907943 -2.5283374590 -2.2661413230
N -5.1695129380 -2.6828723632 -2.3328689541
C -5.6157263254 -1.3985800810 -2.4347839374
N -4.6619987247 -0.4767912893 -2.4374844361
C -0.4052743008 0.2890341002 -0.7548096686
C 0.7645755735 -0.4378460472 -0.5150036914
C 2.0180848237 0.1556366453 -0.4715114550
C 2.1153066961 1.5281408072 -0.6797546390
C 0.9814701501 2.2884420304 -0.9446501241
C -0.2563637199 1.6605379122 -0.9878237163
Cl -1.6332193359 2.6957003064 -1.3597753156
O 3.3161871347 2.2006348116 -0.7149142804
C 4.3573065528 1.7669084893 0.0899175350
C 4.1646611758 1.4718727493 1.4370883410
C 5.2564457750 1.1154813915 2.2203416196
C 6.5201855044 1.0720484213 1.6414621283
C 6.7194667191 1.3766537036 0.3006309258
C 5.6231731541 1.7236240379 -0.4823415404
Cl 7.9030157467 0.6234006007 2.6349536267
H -4.4987046447 -1.8009182667 0.4504054227
H -5.0795634650 -0.2588068375 1.1233401746
H -4.5482761727 -1.5558553357 2.2128763980
H -2.7766537185 0.1642584905 2.0681798557
H -0.9313210824 -1.2656065348 1.6660032270
H -2.1722630919 -2.5592671651 1.5677852399
H -2.2707881511 0.3695871690 -2.7302310413
H -1.4952473099 -1.2300967855 -2.7666481601
H -3.1086310365 -3.3095178342 -2.1821694298
H -6.6628643298 -1.1344012410 -2.5144629481
H 0.6804981621 -1.5071509658 -0.3581792322
H 2.9025609995 -0.4422947431 -0.2839306478
H 1.0744458099 3.3542388839 -1.1172082640
H 3.1737759845 1.5219545555 1.8758226009
H 5.1218752259 0.8851227349 3.2710603323
H 7.7120241832 1.3393057847 -0.1334434056
H 5.7477432791 1.9628109096 -1.5329174713
