55
CONF72
C 3.2323857388 -0.1718314026 0.6891786037
C 4.3078761417 0.9031982803 0.7530136194
N 3.8511458161 2.1214305722 0.0729934569
C 2.6160887540 2.6003823396 0.7084084031
C 1.5396222617 1.5273336449 0.6448168639
N 2.0043305078 0.3140246700 1.3193631881
C 0.9702522242 -0.7072124882 1.4594382790
C 0.4527273554 -1.3464412677 0.1394415108
C -0.6719507753 -2.2871350367 0.3975378205
C -1.9753782579 -2.1375537852 0.0761413784
C -2.9407263633 -3.2212701026 0.3503529459
C -2.9223047580 -3.9384636561 1.5539698391
C -3.7880433801 -5.0036977026 1.7694631612
C -4.7111185886 -5.3619809285 0.7876110454
C -4.7761840817 -4.6420817662 -0.3997656048
C -3.8984187980 -3.5774741682 -0.6120907963
S -3.9856881164 -2.7230309775 -2.1722329008
C -3.4234789614 -1.1127719019 -1.6886244697
C -2.5206350633 -0.9565052377 -0.6215779548
C -2.1756142878 0.3444080437 -0.2439578516
C -2.6399354856 1.4431428310 -0.9589500627
C -3.4772302423 1.2696233454 -2.0613621563
C -3.8849325407 -0.0089520963 -2.4099475106
C -2.1905766239 2.8156307703 -0.5664351719
F -1.9916390833 2.9329782105 0.7695079859
F -3.0801500659 3.7734139065 -0.9211457842
F -1.0079701662 3.1542761658 -1.1589170141
C 4.8955592822 3.1533304447 0.0613892934
C 4.6236076068 4.1770967546 -1.0329144810
O 4.4500299075 3.5264948723 -2.2980009930
H 3.5767043276 -1.0660399980 1.2228261905
H 3.0759757784 -0.4482299024 -0.3710338177
H 4.5587029868 1.1072263497 1.8122150415
H 5.2136130184 0.5399739569 0.2544005111
H 2.8003759399 2.8768159184 1.7648071260
H 2.2576932840 3.4927046811 0.1844993227
H 0.6353924909 1.8890078905 1.1490549290
H 1.2846077508 1.3488742746 -0.4170027734
H 1.3625585999 -1.5081010841 2.0997764259
H 0.1236700906 -0.2550228681 1.9925777282
H 1.2763316238 -1.9126893472 -0.3126408263
H 0.1589834570 -0.5660639252 -0.5677465450
H -0.3941995845 -3.2229033542 0.8816657663
H -2.2151873682 -3.6470272881 2.3245585688
H -3.7499524251 -5.5481699332 2.7074029634
H -5.3950255738 -6.1883807104 0.9516872061
H -5.5072150542 -4.9013798999 -1.1594403884
H -1.5456771339 0.4916695987 0.6251804739
H -3.8378476139 2.1233998577 -2.6237952860
H -4.5744471488 -0.1507727282 -3.2358113117
H 5.8516005832 2.6603045825 -0.1526565465
H 4.9918136002 3.6641045420 1.0379487128
H 3.7399852806 4.7873082121 -0.7932124929
H 5.4801656439 4.8531505429 -1.1216839609
H 3.9497271145 2.7198783090 -2.0889868251
