40
CONF12
C -2.7311728595 -2.9552662832 1.4002467004
N -1.6903376821 -2.1966674524 0.7049209104
C -2.2450510470 -1.2991331462 -0.3133324919
C -1.1456653161 -0.4354116232 -0.9215828786
C -0.5505541575 0.5517309870 0.0932772496
O 0.6754579819 1.1089046106 -0.4348245335
C 1.8021473532 0.3526573569 -0.4043502312
C 2.9176283349 0.9178018692 -1.0368711347
C 4.1246500331 0.2454214654 -1.0519772882
C 4.2415496844 -1.0026538496 -0.4351114052
C 3.1350926390 -1.5650851879 0.1908944399
C 1.9146804840 -0.8984891425 0.2128587737
C 5.5346363973 -1.7483329680 -0.5114326915
F 5.6665706171 -2.6577847673 0.4833244230
F 6.6063235473 -0.9203346732 -0.4447474628
F 5.6576096499 -2.4360041668 -1.6819300433
C -1.4812621327 1.7025763832 0.3703330495
C -1.6341213258 2.7379189019 -0.5539970699
C -2.5371559583 3.7661569656 -0.3114298720
C -3.3050549790 3.7662455885 0.8508933179
C -3.1587574722 2.7367484231 1.7743040431
C -2.2460095849 1.7126022241 1.5362102635
H -2.2707929128 -3.6595022038 2.0998102590
H -3.3984041658 -3.5201044388 0.7247096457
H -3.3532781907 -2.2660415976 1.9823247319
H -1.0637321848 -2.8506440109 0.2448902345
H -2.9914946095 -0.6563772184 0.1733320306
H -2.7764160221 -1.8420950218 -1.1169378556
H -0.3441724694 -1.0779924397 -1.3085036917
H -1.5407050277 0.1327321306 -1.7708998678
H -0.3448276474 0.0343832001 1.0362814246
H 2.8112624570 1.8904299788 -1.5040264026
H 4.9846101315 0.6908257135 -1.5403281012
H 3.2210774889 -2.5321482728 0.6738531069
H 1.0704200282 -1.3585811534 0.7118033685
H -1.0325687495 2.7412830331 -1.4572425647
H -2.6426974194 4.5718734077 -1.0310776583
H -4.0103812703 4.5695953176 1.0374409178
H -3.7476447219 2.7344147055 2.6859699866
H -2.1214589160 0.9143475562 2.2633815460
