47
CONF796
C -5.1975895254 0.2999957166 -1.3860148335
C -4.2399684548 1.2370022867 -2.1218222346
C -4.0804399044 2.6022633948 -1.4437137139
C -3.5923383729 2.5439816469 0.0109723502
C -2.2977647172 1.7514939068 0.2557626930
C -1.9871248923 1.6291682129 1.7561739085
C -2.9316126380 0.6912209922 2.5075642920
C -1.1449498906 2.4076015878 -0.4854346008
O 0.0043169909 1.5243449433 -0.3887628735
C 1.1460116982 1.9596683446 -0.9644706117
O 1.2357995025 3.0405737605 -1.5329031757
C 2.2582297508 1.0187002607 -0.8458516068
C 2.1741278139 -0.1746569562 -0.2204420703
C 3.2248847736 -1.1605879088 -0.0685413374
C 4.5250966592 -1.0014277599 -0.5914474294
C 5.4849338930 -1.9754472741 -0.4189428326
C 5.1811996779 -3.1528899491 0.2860272797
C 3.8997808189 -3.3358562789 0.8150240515
C 2.9446265073 -2.3439727265 0.6317078529
O 6.1942583440 -4.0453939185 0.3962261712
C 5.9357309225 -5.2686772249 1.1035040085
H -6.1790539013 0.7705874960 -1.2559602498
H -5.3412364175 -0.6321910372 -1.9412797358
H -4.8207101921 0.0383899966 -0.3915189868
H -3.2589974127 0.7551870984 -2.2233987944
H -4.6048422509 1.3986698930 -3.1435937243
H -5.0511216044 3.1158971349 -1.4536172315
H -3.4054124891 3.2234177962 -2.0449305285
H -4.3832705313 2.1090796335 0.6307683008
H -3.4485558393 3.5689952944 0.3805986175
H -2.4178197727 0.7362836678 -0.1490455930
H -0.9608700026 1.2630166184 1.8749470537
H -2.0157368076 2.6320422819 2.2051438724
H -2.6375244668 0.6036119525 3.5581385331
H -2.9086510688 -0.3124227595 2.0680118485
H -3.9676420210 1.0426352936 2.4847279974
H -1.3701729638 2.5587791783 -1.5454293892
H -0.8910578917 3.3782265595 -0.0412973617
H 3.1740191577 1.3655292106 -1.3132031684
H 1.2194759456 -0.4461862060 0.2254459697
H 4.7863118484 -0.1038083587 -1.1418525332
H 6.4845793301 -1.8525344003 -0.8228701375
H 3.6384818990 -4.2330604997 1.3618857414
H 1.9497606175 -2.4898460934 1.0434589368
H 6.8694929907 -5.8296600744 1.0693903862
H 5.1407663338 -5.8414816676 0.6131171779
H 5.6625768232 -5.0662631505 2.1451260238
