39
CONF190
C -3.8774897951 1.9500529989 -0.0115342779
C -2.6508759771 2.4930404453 0.7169102008
C -1.5590053702 1.4432131783 0.9096402087
N -1.0323808223 0.9534456666 -0.3814231052
C -1.1953299616 -0.4681338501 -0.7063127229
C -0.0259371006 -1.3216949910 -0.2557707608
O 0.0498175427 -1.2368437506 1.1852343460
C 1.1940679468 -1.7484277862 1.7133012027
C 1.2601467183 -3.0736029867 2.1579916455
C 2.4031417353 -3.5943997672 2.7514136575
C 3.5074021608 -2.7639645012 2.8938488463
C 3.4934711561 -1.4420229272 2.4678026378
C 2.3339755191 -0.9517530100 1.8806599860
Cl 2.2779689538 0.7057983074 1.3481380022
Cl 4.9560940598 -3.4006273513 3.6346653033
Cl -0.1405249729 -4.0939089089 1.9683879483
C -0.1126521376 1.7572551785 -0.9848573004
O 0.3317756322 2.7871228451 -0.5144625693
N 0.3358307940 1.3143351238 -2.2820717451
C -0.4113208582 0.9557005192 -3.3937762779
C 0.5032614700 0.7172466593 -4.3830957696
N 1.7876384329 0.9104606317 -3.9204046478
C 1.6552780374 1.2857039530 -2.6716924437
H -3.6130850018 1.5867700558 -1.0104999204
H -4.3306945141 1.1187286634 0.5405036562
H -4.6399942010 2.7242199774 -0.1343350957
H -2.9358137783 2.8607841488 1.7101029731
H -2.2296138790 3.3475604429 0.1766153423
H -0.7293029511 1.8528101197 1.4935824949
H -1.9515648687 0.5771752570 1.4491592850
H -1.3232108913 -0.6194491295 -1.7807225284
H -2.1113565531 -0.8128050087 -0.2182162279
H 0.9112887928 -0.9610508655 -0.6992734737
H -0.1857974164 -2.3667339751 -0.5554779130
H 2.4283404277 -4.6216377812 3.0910020220
H 4.3602843110 -0.8055465404 2.5896678037
H -1.4900705350 0.9662569351 -3.3852434629
H 0.3081172646 0.4318299566 -5.4070113336
H 2.4481206248 1.5430924851 -1.9824460127
