54
CONF7
C -6.1429756688 2.3345641104 -1.2005614870
C -5.0643418963 1.2871117294 -0.9560746100
C -4.6834062645 1.1121499102 0.5614221392
N -3.3083928923 0.6507663932 0.5633078578
C -2.5436814741 0.6926037710 -0.6947923173
S -3.4694335648 1.8466478612 -1.7727570702
C -1.3133593247 1.1967552580 0.1247289246
C -2.2336504551 1.0246305459 1.3564890899
O -2.1233406289 1.1826693482 2.5503013035
N -0.0591601192 0.5121714873 0.0686417605
C 0.0659119210 -0.7668562118 0.4805225848
O -0.8801618138 -1.4298224392 0.9025435250
C 1.4679135245 -1.3902985945 0.4789593783
C 2.0466050011 -1.3090648886 1.8908059494
C 2.2277276898 -2.4793274793 2.6285931796
C 2.7390567716 -2.4169789583 3.9225817653
C 3.0738691393 -1.1874315514 4.4841094541
C 2.8956779307 -0.0179728948 3.7472790946
C 2.3834178042 -0.0759938768 2.4547278195
C 2.4836252829 -0.8122543614 -0.4827840098
O 2.5928365174 0.3490397506 -0.8117678701
O 3.3233349851 -1.7910679765 -0.8957524232
C 4.4088691475 -1.4009997079 -1.7080520473
C 5.6069369964 -1.0675932252 -1.0966156169
C 6.6949354090 -0.7436959075 -1.9040224859
C 6.5685438495 -0.7577533793 -3.2918597537
C 5.3511575604 -1.0966257936 -3.8794616804
C 4.2543330170 -1.4229660595 -3.0848656348
C -4.8210323489 2.4246438066 1.3269861189
O -3.9919439170 3.3057984206 1.3510469241
O -6.0103594215 2.4873018179 1.9474783794
C -5.4984931638 -0.0696679593 -1.5132058996
H -7.0618757228 2.0418927803 -0.6826742506
H -6.3620258396 2.3904325325 -2.2702881186
H -5.8425170061 3.3279979447 -0.8559949672
H -5.3680625761 0.3765878408 0.9972556507
H -2.4057083852 -0.2861003039 -1.1619506797
H -1.1513331493 2.2651589525 -0.0439391428
H 0.7596965641 0.9889488446 -0.2903343329
H 1.3242690996 -2.4438686940 0.2316690460
H 1.9677073739 -3.4377947562 2.1895621649
H 2.8757868288 -3.3318415111 4.4905558676
H 3.4728680394 -1.1399006393 5.4923681515
H 3.1555281350 0.9433787446 4.1790094069
H 2.2488537294 0.8399683099 1.8870859120
H 5.6815930138 -1.0646353300 -0.0139863235
H 7.6423886127 -0.4816833147 -1.4443618707
H 7.4197629015 -0.5058541906 -3.9158082030
H 5.2509438018 -1.1090534635 -4.9599648419
H 3.2969722146 -1.6904095041 -3.5197146011
H -6.0921442834 3.3588547968 2.3736434781
H -6.4291159784 -0.3784788300 -1.0240749509
H -4.7464741781 -0.8443108380 -1.3397160907
H -5.6781334666 0.0102266720 -2.5880091522
