78
CONF222
C -0.5998447276 -0.5912984836 -0.7655146509
C 0.6031962319 -0.9810904704 -1.6121512003
O 0.2500286284 -2.3163117264 -2.1157565625
C -0.6687528350 -2.9005862150 -1.3023967889
O -1.0448724528 -4.0341558981 -1.4876165635
C -1.0237945498 -1.9358556265 -0.1969746827
C -2.4508556007 -1.8929672408 0.3543135403
C -3.5218350619 -1.8140969218 -0.7285998379
C -3.9854124870 -0.5831877535 -1.1983555767
C -4.9394907470 -0.5480288088 -2.2125892951
O -5.4735183056 0.5894632939 -2.7568623187
C -5.0049488306 1.8449805595 -2.2501180581
C -5.4456643903 -1.7298099306 -2.7638119653
O -6.3864473333 -1.7085728121 -3.7542017143
C -4.9890312135 -2.9614941025 -2.2801902916
O -5.5459227189 -4.0595691075 -2.8670335942
C -5.0863292815 -5.3408825008 -2.4199944797
C -4.0328661992 -2.9980956658 -1.2635487185
C -2.5363608284 -0.7156527774 1.3169237305
C -3.6087121077 -0.7257337779 2.2335655766
C -3.7376193540 0.3427885548 3.0838993607
C -2.8563788712 1.4204404728 3.0462072040
O -3.2472910487 2.3711081760 3.9563736973
C -4.2524528936 1.7230863282 4.7630122858
O -4.7116131265 0.5730549700 4.0208547397
C -1.8142416515 1.4647448816 2.1572441732
C -1.6495742312 0.3701172191 1.2780800556
C -0.4452359529 0.4191530230 0.3544333095
O 0.7406650451 0.1085898861 1.1437057119
C 1.7089513066 1.1015518652 1.1661628581
O 2.3714332286 1.1114932226 -0.1105717064
C 3.3866524225 2.1103550449 -0.1531952727
C 4.0092713632 2.1519958082 -1.5363794535
O 5.0850761495 3.1101133915 -1.5066701998
C 6.0731487327 2.8291642749 -0.5233285583
O 5.5267913554 2.7234857459 0.7844773054
C 4.4750856099 1.7470439354 0.8500599869
C 3.8901223348 1.7347937206 2.2459989303
O 4.8149452954 1.2703328564 3.2311213736
C 2.7035508084 0.7703755221 2.2788918639
O 2.0079433700 0.8645168911 3.5167950649
C 6.9015225256 1.6182040487 -0.8738640590
C 7.5331091863 0.7440008170 -0.0298474168
C 8.3219459220 -0.2210179374 -0.7134639699
C 8.2937536696 -0.0651324495 -2.0719966802
S 7.2906077074 1.2699859573 -2.5351717747
H -1.3944553830 -0.2298640216 -1.4309151190
H 1.5164178525 -1.0754033926 -1.0207153661
H 0.7756654253 -0.3442728057 -2.4804653553
H -0.3451379981 -2.1947518769 0.6328523297
H -2.6291601196 -2.8125487753 0.9232214818
H -3.6194427500 0.3355131804 -0.7572218737
H -3.9261567415 1.9526639150 -2.4127589866
H -5.2301952065 1.9434047345 -1.1818099135
H -5.5410384622 2.6101536071 -2.8118634539
H -6.5787390217 -0.7801238255 -3.9532231083
H -5.6316064082 -6.0731416903 -3.0161544665
H -4.0090852218 -5.4539177008 -2.5901930551
H -5.3100213554 -5.4910130152 -1.3571690017
H -3.6697457960 -3.9455505429 -0.8880763911
H -4.3104843286 -1.5533260965 2.2532382682
H -5.0870304814 2.4078750887 4.9236756826
H -3.7980560875 1.3856092332 5.7045718054
H -1.1376595361 2.3122720730 2.1245602648
H -0.3339545886 1.4315069444 -0.0522517658
H 1.2655750583 2.0994276276 1.3411376515
H 2.9693751904 3.1005829344 0.0945026476
H 3.3058065263 2.5052061960 -2.2935606442
H 4.3737877574 1.1522484551 -1.8128622697
H 6.6994600432 3.7273927670 -0.4978683160
H 4.8654928514 0.7478829775 0.6044161436
H 3.5354177232 2.7468488399 2.4985972486
H 5.4697990156 1.9648813242 3.3757981545
H 3.0734754686 -0.2541172241 2.1100473125
H 2.6669352507 0.7653227510 4.2175563469
H 7.4299423105 0.7941102530 1.0478381873
H 8.8858619909 -1.0020649276 -0.2170318333
H 8.7902231194 -0.6567352635 -2.8297880570
