42
CONF30
C -0.4813863675 -2.7875811724 0.9327095242
C 0.4975059541 -2.9585981771 -0.2265963763
C 0.9217550135 -1.6481762944 -0.8910802444
C -0.2976994939 -0.9245276975 -1.4728537296
O -0.8066559466 -1.3493616012 -2.5128448352
N -0.7506090703 0.1315030911 -0.7726725759
C -1.9633560209 0.8685259444 -1.1267360130
C -3.1388426614 0.4482388329 -0.2752959184
C -3.7738759752 -0.7753258501 -0.5109130212
C -4.8301296158 -1.1878603757 0.2950718541
C -5.2657440020 -0.3801503795 1.3454871923
C -4.6405543240 0.8409155479 1.5836422272
C -3.5808739399 1.2517168207 0.7764106650
O 1.6188255271 -0.8731240376 0.1010232181
C 2.4133256123 0.1578363072 -0.3196806372
C 3.1482612029 0.7859379336 0.6884617380
C 3.9851081720 1.8507132581 0.3801719215
C 4.0757179849 2.2756144871 -0.9441626677
C 3.3557549017 1.6655604269 -1.9496553010
C 2.5141714828 0.5990164704 -1.6405974770
F 4.8861795976 3.3152123697 -1.2504094804
C 4.7847267471 2.5425848071 1.4440505845
F 4.5886727707 1.9992560243 2.6642203871
F 4.4654950473 3.8586470565 1.5405708852
F 6.1175751611 2.4841423727 1.1943228766
H -1.4259060705 -2.3457756272 0.5980684949
H -0.7074662778 -3.7605181720 1.3778397265
H -0.0647655461 -2.1476787171 1.7161284737
H 0.0553017284 -3.5825063136 -1.0103640683
H 1.4095750976 -3.4628533535 0.1107940634
H 1.5962338264 -1.8739669903 -1.7260380938
H -0.3094093522 0.3409964723 0.1121447478
H -1.7685908913 1.9381481439 -1.0020082307
H -2.1638249034 0.6716510153 -2.1833159430
H -3.4349321002 -1.4037466471 -1.3301356425
H -5.3181025913 -2.1383534210 0.1018666859
H -6.0916178038 -0.7010447251 1.9726835976
H -4.9771181030 1.4754934115 2.3977927332
H -3.0936490459 2.2050279472 0.9638229961
H 3.0576897189 0.4307470286 1.7079875486
H 3.4461924350 2.0246146813 -2.9687942205
H 1.9470419153 0.1390484721 -2.4404253685
