34
CONF72
C -1.8313356222 -2.2704510580 -0.1369693276
C -2.8917479546 -1.2243850677 -0.3915929200
O -2.4713927214 0.1069408913 0.0753838631
P -1.3892783426 0.9737880376 -0.7106484151
S -1.4234701146 0.9521181342 -2.6458869269
O -1.4474138200 2.3632511857 0.0572388014
C -2.3146337221 3.4656457141 -0.3934575028
C -3.7708182093 3.1888166871 -0.1059234623
O 0.0918079875 0.4060767173 -0.2182621630
N 0.2062873147 0.2809624880 1.1739148800
C 1.3323359929 -0.2625717111 1.5106001683
C 1.4230601227 -0.4292052103 2.9353101124
N 1.5310578953 -0.5680016928 4.0784502679
C 2.4652787674 -0.7348279199 0.6975696015
C 3.1660988358 -1.8702604672 1.1312574036
C 4.2395952666 -2.3512104185 0.3937054237
C 4.6413291668 -1.6895841170 -0.7644769946
C 3.9647730174 -0.5453404815 -1.1835912606
C 2.8766216433 -0.0670327530 -0.4655307357
H -1.5434734649 -2.2860683944 0.9180742818
H -2.2401085247 -3.2513370458 -0.3992354700
H -0.9406333379 -2.0988916350 -0.7485707385
H -3.1477369403 -1.1474825582 -1.4529145557
H -3.7984686616 -1.4197561068 0.1834527532
H -2.1278915178 3.6275624406 -1.4596113243
H -1.9444371317 4.3233807189 0.1703959326
H -4.1437597128 2.3480576606 -0.6982084768
H -4.3529347007 4.0771384889 -0.3709192875
H -3.9258438561 2.9753005964 0.9551619381
H 2.8593519741 -2.3849276021 2.0366738346
H 4.7662269084 -3.2387876781 0.7280707703
H 5.4861435045 -2.0603892924 -1.3358982241
H 4.2874258876 -0.0187260823 -2.0757208754
H 2.3679838850 0.8301982407 -0.7919297594
