82
CONF353
C -5.1711764303 -1.5289869687 -2.1299856085
C -5.1985811547 -0.1668994580 -1.4876396556
C -6.3646033948 0.4284114936 -1.2257233477
C -3.8217186028 0.4313448944 -1.2615755780
C -3.7450365319 1.8999877848 -0.7614564882
C -2.9676789096 1.8883703709 0.5741141605
C -2.9960045084 0.4267067997 1.0570498702
C -2.9524952545 -0.3898120030 -0.2553090237
C -1.5306803415 -0.6827751732 -0.8027730343
C -0.8192153223 0.4914599063 -1.4766598390
C 0.4295819110 0.0111818291 -2.2065348554
C 1.4887188883 -0.6278792953 -1.2890800145
C 2.5959331893 0.4127861478 -0.8107967237
C 2.0315631319 1.7610512527 -0.3209069347
C 3.1090191094 2.7289246114 0.1709129374
C 3.9305635180 2.1311936726 1.3094453175
C 4.5588735270 0.7737342548 0.9342538838
C 3.5040605765 -0.2099646681 0.3019399118
C 2.6396920486 -0.9000011666 1.3619356941
C 1.8343584605 -2.0512589604 0.7736564471
C 0.8192702122 -1.6869321867 -0.3254000130
C -0.6177117842 -1.3189429709 0.2821340696
C -0.5315118447 -0.3225412309 1.4571825408
C -1.8865731930 0.0658022118 2.0591017517
C -1.2997166279 -2.6018921856 0.8067010508
C 0.6501710071 -2.9688579180 -1.1854615767
C 5.7402803417 1.0380678909 -0.0228473754
C 5.1999183552 0.1606727820 2.1941833464
O 3.1006235578 1.9449439689 2.4726851312
C 3.4190944381 0.6658251588 -2.1028633020
C -4.3465396341 0.2209529491 1.7583573077
O -4.5486743270 -1.1739177032 2.0227843516
H -4.6297690518 -1.4901091747 -3.0836869202
H -6.1796027451 -1.9028166135 -2.3204564493
H -4.6483523825 -2.2594775583 -1.5026652297
H -6.4399572547 1.4183431468 -0.7901157071
H -7.3021136827 -0.0689036846 -1.4544712905
H -3.3460843539 0.3584071639 -2.2485284753
H -3.2476087399 2.5325979057 -1.5027206573
H -4.7404080498 2.3260225416 -0.6237414034
H -1.9341839776 2.2173294657 0.4337322165
H -3.4107436702 2.5617746034 1.3186118404
H -3.4195315942 -1.3569212311 -0.0665073454
H -1.6876695816 -1.4351201119 -1.5929097455
H -1.4773319633 0.9757952362 -2.2053240729
H -0.5544816923 1.2583600604 -0.7466062117
H 0.8601203578 0.8426019015 -2.7724448598
H 0.1191597362 -0.7268031858 -2.9583110959
H 2.0987351869 -1.2682028950 -1.9389895302
H 1.3395283212 1.5995529357 0.5092664060
H 1.4614924776 2.2380091115 -1.1260121249
H 3.7775650771 3.0367106900 -0.6403181101
H 2.6350408230 3.6555288963 0.5243094936
H 4.7550951564 2.8188365575 1.5676057809
H 4.0940762735 -1.0054405013 -0.1824946656
H 3.2798626300 -1.3267070655 2.1374166275
H 2.0103760608 -0.1633831435 1.8610273301
H 1.3345277443 -2.6041071915 1.5774552287
H 2.5563669422 -2.7585513364 0.3391615692
H 0.0721719025 -0.7547571574 2.2610670333
H -0.0075443326 0.5784955824 1.1338940118
H -2.2452583745 -0.7529147488 2.6902506900
H -1.7408541105 0.9192380458 2.7356119391
H -2.1812883373 -2.3680135701 1.4043453043
H -0.6265044572 -3.1840022933 1.4429218289
H -1.6339874587 -3.2453320640 -0.0118046440
H -0.1388132817 -2.8814838065 -1.9380980075
H 0.4223083410 -3.8363582083 -0.5620176219
H 1.5854795467 -3.1894227478 -1.7082065017
H 6.1763933893 0.0877660583 -0.3478248619
H 6.5221578289 1.5975994727 0.5016768259
H 5.4785318343 1.6028315848 -0.9151959577
H 5.6266246642 -0.8220618833 1.9621105378
H 4.4973397870 0.0567901325 3.0194684476
H 6.0161133053 0.8054590672 2.5384282434
H 2.7126147745 2.7996067233 2.6898520141
H 2.7717950110 0.6918733619 -2.9827799861
H 4.1515608258 -0.1324836352 -2.2610066253
H 3.9555593484 1.6137861602 -2.0938882441
H -4.3316517616 0.7899827575 2.7037810203
H -5.1604182608 0.6079676859 1.1338304136
H -5.4802444517 -1.3086488517 2.2198779501
