63
CONF289
C 7.9214788412 1.7750035137 -3.1791701038
C 8.1216572627 1.0053513175 -1.8771423353
N 6.8460634739 0.7182101135 -1.2115252702
C 6.2794658930 1.7212142765 -0.3088981784
C 4.7729453509 1.7054153375 -0.3918461712
N 4.2705408149 0.3536005583 -0.0723941795
C 4.9542840138 -0.7299625776 -0.5646524017
O 4.6354932273 -1.9011033413 -0.3910546857
C 6.2179729819 -0.4500383744 -1.4200328211
O 6.5992495133 -1.3295894317 -2.1916810926
C 2.9937590364 0.2952447695 0.5809340757
O 2.3646826673 1.3303206173 0.7774717812
N 2.5702494427 -0.9232686404 0.9680766737
C 1.2382796369 -1.0629463248 1.5224533192
C 0.9618054266 -2.5062098124 1.8888032159
C 0.5114732832 -2.8247296104 3.1703968985
C 0.2237416326 -4.1457221278 3.5044521910
C 0.3867273971 -5.1563338793 2.5602975834
C 0.8345397751 -4.8415078147 1.2783368478
C 1.1163143416 -3.5215260072 0.9401887076
C 0.1736411927 -0.6048312858 0.4974262363
O 0.3377371173 -0.7157230322 -0.7115554386
N -0.9674275658 -0.1400554987 1.0673745962
C -2.1121047379 0.2308252996 0.2991755248
C -2.6421866596 1.6974019443 0.3517513513
N -3.9373218385 1.1639538847 0.8166224586
C -3.5123370475 -0.1568491820 0.8236421575
O -4.0657616058 -1.1851505386 1.1373150386
C -5.1587593851 1.7525219829 0.2970815601
C -4.7037742652 3.0511851586 -0.4690654841
S -3.0306570569 2.6005712453 -1.1910014387
C -4.5560130330 4.1912764659 0.5397500418
C -5.6411086281 3.4574151108 -1.5990887446
C -5.8775874963 0.7803523181 -0.6332605218
O -7.2077372642 0.9379354762 -0.5448124895
O -5.3298785561 -0.0035341036 -1.3747108434
H 8.8935556400 1.9925609906 -3.6312239917
H 7.4070242363 2.7239427043 -2.9999859551
H 7.3323539917 1.1851951130 -3.8870439470
H 8.6228565811 0.0528266041 -2.0655844015
H 8.7312012481 1.5823361249 -1.1736531627
H 6.6337111139 2.7068258454 -0.6226099356
H 6.6204724026 1.5454691285 0.7206740955
H 4.3540196268 2.3990540248 0.3361369229
H 4.4337217361 1.9997764088 -1.3924920227
H 3.1024573727 -1.7363186887 0.6746734485
H 1.1493266834 -0.4410012177 2.4203338196
H 0.3898522979 -2.0368715168 3.9082576984
H -0.1224683360 -4.3846302545 4.5051267036
H 0.1663360288 -6.1865316897 2.8216657837
H 0.9603573203 -5.6249975580 0.5376853382
H 1.4496650926 -3.2815892671 -0.0656553763
H -1.9898222110 -0.1145887227 -0.7318914438
H -2.1380054816 2.3335969225 1.0850989800
H -5.8462814221 2.0540447844 1.0943315771
H -5.5411575775 4.4388745059 0.9509028982
H -4.1524724034 5.0766678193 0.0426421994
H -3.8962419169 3.9233862103 1.3695302738
H -5.7297334455 2.6822879132 -2.3654609013
H -5.2674800241 4.3701122605 -2.0709806797
H -6.6346572589 3.6698150489 -1.1917651130
H -1.0095270625 -0.0410007770 2.0725134812
H -7.6338322948 0.3510700148 -1.1943297057
