48
CONF9
C -5.4706307895 1.0617695656 0.5482356127
C -4.2618748268 0.7018058651 -0.3342029129
C -3.8313010283 1.9573034871 -1.1057570287
C -4.6843254121 -0.4009549096 -1.3136890195
C -3.1283424934 0.2539257869 0.6288035700
C -1.7317566392 0.1048096690 0.0159264798
N -1.6055801503 -1.0095133363 -0.9242882100
C -1.7075381432 -2.3372438489 -0.6974800799
N -1.5442505382 -3.0049588414 -1.8320591500
C -1.3432274912 -2.0104894957 -2.7441298873
N -1.3646917505 -0.7844439231 -2.2427179751
O -0.8490412221 -0.0887243049 1.1116981857
C 0.5085496480 0.0164750374 0.9075515255
C 1.1116730003 0.3930710257 -0.2914734917
C 2.5000083275 0.4824503538 -0.3541013064
C 3.3086211583 0.2020719668 0.7521928280
C 2.6737030911 -0.1781580119 1.9451390087
C 1.2941373737 -0.2744945003 2.0250501346
C 4.7800014234 0.3025828747 0.6684502460
C 5.5317675954 0.7705524980 1.7564148167
C 6.9173140632 0.8667458817 1.6771258988
C 7.5820537375 0.5000023162 0.5084899629
C 6.8470531150 0.0343019411 -0.5801306983
C 5.4617446910 -0.0651128887 -0.5011112747
O -3.4258978216 -0.9768796263 1.2887534809
H -5.2114739189 1.8464919531 1.2679773235
H -5.8433905462 0.1915295633 1.0991517925
H -6.2890022925 1.4293391040 -0.0786086397
H -3.4378788363 2.7256767930 -0.4295552601
H -3.0696125828 1.7328240305 -1.8589986318
H -4.6958120219 2.3791789563 -1.6282499334
H -5.5757376763 -0.0722565943 -1.8585206125
H -3.9100676077 -0.6194375775 -2.0535946450
H -4.9325020537 -1.3238198234 -0.7816619668
H -3.0020169962 1.0584700522 1.3698842254
H -1.4782783088 1.0091341957 -0.5446958571
H -1.8883380690 -2.7534709409 0.2828990953
H -1.1712757032 -2.1914523818 -3.7977782429
H 0.5312636025 0.6232645199 -1.1759272940
H 2.9559241916 0.7991059193 -1.2870710915
H 3.2691061133 -0.4260479500 2.8183385619
H 0.8086847806 -0.5797202290 2.9463771860
H 5.0245519779 1.0831635555 2.6641553583
H 7.4790544261 1.2389935773 2.5285823350
H 8.6630575159 0.5763046003 0.4467119091
H 7.3553676627 -0.2627466167 -1.4925385059
H 4.9035630207 -0.4530767682 -1.3478001901
H -4.0533535902 -0.7962452166 1.9982319870
