26
CONF11
C 1.7934383609 1.3644133752 -1.3747466344
C 2.2017875906 0.0353700424 -0.8056232416
C 1.3941296176 -1.0251790383 -0.6664591574
C -0.0701566381 -1.1239003038 -1.0152704945
C -0.8866438186 -1.3197816142 0.2323600615
C -1.7883941445 -0.4816911275 0.7884141313
C -2.4814104055 -0.8647598701 2.0703621666
C -2.1261844959 0.8097033415 0.2000957843
C -3.0093223995 1.6856959444 0.7041163067
C 3.6422783299 -0.0327096205 -0.3754686420
H 2.4381321095 1.6264599592 -2.2230112730
H 0.7565372119 1.3955063397 -1.7115164149
H 1.9337125535 2.1525522585 -0.6239712747
H 1.8169268456 -1.9273480089 -0.2225859743
H -0.4032522141 -0.2601076685 -1.5907576889
H -0.2157298636 -2.0052819204 -1.6570520973
H -0.6858589622 -2.2544160552 0.7568875793
H -2.2770754219 -0.1337616283 2.8616536444
H -2.1504025071 -1.8468869080 2.4149648744
H -3.5692678516 -0.8936042461 1.9377348266
H -1.6127913369 1.0818730873 -0.7185230670
H -3.5647797796 1.4925154242 1.6167859171
H -3.1970699498 2.6303368920 0.2036487050
H 4.3091763090 0.1725678646 -1.2224743138
H 3.8544476641 0.7336972959 0.3810855682
H 3.8977723972 -1.0112637039 0.0393508037
