41
CONF46
C -6.1007108461 -0.3329519285 1.8926967499
C -5.7652652303 0.7995588261 1.1547354785
C -4.6877457737 0.7649185200 0.2725589878
C -3.9353145514 -0.4004640117 0.1152211123
C -4.2811466966 -1.5337388362 0.8569679048
C -5.3555538396 -1.5010522613 1.7412928582
C -2.7508936455 -0.4333333131 -0.8135246265
C -1.4238066695 -0.3852011356 -0.0500927664
N -0.3137100594 -0.5485039224 -0.9925499695
C 0.9658882961 -0.1964405098 -0.7180007724
C 1.3408563669 0.5188142474 0.4398189107
C 2.6477850390 0.9230907537 0.6553343170
C 3.6494738075 0.6057682899 -0.2527109606
C 3.3094839000 -0.1358376702 -1.4092763100
C 1.9983845558 -0.5088864513 -1.6295999623
C 4.3101674707 -0.5347687438 -2.4748383710
F 5.4513890720 -1.0404220226 -1.9465132358
F 4.6468706213 0.5036159740 -3.2684513389
F 3.8166826042 -1.4957061557 -3.2880726605
S 5.2980274410 1.2120774914 0.1807128319
O 5.1010935377 2.1969761584 1.2534671002
O 6.0095698108 1.5907177507 -1.0446806915
N 6.1742171475 -0.0398314987 0.8799209899
S 0.0847751016 0.9516888281 1.6278262149
O 0.2673317069 2.3406489534 2.0643566173
O -0.0263910187 -0.1208271051 2.6263782538
N -1.3111614745 0.8836608210 0.6769785504
H -6.9400241710 -0.3070469085 2.5805478779
H -6.3424777624 1.7123488222 1.2655907411
H -4.4266957871 1.6509832869 -0.2996383553
H -3.7062467835 -2.4487637832 0.7376255922
H -5.6139743052 -2.3891211466 2.3098346502
H -2.7554835922 -1.3604635464 -1.3985804249
H -2.7821661911 0.4069239112 -1.5161458066
H -1.4053980995 -1.1863518227 0.7022653031
H -0.4812155368 -1.1119143626 -1.8132747584
H 2.8895473369 1.5012485687 1.5403731904
H 1.7376348783 -1.0602331327 -2.5252851755
H 5.7099118609 -0.3811460436 1.7194819609
H 6.3320136414 -0.8026960343 0.2255856612
H -1.3357199717 1.6926610431 0.0523038289
