60
CONF6
C 0.4484112113 0.3587232025 -1.3373920316
C 1.3041982151 0.1966685728 -2.5966713721
C 2.7275547012 0.6191044284 -2.1412944271
C 2.6477398965 0.8544899219 -0.6127675365
O 2.3422479938 2.2174622064 -0.2937989979
C 3.8999550962 0.4547269680 0.1396589019
O 4.6034616113 -0.4865577278 -0.2041974676
C 4.2114914599 1.2775660789 1.3743309095
O 5.3695991581 0.8032045240 2.1009965211
S 5.2711355230 -0.6510028418 2.8390139199
O 6.0109377740 -1.5988128989 1.7776967505
O 3.8632508626 -1.0194293247 2.9684187992
O 6.1427340526 -0.5854815092 3.9985088916
C 1.4021671769 -0.0230941010 -0.1844645874
C 1.7883086019 -1.5088550474 -0.2108366803
C 0.7518207677 0.3673564841 1.1427402304
C -0.6636307399 -0.2166535908 1.3175755949
O -0.6390709538 -1.6248258502 1.6026117410
C -1.5589936474 0.0407729175 0.0961491360
C -0.9050150631 -0.3421131855 -1.2542130390
C -1.7847893539 0.0942025948 -2.4330033803
C -3.2544442109 -0.3620610257 -2.3039805601
C -3.7435388293 0.0938467056 -0.9698075575
C -4.6452819254 1.0957784898 -0.8543265423
C -4.9129995323 1.7931003770 0.3950273782
O -5.7294977895 2.7172754522 0.4595169052
C -4.0733692781 1.3889154277 1.5829480596
C -3.7234797800 -0.0931107478 1.5229319213
C -3.0255036222 -0.5135122087 0.2180716928
C -3.1235288189 -2.0537427809 0.1351680220
H 0.2425614791 1.4322150135 -1.2187336093
H 0.9434113832 0.8147176994 -3.4223306706
H 1.2983230369 -0.8441007056 -2.9378489522
H 3.4701081774 -0.1500294188 -2.3625257880
H 3.0626056612 1.5406051293 -2.6271768753
H 2.8883829103 2.7842522486 -0.8545670136
H 3.3346121227 1.3408490949 2.0274331226
H 4.4798868638 2.2951033259 1.0764576322
H 5.6120214219 -1.3671575476 0.8895692318
H 2.3499375725 -1.7753329708 -1.1088071533
H 2.4049131312 -1.7587228693 0.6577336130
H 0.8945709780 -2.1296360104 -0.1618300483
H 1.3579264952 0.0443482471 1.9998916960
H 0.6640626572 1.4575761805 1.1968182212
H -1.1103215521 0.3080675886 2.1761147031
H -0.0127825216 -1.7614440056 2.3251094453
H -1.6583584079 1.1375769952 0.0677971543
H -0.7600086295 -1.4280598430 -1.3062533878
H -1.3691612723 -0.2871976107 -3.3717695993
H -1.7705750972 1.1917001068 -2.4918866023
H -3.8532614851 0.0737665376 -3.1088713501
H -3.3058421609 -1.4526123646 -2.3916568034
H -5.1378577519 1.4900617468 -1.7411898121
H -3.1647924226 2.0087230138 1.5602203604
H -4.6090363070 1.6433328119 2.5022064470
H -4.6560125250 -0.6685705192 1.5903596003
H -3.1163421793 -0.3869782999 2.3839261900
H -4.1544292653 -2.3376425125 -0.1048088225
H -2.8604053127 -2.4879890620 1.1000754264
H -2.4660075735 -2.4894367321 -0.6180666616
