47
CONF3
C 4.0272699110 -2.7997445963 -1.5732235888
C 4.0000011757 -1.3333111374 -1.4109839995
C 3.0850953626 -0.4489479941 -0.8933846670
C 3.7049196935 0.8258970135 -1.0632300246
N 4.8809193430 0.7258396579 -1.6362460234
O 5.0737676444 -0.6505447930 -1.8443766174
C 3.1888876484 2.1631955905 -0.7163865667
C 2.1722129054 2.7657937850 -1.4700507050
C 1.6661078879 4.0200088167 -1.1608516674
C 2.1850240739 4.7010889624 -0.0651605735
C 3.1877341000 4.1396447671 0.7160957058
C 3.6741879164 2.8812307454 0.3849177917
Cl 4.9027122371 2.1636373504 1.4044570975
Cl 1.5134159066 1.9055123055 -2.8448840543
C 1.7629499071 -0.8200938087 -0.3676323293
O 1.2407927898 -1.9056645612 -0.6317318734
N 1.1437431937 0.0988315193 0.4250507751
C -0.1795069543 -0.1123312628 0.9178487610
C -1.3920485505 -0.2555684028 -0.0675424071
N -1.6787571290 -1.5562559268 0.5459844674
C -0.6107222719 -1.5091484452 1.4337301098
O -0.2529892782 -2.2639699126 2.3062547602
C -3.0571454340 -1.8971749828 0.8014542307
C -3.7705973382 -0.5534600805 1.2067224974
S -2.9130748615 0.7558128519 0.1674519481
C -3.5333907544 -0.2924501391 2.6942125887
C -5.2626333281 -0.5247678283 0.8909667227
C -3.6753941969 -2.5362681154 -0.4326312238
O -3.3518653273 -2.2856587785 -1.5713520510
O -4.6413445463 -3.4081224741 -0.0949091117
H 5.0560799457 -3.1455729235 -1.6912221652
H 3.5635191524 -3.2805159195 -0.7102612825
H 3.4521433367 -3.0880823260 -2.4598112145
H 0.8817402335 4.4550646835 -1.7684169492
H 1.7984170243 5.6829888835 0.1857416679
H 3.5860645428 4.6666010115 1.5747750885
H 1.6147103792 0.9571788623 0.6693499511
H -0.3987408442 0.6328992344 1.6875370190
H -1.1252819794 -0.2908465198 -1.1264383501
H -3.1135114825 -2.5990609882 1.6395272110
H -3.9176787299 0.6940686105 2.9656469726
H -2.4717411467 -0.3265467084 2.9539756381
H -4.0599633691 -1.0491209431 3.2873630506
H -5.6832020297 0.4420160593 1.1812965307
H -5.4615375606 -0.6807804878 -0.1726109728
H -5.7741445844 -1.3024825997 1.4670986498
H -5.0371444973 -3.7608171453 -0.9113226210
