41
CONF64
C 0.3700821286 -5.3041457982 3.3519783011
C 1.6601667313 -5.4235376471 2.5669374528
O 2.5459707400 -4.3061187643 2.8381222799
C 2.2784546292 -3.1721667983 2.1372931874
O 1.4060930893 -3.0603686417 1.2932401428
N 3.1382745688 -2.1795815623 2.4963141657
C 2.9971588175 -0.8460407697 1.9388088126
C 1.8380374310 -0.0849933850 2.5903902189
O 1.6502594276 1.1913902120 1.9837568504
C 0.9738451849 1.2520438727 0.7909527600
C 0.8344262924 2.5370287116 0.2560442096
C 0.1634294401 2.7272497583 -0.9402231442
C -0.3813237416 1.6297416460 -1.6040495734
C -0.2460704742 0.3545719222 -1.0809504279
C 0.4377784994 0.1531087781 0.1182042202
O -0.9903478659 1.7747428203 -2.8433199153
C -2.0886795224 2.5988374565 -2.9472255292
C -2.3955799812 3.0508627526 -4.2298990430
C -3.5158535855 3.8482331716 -4.4241791568
C -4.3281273140 4.2029362042 -3.3491013693
C -4.0111906624 3.7432527959 -2.0747207964
C -2.8951443496 2.9389781431 -1.8621899844
H 0.5740527318 -5.2249596459 4.4235897022
H -0.2460909943 -6.1930920570 3.1833833982
H -0.1969458533 -4.4281207008 3.0282175215
H 1.4705909938 -5.4723539217 1.4910271279
H 2.2375650135 -6.2988799480 2.8746808380
H 3.7658642619 -2.3496868657 3.2641212458
H 2.8300332253 -0.9273753363 0.8603670543
H 3.9316049867 -0.2980896525 2.0921574218
H 0.9196299556 -0.6841542385 2.5521926162
H 2.0683146199 0.1243507609 3.6397471162
H 1.2661798563 3.3748310065 0.7926259113
H 0.0559067734 3.7206822741 -1.3630317802
H -0.6672880729 -0.4877126937 -1.6189114288
H 0.5463305310 -0.8587236424 0.4929227660
H -1.7509120450 2.7666378505 -5.0543753481
H -3.7521286998 4.1991942490 -5.4237859609
H -5.1998518755 4.8291906684 -3.5041337596
H -4.6407061890 4.0059346292 -1.2302580564
H -2.6538076920 2.5763024969 -0.8695615271
