39
CONF73
C -3.8784445011 -1.6316854000 1.7313761957
C -3.3305716086 -0.2736126796 2.1630419569
C -1.8259562093 -0.1371979840 1.9358579123
N -1.4740491854 -0.2618515063 0.5065673694
C -0.6520409372 -1.4150963580 0.1182941774
C 0.8084252621 -1.2100780010 0.4669069353
O 1.2836454270 -0.1209295427 -0.3678746149
C 2.5508376747 0.2857699213 -0.0952336962
C 2.8062604218 1.2949392847 0.8412442037
Cl 1.4588614809 1.9960799492 1.6998836321
C 4.0895055787 1.7628475462 1.0931083196
C 5.1401722677 1.1993142531 0.3809922828
Cl 6.7681178767 1.7729059215 0.6811101673
C 4.9449529942 0.2019330157 -0.5652870594
C 3.6474467222 -0.2412900146 -0.7879669991
Cl 3.3649104468 -1.4831320808 -1.9808374916
C -1.6387753963 0.8446992648 -0.2530208090
O -1.9670567219 1.9460403953 0.1664145588
N -1.4579645968 0.6606380265 -1.6722379597
C -0.7537960322 1.5230602319 -2.4904795550
C -0.9587575513 1.0673429607 -3.7631075479
N -1.7949634969 -0.0351982491 -3.7556652234
C -2.0762369353 -0.2539727638 -2.4900230988
H -4.9547956636 -1.6952853181 1.9158542590
H -3.7138522894 -1.8010501429 0.6618680355
H -3.3918947462 -2.4445165974 2.2820468264
H -3.8470227046 0.5321617156 1.6290551927
H -3.5163144137 -0.1136990553 3.2318378671
H -1.4658585424 0.8247846776 2.3123060855
H -1.2942526529 -0.9303989930 2.4701297645
H -0.7375719153 -1.6109133148 -0.9507964882
H -1.0247459291 -2.2974544368 0.6464545605
H 0.9441314846 -0.9463981677 1.5227945208
H 1.3764358845 -2.1213662228 0.2430770381
H 4.2594958565 2.5464410841 1.8208492569
H 5.7757548598 -0.2200370913 -1.1168290713
H -0.1785405335 2.3412241642 -2.0858423219
H -0.5526829287 1.4660103015 -4.6822064130
H -2.7328088469 -1.0210283973 -2.0994027662
