48
CONF21
C -3.4524718780 2.1481107694 0.2350239627
Si -1.7225760203 1.6173634447 0.6132497894
O -1.0878259799 2.7216614966 1.6617238418
O -1.6810960368 0.1457139205 1.3273960265
Si -1.8309841641 -1.4708004601 1.0532205428
C -3.1358250041 -1.7583716435 -0.2511416193
C -2.2494708760 -2.2755901176 2.6746530181
O -0.3852644929 -2.0785856913 0.5648954167
Si 0.7186645445 -2.1262772278 -0.6528214841
C 1.6619229838 -3.7217655735 -0.4804044746
C -0.1293062034 -1.9776377169 -2.3068024464
O 1.7788670814 -0.8789341668 -0.5105007296
Si 2.3716973393 0.3277007577 0.4366122832
C 1.8944431450 0.0688191255 2.2201807449
C 4.2151636070 0.3927462768 0.1945521449
O 1.7319363868 1.7637889431 -0.0660022452
Si 0.6151836347 2.2285611120 -1.1906669297
C 0.5069196461 4.0859055490 -1.1421716926
C 1.0774798878 1.6024845437 -2.8816098086
O -0.8421163208 1.5558543329 -0.7755929395
H -3.9069314207 1.4828531605 -0.5055920220
H -3.4623779690 3.1635882267 -0.1725588771
H -4.0726333981 2.1352927063 1.1361057910
H -0.2215514995 2.5255332809 2.0324677858
H -3.2197521595 -2.8214034537 -0.5004969980
H -4.1155027238 -1.4181051487 0.1016555857
H -2.9028578520 -1.2155346349 -1.1733296518
H -2.3363693152 -3.3614235089 2.5669496901
H -1.4642187489 -2.0717234231 3.4101677805
H -3.1940537208 -1.8941276533 3.0750083801
H 1.0038525796 -4.5879065355 -0.6049675488
H 2.1191359889 -3.7891649833 0.5126104475
H 2.4609799067 -3.7909575950 -1.2254985401
H 0.5985167953 -2.0280095384 -3.1237301339
H -0.6592817879 -1.0227437316 -2.3886312099
H -0.8540523974 -2.7856858867 -2.4527125753
H 2.2837472606 -0.8812586952 2.6015776154
H 2.2949938248 0.8712516223 2.8497046976
H 0.8050750469 0.0492828186 2.3322128767
H 4.6563916202 1.2310088756 0.7432401605
H 4.6933805667 -0.5299504849 0.5393148560
H 4.4551320349 0.5200858795 -0.8663899381
H 1.4715000123 4.5386159513 -1.3946172869
H 0.2150644109 4.4324193689 -0.1460688137
H -0.2352912663 4.4514766693 -1.8597168306
H 1.9833380519 2.1035793176 -3.2393566474
H 1.2707172878 0.5265591600 -2.8624758670
H 0.2777078985 1.7957007623 -3.6042261306
