70
CONF55
C 0.1976020015 -1.5376894890 2.1228775286
C -0.3966620190 -2.7151753642 2.9227407164
C -0.9342019681 -2.1940193779 4.2142369791
C -1.1484168461 -2.7235275240 5.4592404742
N -1.7262405844 -1.7514277116 6.2739661609
C -1.8790068334 -0.5824343217 5.5607561759
C -2.3787839192 0.6791557115 5.8825922044
C -2.3535694212 1.6356689407 4.8730338034
C -1.8482869063 1.3703763274 3.5838525085
C -1.3557460739 0.1125277717 3.2579614243
C -1.3867839739 -0.8483712002 4.2678885733
C -0.7681087320 -0.3277636441 1.9311521228
C -0.0059424385 0.8107762322 1.2386425729
C 0.6428430570 0.3402321972 -0.0643388592
C 1.5336023319 -0.9030912828 0.2240478423
N 0.7957942397 -1.9873418333 0.8588458473
C -0.0844957971 -2.6682472695 -0.0911805917
C 0.6288945043 -3.6959202993 -0.9260837290
C 1.8747135171 -4.1222175286 -0.7447424644
C 1.5341225624 1.4156702845 -0.6585294910
O 2.1450723323 2.1741828923 0.0967213192
N 1.6792202386 1.4474908423 -2.0390636016
C 0.8792251877 0.5653205607 -2.9072260073
C -0.4937359298 1.1539936339 -3.2389082174
C -1.4371455894 0.0844657491 -3.7823283547
N -1.8152720231 -0.8930109148 -2.7514659477
C -2.2643166481 -2.1472071563 -3.3500371705
C -2.8535532037 -0.3663272758 -1.8678193775
C 2.4449179682 2.4388365455 -2.7648846936
O 2.3396296563 2.4999338964 -3.9836655000
N 3.2607880528 3.2232807227 -2.0316256043
C 3.9744324426 4.3250937740 -2.6655942872
C 3.0922852943 5.5509413623 -2.8922748758
H 1.0375964889 -1.1544484205 2.7249830259
H -1.2139155710 -3.1869333583 2.3618994414
H 0.3792148355 -3.4763226911 3.0578105167
H -0.9458761963 -3.7105515953 5.8502139389
H -1.9587493901 -1.8805281735 7.2422035355
H -2.7653200966 0.9173788949 6.8682284815
H -2.7308379272 2.6304548188 5.0879980545
H -1.8456446065 2.1730924263 2.8541591551
H -1.5929269055 -0.6599760383 1.2775761199
H -0.6783545168 1.6499145497 1.0289281479
H 0.7680803906 1.1878314236 1.9164349594
H -0.1451612240 0.0475254157 -0.7627859621
H 1.9868981025 -1.2769552512 -0.7012549170
H 2.3484220989 -0.5865823961 0.8896281420
H -0.8908694856 -3.1779506199 0.4495396322
H -0.5962956877 -1.9713643547 -0.7817736017
H 0.0332675238 -4.1016397203 -1.7442483130
H 2.4833639461 -3.7304494620 0.0644621352
H 2.3104621018 -4.8723417929 -1.3959944278
H 0.7709988746 -0.4092259510 -2.4289843457
H 1.4476726858 0.4221453466 -3.8279707580
H -0.9213813641 1.6191445039 -2.3422824893
H -0.3711680183 1.9536215033 -3.9765176270
H -0.9252620353 -0.4570294438 -4.5886542693
H -2.3302656656 0.5550375874 -4.2368754855
H -2.5178378389 -2.8631996926 -2.5600041408
H -1.4619514799 -2.5797671817 -3.9565962088
H -3.1576102451 -2.0218292939 -3.9924835923
H -3.0470840122 -1.0805011085 -1.0595093054
H -2.5320350215 0.5739913994 -1.4101251954
H -3.8072104357 -0.1787040383 -2.3986801416
H 3.1625305684 3.1617342016 -1.0214702767
H 4.8223088246 4.5758195539 -2.0191631928
H 4.3743045302 3.9691562986 -3.6198395453
H 3.6703596508 6.3555142418 -3.3580101253
H 2.6876528155 5.9215269623 -1.9454323647
H 2.2597483031 5.2982359036 -3.5541957782
