41
CONF23
C 3.3433461502 0.9368689467 0.8726232862
C 2.7639628469 1.2147869956 -0.4719144038
N 1.7967521774 0.4065137950 -0.9171529353
C 1.2920333807 0.7254428083 -2.1200106815
N 1.6872775947 1.7425268363 -2.8858210360
C 2.6706102144 2.4678989777 -2.3416796169
N 3.2423885929 2.2654237547 -1.1507140014
O 3.0765118476 3.4777240548 -3.1046609583
C 4.1399045745 4.3221637250 -2.5953776626
N 0.2681772462 -0.0392709718 -2.6386524593
C -0.4228426187 -1.1338385437 -2.1088873319
O -1.3832656478 -1.5964699284 -2.7030076388
N 0.0739701619 -1.6262109674 -0.9217955539
S -0.7767003506 -2.7758858379 -0.0022959173
O -0.0132067000 -2.8522753927 1.2499407686
O -0.9751741535 -3.9746434520 -0.8179048478
C -2.3858850071 -2.0554497170 0.3463204311
C -3.4780345947 -2.5410210878 -0.3628182940
C -4.7529325486 -2.0813638512 -0.0466620569
C -4.9260521188 -1.1657216727 0.9854437134
C -3.8281658821 -0.6973607769 1.7016085695
C -2.5396934601 -1.1249159200 1.3816726290
C -1.3835209415 -0.4974086848 2.0951425089
O -0.5062072033 0.1298078513 1.5376993489
O -1.4844461318 -0.6598345313 3.4171483840
C -0.4341149269 -0.0322396591 4.2025203220
H 3.1227366007 1.7767416830 1.5401470134
H 4.4321448602 0.8616900474 0.7984259535
H 2.9309109781 0.0198727148 1.2932482100
H 5.0449438887 3.7337399783 -2.4307244636
H 3.8297972467 4.8014017364 -1.6644949035
H 4.3000772777 5.0644735369 -3.3760624685
H -0.0930569332 0.2689297976 -3.5328085793
H 0.7657115490 -1.0371556477 -0.4259097112
H -3.3291024159 -3.2757201295 -1.1445356750
H -5.6079039108 -2.4512078433 -0.6020568234
H -5.9202652970 -0.8148652183 1.2410633356
H -3.9633849204 0.0175556920 2.5061967415
H 0.5366795182 -0.4419914266 3.9148674757
H -0.6672497439 -0.2764091826 5.2374274020
H -0.4467317029 1.0483377863 4.0444520432
