56
CONF10
C -2.8687365368 -3.9027166226 1.9438460167
C -3.2795018345 -2.4830349101 1.5516542357
C -4.8042655334 -2.3481005319 1.5382119703
C -2.7086578325 -2.1338704102 0.1631086551
C -1.1914317832 -2.1316766373 0.0370519691
C -0.3510659801 -1.7590916349 1.0889509859
C 1.0224205945 -1.6831750764 0.9075730683
C 1.5696557501 -1.9610936459 -0.3409459760
C 0.7594510682 -2.3317184924 -1.4089295999
C -0.6158903771 -2.4128269576 -1.2024173007
O 2.9613656858 -1.8459998724 -0.3906016595
C 3.6389380625 -1.9064089839 -1.5712138759
F 3.1601382545 -0.9972211539 -2.4814878438
F 3.5116837655 -3.1391662484 -2.1684665467
C -3.1426146443 -0.7689831109 -0.3336605630
O -3.6373671147 -0.5309799194 -1.4113790268
O -2.8208957036 0.2015173986 0.5676815254
C -2.8154384990 1.5517817088 0.0244018717
C -2.8584698642 2.4382527768 1.1853409781
N -2.8774933693 3.1655715982 2.0818155829
C -1.5684990510 1.7693060615 -0.8052664037
C -1.6749313933 2.0455582150 -2.1664278899
C -0.5153819953 2.1661134119 -2.9286693246
C 0.7356364168 2.0256007986 -2.3395712740
C 0.8239894214 1.7597445603 -0.9739069118
C -0.3218262052 1.6207941821 -0.1986036396
O 2.0898713804 1.5801187921 -0.4583600492
C 2.3698778021 2.0019181344 0.8329597689
C 3.2493393884 1.2143608673 1.5687192951
C 3.6274396036 1.6280498399 2.8432204757
C 3.1269515296 2.8132886054 3.3780069957
C 2.2526867741 3.5939974819 2.6234463943
C 1.8715359107 3.1983091216 1.3443361869
H -1.7815991809 -4.0176343930 1.9803209626
H -3.2719523083 -4.1529143757 2.9298546361
H -3.2647170794 -4.6255475473 1.2209358304
H -2.8784525822 -1.7769701617 2.2878769118
H -5.2171873535 -2.6143488912 2.5157473720
H -5.2422012853 -3.0192595331 0.7900975630
H -5.1232744389 -1.3255048732 1.3078843905
H -3.1147545510 -2.8459033806 -0.5637086890
H -0.7615167590 -1.5189297852 2.0635984076
H 1.6768687315 -1.3978008892 1.7240433234
H 1.1657352573 -2.5587029389 -2.3852322278
H -1.2520065167 -2.6980645879 -2.0358249458
H 4.6951752285 -1.7081160497 -1.3769743025
H -3.7154773624 1.7179646038 -0.5776217939
H -2.6521246491 2.1516677953 -2.6249994224
H -0.5859615741 2.3750428803 -3.9910281204
H 1.6463172566 2.1226439626 -2.9212392366
H -0.2443145186 1.3908166599 0.8589230254
H 3.6275907607 0.2941462030 1.1364886490
H 4.3127684695 1.0151254838 3.4203403612
H 3.4195064722 3.1298178402 4.3736890287
H 1.8675611153 4.5254341234 3.0267026929
H 1.2002934907 3.8114311321 0.7524099108
