85
CONF78
C 3.4864416485 0.8343986085 -4.3833491673
C 4.4093892001 1.5785160965 -3.4205012710
C 4.1900313053 1.1881027883 -1.9663907219
C 5.1112774449 1.9079817323 -0.9757891327
C 4.6690927749 1.5742393858 0.4532959480
C 3.1886456609 1.8796706869 0.6533816233
C 2.3465332180 1.1597174716 -0.4076611797
O 2.8041124167 1.5003762881 -1.6907729064
C 0.8665997202 1.5628929823 -0.3858545845
C 0.1543126866 0.9832883189 0.8219895177
C 0.3794843523 -0.5129797121 0.8757626489
C 1.8596294183 -0.8430306814 0.8587260494
O 2.4832272782 -0.2701091310 -0.2948260781
C 2.0712028048 -2.3606887611 0.8107340490
C 1.5750322694 -2.9828311870 2.0806900364
C 0.6311081711 -3.9156517847 2.2640034424
C -0.1031550475 -4.6531505321 1.1738835554
C -1.6118066719 -4.2850388830 1.0120068384
C -1.7963615844 -3.2367612885 -0.0372950462
C -2.5191623134 -2.1065344176 0.0459403676
C -2.5690392360 -1.1804562064 -1.0604907190
C -3.1226096079 0.0406082369 -1.1166858374
C -3.0403339183 0.9210893795 -2.3308641018
O -4.2335257863 1.7188492600 -2.2899208357
C -4.4667560057 2.0000326957 -0.9015307989
C -4.0553958501 0.7242602406 -0.1226736246
C -3.5629823329 1.0391740814 1.3217117384
C -3.9317274772 2.4294073905 1.7982534973
C -3.9748158283 3.4899157762 0.9878123687
C -3.7110165625 3.2593284106 -0.4756087301
O -4.1588908661 4.3741020901 -1.2430901949
C -4.2741295649 4.8783907120 1.4519987013
C -2.0821827994 0.8881972887 1.6428303753
O -1.6942151677 0.5262025955 2.7309112557
O -1.2715496971 1.2658993342 0.6327429508
O -5.2104506384 -0.1137724770 0.0983135924
C -2.4172709336 -5.5372984244 0.6225393936
C 0.2683719245 -4.3586864227 3.6570284946
C 6.5795043661 1.5371444268 -1.1836014519
H 3.6156735434 -0.2489643905 -4.2854113046
H 2.4392843229 1.0654477687 -4.1767028738
H 3.7027642567 1.1077806633 -5.4204292074
H 5.4527823420 1.3690992502 -3.6794414850
H 4.2648614351 2.6626293695 -3.5159850108
H 4.3291514588 0.1009286369 -1.8546408825
H 4.9834692131 2.9899658671 -1.1334252812
H 4.8539378229 0.5086743013 0.6456583802
H 5.2720740486 2.1413940660 1.1722581915
H 3.0069220121 2.9549440016 0.5370990293
H 2.8651954280 1.6089043023 1.6636191218
H 0.4098718906 1.1572545642 -1.2955968883
H 0.7857206135 2.6537899967 -0.4159503018
H 0.4675524533 1.4623924933 1.7570715478
H -0.0771455548 -0.9642780185 -0.0109448370
H -0.0859849724 -0.9516369660 1.7590733622
H 2.3426999840 -0.4580769274 1.7736600739
H 1.5639676723 -2.7560017617 -0.0749380726
H 3.1466560703 -2.5477153343 0.6883644527
H 2.0370103573 -2.5743621546 2.9815303655
H -0.0459517287 -5.7232257204 1.4162981427
H 0.3959477010 -4.5334087982 0.2069337574
H -2.0000591040 -3.9046347967 1.9644685030
H -1.2984276649 -3.4490607692 -0.9875950812
H -3.0368850626 -1.8521172626 0.9692262411
H -2.0293685469 -1.5094651010 -1.9508467998
H -2.1449459696 1.5664869649 -2.2939748161
H -3.0302747227 0.3675713363 -3.2741038522
H -5.5371485177 2.1919747554 -0.7779782008
H -4.0538448436 0.3110466524 1.9720934653
H -4.0773260869 2.5432986342 2.8687027373
H -2.6267139677 3.1136020789 -0.6257001576
H -4.1442775744 4.0864323078 -2.1653126529
H -3.4580494970 5.5582245846 1.1819743742
H -4.4161262044 4.9031683742 2.5347813071
H -5.1711786505 5.2671582488 0.9604442452
H -5.4988998479 -0.4269128729 -0.7687073035
H -2.3338549435 -6.3045382350 1.3996287294
H -3.4740165147 -5.2939508734 0.4820038859
H -2.0382301441 -5.9609161005 -0.3146217710
H 0.5103428087 -5.4195268426 3.8006076518
H -0.8076606749 -4.2554229566 3.8414362020
H 0.7961431001 -3.7786535797 4.4174612510
H 6.7100472773 0.4487351365 -1.1559001460
H 7.1968358607 1.9652641667 -0.3870724536
H 6.9708398736 1.9019064231 -2.1367654154
