23
CONF2
C -3.0962922014 1.1968560155 -1.0872191980
C -1.9744200843 0.3994626735 -1.2808833236
C -1.4255467232 -0.3066642692 -0.2188302708
C -2.0028994727 -0.2228942528 1.0482102698
C -3.1216182284 0.5731998179 1.2644198899
C -3.6487103833 1.2728480838 0.1853241054
Br -5.1887062668 2.3689632458 0.4708517012
Br -1.2658352729 -1.2137800168 2.4941408740
O -0.3533685143 -1.1459534349 -0.4590723039
C 0.8947948759 -0.7277514760 -0.0867362699
C 1.1728099117 0.5783760394 0.3012079963
C 2.4692128007 0.9389327306 0.6515473508
C 3.4975449123 -0.0008195929 0.6126098375
C 3.2212468820 -1.3080917816 0.2188827256
C 1.9285779726 -1.6672828572 -0.1245041715
Br 1.5593589135 -3.4563711730 -0.6482382616
Br 5.2889666158 0.4293857151 1.0840026330
Br 2.7706290490 2.7413155512 1.1773398368
H -1.5127178203 0.3181476156 -2.2592690681
H 0.3793289750 1.3158713191 0.3307936948
H 4.0149823538 -2.0441182195 0.1871556765
H -3.5255290658 1.7476664003 -1.9151731389
H -3.5690960224 0.6361518825 2.2483144274
