52
CONF687
C -3.3788160491 -0.9437878803 -2.3943076969
C -2.5965038156 -2.2389913785 -2.6087510787
C -1.3298376792 -2.3258216850 -1.7521629890
C -0.3067746705 -1.2349397452 -2.0720438340
C 1.0619100064 -1.4170793307 -1.3987568087
C 2.0130610567 -0.2771133588 -1.7964610034
C 3.4036850414 -0.3518093543 -1.1681025471
C 0.9317076065 -1.5511595234 0.1077952632
O 0.3636396759 -0.3023600553 0.6070624435
P -0.3028535810 -0.2650395007 2.0556639821
O -1.1704823778 -1.3918158583 2.4354075635
O 0.9049183920 -0.0472122186 3.1018383274
C 2.1194070539 0.5478035424 2.7557264480
C 2.1809973904 1.8205199306 2.2014596559
C 3.4284699461 2.3617108223 1.9049817947
C 4.5933266560 1.6464625407 2.1671672024
C 4.5105344416 0.3778424682 2.7339848905
C 3.2707174172 -0.1800189597 3.0292233914
O -0.9712728781 1.2045433679 2.0333599232
C -2.0763937716 1.4355447665 1.2004708832
C -3.3322119418 0.9798318082 1.5763003347
C -4.4211354206 1.2877246177 0.7658850786
C -4.2491238700 2.0372676969 -0.3945757051
C -2.9783807980 2.4761075309 -0.7556982473
C -1.8790721921 2.1727133632 0.0412207068
H -2.8227222460 -0.0696718275 -2.7465238290
H -4.3338056295 -0.9636839350 -2.9289033554
H -3.5902136888 -0.7867593257 -1.3306402785
H -2.3282166688 -2.3405524192 -3.6690733556
H -3.2408581437 -3.0936919135 -2.3695634478
H -0.8645566043 -3.3115694644 -1.8930275129
H -1.6239536199 -2.2644035809 -0.6956961052
H -0.1497988893 -1.1957897122 -3.1590044490
H -0.7063851120 -0.2564240168 -1.7796245946
H 1.4989838364 -2.3697475542 -1.7383054747
H 1.5440253732 0.6776684112 -1.5284345491
H 2.1015203525 -0.2824072559 -2.8899030351
H 3.8649559757 -1.3324997410 -1.3334599788
H 4.0649856815 0.4035743429 -1.6030002955
H 3.3732087981 -0.1670689007 -0.0896084054
H 1.9083555356 -1.6961220080 0.5841019776
H 0.2741163810 -2.3792785073 0.3887726068
H 1.2687461620 2.3725037809 2.0090959769
H 3.4861120685 3.3539590082 1.4693262014
H 5.5611325447 2.0768041776 1.9335853246
H 5.4134393511 -0.1855406972 2.9457254822
H 3.1803949628 -1.1666638370 3.4704073565
H -3.4397949836 0.3927602282 2.4809894660
H -5.4092922593 0.9381875884 1.0466277931
H -5.1031799324 2.2726695536 -1.0206293887
H -2.8385113532 3.0542868721 -1.6632944781
H -0.8782025307 2.4985369154 -0.2197311114
