65
CONF638
C -4.3063194667 3.6263686948 -0.0772853204
C -3.3544827030 3.5666058556 -1.2699778283
C -2.9045579614 2.1395913386 -1.6052398825
C -1.9811152398 2.1096575843 -2.8325372825
C -2.1549481112 1.5382613528 -0.4358583042
O -1.2196075286 2.0781877405 0.1245925326
O -2.6311910482 0.3183060821 -0.1138915007
C -1.9529967438 -0.4334925206 0.9415387378
C -2.9394896296 -0.6793950736 2.0690314796
C -2.2492380802 -1.4194598254 3.2259584996
C -1.4001103441 -2.5444049867 2.7108919168
C -1.0406991145 -2.7050627100 1.4231248940
C -1.4703381518 -1.7417627212 0.3349633078
C -0.3523200345 -1.5749426581 -0.7169055414
C -0.1090376909 -2.9570927176 -1.3625927709
C 0.1533992834 -3.9867927471 -0.2950535578
C -0.2505562733 -3.8419230514 0.9783801947
C 0.9982915112 -2.9587267928 -2.4203684980
C 0.9352057123 -0.9586103524 -0.1271728498
C 1.5376236972 0.1262172624 -1.0230395159
C 2.6770562082 0.8722986614 -0.3516657581
C 3.8837159965 0.0177703664 -0.0212166354
C 5.0142222081 0.9049739286 0.4717742467
C 5.4045243724 1.8595239798 -0.6407391546
C 4.2483580839 2.5126205781 -1.3592007902
O 4.3969597804 3.4921122664 -2.0633804060
O 3.0203739771 1.9690892085 -1.2774393781
O 6.1922541998 0.1645972735 0.8092018062
C -1.4261827640 -0.4748316070 4.1203236501
H -3.8233823852 3.2565169797 0.8344127918
H -4.6326760801 4.6529002996 0.1138590476
H -5.1975981596 3.0155321357 -0.2573619335
H -3.8435767290 3.9791786043 -2.1602939700
H -2.4659722545 4.1799845376 -1.0793183239
H -3.7856231152 1.5188229323 -1.8005429237
H -2.5085507099 2.5182678544 -3.6994920786
H -1.0881320689 2.7160469664 -2.6513202598
H -1.6657321024 1.0887780938 -3.0701625863
H -1.1170150829 0.1721928173 1.2965452645
H -3.3489602933 0.2747176000 2.4190751588
H -3.7712205729 -1.2821484012 1.6841328131
H -3.0341797512 -1.8556938279 3.8598787086
H -1.0562112813 -3.2736230084 3.4444764939
H -2.3316563651 -2.1920668717 -0.1841969517
H -0.7348491939 -0.9034932237 -1.4970683743
H -1.0435001166 -3.2342267961 -1.8776007210
H 0.7128244357 -4.8750321093 -0.5839535009
H -0.0061645233 -4.5999509599 1.7202879480
H 1.9758994094 -2.7367120662 -1.9800536801
H 1.0640351708 -3.9429138037 -2.8955791399
H 0.7942422348 -2.2165498234 -3.1988837463
H 0.7265725697 -0.5177687581 0.8558026164
H 1.6677687125 -1.7518477911 0.0581422042
H 1.9011438637 -0.3026714889 -1.9643067310
H 0.7595321818 0.8564986378 -1.2739636880
H 2.3099677898 1.3641035466 0.5597987480
H 4.2086170931 -0.5464464942 -0.9057567860
H 3.5980827954 -0.6971797380 0.7575290365
H 4.6676635757 1.4768558329 1.3470958416
H 5.9499125522 1.2924327058 -1.4084682681
H 6.0723412716 2.6514973631 -0.2925184969
H 5.9835257195 -0.3882023553 1.5730139461
H -2.0709541619 0.2913234698 4.5632426758
H -0.6380963655 0.0233164318 3.5459332948
H -0.9468730969 -1.0321247076 4.9313990781
