42
CONF13
C -2.7956883528 -2.2924323583 -0.5141822857
C -2.3591171575 -0.8689257004 -0.5671056638
C -3.1455426326 0.2427165736 -0.6335525032
C -2.2912741527 1.4273256569 -0.6565934553
C -0.9370354105 1.0184357990 -0.5736742289
C -0.9447818486 -0.4556903315 -0.4895498678
C 0.0666578861 -1.3532699929 -0.3883362570
C 1.4836236855 -1.1208085480 -0.1326694400
C 2.4374947479 -1.9278249394 -0.7740743062
C 3.7958104846 -1.7547148676 -0.5379864686
C 4.2018346778 -0.7938570555 0.3785769438
C 3.2796686920 0.0052738566 1.0509584025
C 1.9266619223 -0.1675426216 0.7998990789
S 5.9822653092 -0.5424369403 0.6622003802
O 6.7191204054 -1.4482727456 -0.3271498327
C 6.0621386675 -1.3897284458 2.2897508728
C 0.0730553995 1.9643671757 -0.6955622367
C -0.2573984803 3.3167433639 -0.8345783099
C -1.5940125411 3.6783110826 -0.8602990283
C -2.6392166283 2.7668795572 -0.7858191405
F -1.9029731350 4.9973388196 -0.9831092134
C -4.6326228628 0.3337107733 -0.6799457937
C -5.2728747710 0.9245444677 0.5605845093
O -6.3069886949 1.5591707765 0.5610353655
O -4.5856044456 0.6356312360 1.6822491675
H -3.8815252877 -2.3827360358 -0.5760159891
H -2.3607581369 -2.8698750853 -1.3384311093
H -2.4702333851 -2.7684237532 0.4179766562
H -0.2011004378 -2.4021995820 -0.5077491377
H 2.1062466085 -2.6881276672 -1.4755493242
H 4.5357698350 -2.3603443421 -1.0512354772
H 3.6093376468 0.7466535837 1.7736072474
H 1.2003247738 0.4254908223 1.3454279975
H 5.7113466523 -2.4167745992 2.1600621294
H 7.1080724819 -1.3629695218 2.6047381632
H 5.4364750648 -0.8425667718 2.9999672800
H 1.1191010327 1.6826314753 -0.6888520038
H 0.5105129797 4.0770690704 -0.9224908249
H -3.6682895657 3.1057701061 -0.8499942792
H -5.0841391883 -0.6571451534 -0.8070773354
H -4.9675102005 0.9437154197 -1.5255490272
H -5.0668319549 1.0148879506 2.4381500590
