50
CONF3
C 4.0707678288 -3.6667568807 -0.3392227482
C 2.7920219006 -3.2368267529 0.3223476482
O 2.4508529719 -3.5096941329 1.4480712861
O 2.0529951042 -2.4749715380 -0.5273558065
C 0.8091796408 -1.9615634812 0.0011546857
C -0.2932039035 -2.9925950004 -0.0747753116
C -1.5552656223 -2.6163479525 0.1525100925
C -1.7528379993 -1.1697824549 0.4840679064
C -3.1651974412 -0.5851095716 0.6202028310
C -3.0928381691 0.8926436833 1.1668288720
C -1.7885390588 1.6179990633 0.8985352488
C -0.8515137364 1.0152333747 0.0803860845
C -1.0200421176 -0.3101628813 -0.5716809036
C 0.4422870184 -0.7334532420 -0.8316074186
O 1.2885984890 0.4240893821 -0.5088345230
C 0.4859927168 1.3678293591 0.0634353409
C 0.8891595818 2.5256748718 0.7114683104
C -0.0658583695 3.2392716962 1.4354474919
C -1.3768713235 2.7802093838 1.5658244367
O 2.2234478940 2.9153519651 0.7741136869
C 2.8663338070 3.1434870083 -0.4258742690
O 2.3146748526 3.1210055755 -1.4919483239
C 4.3204389925 3.4103761434 -0.1741738888
C -1.8101150096 -0.2946305601 -1.8908494601
C -3.2658252171 0.0970939197 -1.6981319214
N -3.8712764777 -0.7330333087 -0.6581631242
C -5.3043582071 -0.4982520531 -0.5521503934
H 4.6771556825 -2.7854595315 -0.5676445614
H 4.6174514538 -4.3324511915 0.3268960228
H 3.8559350638 -4.1678970647 -1.2867253724
H 0.9739593015 -1.6528035082 1.0436288262
H -0.0103527573 -4.0150583707 -0.3026375800
H -2.3899482970 -3.3088647688 0.1007117968
H -1.2470366029 -0.9825136620 1.4448328956
H -3.7220597341 -1.1805837218 1.3546170656
H -3.2398104560 0.8706363881 2.2532975320
H -3.9445732041 1.4572869913 0.7682314826
H 0.6218895707 -0.9570405019 -1.8871574433
H 0.2560954701 4.1379158455 1.9513479096
H -2.0637125423 3.3122801838 2.2172468036
H 4.7984985803 2.4863006185 0.1653999272
H 4.4433364384 4.1527855573 0.6180064101
H 4.7907807228 3.7493147443 -1.0959271720
H -1.3228433813 0.3970908590 -2.5874568785
H -1.7639507726 -1.3015396036 -2.3238755776
H -3.3420052000 1.1781834869 -1.4652747311
H -3.8160483822 -0.0624989386 -2.6330785194
H -5.5744228028 0.5503100556 -0.3215954596
H -5.7841190344 -0.7585761861 -1.5019478732
H -5.7288109244 -1.1385061355 0.2286189447
