46
CONF78
C 0.7453113954 1.2451708313 -3.0975162856
C -0.4370163467 2.0896649141 -2.6294134389
C -0.9377047111 1.6545915675 -1.2524934268
C -2.1408485621 2.4648695427 -0.8070353796
O -2.6204055787 1.9747484824 0.4758566395
C -2.0406004747 2.4957125787 1.5673798720
O -1.2543958067 3.4147628212 1.5796913589
C -2.5403761636 1.8045325592 2.8384729223
C -3.8812443222 2.3835502041 3.2588920102
O -2.7348489140 0.4025791659 2.6499561763
C -1.6531536099 -0.3465464642 2.2788752807
C -1.9358223269 -1.6599831986 1.8955681524
C -0.9111818939 -2.5102025808 1.5107358923
C 0.3982602069 -2.0456446001 1.5131087975
C 0.6944712105 -0.7471654905 1.8954019531
C -0.3331235899 0.1132495175 2.2750785198
O 1.4141331059 -2.9553462612 1.2171288704
C 2.2122445904 -2.7315287439 0.1414107091
C 3.3539997266 -3.5406199384 0.0462911228
C 4.2347399687 -3.4399950041 -1.0055050394
C 3.9823853000 -2.4966637463 -2.0134894748
C 2.8460612907 -1.6840502864 -1.9368587197
C 1.9684666474 -1.8001907258 -0.8683852687
C 4.8787521992 -2.3724983623 -3.1099468627
N 5.6084870059 -2.2672202944 -4.0035879302
F 3.5802069332 -4.4410449881 1.0161676935
H 1.5765688438 1.3159105381 -2.3870798393
H 0.4571634679 0.1909470213 -3.1805089588
H 1.1111879787 1.5698299405 -4.0757181563
H -0.1455802173 3.1468516397 -2.5944470474
H -1.2541651931 2.0150776740 -3.3587089848
H -1.2137547616 0.5920168413 -1.2686518854
H -0.1370310291 1.7685043760 -0.5110235027
H -1.9014405178 3.5287654949 -0.7194455312
H -2.9869911891 2.3310994995 -1.4861793037
H -1.7877998082 1.9901382309 3.6158829879
H -3.7864463959 3.4608694021 3.4169343907
H -4.6296265231 2.1964415988 2.4851057516
H -4.2064095502 1.9150828407 4.1908234082
H -2.9667573258 -1.9952861595 1.9047860319
H -1.1140720363 -3.5337573596 1.2157244177
H 1.7245076382 -0.4061507245 1.9053598615
H -0.0825334772 1.1247846414 2.5704691504
H 5.1058677549 -4.0833275160 -1.0397483480
H 2.6523400373 -0.9627750961 -2.7215172198
H 1.0881753356 -1.1697544995 -0.8108186643
