45
CONF81
C -0.5900105743 -1.9256274504 1.0399834749
C 0.8100572309 -2.2850007566 1.5385532261
C 1.1935743094 -1.6154677644 2.8648357472
C 1.0099507123 -0.0945660203 2.8956066773
C 1.7749205009 0.6549645478 1.8059695887
C 1.4975344524 2.1571298381 1.8409462601
C 2.2525637980 2.9670881430 0.7819540264
C 2.0442137637 2.4747760406 -0.6371853242
O 0.6131911093 2.4306776521 -0.8856730092
C 0.2368654481 1.8105046802 -2.0286644783
O 1.0173131259 1.3207826843 -2.8126233405
C -1.2653622792 1.8433981772 -2.1961236526
C -1.7763604248 0.7114766073 -3.0875008353
C -1.6029554948 -0.6813160630 -2.4733541338
C -2.5138979946 -0.9525846044 -1.2744203263
C -2.3965463042 -2.3800473908 -0.7252055835
C -1.0161461695 -2.7534652674 -0.1718049045
H -0.6189793831 -0.8587608933 0.7851225033
H -1.3196037231 -2.0658829759 1.8512526451
H 0.8793972054 -3.3735703826 1.6647615365
H 1.5420535711 -2.0280181441 0.7615109038
H 0.5897067190 -2.0543151383 3.6701451337
H 2.2390377682 -1.8589348083 3.0961692271
H -0.0577459825 0.1471462429 2.8078519687
H 1.3221054717 0.2815387918 3.8788273574
H 2.8532694530 0.4659775441 1.9107386412
H 1.4853695699 0.2574214029 0.8257123960
H 0.4208272641 2.3191855953 1.7115886389
H 1.7538349134 2.5524981604 2.8322639720
H 3.3321928059 2.9299205997 0.9786091708
H 1.9553898422 4.0204950899 0.8486813275
H 2.5079463716 3.1432759785 -1.3710272770
H 2.4561855067 1.4734737636 -0.7940431516
H -1.7377241801 1.8455371732 -1.2092948348
H -1.5021623436 2.8171588102 -2.6461197454
H -1.2379035316 0.7559245913 -4.0395872309
H -2.8371300856 0.8878797177 -3.3051928997
H -1.8089288738 -1.4347839283 -3.2450709865
H -0.5504803752 -0.8142871714 -2.1954535534
H -2.3106609554 -0.2334617210 -0.4713518583
H -3.5556140122 -0.7788929272 -1.5767315273
H -3.1426702604 -2.5172833859 0.0690264803
H -2.6625468163 -3.0859597168 -1.5233258592
H -1.0264311581 -3.8143632666 0.1107938769
H -0.2576401862 -2.6616420606 -0.9602894582
