41
CONF13
C -7.3667621127 1.1671477335 2.1693077002
C -6.7896139013 0.2045350019 1.1615317097
O -5.8501633296 0.9617123097 0.3301772082
C -5.2283565202 0.2729023151 -0.6331023808
O -5.3650334391 -0.9124005854 -0.8424701870
C -4.3598558777 1.2095694832 -1.4742786305
C -5.2135802327 1.8597391533 -2.5538069560
O -3.3388136338 0.4707709978 -2.1430257831
C -2.3478495245 -0.0957772370 -1.3905651528
C -1.4194260628 -0.8585983625 -2.1085630593
C -0.3686990181 -1.4775003149 -1.4509729114
C -0.2583527318 -1.3210456796 -0.0770496425
C -1.1615900726 -0.5750007761 0.6527383995
C -2.2213309047 0.0466791284 -0.0071876059
O 0.7632389654 -2.0073830628 0.6223786637
C 1.9784832662 -1.4935087871 0.5426988860
N 2.3929866702 -0.4069330842 -0.0245735101
C 3.7660727236 -0.4129457853 0.2445858023
C 4.0813753580 -1.5549175709 0.9887376924
O 2.9106056530 -2.2626906096 1.1826542769
C 5.3432752734 -1.8822738285 1.4312658417
C 6.3300263157 -0.9625343333 1.0731737964
C 6.0688611698 0.1919626228 0.3315790796
C 4.7728472423 0.4821528594 -0.0944925189
Cl 7.9842543351 -1.2798134340 1.5840193391
H -6.5808927660 1.5892648066 2.8016760051
H -7.8998552075 1.9822828181 1.6722699765
H -8.0743652510 0.6322909407 2.8094073548
H -6.2389328412 -0.6124921305 1.6369908987
H -7.5563748143 -0.2208411584 0.5071764731
H -3.9192323236 1.9792640432 -0.8282948902
H -5.6547465734 1.0941023025 -3.1978807888
H -4.5920093339 2.5245886607 -3.1581148412
H -6.0125873631 2.4444782417 -2.0922599063
H -1.5390941696 -0.9615562863 -3.1816027792
H 0.3550684156 -2.0750825250 -1.9948587288
H -1.0467822704 -0.4777509664 1.7267625418
H -2.9246806658 0.6289177557 0.5757108456
H 5.5564421701 -2.7744426902 2.0066461529
H 6.8826622563 0.8646511213 0.0873951943
H 4.5648957823 1.3772255687 -0.6699018300
