51
CONF4
C 1.8845680862 -2.4184806774 0.4575830958
C 1.7430835280 -1.7402068269 -0.8818206041
C 0.4953829182 -1.7258139300 -1.5337823472
C 0.3326888110 -1.0551306653 -2.7451396389
C 1.4015058467 -0.3870801939 -3.3281861716
C 2.6380434757 -0.4033245355 -2.7009423439
C 2.8287814219 -1.0825101023 -1.4909915516
C 4.1901478666 -1.0830983069 -0.9010904841
C 4.8613705062 -2.2806711583 -0.6298223876
C 6.1510137177 -2.2710670438 -0.1112300930
C 6.7929888444 -1.0628980936 0.1470684625
C 6.1380211749 0.1348241849 -0.1229413355
C 4.8490879770 0.1243801707 -0.6457416351
C -0.6922065303 -2.4174257525 -0.9247098968
O -1.2279502403 -1.6535728862 0.2026832023
C -2.0615756577 -0.6359321263 -0.1233676895
O -2.4452808241 -0.4037288231 -1.2490705694
C -2.4120121981 0.1388857058 1.0886626349
C -3.6285007262 1.0556817327 1.0287480633
C -2.2363361016 1.6518323531 1.1202442314
C -1.7202160043 2.3819497766 -0.0977982929
C -1.7622891718 2.2431534462 2.4292504681
C -4.5512138403 1.0759205215 2.1668504905
C -5.8240648322 1.4822038232 2.1329466654
C -6.4926072042 2.0015155344 0.8770829439
F -5.7306880478 2.9581488205 0.2885840138
F -7.6998528931 2.5374531136 1.1045966291
F -6.6530487537 1.0130633135 -0.0382052503
Cl -6.8303801564 1.4154518936 3.5562001470
H 2.7802826198 -2.0783664977 0.9784605088
H 1.9630147047 -3.5078418928 0.3514154147
H 1.0189946672 -2.2122133903 1.0908978066
H -0.6455052614 -1.0460002512 -3.2143726198
H 1.2727690211 0.1373867504 -4.2692829484
H 3.4879772275 0.0954660527 -3.1570383225
H 4.3697555499 -3.2244837196 -0.8451042205
H 6.6592907703 -3.2098058124 0.0854543552
H 7.7990729397 -1.0556293498 0.5535941473
H 6.6306373554 1.0812248396 0.0768585227
H 4.3350076574 1.0595936028 -0.8471051815
H -0.4268860083 -3.3810215729 -0.4855773623
H -1.4840129994 -2.5557123866 -1.6643946659
H -2.2153432168 -0.3696083653 2.0270661421
H -4.0635806696 1.1178320240 0.0368151294
H -0.6250319719 2.3479914664 -0.1240678463
H -2.0992021651 1.9513089863 -1.0251465053
H -2.0265881877 3.4321316739 -0.0475984329
H -2.1456891774 3.2630653205 2.5428859268
H -0.6684271956 2.2897343305 2.4397215789
H -2.0807070727 1.6624526656 3.2976066056
H -4.1742889659 0.7255183655 3.1232515229
