45
CONF2135
N 4.2522319864 0.8385442096 -2.4096095110
C 3.4851066902 0.2420595765 -1.3059155421
C 3.4335476804 1.2076046804 -0.1190326759
C 2.7884391796 0.5875173096 1.1251995847
C 2.3133581481 1.6123204955 2.1596193594
C 1.2128884921 2.5570428522 1.6368704677
N 0.1142776766 1.9029228894 0.9116203866
C -0.6389450092 0.9335557095 1.7119573150
C -1.6864113575 0.2874578707 0.8183062772
O -2.3978736364 1.2714337766 0.0885764065
O -1.0012655872 -0.6182111024 -0.0593202395
C -1.8559471265 -1.7398446783 -0.3897401118
C -1.9952886726 -1.8560601664 -1.8911120021
O -0.7446691642 -2.1947361789 -2.5266416291
C -3.1807661330 -1.4919527656 0.3464732778
O -3.8677195630 -2.6745571274 0.7215681248
C -2.7313412449 -0.5945644978 1.5090159920
O -3.7635433577 0.1159604464 2.1600903039
C 2.0532346846 -0.0738281307 -1.7423914126
O 1.2751900982 0.7800714852 -2.1385854292
O 1.7434707803 -1.3711336318 -1.6669827444
H 3.7619827993 1.6687223198 -2.7338903966
H 3.9734044812 -0.6922761117 -1.0066590586
H 2.8810647753 2.0989241535 -0.4423867182
H 4.4562271919 1.5296469137 0.1065694229
H 3.5030660559 -0.0979199683 1.5956339701
H 1.9347655944 -0.0388005332 0.8306815226
H 1.9512748782 1.0774832715 3.0455646421
H 3.1585412389 2.2281019651 2.4941252398
H 0.7845120901 3.1129094059 2.4805147103
H 1.6495463663 3.3004412366 0.9601873039
H 0.5012520023 1.4223044839 0.1018538344
H -1.1429426661 1.4657261577 2.5294604413
H -0.0316513595 0.1275328965 2.1522733051
H -1.7903002761 2.0304175939 0.0099355644
H -1.3882061060 -2.6538550949 0.0090262132
H -2.7556026516 -2.6096884135 -2.1334872965
H -2.3033163105 -0.8916557288 -2.3061646733
H -3.8784590372 -0.9313018120 -0.2884363747
H -2.2336013140 -1.2126498966 2.2679494197
H -4.0507514051 0.8100669241 1.5478528326
H -3.2875743264 -3.1886753782 1.3002767653
H -0.6045616226 -3.1451292116 -2.4129653727
H 4.2692589517 0.1986719892 -3.1989061545
H 0.7988712538 -1.5119057191 -1.9481806079
