41
CONF4
C -5.1600764029 -0.8667485000 -0.6273332213
C -4.7012660611 0.1908242016 0.3741562747
N -3.5905821316 1.0037033935 -0.1389424965
C -3.9618818460 2.2393423889 -0.8318355084
C -3.8593360877 3.4774623547 0.0451205978
O -4.8078159346 3.3518811627 1.1105481219
C -2.3015792598 0.5897292541 -0.0500293443
C -1.2289273514 1.3933572060 -0.5466507944
C 0.0749464758 0.9793724536 -0.4587794246
C 0.4036493610 -0.2633234257 0.1317737607
C -0.6489672575 -1.0615992497 0.6245796952
C -1.9600685444 -0.6594826874 0.5409834043
N 1.6728795783 -0.7782811046 0.2692774622
N 2.6269908158 -0.0531995975 -0.1749145311
C 3.8973522189 -0.6188436643 -0.0232899944
C 4.9675503438 0.1695466201 -0.4840717944
C 6.2705133184 -0.2809215467 -0.3919287651
C 6.5068975746 -1.5369898895 0.1669649407
C 5.4622853807 -2.3422732773 0.6316402313
C 4.1637494885 -1.8857618622 0.5371455245
N 7.8739161249 -2.0216794707 0.2685061192
O 8.0642581406 -3.1357787627 0.7620656157
O 8.7832383486 -1.2973773121 -0.1434963177
H -4.3545588674 -1.5678479360 -0.8640910747
H -5.4914395112 -0.3958525632 -1.5579862760
H -5.9991680531 -1.4314332549 -0.2100538214
H -4.4081252034 -0.2643622806 1.3245751524
H -5.5198603538 0.8777098951 0.5993486309
H -4.9966603702 2.1279000199 -1.1712728075
H -3.3479380084 2.3769235613 -1.7272264376
H -2.8409178987 3.5776834891 0.4450109695
H -4.0769548939 4.3578226016 -0.5777069418
H -4.6849421203 4.1020665807 1.7043133064
H -1.4315603700 2.3563630641 -0.9967375502
H 0.8656084250 1.6133106849 -0.8429764241
H -0.4028364919 -2.0196607645 1.0726283503
H -2.7296370376 -1.3187228831 0.9193243836
H 4.7501646594 1.1414557271 -0.9144231696
H 7.0969529144 0.3226411528 -0.7447564885
H 5.6798047026 -3.3131828336 1.0592341963
H 3.3443431858 -2.4986144472 0.8913059592
