38
CONF34
C 1.2215932806 1.5741922180 -2.7537903175
C 0.9579356953 2.5616306686 -1.6211174383
C 2.0953347971 3.5752024554 -1.5138524248
N 0.8250718998 1.8034017865 -0.3653593131
C 0.1153018963 2.5096763148 0.7029400719
C 0.3819690034 1.8400266288 2.0628125916
O 1.7668544496 1.5789638247 2.2167353217
C -0.4578897652 0.5907561464 2.3027254403
O -0.2282608594 -0.3277621970 1.2314396319
C -0.9227450833 -1.5002115086 1.2238902743
C -1.8571954281 -1.8909435472 2.1740547682
C -2.5291988423 -3.1222302531 2.0453500772
C -2.2979350101 -3.9829442856 0.9871816948
C -1.3501132924 -3.5768400333 0.0442368967
N -0.8986629711 -4.2024909710 -1.0961510058
C 0.0587700808 -3.4175072298 -1.7077697450
C 0.2390619563 -2.2728543485 -0.9773535759
C -0.6491752369 -2.3522431618 0.1394814837
H 2.1328107929 1.0011891645 -2.5478853098
H 0.3893071259 0.8707903718 -2.8699650481
H 1.3542147652 2.1002187282 -3.7033432973
H 0.0215680570 3.1065532958 -1.8492451825
H 2.1744223219 4.1603025676 -2.4357100476
H 3.0437221072 3.0544340688 -1.3463300941
H 1.9451879626 4.2771124458 -0.6887897263
H 0.3427542176 0.9292327899 -0.5445687195
H 0.5082553770 3.5305897970 0.7572186738
H -0.9735331095 2.5859087742 0.5298170830
H 0.0938059997 2.5478089192 2.8538877232
H 2.0754290836 1.3651247631 1.3190270928
H -0.1653588189 0.1327138375 3.2575030424
H -1.5249264140 0.8605787572 2.3421246644
H -2.0797463623 -1.2599588204 3.0251617991
H -3.2528450317 -3.3971303820 2.8057354641
H -2.8256826379 -4.9264498785 0.9006452167
H -1.2096116711 -5.0989463153 -1.4250181409
H 0.5409980006 -3.7461027564 -2.6167041220
H 0.9385115634 -1.4817921536 -1.1993466162
