37
CONF7
C -4.8897312047 -0.9513966634 -1.5547632625
C -4.1328840186 -0.8989386511 -0.2476719764
O -2.9455388207 -0.0991907288 -0.4536133555
C -2.2220558196 0.1348297760 0.7061063156
C -1.0643834463 1.1336048649 0.4380799182
C 0.0626048757 0.1684122418 0.1523388801
C 1.3149407255 0.3667448942 -0.3994158073
C 2.1736344941 -0.7320884512 -0.4545049825
C 1.8154719523 -1.9864165282 0.0257328263
C 0.5471716986 -2.1845745302 0.5753974542
C -0.3028973404 -1.0906151198 0.6248801463
O -1.5678662824 -1.1102114089 1.1441645774
O 3.4364627658 -0.5776164226 -1.0616042105
S 4.6488029859 -0.0638376006 -0.0309002685
O 4.3409681482 1.3000358708 0.4182787950
O 4.8670693269 -1.0949528176 0.9915430382
C 5.9665376324 -0.0603670431 -1.2384317902
C -1.3474388582 2.1135624938 -0.6974211245
C -0.7570982143 1.8942258514 1.7410017736
H -5.1798257976 0.0531132014 -1.8765669676
H -5.7960913504 -1.5508951789 -1.4296649310
H -4.2789659332 -1.4101611583 -2.3378927708
H -4.7368328036 -0.4351174237 0.5454510650
H -3.8421091012 -1.9045922155 0.0804554370
H -2.8781962466 0.4262967843 1.5366056581
H 1.6337202372 1.3319129946 -0.7789653321
H 2.5221866883 -2.8057844913 -0.0453058360
H 0.2403525258 -3.1573824966 0.9434711376
H 6.8625568766 0.2708352278 -0.7078304339
H 6.0847497979 -1.0774982779 -1.6159379419
H 5.6972585624 0.6400084500 -2.0310810847
H -0.4983565427 2.7957661336 -0.8045195305
H -1.5005225751 1.5954253259 -1.6459629974
H -2.2369670135 2.7107486869 -0.4751048519
H -0.5923049481 1.2005612499 2.5716769494
H 0.1455802453 2.4980277528 1.6107312562
H -1.5900029147 2.5575258256 1.9969713312
