38
CONF23
C -1.4183561646 0.5618728150 -2.6005026658
C -1.2013860170 0.6621407181 -1.0884847228
C -2.4373784216 0.3225224690 -0.2642508235
C -3.7885597461 0.9030812805 -0.5838533117
C -3.5361724455 -0.5736703512 -0.7632520036
C -0.0039000431 -0.2101875454 -0.6129255300
C 1.2515371161 0.1019989226 -1.4696293321
N 2.4374373606 -0.5376540755 -0.9183626319
C 3.4884968971 0.0143814795 -0.2855039115
N 4.2876616370 -0.9339308190 0.1953472147
C 3.6494150280 -2.0782336436 -0.1679112792
N 2.5210378577 -1.8908373681 -0.8442917348
C 0.3205419100 0.0721996334 0.8557645469
C 0.2750251566 -0.9399284351 1.8134440166
C 0.5957812962 -0.6885631006 3.1458282447
C 0.9663666815 0.5965092163 3.5135122044
C 1.0229628296 1.6294333501 2.5856735849
C 0.7004646789 1.3563008649 1.2614815203
Cl 1.3756480045 0.9295291047 5.1951642200
O -0.3814388829 -1.5717008796 -0.8094373235
H -2.3506952594 1.0532538133 -2.8912127112
H -1.4655355499 -0.4805080783 -2.9267309993
H -0.6145044706 1.0599074710 -3.1486124342
H -0.9310878011 1.7000804895 -0.8536698094
H -2.2307911661 0.2392127430 0.7999937705
H -3.8933896655 1.5068827127 -1.4799846284
H -4.4067563159 1.2210464462 0.2496207392
H -3.4667893443 -0.9446725741 -1.7802451174
H -3.9886649751 -1.2632264546 -0.0577834706
H 1.1006745018 -0.2678258466 -2.4866176915
H 1.4454635242 1.1769085441 -1.5043235444
H 3.6309353331 1.0846293339 -0.2107880452
H 4.0191469765 -3.0702417853 0.0591379802
H -0.0234223556 -1.9413072860 1.5253283801
H 0.5543232578 -1.4836763191 3.8817907289
H 1.3161127520 2.6286561400 2.8874342635
H 0.7546601339 2.1685768475 0.5431163908
H 0.4251354952 -2.1129595367 -0.7642642791
