73
CONF502
C 1.0228952938 3.1972852209 0.0417465492
C -0.4780240966 3.2351164446 -0.1385613712
O -0.7670499160 2.5243765499 -1.3696398280
C -2.1469590012 2.3997090322 -1.6688340221
O -2.8658682835 1.6893469365 -0.6719489792
C -2.6043885634 0.2819429978 -0.6270701293
C -3.6024132177 -0.4848571845 -1.4929222736
O -3.3448144174 -0.1779663208 -2.8601055465
C -3.5133737596 -1.9932702062 -1.2489800775
O -4.4748957845 -2.6797672263 -2.0521642210
C -3.6795180072 -2.2928187478 0.2404570919
C -3.4595501190 -3.7545040302 0.5771131677
O -3.6992101165 -4.0272170676 1.9567437871
O -2.6795475917 -1.5566939482 0.9691669574
C -2.8181348027 -0.1576106226 0.8299540384
O -1.9683760471 0.4778014462 1.7638209762
C -0.6171600640 0.2821025966 1.8016976088
C 0.0288340780 1.1037888019 2.7304812836
C 1.4020184975 1.0122774029 2.8750816345
O 2.0176616703 1.7931264282 3.7768074884
C 2.1582848035 0.0980576621 2.0878002483
C 3.5645090631 -0.0961368431 2.3187889209
O 4.2082884920 0.5671270175 3.1553780503
C 4.2187315390 -1.1928677920 1.5211057193
C 3.5360511716 -1.3545793459 0.1695516574
O 2.1060414709 -1.5973983145 0.3649794265
C 1.4620790308 -0.7022281433 1.1525369034
C 0.0832130468 -0.6303398061 1.0071618901
C 4.0810252101 -2.4887289815 -0.6445428390
C 4.7805862164 -2.2371012721 -1.8237235308
C 5.3317114758 -3.2773930867 -2.5655461567
C 5.1689515849 -4.5931356162 -2.1307000500
O 5.6760456854 -5.6614994742 -2.8110912380
C 4.4604652020 -4.8614480764 -0.9560015267
C 3.9287082521 -3.8129528742 -0.2205256916
C -2.8047787667 3.7740500209 -1.7930761908
O -2.3221012688 4.4448132940 -2.9628100669
C -2.5342178932 4.6065224069 -0.5386638135
O -3.0646082408 5.9282399666 -0.6673647181
C -1.0379188420 4.6523179994 -0.2384277243
O -0.7905574542 5.3098850585 1.0047176958
H 1.5198887945 3.7254798684 -0.7786650806
H 1.3707024379 2.1603616841 0.0600282349
H -0.9755978351 2.7240802519 0.6959069765
H -2.1807166648 1.8733302145 -2.6275805255
H -1.5794503756 0.0745350061 -0.9560406511
H -4.6179458979 -0.1494252608 -1.2131142583
H -2.5319232616 -2.3542572951 -1.5829310530
H -5.3591310572 -2.4126431246 -1.7612787772
H -4.6826629619 -1.9795115260 0.5798441251
H -2.4368673693 -4.0389714250 0.2857713863
H -4.1661417855 -4.3607782257 0.0047637611
H -3.0646939938 -3.5072615364 2.4667635486
H -3.8244913112 0.1602255116 1.1439137890
H -0.5416344176 1.8079022180 3.3245385956
H 2.9814279042 1.5396786376 3.7482592694
H 4.1416281415 -2.1264131298 2.0959651766
H 3.6247463381 -0.4157252729 -0.3949533992
H 4.9018108439 -1.2144555412 -2.1700820427
H 5.8786713322 -3.0700573536 -3.4813548074
H 6.1422184628 -5.3526259266 -3.5996677915
H 4.3378805323 -5.8901263659 -0.6329573289
H 3.3802671100 -4.0292990514 0.6915010847
H -3.8829652471 3.6525991525 -1.9361718152
H -1.3589213143 4.3495350261 -2.9864963223
H -3.0486180131 4.1502459909 0.3155563512
H -2.7808264132 6.2533118891 -1.5353120029
H -0.5165551605 5.1831032957 -1.0547501885
H -1.2985818505 6.1329538932 0.9875059387
H 1.2985909605 3.6706211102 0.9869281953
H 5.2803065241 -0.9690590338 1.3854051186
H -3.9347889267 -0.7355251214 -3.3869946973
H -0.4044770386 -1.2857488044 0.3015237677
