30
CONF1
N 5.5165769073 -0.4721181571 0.6029896805
C 4.1708678892 -0.2598665461 0.5481984678
N 3.7529673577 0.8918959750 1.1399941186
C 2.4566295945 1.1480998792 1.0636023802
N 1.9635641203 2.2597712278 1.6541580564
C 1.5623145625 0.2571686535 0.3853268522
N 0.2570312608 0.5522889038 0.2768685095
C -0.5235740779 -0.2902796507 -0.3744076295
C 0.0376377592 -1.5223957677 -0.8800206282
N -0.7633391977 -2.4535590904 -1.4871726616
N 1.3248687063 -1.8152388897 -0.7863910053
C 2.1294766293 -0.9186116531 -0.1728520919
N 3.4475008412 -1.1802961839 -0.0899546685
C -1.9543505869 0.0569107955 -0.4995090142
C -2.6557811420 -0.1021342251 -1.7027830335
C -3.9940756168 0.2663365729 -1.7938651828
C -4.6545325622 0.7932274714 -0.6881001045
C -3.9633971118 0.9630110075 0.5095875433
C -2.6259466340 0.6022896160 0.6027679773
H 5.8468804409 -1.3877619669 0.3519529034
H 6.0512854100 0.0815314611 1.2488534500
H 1.0102523757 2.5135053145 1.4539525806
H 2.6128823105 2.9558181190 1.9772979485
H -1.7505667464 -2.4299412917 -1.2890672815
H -0.3427324279 -3.3635825292 -1.5962906780
H -2.1407719441 -0.4815348563 -2.5796849304
H -4.5188898484 0.1514631103 -2.7370244539
H -5.6999523737 1.0750235269 -0.7600610344
H -4.4714748414 1.3753163253 1.3756907598
H -2.0813506730 0.7336629542 1.5316016801
