33
CONF5
C -5.2632040912 0.0552329656 -0.1033629061
C -3.7615297082 -0.1815628702 -0.2094773988
C -3.3877411845 -0.4000171194 -1.6737184704
O -2.9697008781 0.4544455898 -2.4200249059
O -3.6351274554 -1.6717435927 -2.0392453469
O -3.1198701159 0.9802445094 0.3001219295
C -1.7574883381 0.9462520494 0.4752566015
C -1.1858314696 2.1345489255 0.9405109987
C 0.1796649611 2.2160157239 1.1559032595
C 0.9824927688 1.1040808972 0.9108936120
C 0.4273153264 -0.0823781487 0.4555071219
C -0.9490712517 -0.1625632808 0.2330084375
O 2.3386470785 1.2596830894 1.1795300739
C 3.2060037882 0.3175290569 0.6804317386
C 3.5648496130 0.2983383472 -0.6706047902
C 4.4924504931 -0.6187881448 -1.1498548167
C 5.0616285971 -1.5126476539 -0.2508286507
C 4.7318783750 -1.5091069580 1.0989183136
C 3.7962830218 -0.5880486684 1.5545608413
Cl 6.2363453520 -2.6723790891 -0.8476989240
Cl 2.8558286073 1.4510293615 -1.7726613938
H -5.5295438337 0.2122029217 0.9443698219
H -5.8063567754 -0.8139425831 -0.4807403559
H -5.5472688161 0.9375885730 -0.6833630456
H -3.4817424036 -1.0693312593 0.3727690907
H -3.4482357834 -1.7614511301 -2.9898875149
H -1.8254475640 2.9915801879 1.1235893730
H 0.6323993222 3.1361461048 1.5099637621
H 1.0490115160 -0.9507223889 0.2662203394
H -1.3553419700 -1.1011019675 -0.1254648345
H 4.7673748862 -0.6251422719 -2.1975551220
H 5.1907843373 -2.2130001739 1.7828717263
H 3.5105435948 -0.5609908067 2.6007827267
