67
CONF1
C 1.0958096285 1.8240416086 -0.5824746683
C 0.5297218428 2.7289930579 -1.7027993791
C -0.9565757655 2.3134588415 -1.8836156741
C -1.2140898344 1.3568839879 -0.7160364367
C -2.4298079908 0.4376674626 -0.7510585533
C -3.7220072754 1.2244049168 -0.9915640801
C -4.9618963533 0.3361587564 -0.8894422109
C -4.9586955672 -0.3500396740 0.4655075726
N -6.1913187320 -1.1044944080 0.6957972195
C -6.3498916590 -1.8633279939 1.8112310992
O -7.4433225513 -2.3318443366 2.1593272884
C -5.1035515980 -2.1374036030 2.5582526081
C -3.8954740402 -1.8814531438 2.0391003887
C -3.7297911800 -1.2629703916 0.6710318172
C -3.6757744448 -2.4280584137 -0.3398178302
C -2.4698635894 -0.3544194371 0.5816709055
C -1.1489598001 -1.1041924013 0.8147307329
C 0.0743267732 -0.1743092543 0.7689658764
C 0.1218477998 0.6011067385 -0.5481606960
C 0.4387939859 -0.3373997700 -1.7213219065
C 2.5431305908 1.4290279311 -0.7809433243
O 3.1230807149 1.4535713783 -1.8587432795
N 3.1481150620 0.9921110297 0.3852074095
C 4.4408021552 0.4795321556 0.5268715984
C 5.0688435300 -0.1939056739 -0.5243673205
C 6.3444015560 -0.7168505234 -0.3505755970
C 7.0235566387 -0.5956518340 0.8565340393
C 6.3995790669 0.0610434052 1.9081541167
C 5.1280070721 0.6040061827 1.7541961419
C 4.5032723848 1.3402057096 2.9049391920
F 3.3160483489 0.7785273575 3.2869420691
F 4.2244526696 2.6324744983 2.5908920585
F 5.2870760218 1.3612364425 3.9977667847
C 6.9939151623 -1.3982744262 -1.5224381205
F 7.4717252262 -0.4947921763 -2.4196975374
F 6.1244031058 -2.1883284256 -2.1974812243
F 8.0369433385 -2.1743393521 -1.1558756434
H 1.0017845678 2.3308257976 0.3868058774
H 1.1007220379 2.5858125126 -2.6228928109
H 0.6260515162 3.7812713206 -1.4223977652
H -1.1086037218 1.8017820585 -2.8408905157
H -1.6275580294 3.1763265769 -1.8671621374
H -1.3178205295 1.9776513028 0.1904582086
H -2.3119894665 -0.2716095555 -1.5822684425
H -3.7955271074 2.0316177529 -0.2478725108
H -3.6847083376 1.7013982734 -1.9768092096
H -4.9711883496 -0.4097881304 -1.6933803787
H -5.8718903814 0.9398471192 -0.9933864292
H -4.8826684907 0.4382706829 1.2359625058
H -7.0352504548 -0.8075133433 0.2239071961
H -5.2262974775 -2.6328118332 3.5158733924
H -3.0054919902 -2.1904913337 2.5822935062
H -4.6476047901 -2.9267978558 -0.3913261299
H -2.9357295627 -3.1684166697 -0.0241808449
H -3.4070663495 -2.0877800347 -1.3430179612
H -2.5711026182 0.3931432488 1.3867346877
H -1.0340002077 -1.8937357435 0.0639367423
H -1.1620401734 -1.6053144207 1.7879870055
H 0.0153393709 0.5414715454 1.6017831538
H 0.9857700079 -0.7687961039 0.9111260032
H -0.3363450952 -1.0932326248 -1.8647669684
H 1.3805951935 -0.8653552135 -1.5323487359
H 0.5500643799 0.2090163132 -2.6614282219
H 2.6058016849 1.1122475751 1.2279166825
H 4.5488997026 -0.3142361735 -1.4639321775
H 8.0170719354 -1.0069269099 0.9840931995
H 6.9139512264 0.1597277391 2.8559489205
