82
CONF55
C -2.4764895364 2.7187740115 -2.1778447448
C -1.7370160671 2.5899443186 -0.8749585483
C -0.5824697139 3.2369036517 -0.6690983118
C -2.3650673943 1.7669219553 0.2245061156
C -3.5687677707 2.4815353349 0.8711924977
C -4.1435848185 1.3984732436 1.7786073577
C -4.0412010899 0.0885091107 0.9560094712
C -2.9752373576 0.3881229713 -0.1552848968
C -2.0641746582 -0.8238807784 -0.4642091334
C -1.1073919353 -0.5439270576 -1.6266203949
C -0.0681662154 -1.6485762447 -1.7412070228
C 0.9032205286 -1.6676220552 -0.5396722920
C 2.2452686658 -0.8741570887 -0.9014402621
C 2.0433341381 0.4051781013 -1.7516374015
C 3.3661268351 1.1024601888 -2.0866278475
C 4.1632444722 1.5181365896 -0.8509054509
C 4.3360580573 0.3585198742 0.1568247714
C 2.9977216823 -0.4340179170 0.3865986655
C 2.0576097712 0.3683915275 1.3292469854
C 0.5530041245 0.1273327118 1.1708282108
C 0.1985561921 -1.3190055172 0.8276828363
C -1.3713015521 -1.5559532238 0.7528050234
C -2.1002334274 -1.1216836118 2.0487933991
C -3.6166503520 -1.0871106683 1.8517862958
C -1.6313563962 -3.0830469049 0.6143539888
C 0.7803996052 -2.2211568196 1.9380051062
C 5.4672392767 -0.5488325701 -0.3776183124
C 4.8671510458 0.8990152153 1.4986088374
O 3.5279153264 2.6447744841 -0.2026120597
C 3.0371201276 -1.9139074169 -1.7286569299
C -5.4197160326 -0.1757419417 0.3376519583
O -5.4381304395 -1.1908328815 -0.6769710438
H -2.4882338899 1.7660232785 -2.7182810843
H -2.0088006207 3.4702399922 -2.8188055914
H -3.5236990441 2.9998035852 -2.0181693154
H -0.0441466290 3.1444418190 0.2712029363
H -0.1442390684 3.8733232309 -1.4337592323
H -1.6190609781 1.6400511895 1.0151543194
H -3.2697852863 3.3885304227 1.4062007195
H -4.2963669007 2.7659550569 0.1012413054
H -3.5302267364 1.3187956688 2.6842035528
H -5.1728209458 1.5985752875 2.1005317063
H -3.5339731655 0.5553750024 -1.0869080777
H -2.7746543991 -1.5645218884 -0.8532276346
H -1.6887451072 -0.4713228154 -2.5548482592
H -0.6118930616 0.4210269394 -1.4999007103
H 0.4909730913 -1.5475055805 -2.6753343859
H -0.5907470413 -2.6079323863 -1.8224543784
H 1.2423027425 -2.7052861916 -0.4278607534
H 1.4106405871 1.1199670455 -1.2157835404
H 1.5321414728 0.1743637302 -2.6917101499
H 3.9936334147 0.4659728588 -2.7191900443
H 3.1642666351 2.0013763103 -2.6847825355
H 5.1733705332 1.8322169570 -1.1642808711
H 3.3008997114 -1.3545545177 0.9039875919
H 2.3501779626 0.1522795695 2.3625362162
H 2.2279902192 1.4357251939 1.1836364915
H 0.1573055318 0.7822632452 0.3937224006
H 0.0709218616 0.4330668873 2.1055382181
H -1.8501929550 -1.8106818971 2.8621115037
H -1.7784641356 -0.1281933432 2.3757255704
H -3.9490096358 -2.0440919532 1.4299844513
H -4.1263700266 -0.9912112552 2.8190527486
H -1.4977499725 -3.5928245168 1.5730628622
H -0.9636748007 -3.5606464857 -0.1055871845
H -2.6558093837 -3.2762473178 0.2837603081
H 0.3148783509 -2.0056279697 2.9057713346
H 1.8533425925 -2.0630275959 2.0537052910
H 0.6373290134 -3.2811019855 1.7160656860
H 5.4903369003 -1.4927806274 0.1764260781
H 6.4322060323 -0.0507457653 -0.2342152937
H 5.3801171487 -0.7824219940 -1.4377486017
H 4.1792412751 1.5823904021 1.9944763286
H 5.8070359449 1.4364995896 1.3295180410
H 5.0747174219 0.0629586559 2.1775382767
H 3.4345733809 3.3346584072 -0.8715235552
H 3.8463691897 -1.4901614526 -2.3198658528
H 2.3653431380 -2.4172014018 -2.4317370685
H 3.4642129450 -2.6789924313 -1.0712379439
H -6.1343329297 -0.4254970187 1.1387596190
H -5.7741173259 0.7343315081 -0.1609060655
H -5.2042299480 -2.0311737868 -0.2639314697
