17
CONF5
C -1.8166312215 0.9677871220 0.6496880478
C -1.1189446664 -0.3518150368 0.3100127733
C -0.8985297885 -0.5085123178 -1.2064646534
C 0.2088585251 -0.5387411819 0.9962060533
O 0.6832677646 -1.5478297300 1.4340046804
O 0.9016888621 0.6876070806 1.0042288617
O 2.1602094084 0.5688425893 1.6214486567
N 3.1778100184 -0.0016882483 0.6033696889
O 2.7603817048 -0.2435419231 -0.4795685050
O 4.2417238855 -0.0915291531 1.1253633724
H -1.2762583064 1.8219473045 0.2335721097
H -2.8196534100 0.9541835347 0.2146851416
H -1.9115059514 1.1041251985 1.7304686499
H -1.7241552715 -1.1922780499 0.6659054451
H -0.4118284910 -1.4585347396 -1.4434737448
H -1.8705527540 -0.4810761390 -1.7065324461
H -0.2858808006 0.3110535948 -1.5932401243
