61
CONF16
C -1.8724480943 -2.8829912633 -2.8824628328
C -1.2995574931 -1.6431105068 -2.2046859420
C -1.7468423309 -1.3973468779 -0.7802343463
C -2.5228578614 -2.3186491644 -0.0854566036
C -2.9314105860 -2.0890144977 1.2315371813
C -2.5495329047 -0.9024476104 1.8451658923
C -1.7734520485 0.0532873996 1.1828272702
C -1.3632736597 -0.2023731382 -0.1342019950
C -0.4800955406 0.7443775187 -0.8352448642
C -0.8327853238 2.0004541537 -1.4911269104
O -1.9024853508 2.5898495234 -1.6044710892
N 0.3632545396 2.4435456191 -2.0739879509
N 1.4251456387 1.5758030698 -1.7895986867
C 0.8552212750 0.5936223053 -1.0128934132
O 1.6298035549 -0.4519855190 -0.5920108899
C 1.9237074712 -0.4744813479 0.7763804875
O 1.8526699028 0.5153911481 1.4512535050
C 2.3112536153 -1.8697295429 1.2208150413
C 2.7548546667 -1.8064128651 2.6836806325
C 3.4492882298 -2.4060022499 0.3359844795
C 1.0635268741 -2.7647904250 1.0788018306
C 2.7107752889 2.1791549967 -1.4009206370
C 2.5828996532 3.3440158127 -0.4167653193
O 2.3466429843 4.5894658435 -1.0643259582
C 1.0085969176 4.7711072095 -1.5130882860
C 0.5745929922 3.7777224378 -2.5909180329
C -1.4386077426 1.3410332824 1.8899977478
C -2.5846680232 2.3583983985 1.7905339106
C -3.7850284475 -3.0992948541 1.9484422836
H -1.5657465541 -3.8029500212 -2.3741606411
H -2.9664941467 -2.8568995226 -2.9059923006
H -1.5173207917 -2.9428060263 -3.9150907587
H -0.2022718398 -1.6976151036 -2.2246332439
H -1.5508570454 -0.7532958391 -2.7960872561
H -2.8261230870 -3.2420514772 -0.5688403096
H -2.8598857947 -0.7056032498 2.8692623078
H 1.9513535110 -1.4288048530 3.3206137577
H 3.6195549606 -1.1484932951 2.8065373358
H 3.0290158864 -2.8097216465 3.0227326135
H 3.1463667257 -2.4720808580 -0.7112538183
H 3.7241606778 -3.4078831830 0.6801047719
H 4.3376764899 -1.7695958178 0.4053357979
H 0.7597530457 -2.8596150745 0.0338538761
H 0.2156410472 -2.3590698376 1.6402841737
H 1.2970098238 -3.7605404323 1.4692327150
H 3.2334254935 2.5233449378 -2.3002731166
H 3.3011417649 1.3690313717 -0.9630389440
H 1.8059723028 3.1225684317 0.3320368084
H 3.5374562115 3.4624343777 0.1060046321
H 0.3041950544 4.7058945540 -0.6678441263
H 0.9718916737 5.7862389903 -1.9217965648
H -0.3979562268 4.0894090461 -2.9881133131
H 1.2951192815 3.7526341743 -3.4165249953
H -0.5244803646 1.7696292984 1.4691462065
H -1.2293964038 1.1229816530 2.9441117494
H -2.3242915724 3.2844675900 2.3135323043
H -3.4979612228 1.9570635789 2.2417713046
H -2.7940820457 2.5950628130 0.7438269830
H -4.8138577899 -3.0762781764 1.5707620849
H -3.4077050232 -4.1158310326 1.7989856811
H -3.8204929478 -2.9002240202 3.0224872032
