51
CONF1
C 3.0223116913 2.5982307637 1.5923236245
C 3.2321543183 2.7431483560 0.0965197138
C 3.4958409586 4.1717331292 -0.3315716898
O 1.9960266733 2.3561994292 -0.6017944095
C 1.7131706711 1.0596116349 -0.7528378675
N 2.6014282614 0.1328459711 -0.4021104746
C 2.2042650852 -1.1311527043 -0.6106228529
C 0.9841838427 -1.4935485654 -1.1223685237
C 0.1266811909 -0.4132981874 -1.4181257976
N 0.4937856511 0.8477772212 -1.2709243651
O -1.0993562383 -0.7349117884 -1.8393068522
C -2.1287732572 0.3037919118 -1.9570710299
C -3.2796219824 -0.0580058398 -1.0634092816
C -4.4989209221 -0.4311098966 -1.6311140309
C -5.5834190631 -0.7821995985 -0.8326362211
C -5.4489441759 -0.7729905611 0.5524724215
C -4.2365663324 -0.4050974491 1.1285253815
C -3.1447686558 -0.0400952601 0.3375582480
C -1.8729084787 0.3671634769 0.9862170631
C -1.4442479479 1.6493956539 0.9906870282
O -2.1499709507 2.6292824162 0.4262800656
C -1.5005339618 3.9248087975 0.4145918646
C -0.9770862737 -0.6085479733 1.6160078008
O 0.0754136890 -0.3509695914 2.1841354718
O -1.4380954357 -1.8732586076 1.4722084017
C -0.5991190139 -2.9047923003 2.0391089920
C 3.2174846225 -2.1711104090 -0.1817848367
F 3.4449337135 -2.1033897610 1.1511814646
F 4.4065621786 -1.9874733061 -0.7981529135
F 2.8072049144 -3.4258108223 -0.4579452296
H 2.1980733126 3.2402597338 1.9204475685
H 3.9317594836 2.9054162773 2.1174964843
H 2.8000447920 1.5633712696 1.8644022756
H 4.0325520989 2.0830024774 -0.2495535085
H 2.6706708413 4.8227800967 -0.0255952390
H 4.4130579198 4.5274775805 0.1458138898
H 3.6190990304 4.2386347183 -1.4157691240
H 0.6701702703 -2.5188650005 -1.2592350701
H -1.6937513484 1.2708293906 -1.7046154522
H -2.4363221632 0.3048909462 -3.0051802301
H -4.5955744170 -0.4474951478 -2.7132095502
H -6.5250477702 -1.0676176196 -1.2907070625
H -6.2863959589 -1.0487772062 1.1856883691
H -4.1291706514 -0.3927888436 2.2091288640
H -0.4955163002 1.9182778094 1.4536952926
H -2.2129763177 4.6134606184 -0.0378609963
H -1.2703982804 4.2372915240 1.4375126097
H -0.5871781045 3.8751566082 -0.1853915672
H 0.3935399781 -2.8818443843 1.5812698304
H -0.5067787532 -2.7686094232 3.1195948557
H -1.1036692865 -3.8435341326 1.8125254761
