27
CONF81
C 3.1672850947 -0.9675087015 0.6127747165
C 3.9914020771 0.0580964904 -0.1690278570
C 5.4209708388 -0.4290071983 -0.3786989972
O 6.2330264791 0.5209475861 -1.0683847156
C 1.7891944854 -0.4886658481 1.0884232442
C 0.7647236471 -0.3582753085 -0.0182751965
C -0.6499918026 0.0370101843 0.5062919028
C -1.8126641418 -0.0764281167 -0.5341929556
C -3.1017856388 0.7156844721 -0.1394600904
F -4.1004134450 0.3566701841 -0.9586358644
F -2.9103996454 2.0343672740 -0.2565730036
F -3.4585149481 0.4347036501 1.1227843245
F -2.1570601718 -1.3776456746 -0.6579693932
F -1.4089249279 0.3873608277 -1.7384194011
F -0.5840424058 1.3183588616 0.9569727561
F -0.9646910323 -0.7640958122 1.5577131599
F 0.6331152220 -1.5411483744 -0.6984329384
F 1.1394140944 0.5925718714 -0.9275713966
H 3.0495267007 -1.8863122467 0.0268195938
H 3.7253157394 -1.2506158003 1.5141072773
H 3.5316538122 0.2561570122 -1.1437227433
H 4.0194393924 1.0132765058 0.3699642506
H 5.4173695097 -1.3991048951 -0.9030560355
H 5.9119942783 -0.5840662802 0.5886776633
H 1.8653099134 0.4834143752 1.5882303544
H 1.3866198168 -1.2001661268 1.8148740385
H 5.8544646393 0.6549091610 -1.9441708587
