36
CONF102
C 4.0503666657 2.4693153608 -1.8386939125
C 2.6299582125 2.3244774707 -1.2761233799
C 2.1969854358 0.8929994148 -1.1945268446
C 1.1507664929 0.3669900315 -1.8336751865
C 0.7293689418 -1.0686973649 -1.7450956886
C -0.6827826899 -1.2383397662 -1.1702843404
C -0.9738245384 -0.5950579394 0.1923269611
C -2.5120009096 -0.5479177685 0.2401721216
C -2.9028088217 -0.1455644342 -1.1853936693
C -1.7974609835 -0.7042654440 -2.0612181168
O -1.7939235628 -0.7182186389 -3.2780756920
C -0.3308271603 -1.3381828677 1.3639500183
C -0.6294178994 -0.6378040922 2.6634569794
O -0.3184728392 0.5117356152 2.9117081997
O -1.3016550420 -1.4251178837 3.5232046771
C -1.6425771716 -0.8179239549 4.7961655791
H 4.7685556495 1.9098957113 -1.2297044947
H 4.3614705454 3.5185284025 -1.8509811502
H 4.1026794271 2.0830997995 -2.8617138497
H 1.9209322079 2.8894080206 -1.8925704399
H 2.6041349990 2.7666387227 -0.2704095469
H 2.8108624829 0.2412145180 -0.5678456030
H 0.5337911917 1.0165263264 -2.4587317360
H 1.4425724332 -1.6290908821 -1.1304806381
H 0.7352011731 -1.5243778958 -2.7440160872
H -0.9002092656 -2.3181612544 -1.0866709065
H -0.5889141307 0.4333117517 0.1763914919
H -2.8875950632 0.1446264005 0.9986903255
H -2.8988533909 -1.5484351344 0.4710736188
H -2.8747309270 0.9466679361 -1.3077999243
H -3.8869930589 -0.4845792630 -1.5201685787
H -0.6821879864 -2.3733887038 1.3967983066
H 0.7595193975 -1.3439710541 1.2447229924
H -2.2793940439 0.0552504431 4.6363641511
H -0.7345412311 -0.5229757543 5.3271447179
H -2.1779942329 -1.5886164373 5.3489332443
