28
CONF103
O -1.6137328226 2.3561702495 -1.3067012539
C -2.2221774985 1.2127693942 -1.9045464560
C -1.9146930113 -0.0737999988 -1.1677799726
O -0.4973014326 -0.3221809659 -1.2866385850
C -0.0345884755 -1.0476778624 -0.1538469968
C -1.1443328332 -1.0113379277 0.9103208596
C -2.2109895000 -0.0661178805 0.3409184157
O -3.5539969330 -0.4287382266 0.6395611743
N 1.2678473138 -0.4923702491 0.2631243665
C 2.3940996327 -1.2747816559 0.1878340943
C 3.6187473961 -0.8475828206 0.5646589652
C 3.7915075312 0.4907232080 1.0660712308
O 4.8433218022 1.0003906285 1.4428354705
N 2.5989538082 1.2310847423 1.0939626937
C 1.3398284529 0.8234551186 0.7146939472
O 0.3650698095 1.5643856630 0.7759818003
H -0.7734307418 2.0728235504 -0.9120898378
H -3.3072927939 1.3685224080 -1.8942739641
H -1.9038349508 1.1040893626 -2.9524523646
H -2.4744598742 -0.8991545587 -1.6403641757
H 0.1895382716 -2.0792930910 -0.4472532538
H -0.7727044965 -0.6966897778 1.8866059015
H -1.5662633356 -2.0164563573 1.0118127122
H -2.0844597116 0.9413303840 0.7391676306
H -3.7089310832 -1.3234065147 0.3070892704
H 2.2329526799 -2.2765819133 -0.1959530442
H 4.4805504066 -1.4964042173 0.4915823282
H 2.6607729823 2.1868299171 1.4256790541
