38
CONF5
C -3.1258193283 -0.6967226102 1.3497820357
N -2.0421206926 -0.1965520314 0.4842223809
C -2.1726395065 0.9072478450 -0.3413138384
N -1.1392871414 1.6480641374 -0.6798003490
C 0.1180664451 1.2741900017 -0.3112656287
O 1.0935793861 2.0079656401 -0.4622622375
N 0.2878935108 -0.0409301876 0.1891485057
C -0.7797311091 -0.7504354738 0.7087752142
O -0.6613845182 -1.7860788462 1.3523938884
C 1.6405621908 -0.6348419085 0.3558333646
C 2.4469944254 -0.6321500661 -0.9444524964
C 3.7604634406 -1.3910998682 -0.7238137326
C 4.5606466209 -0.7822686185 0.4304959156
C 3.7355704568 -0.7646134472 1.7194988509
C 2.4149975669 -0.0132263597 1.5206328103
N -3.4085345060 1.2497832327 -0.7680932702
C -4.4187663540 0.2498914794 -1.1386484210
C -3.5944896203 2.5569776818 -1.3995718537
H -3.9152747214 0.0524901868 1.3900827632
H -3.5291004222 -1.6455150043 0.9878810096
H -2.7188367627 -0.8459915795 2.3510389222
H 1.4432967223 -1.6797770688 0.6131615173
H 2.6650053194 0.3944173386 -1.2515584343
H 1.8580478332 -1.1042208697 -1.7398872180
H 3.5415145996 -2.4436600042 -0.4958882837
H 4.3501650426 -1.3788953692 -1.6472768842
H 5.4897177141 -1.3433214884 0.5841075133
H 4.8448413940 0.2467345788 0.1691940569
H 3.5225530159 -1.7982879585 2.0263063250
H 4.3047176220 -0.3008889432 2.5330535422
H 2.6161880538 1.0408559294 1.3039459675
H 1.8042853898 -0.0602807294 2.4301473118
H -4.0330078002 -0.7614719700 -1.0195868028
H -4.6663050347 0.3919061881 -2.1964128192
H -5.3310411976 0.3679336970 -0.5447389688
H -4.6597667182 2.7981882231 -1.3571444789
H -3.0301728503 3.3187453419 -0.8616401297
H -3.2728282599 2.5458388901 -2.4488109399
