46
CONF71
C -3.4445786721 -1.5188185200 1.1305507304
C -2.0865120918 -2.0177182113 1.5665802557
C -0.9318150245 -2.0303417021 0.5894809424
C -0.9172062089 -1.0612150556 1.7890379395
C -0.9872596958 0.4134775511 1.7368024336
O -0.4370854320 1.1223579684 2.5595245601
O -1.7192632133 0.9101630322 0.7130844605
C -1.7685880803 2.3535364424 0.6034960385
C -0.4748615436 2.9344382807 0.0934638687
C 0.4385139571 2.1389124377 -0.5905223912
C 1.6308788053 2.6949991553 -1.0441875014
C 1.9078276238 4.0470030652 -0.8674950555
C 0.9747702933 4.8397550667 -0.2052186801
C -0.2053911043 4.2905877844 0.2889131510
O 2.5636771017 1.9449201909 -1.7339802299
C 2.6692940863 0.5921807496 -1.4377328662
C 2.7296467698 -0.2934752005 -2.5070014854
C 2.9065384178 -1.6515374219 -2.2530102329
C 3.0140024437 -2.1162199005 -0.9447539043
C 2.9500539136 -1.2140389074 0.1162812851
C 2.7818133907 0.1463640154 -0.1222289084
C -1.0693595240 -1.5725889752 -0.7956736263
C -0.7193278376 -2.2881097031 -1.8654026031
Cl -0.8929046440 -1.6718608305 -3.4892232770
Cl -0.0788478550 -3.9063722598 -1.7981487986
C -2.1566915140 -3.1720447861 2.5433463729
H -3.3954551718 -0.7342494605 0.3776540154
H -4.0123132077 -2.3589803167 0.7162705607
H -3.9963802994 -1.1335361076 1.9947815912
H -0.2356813738 -2.8534716090 0.7233514622
H -0.2353376939 -1.3651962073 2.5764311701
H -2.0303418629 2.7883327376 1.5720692132
H -2.5840530956 2.5365792201 -0.1022397172
H 0.2408138490 1.0861036326 -0.7536857426
H 2.8419679031 4.4577393540 -1.2352887048
H 1.1842192501 5.8939341793 -0.0531281893
H -0.9119855034 4.9116097218 0.8315358339
H 2.6362143494 0.0846662947 -3.5196635285
H 2.9487485185 -2.3484172770 -3.0841937012
H 3.1430807809 -3.1758562965 -0.7517628213
H 3.0376145963 -1.5676831840 1.1390196911
H 2.7344145098 0.8546060146 0.6985775366
H -1.4927671374 -0.5942399177 -0.9912190512
H -2.6976271528 -4.0111563377 2.0925021809
H -2.6926263668 -2.8679871479 3.4493003900
H -1.1598279622 -3.5171515537 2.8307289294
