43
CONF12
C 3.6282118522 -2.9942784997 0.3918975486
C 3.0904733401 -2.6493965954 -0.9808018450
O 2.2296994102 -1.4819177882 -0.9479930710
N 1.0298846290 -1.8231233981 -0.3429955172
C 0.2499012843 -0.8264652556 -0.1741541016
C -1.0685039747 -0.9910952675 0.4556729043
C -1.1738286866 -1.4938465789 1.7721908829
C -2.4141702944 -1.5237145520 2.4107694457
C -3.5430693667 -1.0483622274 1.7535437031
C -3.4503242451 -0.5630583421 0.4600202210
C -2.2199149283 -0.5341749305 -0.2082571094
O -2.1885785075 -0.0187772404 -1.4655881404
C -1.6212773009 -0.8463804599 -2.5096461442
Cl -4.8929460162 -0.0012314396 -0.3630752696
O -0.0196113536 -1.8882370474 2.3557532544
C -0.0712727560 -2.3179186070 3.7248026245
O 0.5709857954 0.4240258960 -0.6877199929
C 0.4241185722 1.5229547916 0.1308955418
O 0.3103038511 1.4281691292 1.3310657302
C 0.4516133463 2.7805504240 -0.6396749546
C 0.4778881052 3.9840663745 0.0752756471
C 0.4909890689 5.1934235598 -0.6054806951
C 0.4735676385 5.2082670758 -2.0000570755
C 0.4438337408 4.0116318080 -2.7140420697
C 0.4348479694 2.7967097589 -2.0396870990
H 4.1713046443 -2.1458174448 0.8187321977
H 2.8163017764 -3.2731896303 1.0695432256
H 4.3163679164 -3.8419409404 0.3122373415
H 3.8921553474 -2.3523560805 -1.6626890518
H 2.5362054135 -3.4843424796 -1.4244188706
H -2.5156169749 -1.8989288272 3.4202253064
H -4.5062034632 -1.0716026201 2.2510910226
H -2.1227704912 -0.5442373449 -3.4306260898
H -1.8199325179 -1.9026841040 -2.3059413983
H -0.5453510927 -0.6770685611 -2.6098590685
H -0.4515024769 -1.5190363825 4.3711202764
H -0.6928218442 -3.2139078615 3.8302552566
H 0.9590131619 -2.5513544714 3.9929065094
H 0.4898303859 3.9563849696 1.1592981552
H 0.5141638383 6.1259046031 -0.0511782611
H 0.4820514368 6.1548987167 -2.5311843997
H 0.4267036214 4.0257504383 -3.7988308451
H 0.4072800394 1.8657080358 -2.5933956510
