59
CONF4
C 7.1254516643 2.7022880843 -1.7367987407
C 5.9328642899 2.3356382781 -0.8565143033
C 5.2745663506 1.0211855302 -1.2737887265
C 4.0733179864 0.6488738276 -0.4066657736
C 3.4235005770 -0.6669116808 -0.8346292604
C 2.2261056339 -1.0551127757 0.0282213783
C 1.1139924734 -0.0499861378 -0.0590607761
C 0.3950711874 0.3499442941 0.9895052744
C -0.6693831200 1.3992634823 0.9892776586
C -0.3350840581 2.4957040579 2.0527549951
C -1.1622315308 2.0672523428 3.2717186354
C -2.4894547224 1.6303881912 2.6667545442
C -2.0721152579 0.8378000533 1.4023243169
C -3.1153400303 0.8905100851 0.2774190776
C -2.8008569364 -0.0135244755 -0.8731029908
C -3.6486025007 -0.8893111812 -1.4132825250
C -3.3138441457 -1.7851813340 -2.5641415839
C -3.3711099224 -3.2819353321 -2.1989770649
C -2.6476385242 -3.6225756232 -0.8983618130
C -1.2017479021 -3.1971342080 -0.8676781097
O -0.5389182613 -2.9436998312 -1.8617539132
O -0.7152393989 -3.1544154015 0.3782679900
O -3.2138961822 2.8428949484 2.3631314882
O -0.6596000597 3.8056859229 1.6052702474
O 1.7755670482 -2.3891643376 -0.3272342880
H 7.5818338484 3.6455748130 -1.4221031162
H 6.8209915141 2.8104009048 -2.7834293183
H 7.8972213202 1.9261381816 -1.6950081183
H 5.1862657596 3.1397515229 -0.8912423668
H 6.2548436065 2.2616977396 0.1905248533
H 6.0185912587 0.2132211593 -1.2352400963
H 4.9559327450 1.0928878151 -2.3232348224
H 3.3315372341 1.4574540058 -0.4427838404
H 4.3892826701 0.5719944751 0.6433537094
H 4.1554655950 -1.4819654006 -0.7894313493
H 3.0924129943 -0.5941990082 -1.8811935652
H 2.5433879717 -1.1507272318 1.0739750248
H 0.9095895000 0.3658012564 -1.0480419203
H 0.6187417638 -0.0933977233 1.9640490205
H -0.7083283693 1.8794649825 0.0055102824
H 0.7394823257 2.5150111083 2.2628457541
H -0.6919909923 1.2028610864 3.7559242493
H -1.2707728622 2.8644585945 4.0119886073
H -3.0925646801 1.0126760109 3.3469583963
H -1.9542217525 -0.2114130049 1.7056414449
H -3.1702988549 1.9276870336 -0.0856617711
H -4.1077653816 0.6280958397 0.6728269039
H -1.7997098487 0.0713956258 -1.2976555844
H -4.6495508784 -0.9889964463 -0.9858249511
H -4.0148323155 -1.6079883341 -3.3906078897
H -2.3125697543 -1.5429133228 -2.9304048560
H -4.4161464726 -3.5977556303 -2.0939051791
H -2.9429741729 -3.8595113318 -3.0246010056
H -2.6584086420 -4.7074576806 -0.7280503777
H -3.1462463288 -3.1749504027 -0.0330080270
H 0.2401384433 -2.8777587396 0.3141296529
H -4.0359632419 2.6065002083 1.9192714099
H -1.6252897418 3.8787192163 1.6286030298
H 1.3539100576 -2.3618545841 -1.2060189070
