47
CONF162
C -6.2738161096 1.6209889423 0.0558127717
O -5.5459944005 0.6314410381 0.8165260666
P -5.3937191021 -0.8493204846 0.2161522660
S -6.9731783278 -1.8106922696 -0.3144811187
O -4.2871066901 -0.5749709215 -0.9289009346
C -4.0456405741 -1.5738594708 -1.9437766025
O -4.5931031444 -1.5760208890 1.4225819882
C -3.4057866452 -1.0433727870 1.9385567446
C -3.4621439945 -0.1711614791 3.0155169578
C -2.2777306983 0.3187468341 3.5533224541
C -1.0472101750 -0.0818368221 3.0279281464
C -1.0080769996 -0.9789091375 1.9576833486
C -2.1901970150 -1.4509975413 1.4044147988
S 0.4382491764 0.5188115496 3.8196398093
C 1.5500103504 0.7195151140 2.4358190260
C 2.8519565104 0.2300140411 2.5474578402
C 3.7618828040 0.4201327460 1.5120959104
C 3.3476779975 1.0802140994 0.3653090432
C 2.0542169986 1.5707674976 0.2350868325
C 1.1585635499 1.4024065818 1.2804773825
O 4.2629410278 1.3017271099 -0.6665229879
P 4.4916526499 0.1797457661 -1.8178890173
S 2.9099310610 -0.6125918587 -2.5934699013
O 5.5240801009 -0.7942197449 -1.0717000442
C 5.8610278932 -2.0700369657 -1.6639527000
O 5.4762429680 0.9816735903 -2.7977821119
C 4.9257050954 1.8959907655 -3.7724082626
H -5.7482972164 1.8425233258 -0.8782640685
H -6.3102096069 2.5121510039 0.6831600947
H -7.2867363631 1.2647585160 -0.1554666161
H -4.9530287664 -1.7439449832 -2.5297106625
H -3.2505663736 -1.1712520191 -2.5728039815
H -3.7222602346 -2.5177530635 -1.4927829542
H -4.4250890948 0.1315274020 3.4097053526
H -2.3098443707 1.0215098741 4.3794517359
H -0.0557584225 -1.3038850281 1.5530713140
H -2.1731929731 -2.1472872276 0.5734797151
H 3.1512035624 -0.3077233935 3.4407726421
H 4.7771265510 0.0462857376 1.5788225068
H 1.7644206847 2.0798968794 -0.6768170766
H 0.1485544660 1.7890399836 1.1972155810
H 6.4244490802 -1.9196273530 -2.5898733410
H 6.4825861428 -2.5823180941 -0.9289896121
H 4.9533410455 -2.6460532686 -1.8648049543
H 4.4634086404 2.7509820116 -3.2690228621
H 5.7703260825 2.2323038350 -4.3744413405
H 4.1891317534 1.3846807380 -4.3991531664
