59
CONF68
C 5.4169331521 -2.0001921546 -1.7881889031
C 5.5585626232 -3.3415393059 -1.0630486680
C 5.6468436712 -2.9082801771 0.4025067940
C 4.6174186132 -1.7588999856 0.5424755310
C 4.4081643368 -1.2336848349 -0.9173987276
C 5.1137693195 -0.6622900136 1.4796713104
C 4.1036181853 0.4312966931 1.7181170667
O 4.4396058217 1.5730858685 1.9997392959
N 2.7485890193 0.1009506198 1.6121931082
C 2.2752301165 -1.1756335406 1.2867961896
O 1.0765227729 -1.3804937976 1.1583935126
C 3.3017882343 -2.2661860622 1.1339479514
C 1.7606051659 1.1850844484 1.7703585593
C 1.5253164070 1.9135744289 0.4497297777
C 0.5125183379 3.0534669104 0.5805987463
C -0.8498405837 2.6244892466 1.1346679635
N -1.3918790313 1.4288367704 0.4832983893
C -1.7349790562 1.6743012732 -0.9203818843
C -2.2446597420 0.3923424501 -1.5738942785
N -3.3982307020 -0.1250434378 -0.8379755590
C -3.0773779163 -0.3585657449 0.5703171827
C -2.5650664909 0.9301414991 1.2068960769
C -4.6793306922 0.0968930902 -1.2576903667
N -4.8540514283 0.5558132851 -2.5218043696
C -6.1126843748 0.7096580233 -2.9272581993
C -7.2125763468 0.4311529826 -2.1239617363
C -6.9223285838 -0.0248603668 -0.8430506178
N -5.6815475854 -0.1949964389 -0.3919036760
H 5.0882888409 -2.0952485801 -2.8273645399
H 6.3850231208 -1.4840813859 -1.7890657204
H 4.6610014177 -3.9518212086 -1.2260919212
H 6.4257313610 -3.9239415244 -1.3887199782
H 6.6529927056 -2.5180375998 0.6016193300
H 5.4582696984 -3.7169121826 1.1160737558
H 4.5361238966 -0.1481953156 -0.9862371098
H 3.3876902839 -1.4593366403 -1.2492922220
H 5.3639266483 -1.0919634749 2.4609638500
H 6.0185235277 -0.1811011662 1.0967167138
H 2.8524990034 -3.0517671909 0.5209135835
H 3.4800660332 -2.6848047060 2.1351084533
H 2.1375878714 1.8711201457 2.5324028118
H 0.8372792615 0.7245370739 2.1234608294
H 2.4781784733 2.3185651947 0.0898549403
H 1.1774767349 1.1849094770 -0.2915545272
H 0.3930911024 3.5346016078 -0.3966075526
H 0.9105910878 3.8253972114 1.2514788751
H -1.5534613785 3.4776213964 1.0617378229
H -0.7509583583 2.3933166044 2.2026238906
H -2.5075540607 2.4650234778 -1.0163349225
H -0.8438043538 2.0105144811 -1.4607830615
H -1.4543791885 -0.3690701868 -1.5405055162
H -2.5183918526 0.5738834119 -2.6120107206
H -3.9587663554 -0.7219736817 1.0963373169
H -2.2922044426 -1.1243274845 0.6158027841
H -3.3867706429 1.6755710166 1.2171535109
H -2.2790294826 0.7295304152 2.2464208569
H -6.2463464456 1.0778064868 -3.9442471156
H -8.2290809551 0.5662393355 -2.4711690436
H -7.7231154109 -0.2619489049 -0.1429027592
