41
CONF19
C -5.0952103670 -1.2805737888 2.3675017470
C -4.0287593628 -0.8807443054 1.4000295992
C -4.0153126258 -1.3407497544 0.0819031344
C -2.9834060262 -0.9235799415 -0.7496030707
N -2.0258769109 -0.0994850576 -0.2878850052
C -2.1255170590 0.2905236518 0.9853089101
N -3.0766857790 -0.0548134590 1.8586087041
N -1.1618003662 1.1545319769 1.4985743382
C -0.0236283090 1.6999484478 0.9226351359
O 0.6992646854 2.4595137584 1.5514492265
N 0.2277005491 1.2965142967 -0.3745612055
S 1.4936452728 1.9347633513 -1.2981161184
O 1.3982286555 3.3970929139 -1.3538730119
O 1.4424481017 1.1728405275 -2.5521693120
C 2.9653350487 1.5227892544 -0.3411832310
C 3.9584586276 2.4967059436 -0.3069457526
C 5.1177130484 2.2665977605 0.4256752580
C 5.2601840941 1.0873528459 1.1494488747
C 4.2512168013 0.1311875414 1.1319147784
C 3.0995840001 0.3235111035 0.3668368550
C 2.0765872998 -0.7688548900 0.4156103033
O 1.5687118936 -1.1558720625 1.4479758823
O 1.8574646525 -1.2990290447 -0.7906567419
C 0.8917727294 -2.3837906641 -0.8314294077
C -2.8723543955 -1.3460108093 -2.1771581756
H -5.8370291858 -1.9287614188 1.8988145750
H -4.6460395958 -1.8042880426 3.2178303688
H -5.5915707393 -0.3891333564 2.7639781837
H -4.7895835401 -2.0043550024 -0.2839477416
H -1.2976038082 1.4243468701 2.4641206532
H -0.4645444310 0.6679243905 -0.8248401968
H 3.8171086320 3.4324657139 -0.8349372311
H 5.8963179748 3.0213173660 0.4450516507
H 6.1542555433 0.9125753863 1.7382651263
H 4.3511682928 -0.7840388803 1.7060339076
H 1.2583755339 -3.2279314941 -0.2431481555
H 0.8070061596 -2.6504895076 -1.8836305502
H -0.0673548443 -2.0397791168 -0.4372556333
H -1.9113742184 -1.8429202930 -2.3456874607
H -2.8973049889 -0.4652238466 -2.8274035155
H -3.6815909214 -2.0220788463 -2.4559772016
