48
CONF75
C 1.6874338273 0.9953028124 1.5548548097
C 1.5492603498 -0.4874717966 1.2580351773
N 0.2045900357 -0.9784719629 1.6140631493
C -0.8460432292 -0.1652779270 0.9991315252
C -0.6432134646 1.3113394500 1.3012767158
N 0.6671149756 1.7543222598 0.8331954893
C 0.8388893898 3.2045012116 0.9945778424
C 1.9624424870 3.7655590682 0.1212617186
C 1.5949439618 3.9224844943 -1.3586415217
N 1.0514700493 2.7073033561 -1.9499860465
C 1.7597509467 1.5455249420 -2.0781609338
O 2.9643744666 1.3338116766 -1.9480777201
N 0.7612863379 0.6177789650 -2.4200480385
C 0.8897273984 -0.7274888184 -2.6514626647
C -0.2337036031 -1.4452090386 -2.9118208077
C -1.5076008794 -0.7971662521 -2.9429774850
C -1.6312442432 0.5427889056 -2.7029772702
C -0.4626857314 1.2868412006 -2.4121386013
N -0.3085458601 2.5621467587 -2.1178548948
C 0.0323742569 -2.3680940397 1.5672139400
C -1.0697545847 -2.9548927002 0.9176498878
C -1.2208655500 -4.3351700289 0.9433180322
C -0.3246583640 -5.1847121688 1.5711265095
C 0.7715504352 -4.5944100571 2.2028714722
C 0.9535431714 -3.2209039062 2.2084194187
Cl -2.6164371520 -5.0321056220 0.1103831852
H 2.6853133690 1.3111842155 1.2339238171
H 1.6131435134 1.1643148832 2.6486777277
H 1.7400481454 -0.6611847733 0.1840646075
H 2.3056284478 -1.0301505503 1.8272603519
H -0.8714292725 -0.3062177716 -0.0956388599
H -1.8158811799 -0.4719913715 1.4045720405
H -0.7693827815 1.4863595407 2.3894843848
H -1.4217176080 1.8765220968 0.7761113840
H 1.0292331696 3.4650575862 2.0536841543
H -0.1062942402 3.6874535343 0.7151671203
H 2.8606847757 3.1472039977 0.2112580510
H 2.2334831916 4.7628818932 0.4862734524
H 2.4793085854 4.2179622505 -1.9334621540
H 0.8288699961 4.6914449034 -1.4882978805
H 1.8966129302 -1.1262198703 -2.6098310381
H -0.1546509170 -2.5093227668 -3.0956301528
H -2.3915288835 -1.3882829314 -3.1564526971
H -2.5886896511 1.0504043734 -2.7142105307
H -1.7949567909 -2.3573505775 0.3824469650
H -0.4717687832 -6.2577230437 1.5740965778
H 1.4903468188 -5.2269432202 2.7146263817
H 1.8006610981 -2.8048479016 2.7403764692
