41
CONF1
C -2.5271837513 3.9289188912 1.3760587702
C -3.9292560495 3.3796841153 1.2310211822
O -3.8849160386 1.9504540760 0.9072423935
C -3.7510200011 1.1045817822 1.9296958928
O -3.7326880175 1.4129613217 3.1043893873
C -3.6913968481 -0.3530590926 1.4725603658
C -5.0922640582 -0.9471578328 1.4923168168
O -3.1988900959 -0.4996540913 0.1371085195
C -1.9038702632 -0.1455026958 -0.1197656889
C -1.5182581099 -0.2341235048 -1.4619753020
C -0.2275825657 0.1033550915 -1.8396129067
C 0.6615859656 0.5275313887 -0.8642367898
C 0.3047703463 0.6247247180 0.4660703632
C -0.9917665051 0.2833726202 0.8481416260
O 1.9570861359 0.9441482703 -1.2581432004
C 2.8921467314 0.0102084820 -1.2663441578
N 2.8216092369 -1.2480102710 -0.9709963847
C 4.1318451865 -1.6956054625 -1.1761484003
C 4.7074729224 -2.9516298306 -1.0315906687
C 6.0664398677 -3.0785894022 -1.3194132951
C 6.8092753146 -1.9719580197 -1.7372740642
C 6.2637314454 -0.6968987532 -1.8927822140
C 4.9212486484 -0.6204197794 -1.5978380594
O 4.1087003253 0.4959114421 -1.6563428967
Cl 8.5210277057 -2.1898472950 -2.0869237766
H -2.5825612727 5.0070773548 1.5553508805
H -1.9493152977 3.7593896281 0.4630077862
H -2.0070158520 3.4654215292 2.2185444554
H -4.4521764696 3.8231560066 0.3820524682
H -4.5223441406 3.5138997840 2.1386049540
H -3.0457727398 -0.8891822044 2.1792013501
H -5.5121889977 -0.8670089389 2.4976963397
H -5.7400314138 -0.4172158736 0.7886553207
H -5.0427731539 -2.0022932608 1.2132651125
H -2.2420845486 -0.5650037413 -2.1988880973
H 0.0853168376 0.0427476815 -2.8765059882
H 1.0251083667 0.9645287345 1.2024534178
H -1.2604120273 0.3629806060 1.8945785006
H 4.1268574957 -3.8078456532 -0.7068517076
H 6.5531172978 -4.0417097918 -1.2190965401
H 6.8484287053 0.1548211522 -2.2172855682
