51
CONF222
C -5.6189872432 -0.0591151976 1.5874048939
C -4.3572296480 0.4541948015 2.2245410151
C -3.1956858359 0.4399125929 1.5487802226
C -1.9042581254 0.9502588448 2.0383922502
C -0.6052554592 0.1115995852 2.0052721040
C -0.7794626393 1.3556267034 1.1264740345
C -0.9038001190 1.2147591927 -0.3724531248
C 0.0501679330 2.5494452670 1.5477518724
C -0.5528770397 -1.2311551027 1.4110459100
O -1.2971462254 -1.6974872617 0.5686874566
O 0.4995403972 -1.9237226763 1.9311741427
C 0.8377001560 -3.1706530948 1.2463219134
C 1.5460293320 -2.8667745936 -0.0250498753
C 1.1141331559 -3.1200531865 -1.2890759530
O 2.0071610437 -2.6321906781 -2.2019643207
C 3.0301069162 -2.0430344800 -1.4956165502
C 2.7916572472 -2.1659638652 -0.1628535544
C 4.0722912391 -1.3486451833 -2.2938762340
C 3.5283857867 -0.1020686937 -2.9697715814
C 3.5134658179 0.0121207810 -4.3597430621
C 2.9982241934 1.1542328811 -4.9722489976
C 2.4906528234 2.1940216411 -4.1984847916
C 2.5013043334 2.0865787545 -2.8077452711
C 3.0146212905 0.9456903459 -2.1996712795
C -4.5363073198 0.9524521328 3.6299031965
H -6.0398169962 -0.8850621691 2.1752209894
H -5.4456165174 -0.4111060297 0.5671566444
H -6.3860778254 0.7255653963 1.5604369823
H -3.2076821721 0.0276915322 0.5449361899
H -1.9577353250 1.5366625555 2.9509108918
H 0.0559340188 0.2417630785 2.8554158720
H 0.0943930853 1.1736429085 -0.8239797535
H -1.4465730747 0.3198823754 -0.6745561507
H -1.4201879486 2.0919389792 -0.7784311277
H 0.1184405294 2.6270972975 2.6366084841
H 1.0653157552 2.4740911408 1.1409603116
H -0.4011345845 3.4718905479 1.1645579381
H 1.4832679926 -3.6895992686 1.9581048677
H -0.0672337923 -3.7570014894 1.0713957500
H 0.2391361567 -3.6090484364 -1.6891460926
H 3.4192386564 -1.7905468714 0.6327984543
H 4.4861079489 -2.0246706123 -3.0503579408
H 4.8856529258 -1.0798343854 -1.6116447628
H 3.9066210456 -0.7984557111 -4.9674244038
H 2.9924041206 1.2286312487 -6.0555296346
H 2.0880300581 3.0828298193 -4.6741998049
H 2.1074177708 2.8931789449 -2.1963655985
H 3.0137712410 0.8609982684 -1.1156714229
H -4.9649782428 0.1589473085 4.2549837866
H -5.2534439522 1.7830115909 3.6504922548
H -3.6096818632 1.2874720628 4.0978394940
