44
CONF140
C 3.0518035413 2.3400623489 -0.0856872791
C 2.2457185193 1.0824143735 0.2231744067
C 3.0998139746 -0.0690087519 0.8756270865
N 2.5020222381 -1.3207449548 0.4547726904
C 1.9479177742 -1.3883194901 -0.9090538776
S 1.6239356488 0.3554447425 -1.4007190701
C 0.7856109032 -2.2740932429 -0.3510046191
C 1.4137122424 -1.9607527434 1.0385951193
O 1.0982613788 -2.1240386077 2.1925228733
N -0.5374971859 -1.7722938849 -0.5461820714
C -1.6484390720 -2.5406794213 -0.4474341599
O -1.6174474197 -3.7487752798 -0.2183027376
C -2.9706097187 -1.7970515753 -0.7274655590
C -2.9137122191 -0.3398491315 -0.3253026463
C -2.7699268372 0.6622709324 -1.2874401000
C -2.6368312989 1.9985796297 -0.9233332609
C -2.6506217939 2.3469871821 0.4263757472
C -2.8028379259 1.3584586337 1.4032646499
C -2.9302319358 0.0290493072 1.0235922626
O -2.5077212109 3.6687671599 0.7387872340
N -4.0483724821 -2.5095844029 -0.0357259252
C 4.5772424743 0.0213928682 0.5272054124
O 4.8691951188 -0.5873518690 -0.6321684356
O 5.3867654508 0.6018008384 1.2160959558
C 1.0617731828 1.4198181784 1.1300210234
H 2.4039658751 3.0916647855 -0.5451035273
H 3.8845604954 2.1417838173 -0.7655477412
H 3.4448007995 2.7574966035 0.8471586486
H 3.0271442914 0.0142716897 1.9641295308
H 2.5908300973 -1.8666215806 -1.6493769271
H -0.6440219067 -0.7687867815 -0.6451295678
H -3.0666323057 -1.8344288613 -1.8289520197
H -2.7552364997 0.3949284754 -2.3410028497
H -2.5238738839 2.7734478406 -1.6747437711
H -2.8106786172 1.6346431196 2.4548133503
H -3.0364746996 -0.7368928699 1.7854903519
H -2.5285463901 3.7780577425 1.6993832029
H -4.9352240156 -2.2109058680 -0.4286687368
H -3.9582404375 -3.5007397666 -0.2400056021
H 0.4025539660 2.1336572200 0.6287591871
H 0.4700588692 0.5360944312 1.3840606480
H 1.4292336299 1.8737549049 2.0573872733
H 0.8471545125 -3.3266985357 -0.6397896522
H 5.8200020630 -0.4780158869 -0.8116434724
