44
CONF29
C 5.0716782660 0.3715429296 -1.1554652041
C 3.5970311772 0.4356333079 -1.5379071830
C 2.8844364403 1.7702453700 -1.1010428316
N 1.4930281353 1.4373192069 -0.9070206056
C 1.1611164944 0.1092186818 -0.3805775360
S 2.6736213860 -0.9150783769 -0.6145677790
C -0.0182836282 0.0463410512 -1.4138448803
C 0.4547594830 1.4609855959 -1.8314693818
O 0.1398194887 2.2732231555 -2.6685474605
N -1.3647483043 -0.1548802246 -0.9804242543
C -1.9936249968 0.7240053695 -0.1556831062
O -1.4642535037 1.7734847851 0.2039400308
C -3.3986545195 0.2947254539 0.3105633916
C -3.2517435471 -0.7731977826 1.3771468085
C -3.9733354119 -1.9641905580 1.3005003602
C -3.8627363542 -2.9366574062 2.2897725743
C -3.0169377073 -2.7193554411 3.3782024321
C -2.2863959833 -1.5327208737 3.4701277426
C -2.4060360920 -0.5739876619 2.4734366217
O -2.8600854622 -3.6315616502 4.3823918605
N -4.2073950887 1.4101300662 0.8028305686
C 3.5213654854 2.4062903576 0.1248717562
O 3.0003489002 1.9502367880 1.2750796794
O 4.4171410697 3.2189400521 0.0594923102
C 3.4241617198 0.2562251104 -3.0466096568
H 5.5002006010 -0.5776427705 -1.4889282107
H 5.2204990181 0.4568006465 -0.0759125926
H 5.6137314559 1.1823541299 -1.6530464270
H 2.9739054651 2.4988434406 -1.9127251635
H 0.8545694785 0.0912342793 0.6683999230
H -1.8293470610 -1.0148870338 -1.2330809942
H -4.6359672424 -2.1374825721 0.4570724780
H -4.4307470377 -3.8605500981 2.2183102501
H -1.6291423489 -1.3769777960 4.3194931578
H -1.8271197373 0.3427760855 2.5516229565
H -3.4122381998 -4.4052489175 4.2066421515
H -3.7236154102 1.8384316203 1.5879253795
H -4.2448274953 2.1307167109 0.0863701351
H 3.7974838551 -0.7245115035 -3.3519153186
H 2.3757396278 0.3306599123 -3.3486237051
H 3.9938890961 1.0288254272 -3.5757881901
H 3.4619231107 2.3834642426 2.0144262496
H -3.9151691321 -0.1500163093 -0.5496153157
H 0.2144280426 -0.6569475746 -2.2185121270
