75
CONF42
C 7.3314861522 0.6686541842 -2.4544082598
C 7.3065099683 0.8129633993 -0.9308395908
C 8.5119181350 1.6282882638 -0.4548194947
C 5.9729887305 1.3933428733 -0.3839104410
C 5.6304359286 2.7767919138 -0.9570489975
C 4.8232896257 0.4524536506 -0.6102962758
C 4.1686004084 -0.1993349602 0.3511227191
C 3.0102215365 -1.1372359086 0.1451667285
C 3.4146657708 -2.5437239461 0.6114097480
C 1.7737208733 -0.5753607390 0.8771032065
C 1.4101023490 0.8518223128 0.3691867559
C -0.1287406769 0.9921854340 0.4680750734
C -0.5491021539 -0.2331292063 1.2744048626
C -1.9739218081 -0.6943191681 1.2993559734
C -2.1488679529 -1.8795726582 2.2138561291
C -1.1718187522 -3.0166037344 1.8584027914
C 0.2825804639 -2.5369354246 1.7663613127
C 0.4318207773 -1.3544205718 0.7997339755
C 0.1259182939 -1.7774774209 -0.6427949296
C -2.9498876639 -0.1131939680 0.5667417888
C -4.3404395843 -0.5102749605 0.5230261441
C -5.3165961997 0.0372277045 -0.2345852774
C -5.1057576418 1.1845028945 -1.1878658467
C -5.9925771423 2.3699193219 -0.8089569481
O -5.7558703680 3.4008291423 -1.7842399228
C -7.4564581781 1.9514452390 -0.7699335348
C -7.6588420701 0.7731178797 0.1822276070
C -6.7572875255 -0.4263170032 -0.1823240644
C -7.0373759877 -1.6057511305 0.7433234477
H 6.4903896155 0.0750994506 -2.8260397374
H 7.2997346230 1.6483567676 -2.9437020910
H 8.2553953346 0.1732507522 -2.7711048883
H 7.3937834366 -0.1929894400 -0.4958486572
H 8.5234017231 2.6248932852 -0.9092834280
H 8.5045357369 1.7507554465 0.6338360188
H 9.4457900501 1.1290639083 -0.7344864477
H 6.1050483271 1.4964318167 0.7024623188
H 4.7429228575 3.1796992906 -0.4589456563
H 6.4491877276 3.4890902436 -0.8168931426
H 5.4102724941 2.7163755226 -2.0280982695
H 4.4985261154 0.3219835250 -1.6450604469
H 4.4810917726 -0.0630326168 1.3907577396
H 2.7906136647 -1.1713284386 -0.9309245939
H 2.6666889189 -3.2919828612 0.3396347711
H 3.5451327527 -2.5700751719 1.6996893040
H 4.3639186513 -2.8339713366 0.1495424848
H 2.0335806905 -0.5117925174 1.9454087468
H 1.9274907468 1.6132028007 0.9599381184
H 1.7502987266 0.9794510530 -0.6644337519
H -0.4405653061 1.9263581515 0.9453820781
H -0.5793941774 0.9733416762 -0.5296718893
H -0.2632684946 -0.0464785647 2.3247190490
H -1.9316511759 -1.5508239500 3.2418577365
H -3.1732220975 -2.2594292828 2.2103685894
H -1.4760579897 -3.4628011521 0.9039880519
H -1.2504977965 -3.8077273475 2.6130147352
H 0.9160070673 -3.3768573615 1.4657762109
H 0.6225071490 -2.2178406843 2.7622976472
H -0.9306860938 -2.0310204207 -0.7686575242
H 0.7193954066 -2.6544329482 -0.9224735272
H 0.3584759369 -0.9791042632 -1.3538429356
H -2.6597247533 0.7359562715 -0.0455567611
H -4.6214928751 -1.3358688736 1.1693154053
H -5.3913352953 0.8709223909 -2.2036340747
H -4.0646512629 1.5114250465 -1.2271769928
H -5.6904978437 2.7301239190 0.1888744862
H -6.3077327894 4.1571875923 -1.5480879113
H -8.0790733911 2.8023177537 -0.4652410376
H -7.7599516025 1.6664487726 -1.7867551034
H -7.4286026585 1.0813187782 1.2117904476
H -8.7079695271 0.4555255083 0.1674161200
H -7.0317550713 -0.7239154097 -1.2084727361
H -6.4420206315 -2.4841818948 0.4751894950
H -6.8203558974 -1.3504890802 1.7867071783
H -8.0943964146 -1.8823294942 0.6798326965
