52
CONF15
C -3.1934796919 -1.3266347556 1.1655463909
O -3.4676939900 -0.2364600514 0.2743974143
C -2.3980418900 0.4229156216 -0.2507662728
C -1.0655697235 0.0958635878 0.0106793012
C -0.0389468016 0.8355157159 -0.5775365667
C -0.3375278561 1.8894915043 -1.4417463853
C -1.6697604148 2.2163856319 -1.7070215041
C -2.7077673274 1.4905450673 -1.1045615024
O -4.0186798833 1.8362008701 -1.3344871473
C -4.5915918702 1.1429598009 -2.4634726388
O -2.0662131531 3.2214178384 -2.5356516840
C -1.0376971661 3.9997277178 -3.1633576595
C 1.4222330970 0.5195675574 -0.2780700519
C 1.9752664538 1.2814608128 0.9286772679
C 1.3912439271 0.7689824934 2.2343931063
C 1.7420146986 1.9027689589 3.1881057306
O 1.6602380793 3.1059509236 2.3496970858
C 1.8009530330 2.7769481847 1.0383456682
O 1.8209891377 3.6231507596 0.1752599826
C 1.9426648215 -0.6142080525 2.5178470378
C 1.8466072479 -1.4878258512 1.2733827274
C 2.0170376080 -2.8779085159 1.4581992715
C 1.9657912397 -3.6836080270 0.3494658052
C 1.7623241601 -3.1653732123 -0.9242561747
C 1.6025426050 -1.8190351913 -1.1340078326
C 1.6462361338 -0.9637672073 -0.0125228088
O 1.7600795911 -4.1747363098 -1.8492370530
C 1.9744975020 -5.3986680930 -1.1099026756
O 2.1026979760 -5.0461805769 0.2854242160
O 1.2358185406 -1.2695286726 3.5823623065
H -4.1682922968 -1.7034323785 1.4761908187
H -2.6358558055 -2.1214961327 0.6565816820
H -2.6324562695 -0.9845728289 2.0431138524
H -0.8201303337 -0.7435512598 0.6484037362
H 0.4720215371 2.4472896926 -1.8936868075
H -4.0390206125 1.3807348673 -3.3798774393
H -5.6219292775 1.4927116366 -2.5522721722
H -4.5811516638 0.0599623630 -2.2941411341
H -0.4138551408 4.5026896931 -2.4153435835
H -1.5597014075 4.7431761366 -3.7663130076
H -0.4102515219 3.3749819632 -3.8093680091
H 2.0050947434 0.8017090261 -1.1624131863
H 3.0684079186 1.1261120904 0.9488554983
H 0.3005467202 0.7016743295 2.1392534618
H 2.7689074981 1.8249689943 3.5645594482
H 1.0447230093 2.0416443238 4.0148588482
H 3.0073969016 -0.5218525225 2.7940243151
H 2.1766328445 -3.2875532798 2.4484209342
H 1.4396845317 -1.4152985048 -2.1281591865
H 1.1073878950 -6.0549044077 -1.2398281724
H 2.9027938994 -5.8689054778 -1.4511906501
H 1.5127811539 -0.8620076471 4.4131449964
