47
CONF154
C -3.0367420082 -0.2418912717 2.5061465091
C -2.4314167044 -0.6823041144 1.1925558489
C -3.2819439587 -1.3969199795 0.1672026489
C -2.9188149200 0.0706614391 -0.0497196328
C -1.9729356656 0.4073798537 -1.1224527939
O -1.2494716460 -0.3531989929 -1.7283701291
O -1.9795021469 1.7599310556 -1.3443076202
C -0.9363473446 2.2249744244 -2.2478771479
C -1.4022610966 3.5160418285 -2.7492208864
N -1.7455757410 4.5392148818 -3.1590080330
C 0.3824366609 2.3347484509 -1.5180630657
C 1.4068768313 1.4396236823 -1.8198746954
C 2.5855731922 1.4712105771 -1.0893384217
C 2.7241142096 2.4067795583 -0.0651613722
C 1.7179134580 3.3049130866 0.2434984450
C 0.5386604988 3.2661103015 -0.4909441038
F 3.8717769419 2.4220387787 0.6397816829
O 3.6209705038 0.6243436859 -1.4111804306
C 3.9138625335 -0.4047101228 -0.5250873667
C 3.0423887319 -0.8046443955 0.4836990005
C 3.4079755389 -1.8708714702 1.3036905615
C 4.6200181984 -2.5293709104 1.1174194650
C 5.4762829331 -2.1150912279 0.0971861738
C 5.1303820950 -1.0510093827 -0.7278580815
C -4.6835707226 -1.7426809291 0.4156607302
C -5.2757773271 -2.8745665548 0.0337757171
Cl -4.4735615762 -4.1523850891 -0.8372576643
Cl -6.9541125728 -3.2075310076 0.3765492943
C -0.9818627120 -1.0966013721 1.3026393880
H -4.0542877837 0.1381608794 2.3969411507
H -2.4238990697 0.5528857332 2.9435082370
H -3.0530742450 -1.0831120049 3.2078596482
H -2.7282995803 -2.0788666133 -0.4709551988
H -3.6885781096 0.8119322780 0.1368192932
H -0.8480522496 1.5350571053 -3.0944333556
H 1.2949099370 0.6992354203 -2.6047126047
H 1.8666429642 4.0203772891 1.0447421026
H -0.2611516644 3.9612650452 -0.2554079142
H 2.0920384093 -0.3021318898 0.6274570126
H 2.7302528163 -2.1859510854 2.0911513098
H 4.8961146288 -3.3586345052 1.7599617402
H 6.4243342820 -2.6206154346 -0.0576283833
H 5.7868099247 -0.7153563546 -1.5237348881
H -5.3048635049 -1.0312719444 0.9511979715
H -0.8948093337 -1.9107796911 2.0298860478
H -0.3759385651 -0.2566726417 1.6620963850
H -0.5734847446 -1.4397162951 0.3507975177
