44
CONF92
C -3.8628580617 -0.9167125075 1.7517519398
C -2.5790193388 -0.8824157016 0.9619911005
C -2.1480921073 -2.2152923281 0.3566688095
O -1.5041643735 -1.8464915179 -0.8804198597
C -1.7209440722 -0.4509875848 -1.0976895948
O -2.7641845848 -0.0768007543 -0.2265368666
C -2.1604824370 -0.2779748769 -2.5607501668
N -3.4277797250 -0.9351426862 -2.8148389364
C -3.6710054929 -2.2482212503 -2.9977897948
N -4.9774552115 -2.4627691216 -3.1047317490
C -5.4978085823 -1.2100446260 -2.9672645086
N -4.5995772849 -0.2510858950 -2.7859523171
C -0.4311653839 0.3281857744 -0.8203666580
C 0.7672162191 -0.3650672810 -0.6285718618
C 1.9694251495 0.2767279272 -0.3657740280
C 1.9834979638 1.6658964238 -0.2872133388
C 0.8168571086 2.3994555673 -0.4805825269
C -0.3657272552 1.7252244642 -0.7516404614
Cl -1.7909064141 2.7365198552 -0.9893069166
O 3.1291442287 2.3996709434 -0.0829657285
C 4.1747422500 1.8261180576 0.6255377263
C 5.4448149002 1.9058919449 0.0687463131
C 6.5371345885 1.4172057835 0.7795092839
C 6.3273374348 0.8520960846 2.0310454630
C 5.0582224222 0.7721924061 2.5947707782
C 3.9714161095 1.2697354656 1.8852506006
Cl 7.7044877392 0.2235801687 2.9307673785
H -3.7367791473 -1.5628927762 2.6256307701
H -4.6767017767 -1.3125446752 1.1362747832
H -4.1282820790 0.0845836087 2.1006645607
H -1.7599649701 -0.4510772717 1.5565082883
H -1.4388842233 -2.7592310683 0.9875393689
H -3.0161152437 -2.8483967114 0.1312486500
H -2.2654252104 0.7762739712 -2.8172326847
H -1.3890473559 -0.7242725696 -3.1941639849
H -2.8829215967 -2.9866883774 -3.0529361901
H -6.5585532249 -0.9959302175 -3.0074115863
H 0.7461614169 -1.4464907495 -0.6885737214
H 2.8784185498 -0.2972645840 -0.2282397216
H 0.8426632245 3.4809872142 -0.4185295422
H 5.5767967639 2.3486928482 -0.9124803110
H 7.5339830349 1.4725227985 0.3574883792
H 4.9167609628 0.3370427052 3.5774402580
H 2.9747640862 1.2251913315 2.3116062340
