55
CONF5
C -1.0142693131 0.2713198610 1.0195769292
C -1.8950572153 -0.0720927250 2.2255744011
C -3.3453354094 0.1711040070 1.7259874343
C -3.2405537175 0.5313879494 0.2265219070
O -3.1883363811 1.9644219698 0.1522835063
C -4.4238763100 0.0349015644 -0.5904927358
O -4.9806839955 -1.0324303272 -0.3781901145
C -4.9257789113 0.9042171536 -1.7238674703
O -5.9285748750 0.2470892567 -2.4715624032
C -1.8734910529 -0.1312656414 -0.1997104156
C -2.0542076611 -1.6530884411 -0.3137054661
C -1.2085429305 0.4118433254 -1.4660483114
C 0.2356585715 -0.1048501163 -1.5792793025
C 1.0797221384 0.2158428591 -0.3341832011
C 0.4067048602 -0.2821844175 0.9636716138
C 1.2174016962 0.1648188356 2.1772290621
C 2.6632313379 -0.3306599503 2.0822487800
C 3.3149841610 0.0747680091 0.7969203028
C 4.5321674155 0.6659981369 0.8119370870
C 5.3165595190 0.9312761061 -0.3832987096
O 6.4298890564 1.4625652342 -0.3239195281
C 4.7275164188 0.4575503227 -1.6863185417
C 3.2033477077 0.5194696646 -1.6672740445
C 2.5694003041 -0.2460479061 -0.4870696219
C 2.6765739796 -1.7696025725 -0.7311693195
H -0.9218333021 1.3664266896 0.9769316440
H -1.7557513668 -1.1193862419 2.5167226536
H -1.6587153929 0.5425209897 3.0978179052
H -3.8357568485 0.9981517213 2.2456146828
H -3.9694937992 -0.7154157628 1.8512529539
H -2.7972049207 2.2323322542 -0.6896384352
H -4.0797910337 1.1786970887 -2.3736676176
H -5.3065064112 1.8398940336 -1.2867487120
H -6.0973293652 -0.5886876932 -2.0014105263
H -1.0877786135 -2.1576877931 -0.3535844621
H -2.6109499716 -2.0684925622 0.5283653166
H -2.5963431938 -1.9057418503 -1.2300622309
H -1.7707599772 0.1260602947 -2.3638328183
H -1.1620091181 1.5090978206 -1.4370749654
H 0.6896163705 0.3479385187 -2.4654839858
H 0.2228447274 -1.1855022963 -1.7532449018
H 1.1202793006 1.3146584542 -0.2438634310
H 0.3680695878 -1.3804221786 0.9652900868
H 0.7659470072 -0.2128640899 3.1009691160
H 1.2072756839 1.2625441367 2.2348394754
H 2.6551423604 -1.4298537332 2.1286638953
H 3.2592657185 0.0203995345 2.9299233680
H 5.0105947017 0.8984984907 1.7615121588
H 5.0732964312 -0.5756900483 -1.8339915056
H 5.1441505459 1.0513432572 -2.5053032336
H 2.8154368617 0.1284499612 -2.6119203248
H 2.8981299316 1.5723601700 -1.6019919014
H 2.1453616844 -2.3427017272 0.0325059121
H 3.7233871761 -2.0871826664 -0.7188639686
H 2.2569750117 -2.0260975286 -1.7074539841
