68
CONF2
C 2.9263618838 -1.0531500077 -2.0547769973
C 2.5716911171 -2.5209299958 -1.8228700639
C 1.1619084305 -2.7608642878 -1.2492403288
C 0.9462380832 -4.2788816074 -1.0676445350
C 1.0853694307 -2.1703903967 0.1573506996
O -0.1597935693 -1.7767698649 0.4799568264
C -0.3882138596 -1.3111249604 1.8499070459
C -0.7085892416 -2.5321716372 2.6960064319
C -0.9549343639 -2.1453181349 4.1526746846
C -1.9021601763 -0.9862788617 4.2116236646
C -2.1867966103 -0.1786354281 3.1732336309
C -3.1372064837 0.9147621067 3.3148636704
C -3.2954932989 1.8674466526 2.3832678723
C -2.4567839963 1.9486327935 1.1412904023
C -1.1747773685 1.0985841561 1.2970999406
C -1.5482119824 -0.3200009297 1.8010353502
C -0.3044349344 1.1072290691 0.0372932180
C 0.0742730819 2.5119918969 -0.4362964474
C 1.1353056113 2.4882450381 -1.5202330941
C 1.5967799491 3.8584853216 -1.9726180839
C 2.5865179598 3.6976941769 -3.1143654710
C 1.8865972316 2.9992513235 -4.2755335111
C 0.9995858875 1.8328311472 -3.9022116417
O 0.5598767052 1.7157258426 -2.6365207007
O 0.6086038203 1.0273759487 -4.7245008476
O 3.1707847614 4.9343919965 -3.5305747572
C -3.2983648340 1.6040793469 -0.1007186410
C -1.4751535018 -3.3364551622 4.9642371874
O 2.0275161073 -2.1109601541 0.9259492771
C 0.0819727111 -2.2018519497 -2.1833095946
H 2.8207803136 -0.4721162758 -1.1321344474
H 3.9631476874 -0.9581316421 -2.3918207318
H 2.2857995726 -0.5988599202 -2.8163545088
H 2.6314382479 -3.0697696880 -2.7708458577
H 3.3031173470 -2.9738679421 -1.1454625589
H 0.9929215381 -4.7672268064 -2.0465845042
H 1.7212651578 -4.7099394548 -0.4262065661
H -0.0336663433 -4.4860266425 -0.6257105927
H 0.5254772097 -0.8236575535 2.2091872740
H 0.1125832605 -3.2535915011 2.6249394900
H -1.6122751404 -3.0072247751 2.2903902151
H 0.0047324036 -1.8344195364 4.5980423039
H -2.3926839693 -0.7952654598 5.1664546746
H -3.7372500811 0.9338755004 4.2228218448
H -4.0521415485 2.6377959464 2.5212679887
H -2.1463984654 2.9978370414 1.0353634217
H -0.5873591552 1.5668238891 2.1029515485
H -2.3038145628 -0.7421594210 1.1210587801
H -0.8016340063 0.5612891667 -0.7703543923
H 0.6277471286 0.5689859314 0.2444215490
H -0.7954306763 3.0627362287 -0.8133308171
H 0.4828114051 3.0893445636 0.4036098919
H 1.9997233505 1.9038085870 -1.1758369642
H 2.0725905534 4.3617877322 -1.1248415482
H 0.7373435405 4.4613696136 -2.2976343745
H 3.4321405834 3.0889469627 -2.7715993006
H 1.2132103961 3.7194450586 -4.7642786648
H 2.5921612879 2.6569133331 -5.0367139629
H 2.4587027425 5.5131414551 -3.8355762065
H -4.2045830303 2.2180409510 -0.1191689656
H -3.6098208730 0.5549623502 -0.0917624046
H -2.7479110465 1.7910746128 -1.0276409754
H -2.4378580968 -3.6784620716 4.5682273860
H -1.6159769333 -3.0617311838 6.0144492227
H -0.7686992268 -4.1716036876 4.9193396642
H 0.1218737396 -1.1113900426 -2.2472186695
H 0.2377334882 -2.6088368407 -3.1882900568
H -0.9182661112 -2.4868404890 -1.8489724766
