26
CONF10
C -2.9615367896 0.7901732534 -0.2491976442
C -1.7473976821 0.1709266776 0.4342659475
C -0.4640552228 0.3671874422 -0.3770204439
C 0.7527790916 -0.3406640191 0.2560633765
C 2.0316169969 -0.1432084270 -0.5769597386
C 3.2774131533 -0.7007936011 0.0998616621
O 3.2075088590 -2.1308589140 0.2120375075
O 1.8873985627 -0.7494940546 -1.8771714640
O 1.0518011291 0.1815666150 1.5509498449
O -0.7497526939 -0.1564060212 -1.6746972971
O -1.5633171764 0.7971210981 1.7148549527
O -4.1019061343 0.7221606563 0.6233152921
H -2.7764444405 1.8551899659 -0.4277734031
H -3.1619119385 0.2955621267 -1.2047456932
H -1.9180753651 -0.9112067704 0.5672179005
H -0.2437456012 1.4490607204 -0.4256798996
H 0.5234545257 -1.4211824508 0.3074505701
H 2.1773497115 0.9309363277 -0.7495316828
H 3.4313601555 -0.2272395534 1.0746311701
H 4.1407252220 -0.4877107409 -0.5383451823
H 2.0148770781 -1.7026777855 -1.7464470741
H 0.2030853418 0.3575913251 1.9929673901
H 0.1086529756 -0.3956141379 -2.0726794361
H -2.4229274139 0.7748976211 2.1603088058
H 2.6479074737 -2.3435545721 0.9693751957
H -4.4252722554 -0.1879385343 0.6146387132
