49
CONF70
C -0.2383976441 -1.2355965805 4.1806503115
C -0.1956495900 0.0599360922 3.6682737288
C -0.5282647497 0.3037326413 2.3400720856
C -0.9189988192 -0.7647737459 1.5332226433
C -0.9809850510 -2.0622941418 2.0356049037
C -0.6253576389 -2.2933269097 3.3610363582
N -1.2497760805 -0.5513489220 0.1619384484
C -0.4631706619 -1.0170054842 -0.8783770862
O 0.3058807948 -1.9588412950 -0.8036175706
C -0.6658520089 -0.0836237469 -2.0538237072
C -1.6049470927 0.9802655076 -1.5269655165
O -2.0951241933 1.9103951807 -2.1436193397
N -1.8556776982 0.6835206212 -0.1998822271
C -3.0032613843 1.1177894679 0.5197346179
C -3.2092676406 2.4873968732 0.6780232186
C -4.3403798820 2.9286959500 1.3574060001
C -5.2409634543 2.0132509585 1.8969899311
C -5.0129735326 0.6466097462 1.7470878893
C -3.8977554390 0.1894011288 1.0533024522
C 0.6736070865 0.4616270566 -2.5738264928
C 1.3988909867 1.2604238625 -1.4982782255
S 3.1153975787 1.7427439371 -2.0037680985
O 3.6924346017 2.4640461313 -0.7811484333
C 3.8123483725 0.0625820001 -2.0152490528
C 4.0889872071 -0.5364784068 -3.2396816339
C 4.6227870108 -1.8242450456 -3.2539377459
C 4.8834462098 -2.4837510906 -2.0555450524
C 4.6141930518 -1.8617644270 -0.8355791714
C 4.0772679734 -0.5790177791 -0.8088330132
H 0.0244867368 -1.4186722325 5.2173748810
H 0.1060973701 0.8878079913 4.3017778984
H -0.4830204859 1.3088311981 1.9345532505
H -1.3078607388 -2.8734222530 1.3950757936
H -0.6673457206 -3.3031868787 3.7560386358
H -1.1795459744 -0.6124287104 -2.8665317518
H -2.4886233093 3.1913883590 0.2790022996
H -4.5066059012 3.9942402115 1.4786560108
H -6.1142917343 2.3627308811 2.4378565654
H -5.7099820736 -0.0722397339 2.1656216472
H -3.7257537062 -0.8738467677 0.9263850262
H 1.2723381197 -0.3972020734 -2.8932884875
H 0.4801564413 1.0850139041 -3.4514867750
H 0.9012365709 2.2150267741 -1.2931364229
H 1.5154946666 0.7045956734 -0.5596918264
H 3.8887433896 -0.0098100368 -4.1682848127
H 4.8407734647 -2.3061697815 -4.2015341212
H 5.3029413382 -3.4846369526 -2.0697445194
H 4.8231599434 -2.3775087293 0.0963550275
H 3.8691622846 -0.0808593327 0.1334525559
