26
CONF3
C 2.5433980071 -1.2599418108 -0.4789155975
C 1.4711028051 -0.2409508513 -0.2629691100
C 1.3944384416 0.9323254817 -0.9035521843
C 0.2307767000 1.8561531282 -0.6387389820
C -0.6888209488 1.2642447084 0.4377259373
C 0.1913982519 0.7438382133 1.6055940902
C 0.3817027433 -0.5405899383 0.7451451399
C -1.0314081574 -0.2323979689 0.1187984077
C -1.3062925355 -0.6299996850 -1.3241035957
C -2.1704633619 -0.7607429070 0.9922683804
H 3.2762091203 -0.9257067756 -1.2188821172
H 2.1075613256 -2.2080632971 -0.8212377092
H 3.0672963756 -1.4817328723 0.4599525366
H 2.1425313054 1.2253393698 -1.6382370775
H -0.3312376402 2.0310094058 -1.5683847216
H 0.5910960917 2.8437176956 -0.3158827311
H -1.5267274444 1.9321669160 0.6689878463
H 1.0996472693 1.3092202381 1.8341994162
H -0.3761848058 0.5705215975 2.5202252069
H 0.5197235038 -1.5042689445 1.2469110445
H -2.2466102489 -0.1786641908 -1.6629977780
H -1.4141895510 -1.7186228610 -1.4019244835
H -0.5109034083 -0.3186003026 -2.0038029639
H -3.1258635873 -0.3430244164 0.6531255262
H -2.2339757700 -1.8518678315 0.9068954023
H -2.0542047934 -0.5133625989 2.0497999160
