24
CONF7
O 4.6486106419 0.8976726514 -0.8246291892
S 3.6435973692 -0.0204361019 0.0459276525
O 3.8529239126 -1.4340971859 -0.2403956234
O 3.6689757980 0.5299014917 1.3927326080
C 1.9736691219 0.5031225508 -0.7461643797
F 2.0080553310 1.8267398114 -0.9472355010
F 1.8718092818 -0.1327846399 -1.9257212151
C 0.7732747185 0.1305468605 0.1825741839
F 1.0069731490 -1.0923460362 0.7104570217
F 0.7093468417 1.0396524811 1.1785241787
C -0.6022605932 0.1000840530 -0.5742221038
F -0.6737218707 -1.0459010036 -1.2863219003
F -0.6483318355 1.1530594716 -1.4210491469
C -1.8367677506 0.1779436146 0.3921639709
F -1.9843447433 1.4578399748 0.8006671082
F -1.5971238633 -0.6037447496 1.4694641557
C -3.1725315522 -0.2975038495 -0.2754390419
F -3.2403163411 0.1842281398 -1.5380038048
F -3.1846097291 -1.6463341024 -0.3144744233
C -4.4602340444 0.1703665581 0.4806709534
F -5.5150138792 -0.4865436681 -0.0187075601
F -4.6588807351 1.4825362366 0.3195829567
F -4.3572855587 -0.1028836213 1.7887670326
H 4.9092709831 0.4397184793 -1.6490451045
