18
CONF10
C -2.0180958351 -0.9144772222 0.6141197692
C -0.6850463656 -0.1794465325 0.6310746722
C 0.2498911642 -0.6820169015 -0.4613892165
C 1.5776898722 0.0552867153 -0.4969477702
O 1.4133440634 1.4767589659 -0.7395355627
N 1.1786522566 1.8149968142 -2.1167249414
O 1.2301136066 0.9252789995 -2.9307633609
O 0.9656963183 2.9854798581 -2.2672185480
O 0.0093137430 -0.3887102352 1.8724251711
H -1.8606723081 -1.9885904222 0.7542976158
H -2.6721234253 -0.5550282444 1.4155711096
H -2.5381121421 -0.7558820112 -0.3363432220
H -0.8566025441 0.8987267750 0.4823443732
H -0.2466965172 -0.6134728999 -1.4345229455
H 0.4631410741 -1.7434555566 -0.2790632951
H 2.0509428998 0.0454240098 0.4881622435
H 2.2613233399 -0.3678602832 -1.2378538587
H -0.5227593010 -0.0130120302 2.5816769591
