119
CONF164
C 3.4653294907 -0.7820303957 -0.6894941388
C 4.0756374842 -0.4209545161 -2.0488368134
C 5.2321170032 0.5676395366 -1.9095599769
C 6.3089943906 0.0475875279 -0.9491946261
C 5.7060722893 -0.3357482101 0.4196908051
C 6.8076049634 -0.8080453564 1.3741640120
C 7.8921540178 0.2452852084 1.5348908929
O 8.8498561169 -0.1402343793 2.5352455015
C 8.5800180626 0.6101938388 0.1912745660
C 9.4288442707 -0.5605599817 -0.3013360605
C 9.3965660860 1.9432425837 0.4487481801
C 8.4700892339 3.0987526061 -0.0302556212
C 7.1206057742 2.4596389219 -0.3873459876
C 7.4808803818 1.0414597262 -0.8309646609
O 8.0876044205 1.2211573726 -2.1323079140
C 10.7613181861 1.9644369494 -0.1486267704
C 11.9179903322 1.6937533101 0.4822045783
C 13.0229019192 1.7781549462 -0.4626436782
O 14.2159975888 1.6011436723 -0.3074032534
O 12.5133220391 2.1189654097 -1.6922209675
C 11.0814726844 2.2689642757 -1.5809734759
C 4.5341555231 -1.3564688213 0.2799222393
C 5.0326507593 -2.7157747729 -0.2401413316
C 3.8421922140 -1.6290249227 1.6343773381
C 3.1258915154 -0.4187987152 2.2302137818
C 2.0934290797 0.1452463057 1.2668874610
C 2.7106117366 0.4210062166 -0.0987014734
O 1.0220235864 -0.8377721789 1.1517633086
C -0.2169174594 -0.2760516630 0.8569389767
C -1.1630422474 -1.3624968030 0.3859630201
C -2.5587588136 -0.7939124828 0.1550140184
O -2.5090582994 0.0493537425 -1.0003128811
C -3.0196085252 -0.0110508153 1.3973624652
O -4.2192567901 0.7486164045 1.1591490784
C -5.3518033466 0.0142184320 0.7978313809
C -6.5905233768 0.7662757067 1.2414282522
C -7.8525915677 0.0766414173 0.7365166449
O -7.9950883947 -1.1585801191 1.4436338126
C -7.7487864591 -0.1577375540 -0.7807260006
O -8.8073736146 -0.9894669553 -1.2902967854
C -10.1070321640 -0.5141652983 -1.0899832018
C -11.0113366387 -1.0549088123 -2.1807933128
C -12.4624733997 -0.6921966002 -1.8946166084
O -12.6058776045 0.7226614067 -2.0810223910
C -12.8561944931 -1.0835357028 -0.4635653359
O -14.1405391293 -0.5335941218 -0.1401840752
C -11.8547422904 -0.5366908923 0.5543151903
C -12.1216700062 -1.0041040480 1.9684716527
O -10.5484305277 -1.0186958363 0.1847186845
C -6.4447947132 -0.8729701456 -1.1438640628
C -6.2383721359 -1.0193925219 -2.6360612664
O -5.3502937958 -0.0856546120 -0.6394020923
C -1.9665126673 1.0047133373 1.8480513807
C -2.3309528038 1.6974292643 3.1449176285
O -0.7302730940 0.3092018005 2.0687080785
H 2.7236913806 -1.5785268636 -0.8468375225
H 4.4334257607 -1.3306234074 -2.5463077363
H 3.2979045258 0.0041559821 -2.6961814321
H 5.6775776408 0.7657510795 -2.8896961081
H 4.8534096601 1.5278473348 -1.5395200627
H 6.7380140992 -0.8669590466 -1.3894973322
H 5.2817138581 0.5808588401 0.8513841978
H 7.2535011414 -1.7426205905 1.0117450049
H 6.3953875751 -1.0114351945 2.3675080718
H 7.4356604847 1.1548843325 1.9439184291
H 9.1651566431 -1.0268224970 2.3166434039
H 10.2112826769 -0.8076949918 0.4221717462
H 8.8193388048 -1.4543774649 -0.4631903446
H 9.9324314722 -0.3282321798 -1.2421247510
H 9.5507801292 2.0066471934 1.5294680514
H 8.8866637122 3.5823850298 -0.9161320289
H 8.3752512242 3.8688392312 0.7396544810
H 6.6069302916 3.0028550097 -1.1839925884
H 6.4504825844 2.4293933488 0.4762471846
H 8.2515573560 0.3457643181 -2.5075165339
H 12.0560763305 1.4393810346 1.5244654300
H 10.5934558007 1.5838100270 -2.2805265300
H 10.8240708575 3.2957679367 -1.8641922654
H 4.1751686557 -3.3589400882 -0.4677956815
H 5.6345922495 -3.2257184201 0.5190054492
H 5.6375106016 -2.6357418406 -1.1462236666
H 4.5640674837 -2.0295922971 2.3540080184
H 3.1061641945 -2.4268266935 1.4691671515
H 3.8435242624 0.3774225054 2.4630678176
H 2.6349561856 -0.6910426370 3.1712874480
H 1.6639414023 1.0667084999 1.6803110379
H 1.9284173044 0.7309262937 -0.8036570461
H 3.3744934109 1.2857884415 0.0159594023
H -0.1242647274 0.5256799805 0.1032534723
H -0.7950860931 -1.8114244554 -0.5422925086
H -1.2025604246 -2.1401359007 1.1570906981
H -3.2587626458 -1.6236327027 -0.0218019599
H -3.4336327073 0.2715763706 -1.1963204485
H -3.1965118946 -0.7273618972 2.2161256364
H -5.3169159389 -1.0028655587 1.2234417580
H -6.5346011871 1.7830081758 0.8367274658
H -6.6212940981 0.8283202564 2.3337561731
H -8.7174433219 0.7243117135 0.9404833499
H -8.8786827403 -1.4863707680 1.2093739818
H -7.7720971679 0.8198258179 -1.2889204488
H -10.1246315763 0.5880414202 -1.0582046074
H -10.7120946312 -0.6504515309 -3.1532440547
H -10.9013889225 -2.1447871470 -2.2096994469
H -13.1222409067 -1.2274149527 -2.5964568077
H -13.4531729928 0.9643207978 -1.6781173967
H -12.8681439690 -2.1813126411 -0.3855528950
H -14.8085763584 -1.0235278632 -0.6377010671
H -11.8597249475 0.5642465449 0.5078297962
H -13.1008011164 -0.6540167655 2.3026192798
H -11.3592884783 -0.6077021664 2.6453729231
H -12.1039685738 -2.0980422095 2.0163295937
H -6.4357023978 -1.8598065377 -0.6548053519
H -6.2513745770 -0.0362896197 -3.1183709435
H -7.0306489682 -1.6333250704 -3.0694719445
H -5.2755715389 -1.4988582563 -2.8348999509
H -1.8304282439 1.7475889379 1.0446724915
H -2.4729605893 0.9595986583 3.9416882064
H -3.2553088235 2.2667074562 3.0257225406
H -1.5327472269 2.3849440227 3.4386141789
