47
CONF4
C 2.7330213608 -3.1930538379 -2.6556903890
C 3.2593077403 -1.9248692009 -2.1155705770
C 2.7418720580 -0.9485426603 -1.3016806158
C 3.8024003434 0.0009434549 -1.1812660966
N 4.8658133088 -0.3694928307 -1.8575710319
O 4.5144271872 -1.5870450502 -2.4633982948
C 3.8423433711 1.2537360721 -0.4092162657
C 3.9732665615 2.4858108684 -1.0529056893
C 4.0001730170 3.6948595525 -0.3822521348
C 3.8935084790 3.6797796190 1.0036664235
C 3.7640579975 2.4810574939 1.6994491503
C 3.7409434576 1.2895784331 0.9886533251
Cl 3.5997377641 -0.2170719616 1.8703968290
F 4.0530150125 2.4928093074 -2.3991220592
C 1.3970147905 -0.9739248955 -0.7029169122
O 0.8023318492 -2.0332015026 -0.4865452098
N 0.8486569097 0.2331861467 -0.3979199712
C -0.4249146908 0.3365686028 0.2401111486
C -1.7321833892 -0.1878655918 -0.4532795558
N -1.9549318908 -1.0395943013 0.7192634537
C -0.7992310076 -0.6459983376 1.3773611831
O -0.3418649228 -0.9423822074 2.4567526003
C -3.3009906059 -1.1692056055 1.2222834963
C -3.9776893236 0.2376673878 1.0165552530
S -3.2250788087 0.8822527935 -0.5814585929
C -3.5994155097 1.1461246280 2.1860552540
C -5.4922863084 0.1782597534 0.8520224724
C -4.0299975324 -2.2829202196 0.4858422110
O -3.8101343684 -2.6065092188 -0.6601220732
O -4.9599547101 -2.8529451074 1.2685473459
H 2.9995405076 -4.0219332693 -1.9901638201
H 1.6454018038 -3.1474213169 -2.7178695740
H 3.1615470733 -3.3899091915 -3.6410724845
H 4.0984296878 4.6186875786 -0.9405197518
H 3.9122097574 4.6146718293 1.5531487080
H 3.6868971337 2.4707316862 2.7799175950
H 1.3223920786 1.0852363889 -0.6589456401
H -0.5656738816 1.3620295543 0.5936345965
H -1.5731092094 -0.7242034296 -1.3911494585
H -3.2757662507 -1.4002560771 2.2919354274
H -2.5179103151 1.1844248308 2.3423973161
H -4.0706585153 0.7751348881 3.1035565868
H -3.9525281825 2.1632820505 1.9982617757
H -5.8861241702 1.1855224682 0.6903574232
H -5.7906755499 -0.4476603901 0.0068414088
H -5.9445239015 -0.2183323974 1.7666510238
H -5.4326667085 -3.5280172635 0.7497733658
