54
CONF36
C -3.4458029157 1.5097933653 -0.9198917256
C -2.3932115718 0.4529654623 -0.5051514246
C -2.2335714755 0.4840605413 1.0265226178
C -3.4720571840 -0.0278795257 1.7616997074
C -3.9538492088 -1.3711691806 1.2461398337
O -4.6170032083 -2.1248620344 1.9440752377
C -3.6082653126 -1.7099140560 -0.1358800053
C -2.8975138606 -0.9025232477 -0.9475060509
C -2.5047671337 -1.3193256047 -2.3279643858
C -0.9913474748 -1.5910235880 -2.3083936133
C -0.1753730202 -0.3622742740 -1.8363363309
C -1.0692712931 0.7989369097 -1.3057106290
C -0.2635751193 1.8638925414 -0.5737903699
O -0.5552612453 3.0407583766 -0.6742756564
C 0.8793742742 1.4103693842 0.3061592346
C 1.8269851334 0.4164836832 -0.3938467702
C 1.0149652245 -0.7770573413 -0.9571590907
C 0.7364161865 -1.6967065661 0.2572992355
C 1.7705212048 -1.3031549018 1.3400870633
C 2.7417079828 -0.3310433205 0.6506002630
C 3.4284174725 0.6115229215 1.6249755134
O 2.8076347778 1.1684660628 2.5140236290
C 4.9094686993 0.8676218468 1.4706862842
O 5.3647440452 1.8419495478 2.3722232876
O 3.7967383268 -1.0335303993 -0.0188632703
C 2.6297671380 1.1559182236 -1.4617064522
H -4.3865514046 1.3527544615 -0.3879467787
H -3.0680344700 2.5132357279 -0.7024390698
H -3.6558876687 1.4496285781 -1.9918584157
H -1.3897743175 -0.1485352741 1.3185117998
H -1.9999124453 1.5046089885 1.3523670322
H -3.2848752783 -0.1253939308 2.8348477651
H -4.3104048306 0.6731979602 1.6612092819
H -3.9743434731 -2.6705533928 -0.4909697376
H -2.7367076207 -0.5292156544 -3.0541737194
H -3.0478864599 -2.2185250291 -2.6313088120
H -0.6548719174 -1.9089148953 -3.3009976810
H -0.8256563930 -2.4359062250 -1.6326542384
H 0.2826505146 0.0725027718 -2.7338550262
H -1.4296722711 1.3133907530 -2.2020199908
H 1.4146692235 2.3008097293 0.6423904127
H 0.4378162774 0.9538416637 1.1987326962
H 1.6857251018 -1.3220782185 -1.6399744617
H -0.2855439239 -1.5791231593 0.6256888354
H 0.8326235321 -2.7499949403 -0.0204712861
H 1.2973963794 -0.8036354260 2.1889740164
H 2.3267626518 -2.1563843473 1.7379218990
H 5.4292932579 -0.0934703152 1.6159241816
H 5.1136544079 1.1617899426 0.4292949431
H 4.6021065414 2.0638794062 2.9316075521
H 3.4111505611 -1.7572356026 -0.5240466184
H 3.1972616904 1.9816190138 -1.0199138669
H 1.9628043447 1.5965005293 -2.2105237322
H 3.3303367544 0.4889317462 -1.9691822005
