47
CONF19
C 4.2550291955 2.3079212526 -2.1090622341
C 3.7209002006 1.2538755294 -1.2256245113
C 2.4823408591 0.6856463509 -1.0606668467
C 2.6806857927 -0.2841098802 -0.0310650046
N 3.9255832068 -0.3066574790 0.3838744933
O 4.5835612652 0.6838642551 -0.3652107846
C 1.7176573585 -1.2360372884 0.5548520294
C 1.2186397916 -1.0820255326 1.8551765231
C 0.3359622422 -1.9935127097 2.4197796225
C -0.0814852200 -3.0826522142 1.6652486036
C 0.3693809322 -3.2637374490 0.3624907894
C 1.2592828763 -2.3435885754 -0.1716369227
Cl 1.8317217275 -2.5792713638 -1.8100233338
Cl 1.6749197809 0.3272612747 2.7906401280
C 1.2861419552 1.0055141021 -1.8585610097
O 1.3724976597 1.4813205276 -2.9911735472
N 0.0942045614 0.7164117380 -1.2589825598
C -1.1581313659 0.9026790526 -1.9108423287
C -2.2333095053 1.8510089776 -1.2696440331
N -3.1763541140 0.7191947707 -1.2924451151
C -2.2114898015 -0.2099038098 -1.6676516103
O -2.2282884802 -1.4162390901 -1.7217912341
C -4.1020912973 0.5987288427 -0.1841821453
C -3.3216935100 1.0541076335 1.1062884752
S -2.0871046990 2.3396970670 0.4952011957
C -2.5708224820 -0.1421787035 1.6895854947
C -4.2106116867 1.6950322595 2.1674155959
C -5.3873098174 1.3808087216 -0.4035685502
O -5.1872952918 2.5205803919 -1.0822358988
O -6.4637762094 1.0173297241 0.0163018261
H 5.0585597553 2.8503407030 -1.6054446152
H 4.6599806475 1.8590488823 -3.0231600309
H 3.4573543523 2.9939138677 -2.3947946256
H -0.0291966877 -1.8424964204 3.4285160840
H -0.7755692005 -3.7967867225 2.0950963089
H 0.0382784766 -4.1081696848 -0.2300190747
H -2.5253131324 2.7117631096 -1.8733005871
H -3.2876328236 -0.8773208237 2.0733560863
H -1.9304518076 0.1844869581 2.5133043980
H -1.9369646267 -0.6314046107 0.9448396407
H -4.7311578407 2.5792187501 1.7904102297
H -4.9506635069 0.9657220648 2.5130066876
H -3.6039398678 1.9934104114 3.0268191652
H -0.9861630533 1.1198407091 -2.9683800195
H 0.0836573535 0.4657175166 -0.2799605069
H -6.0391418207 2.9841684497 -1.1704630151
H -4.3884421330 -0.4508687469 -0.0685443810
