38
CONF2
O 0.7343455484 -2.4383969372 1.5954731552
P 0.0282651992 -1.5009871467 0.7115426198
O -0.7693847102 -2.1369845948 -0.5328112971
C -0.3059187589 -3.2201584513 -1.2836886071
C 1.0450129608 -3.4395560979 -1.5190868467
C 1.4155480056 -4.5216089602 -2.3119863511
C 0.4529579961 -5.3600778833 -2.8651482146
C -0.8956237022 -5.1169084959 -2.6201592665
C -1.2830255874 -4.0453024341 -1.8239624060
O 0.9130790569 -0.3904523526 -0.0656312047
C 1.5317168801 0.6620962442 0.6217203727
C 1.4632157467 1.9102163929 0.0166972235
C 2.0629129626 2.9946710848 0.6445323983
C 2.7167279140 2.8285414224 1.8632685957
C 2.7776300553 1.5678256783 2.4482221445
C 2.1899383537 0.4667327113 1.8294579021
O -1.1172621051 -0.6691728997 1.4672417567
C -1.5915729498 0.5797493617 1.0479960042
C -2.1020217855 0.7737487625 -0.2281932129
C -2.5647398079 2.0408986359 -0.5735820069
C -2.5243454408 3.0847484853 0.3458538263
C -2.0216863677 2.8611509280 1.6251240344
C -1.5500709393 1.6040324891 1.9837386344
H 1.7955134510 -2.7860874604 -1.0890034842
H 2.4688661928 -4.7046400886 -2.4968863416
H 0.7523067458 -6.1998216253 -3.4827641379
H -1.6538143313 -5.7666097449 -3.0448753457
H -2.3266582182 -3.8412446010 -1.6127503931
H 2.0094292654 3.9749092463 0.1823382769
H 3.1796883700 3.6785116858 2.3529254472
H 3.2920275231 1.4302800239 3.3937379168
H 2.2361566735 -0.5220256628 2.2725736720
H -2.1295822477 -0.0465946832 -0.9356662595
H -2.9628023126 2.2071609253 -1.5693783000
H -2.8873362183 4.0684227646 0.0679622159
H -1.9867939359 3.6700692570 2.3473195619
H -1.1350125783 1.4080707488 2.9659576567
H 0.9258263395 2.0167762019 -0.9189089180
