39
CONF153
C 3.4601679711 1.2071726264 -1.0515332309
C 3.0176667549 -0.0702070066 -1.7645856112
C 2.7970757007 -1.2611307078 -0.8254519546
C 1.7080482479 -1.0419339804 0.1991622874
C 1.3702560814 -2.2361847449 1.0755916401
O -0.0181301437 -2.0231109403 1.4172625305
C -0.5568420119 -1.0753520210 0.4901590060
C -1.7512245354 -1.7261379073 -0.2317713901
N -2.3613166465 -0.8124386187 -1.1808596355
C -1.9695063391 -0.5211489190 -2.4377080960
N -2.7293113709 0.4434741486 -2.9431046710
C -3.5869103897 0.7167576108 -1.9190593049
N -3.4024752416 -0.0160435123 -0.8284711935
O 0.4399868811 -0.8415173873 -0.4778198466
C -0.9364717760 0.2249873979 1.2066713447
C -1.7336436160 0.2859921228 2.3535165042
Cl -2.3854767302 -1.1623692423 3.1097341427
C -2.0768404599 1.4927223046 2.9545401630
C -1.6161077662 2.6698336893 2.3818819243
Cl -2.0444509114 4.1976359777 3.1325093748
C -0.8353671498 2.6640101528 1.2351721993
C -0.5117125863 1.4401826281 0.6642382632
H 4.3579963796 1.0280347308 -0.4491835648
H 3.6912470935 1.9948024103 -1.7752778272
H 2.6811701844 1.5921922184 -0.3854378923
H 3.7787322097 -0.3567889781 -2.4995432376
H 2.0967860720 0.1190673743 -2.3291391296
H 3.7239913194 -1.4757900421 -0.2773737001
H 2.5488783385 -2.1566782735 -1.4081373366
H 1.9176960421 -0.1637838827 0.8271835575
H 1.9527134052 -2.2748221579 1.9994020207
H 1.4738330479 -3.1775475356 0.5202146270
H -1.3794142174 -2.6036570962 -0.7668931639
H -2.5100612268 -2.0303618009 0.4894833669
H -1.1530127848 -1.0328548075 -2.9297327764
H -4.3681821500 1.4642228129 -1.9769402666
H -2.6928962162 1.5087619142 3.8452089085
H -0.4881778329 3.5900673929 0.7924282021
H 0.0912866063 1.4199428593 -0.2363363182
