28
CONF72
O -2.7954535466 0.9805966692 -2.8590238079
C -1.5152987426 0.6571556526 -2.3109311379
C -1.7373615036 -0.4376198058 -1.2796709733
O -0.4461194347 -0.9667055444 -0.8887971182
C -0.2505845529 -0.7676478918 0.5124928330
C -1.2130346506 0.3478079816 0.9069352812
C -2.4092574857 0.0525623968 0.0047393978
O -3.2030300980 -1.0280174922 0.5091662043
N 1.1681685311 -0.4582272979 0.7376061065
C 1.7872507386 0.5015286617 -0.0204411384
C 3.0873963649 0.8345741220 0.1303442492
C 3.8883963847 0.1691210658 1.1255986009
O 5.0764412374 0.3762066892 1.3619694420
N 3.1817011582 -0.7949079284 1.8584402811
C 1.8549137985 -1.1539948978 1.7348459010
O 1.3343647017 -2.0022263101 2.4458869290
H -2.6737168034 1.6914911705 -3.4991995864
H -0.8312584746 0.2775028013 -3.0826840698
H -1.0516790101 1.5361244904 -1.8363423914
H -2.3268589319 -1.2475941213 -1.7258636206
H -0.4507538566 -1.6907962128 1.0625656444
H -0.7852934623 1.3270555245 0.6646144233
H -1.4658089907 0.3277087545 1.9696444571
H -3.0278485929 0.9386553819 -0.1825573554
H -3.5957065930 -0.7421239590 1.3438802241
H 1.1594547145 0.9678630270 -0.7712173818
H 3.5449959449 1.5924664826 -0.4903898282
H 3.6959817537 -1.2885588124 2.5783884187
