37
CONF445
C -2.2391991235 -2.7502841622 -2.2316143604
C -2.1111481653 -1.2611751912 -2.4638668292
O -0.9222339656 -0.7170318728 -1.8058415329
P -0.9799619517 -0.3409330292 -0.2601220752
O -2.2658249689 0.1657709011 0.2692457559
O -0.3695901836 -1.6155457163 0.4769803374
C -0.7825041942 -1.9578295068 1.8470122222
C -1.8603195890 -3.0151491977 1.8114293789
O 0.2209189553 0.7541079394 -0.2883962580
P 1.1715719858 1.2214179579 0.9541382612
O 0.6739412010 0.8134530948 2.2826626141
O 2.5930595706 0.6259764786 0.5890689870
C 3.2221008984 0.8764265766 -0.7105386241
C 4.4676972469 0.0273369949 -0.7763756214
O 1.3405771754 2.7788112549 0.6749417896
C 0.3821908213 3.7327019263 1.2487316663
C -0.9551375937 3.6914019555 0.5439740134
H -3.0791334451 -3.1338875381 -2.8197308784
H -2.4296862481 -2.9734803621 -1.1786161575
H -1.3293943434 -3.2709001815 -2.5427630626
H -1.9564281665 -1.0331591927 -3.5208109220
H -2.9899311620 -0.7148218888 -2.1067205577
H -1.1124780369 -1.0527779426 2.3604212756
H 0.1316208169 -2.3158796702 2.3255328423
H -2.1029067829 -3.3151966011 2.8361152065
H -2.7694573354 -2.6248919005 1.3449852220
H -1.5247645340 -3.8997618568 1.2623696792
H 3.4530976667 1.9443421014 -0.7775902032
H 2.5103048707 0.6098397983 -1.4990446857
H 4.2169106853 -1.0335700638 -0.6963731413
H 4.9688237728 0.1958321982 -1.7343135772
H 5.1588483478 0.2901528467 0.0286804275
H 0.2860208126 3.5165121298 2.3173233299
H 0.8743305228 4.6992639437 1.1222916931
H -1.5845053845 4.4951508784 0.9396914042
H -0.8334088029 3.8449648102 -0.5320206467
H -1.4740005579 2.7428117805 0.7091434294
