37
CONF11
C 5.4985353858 0.1765121694 1.6257247974
C 4.5106354711 -0.9479886366 1.4033238438
C 5.1280465693 -2.1752567851 0.7607023609
O 3.4877620911 -0.3969352684 0.4890134036
C 2.2876435908 -0.9766501209 0.4887428375
O 1.9396357411 -1.8679345980 1.2414570408
C 1.3555915716 -0.3659212369 -0.5070684996
C 1.6845012148 0.0187996133 -1.8135641535
C 0.7268447883 0.5619763242 -2.6615055190
C -0.5607405520 0.7283067625 -2.1867677373
C -0.9525405103 0.3488607878 -0.9017117775
C 0.0325967351 -0.2074594424 -0.0886057229
C -2.3255280788 0.5211062473 -0.4242510392
N -3.3738797632 0.1109009067 -1.1541097720
N -4.4650681808 0.4041745517 -0.4458972323
C -4.1609009200 0.9904640446 0.7438601894
C -2.7759300783 1.0864553017 0.7859279313
Br -1.7013139137 1.9017914120 2.0958064139
C -5.2157767306 1.4311490048 1.6995911906
F -6.1545826181 0.4705338538 1.8871146687
F -5.8762889934 2.5326838445 1.2547545093
F -4.7014584785 1.7322783168 2.9033435176
C -5.7804881194 0.0309390896 -0.9634453202
F -1.4615684110 1.2889428865 -3.0129025452
Cl 3.2779602948 -0.2343695171 -2.4894451162
H 5.0056396530 1.0507918879 2.0590179002
H 6.2763026115 -0.1618331216 2.3160642278
H 5.9729972102 0.4638263580 0.6822338373
H 4.0019269941 -1.2111693323 2.3353349917
H 4.3765378333 -2.9469161330 0.5758987964
H 5.8886842054 -2.5876090324 1.4303788101
H 5.6070093331 -1.9060920376 -0.1858816127
H 0.9695229488 0.8528703896 -3.6766198632
H -0.2289215025 -0.5400910457 0.9095453511
H -6.4923272441 0.8387789699 -0.7850385669
H -6.1301251712 -0.8858671876 -0.4818534451
H -5.6709353690 -0.1300496504 -2.0354737110
