47
CONF39
C -6.6460337705 -0.8345110252 3.0261955276
O -6.1386110753 -0.0302586348 1.9222779396
P -5.3500484765 -0.7225670822 0.7182522108
S -3.9735113966 -2.0177274932 1.1719675845
O -6.5522242027 -1.2168659469 -0.2100562417
C -6.2781675186 -2.0149617115 -1.3971841923
O -4.8484967614 0.5826368051 -0.1050594811
C -3.6269305366 1.2000106156 0.1820077054
C -2.5996547867 1.0736667304 -0.7451948362
C -1.3941458620 1.7212462383 -0.5112465510
C -1.2160633858 2.4620579765 0.6611866251
C -2.2577443585 2.5753014503 1.5833919908
C -3.4780713240 1.9518985296 1.3385275678
S 0.3007902826 3.3549774508 0.9794239046
C 1.5599637015 2.1431063098 0.5975721195
C 1.4190245001 0.7961107236 0.9442453339
C 2.4432576096 -0.1007136408 0.6707489934
C 3.6129174659 0.3625760198 0.0809865032
C 3.7792057930 1.7003743719 -0.2495861718
C 2.7394599419 2.5913459153 -0.0009742770
O 4.6466413852 -0.5529689514 -0.1280148997
P 5.0895568875 -1.0147177030 -1.6290651797
S 3.6342798430 -1.2400039984 -2.8904941049
O 5.9970732208 -2.2765006042 -1.2636930272
C 5.3793654922 -3.4921115219 -0.7516755921
O 6.1694533927 0.0431559678 -2.1326267265
C 7.3409182007 0.3570035013 -1.3145825303
H -7.3905468914 -1.5465122932 2.6608601413
H -7.1069198166 -0.1261653609 3.7136240764
H -5.8212382880 -1.3584099699 3.5151595576
H -5.7855538905 -2.9480552254 -1.1133016205
H -7.2512120328 -2.2186351599 -1.8427178765
H -5.6542416904 -1.4489502005 -2.0941741717
H -2.7531274574 0.4832868897 -1.6421557243
H -0.5906186942 1.6412408452 -1.2358542922
H -2.1192773720 3.1462694927 2.4954917976
H -4.2961769658 2.0360878714 2.0452876762
H 0.5097566389 0.4436217224 1.4194992217
H 2.3466886025 -1.1517293817 0.9216760261
H 4.7006009816 2.0427223939 -0.7087698947
H 2.8499316073 3.6351113009 -0.2765494345
H 4.8693179889 -3.2839164601 0.1923682505
H 4.6769803380 -3.8904295458 -1.4883736703
H 6.1984781418 -4.1922706875 -0.5922326751
H 7.8139900940 1.2086529406 -1.8018033826
H 7.0329661093 0.6256184725 -0.3008287642
H 8.0179972297 -0.4990977409 -1.2974894340
