92
CONF621
C -6.5848157166 -1.9289814286 -1.6137591363
C -6.5485852787 -0.6366461249 -0.8000287091
C -5.3089727846 -0.5270221998 0.0734693178
C -5.2321392362 0.7531503466 0.9136070627
C -3.9057062465 0.8287069202 1.6325910465
C -3.2942926190 2.0825595355 2.1147341648
O -2.7809056758 1.4222256660 0.9384738772
C -2.4562339360 1.9762872743 3.3435083842
C -1.1243578811 2.0873103046 3.4378589959
C -0.2143119405 2.4634894143 2.3323393197
O -0.5943176420 3.1348242014 1.3782480777
C 1.2410170620 2.0424439745 2.4541177817
C 1.4014973338 0.5201319409 2.5972498432
C 0.6750412528 -0.3411239994 1.5415534766
C 1.0278334536 0.0302563404 0.0756998647
C -0.1830217123 0.0291778473 -0.8762750472
C -0.6894298055 -1.3904020145 -1.2047596828
C -2.1323574963 -1.3896143862 -1.7107713574
C -3.1295182834 -1.3565495845 -0.5786001167
O -3.0249850306 -2.0214772746 0.4353494501
O -4.1642569173 -0.5439914704 -0.8505224215
O 0.1069953961 -2.0340140391 -2.2129378158
C 0.1178259383 0.8422746771 -2.1383181036
O 2.0176895670 -0.8360305435 -0.5246667920
C 3.3479708226 -0.7268609565 -0.0311994645
C 4.1734246624 -1.6837244542 -0.8907617180
C 4.3992611801 -1.1312215378 -2.3109048637
C 4.8951125422 0.3144397572 -2.2149607598
C 3.9608197384 1.1619771769 -1.3628945035
O 3.8291062680 0.5922599155 -0.0355308046
C 4.4629820985 2.5772274600 -1.1697921905
N 5.3720700122 -2.0130822586 -2.9922240690
C 4.7695419087 -3.3181216150 -3.2989874981
C 5.9038484516 -1.4311092520 -4.2303287839
O 5.4227958434 -1.8869412316 -0.2334962546
C 0.8742071022 -1.8199723935 1.8867473157
C -0.1043003931 -2.3745146270 2.8756265784
O -1.0349267865 -1.7646609384 3.3662296710
C 1.9200735867 2.7673549510 3.6279234989
C -3.9389437370 3.4326172231 1.9161934776
C -6.3561354440 0.7981714047 1.9573009736
H -5.7412438090 -1.9856745010 -2.3078048931
H -6.5424277453 -2.8034150741 -0.9551569135
H -7.5073436752 -1.9903961647 -2.1980710242
H -7.4259800789 -0.5945510199 -0.1472888977
H -6.5966643463 0.2387285554 -1.4601295650
H -5.2237104039 -1.4014200742 0.7284532486
H -5.3196485328 1.6099590747 0.2356653335
H -3.6388931951 -0.0799491668 2.1794787253
H -3.0207152150 1.7560667641 4.2494570925
H -0.6612267856 1.8847910464 4.4003062957
H 1.7228934020 2.3817237392 1.5311621252
H 2.4765187557 0.3008787487 2.5893998188
H 1.0326435450 0.2160237800 3.5860467659
H -0.3982659587 -0.1328542009 1.6515972363
H 1.4306939096 1.0489741365 0.0693297520
H -0.9883677877 0.5323068364 -0.3272004981
H -0.6783369080 -1.9984568383 -0.2914573677
H -2.3103220702 -2.3388114773 -2.2331428157
H -2.3260007301 -0.5821044616 -2.4197487957
H 1.0290182202 -1.9034552333 -1.9422542902
H 0.9595682798 0.4168744831 -2.6914258756
H -0.7427943412 0.8748236277 -2.8122408464
H 0.3705384901 1.8720445599 -1.8657527808
H 3.4059984007 -1.0416437696 1.0186309071
H 3.6075908038 -2.6255501453 -0.9316510507
H 3.4262317108 -1.1364561203 -2.8400409199
H 4.9396324128 0.7710443799 -3.2080913634
H 5.9039300763 0.3405293304 -1.7835928156
H 2.9654170160 1.1838211420 -1.8284210674
H 4.5457254028 3.0784937607 -2.1383507254
H 5.4488272165 2.5713302339 -0.6935414711
H 3.7705549267 3.1461751336 -0.5421318000
H 3.8919109291 -3.2236725751 -3.9643125409
H 4.4560343264 -3.8298958837 -2.3858175049
H 5.5129095504 -3.9487320726 -3.7951639890
H 6.5593881859 -2.1655649119 -4.7072029230
H 5.1073813735 -1.1641028487 -4.9491653350
H 6.4990793997 -0.5398995448 -4.0213812572
H 6.0418536458 -2.1062315033 -0.9533873557
H 1.8711973524 -2.0150508008 2.3117935072
H 0.8364572909 -2.4821091767 1.0109532617
H 0.0734282245 -3.4360466384 3.1504065074
H 2.9911686332 2.5423100708 3.6181710574
H 1.5168446570 2.4414828561 4.5913528302
H 1.7969840156 3.8515653279 3.5467164374
H -4.5128531800 3.7056528227 2.8077603778
H -3.1593294274 4.1844069032 1.7664494075
H -4.6072691518 3.4352385704 1.0535739388
H -6.3224222441 -0.0879244181 2.6012026394
H -7.3414180065 0.8452226195 1.4888856496
H -6.2417882290 1.6826768206 2.5900316558
