41
CONF12
C -0.5846365872 0.2518627497 -2.7590764115
C -0.0430393978 -0.9629730223 -2.0603531875
C 0.2657058925 -2.1117898655 -2.7973015635
C 0.7889015908 -3.2394997374 -2.1790133626
C 1.0150157536 -3.2434804754 -0.8051103404
C 0.7175703067 -2.1215413686 -0.0327550540
C 0.1892295997 -0.9890833398 -0.6784467542
N -0.1177626895 0.1652021233 0.1227419150
C -1.3749947456 0.2421098791 0.8923592848
C -2.4070865752 -0.7842589103 0.4273793314
C -1.9938763164 1.6297279932 0.7410367465
O -2.0830757605 2.2480639949 -0.2990076256
O -2.5353288221 2.0250141714 1.9025186497
C -3.2542015721 3.2841376496 1.8604358712
C 0.8160377747 1.1184852976 0.3961226584
O 0.5866774401 2.0371192744 1.1846216965
C 2.1482272667 1.0073550128 -0.3549836140
O 3.1066967041 1.9227187014 0.1220566838
C 3.6940849527 1.4965279477 1.3557745202
C 0.9676419488 -2.1185770461 1.4486369917
H 0.2365917188 0.8711591843 -3.1412817670
H -1.1922071354 -0.0449107627 -3.6179923922
H -1.1818596962 0.8757251008 -2.0920988672
H 0.0865237781 -2.1121419408 -3.8687738813
H 1.0211099533 -4.1216825323 -2.7678617325
H 1.4266536144 -4.1252936936 -0.3229107916
H -1.1567048431 0.0915938618 1.9563733671
H -2.6549207140 -0.6414729026 -0.6278903406
H -2.0392105369 -1.8025229839 0.5712316004
H -3.3158556807 -0.6608155438 1.0223017215
H -2.5756395994 4.0912658294 1.5744667592
H -3.6281898892 3.4364923487 2.8718138965
H -4.0801972921 3.2216468589 1.1482273401
H 2.5241141403 -0.0260464440 -0.3105371249
H 1.9648194253 1.2449927762 -1.4101146952
H 4.2040515557 0.5310930274 1.2267984897
H 2.9399023926 1.4055627694 2.1473397552
H 4.4240052115 2.2578644028 1.6383326806
H 1.4700588378 -3.0390500003 1.7523434575
H 0.0324525031 -2.0409202287 2.0142473659
H 1.5927156930 -1.2696596327 1.7483488130
