42
CONF31
C -3.0191248032 -2.1056519688 0.6685506785
C -2.4209330181 -0.8697088403 0.0896984128
C -3.0670273172 0.1481688934 -0.5461007007
C -2.0912749402 1.1674861871 -0.9215992716
C -0.7996603230 0.7317553116 -0.5327502006
C -0.9719872836 -0.5919134287 0.0988450252
C -0.0755555027 -1.4511507423 0.6435853375
C 1.3815468833 -1.4160548504 0.6002908128
C 2.1097280310 -1.8436204783 1.7232395865
C 3.4987537038 -1.8527181406 1.7134307577
C 4.1654431836 -1.4563645744 0.5613086461
C 3.4723097223 -1.0858415006 -0.5888266875
C 2.0856706974 -1.0597942293 -0.5623162236
S 5.9838798101 -1.5184148813 0.5270982221
O 6.4276793186 -2.2046587882 1.8213810812
C 6.2582331501 0.2795801928 0.7836740372
C 0.2860786259 1.5857367051 -0.6804530153
C 0.1034304628 2.8441559641 -1.2635878782
C -1.1681105702 3.2120972241 -1.6714583747
C -2.2907186685 2.4108674385 -1.5099273268
F -1.3321743953 4.4343222866 -2.2460597730
C -4.5233330191 0.2898226459 -0.8187015052
C -5.2186067662 1.2370210070 0.1373974341
O -4.7339946300 1.7156359217 1.1401679677
O -6.4842539234 1.4800363729 -0.2604525545
H -4.1055297031 -2.1122838140 0.5645093600
H -2.6237012827 -3.0047210402 0.1819888174
H -2.7849795054 -2.1893768158 1.7364031934
H -0.4866345198 -2.2951049087 1.1958845490
H 1.5756835450 -2.1592976548 2.6147982460
H 4.0640873929 -2.1727346349 2.5827831224
H 4.0059390883 -0.8279550276 -1.4994784561
H 1.5368523043 -0.7971989536 -1.4604151032
H 7.3397300745 0.4286013567 0.8295334936
H 5.8336017198 0.8225688491 -0.0650193766
H 5.7761955154 0.5691467878 1.7209816485
H 1.2782974411 1.3046060822 -0.3486746940
H 0.9337283996 3.5284118405 -1.3973018612
H -3.2686472822 2.7676070446 -1.8169633450
H -5.0474734498 -0.6697589565 -0.7506528536
H -4.7020296122 0.6562823486 -1.8373185295
H -6.9011188716 2.0704142606 0.3905589992
