50
CONF22
C 0.6825597804 -1.2663304283 -0.2806242199
S -0.5820960330 -0.5526018026 -1.3851018551
C 0.6703000657 0.4901199021 -2.2427920284
C 1.5086666897 1.3591054709 -1.3376489840
C 1.9874971202 2.6288301131 -1.9587912983
S 2.9898729252 2.3296214142 -3.5034423545
C 4.4318012371 1.6782905555 -2.7694025952
N 4.7894511593 1.7038053534 -1.4880864142
N 5.9933197442 1.0808073690 -1.4393236189
N 6.3749315082 0.6944768965 -2.6121680525
N 5.3999739485 1.0533249841 -3.4750056356
C 5.4760509158 0.7879227712 -4.9049642715
C 1.8454227459 0.9905376974 -0.0780966159
N 1.4021098343 -0.2207863408 0.4489392820
C 0.9490123889 -0.6101465070 1.7100140555
O 1.1263020530 -0.1672543928 2.8161571815
C 0.2331880464 -1.8449691797 1.0996678526
N -1.1572175239 -2.0210740646 1.4105104028
C -1.9769245178 -1.0044076372 1.7697586072
O -1.6682330904 0.1820477439 1.7337812125
C -3.3501660061 -1.4368813153 2.2443451762
N -3.5592146044 -1.8049272159 3.4639765673
O -2.3773458590 -1.7967266703 4.2043517280
C -2.6558863053 -2.2254038447 5.5483151808
C -4.4543100733 -1.3633284386 1.3057618729
C -4.3077324609 -0.9256356594 0.0150723344
S -5.8329779382 -0.9805814488 -0.8102953580
C -6.5653764614 -1.6061204108 0.6893739939
N -7.8753092485 -1.9573092827 0.7236978239
N -5.7286655851 -1.7450310558 1.6814312099
C 2.7138001215 1.8039273045 0.8259559104
O 3.5706704371 1.0239356698 1.5035469707
O 2.6573606304 3.0107554527 0.9412854044
H 1.3536653380 -1.9111475327 -0.8558779168
H 1.3121355734 -0.1645184086 -2.8437925232
H 0.1105714133 1.1224584662 -2.9391891552
H 1.1394199173 3.2103613501 -2.3368783310
H 2.5758548884 3.2518144884 -1.2901109271
H 5.5559183684 1.7303307777 -5.4534750790
H 4.5789382502 0.2490360237 -5.2211026096
H 6.3597973747 0.1767507419 -5.0859444053
H 0.7625173877 -2.7749346637 1.3233245141
H -1.4969935037 -2.9667092960 1.5174095692
H -3.0441708142 -3.2488629302 5.5529119228
H -3.3684460329 -1.5469940799 6.0282533207
H -1.6952242364 -2.1866825001 6.0645636133
H -3.4171756154 -0.5654179704 -0.4816893561
H -8.4956844717 -1.5626570894 0.0333904542
H -8.2756645210 -2.0756616761 1.6436121892
H 4.0980676457 1.5920453033 2.0916789701
