29
CONF7
C -3.1951275350 -1.3475116778 -0.2616480465
C -2.1566972291 -0.5212914444 0.4474695658
O -2.5679095260 0.8854014898 0.4354741583
C -1.4702501919 1.6043727624 0.0487564566
C -1.3121892185 2.9750640902 0.0290548563
C -0.0898825458 3.4620896846 -0.4595528314
C 0.9140409192 2.6033818503 -0.8985495481
C 0.7195012592 1.2192875991 -0.8717470005
C -0.4822299476 0.7341657285 -0.3973720868
O -0.9053941624 -0.5577024800 -0.3248956774
O 1.6898102380 0.3683045381 -1.3819827064
C 2.2909757494 -0.4929795074 -0.4702782476
O 2.1144864211 -0.4254604953 0.7341475107
N 3.0889334142 -1.3576130662 -1.1119648095
C 3.8460439083 -2.3664222055 -0.3827763025
C -1.8604143874 -0.9375521064 1.8703185446
H -2.8701497138 -2.3902557371 -0.2953877003
H -3.3404164960 -0.9765096548 -1.2786792249
H -4.1393847519 -1.2924003545 0.2856385894
H -2.0960010089 3.6402747276 0.3724855583
H 0.0787045190 4.5331289049 -0.4887825160
H 1.8590240564 2.9887653133 -1.2662305294
H 3.1105948707 -1.3458200053 -2.1194035771
H 4.5049815237 -2.8746664592 -1.0878296258
H 4.4539167653 -1.9001383015 0.3980730945
H 3.1834495999 -3.1049457763 0.0819798435
H -2.7717562237 -0.8701364441 2.4698250075
H -1.0960006032 -0.2833912305 2.2992526044
H -1.5006603910 -1.9694400390 1.8829042420
