51
CONF35
C 2.6076094979 1.0607447087 -0.4451683433
C 2.1017684331 0.0061716249 -1.3941942423
C 1.0205262929 0.2803985294 -2.2533813796
C 0.5696359944 -0.6803995497 -3.1570623232
C 1.1938941645 -1.9171238599 -3.2425228880
C 2.2584392813 -2.2000768431 -2.4003263265
C 2.7118246747 -1.2612833682 -1.4661061913
C 3.8357973898 -1.6515655748 -0.5794104517
C 5.0438410057 -2.0955360975 -1.1275886992
C 6.0929565366 -2.4959947509 -0.3066882064
C 5.9489645777 -2.4655757972 1.0770237271
C 4.7482310264 -2.0338317909 1.6341923094
C 3.7019166823 -1.6294204624 0.8133599735
C 0.3306412270 1.6142436077 -2.2237539592
O -0.3191017712 1.8586989838 -0.9384720227
C -1.5277210858 1.2650715668 -0.7792562453
O -2.0915964808 0.6288438469 -1.6424983778
C -2.0439728885 1.5248394771 0.5849447560
C -3.1003097447 0.5665664404 1.1338446648
C -3.4687129801 2.0035583647 0.8229716456
C -4.4008372703 2.2341779009 -0.3437379908
C -3.6634408877 2.9865009710 1.9565427368
C -2.9638135505 0.0824925127 2.5093045143
C -3.4845129564 -1.0483225595 2.9960298330
C -4.3194715816 -1.9999650056 2.1646332058
F -3.5716278942 -2.5963904714 1.2033734999
F -5.3152240569 -1.3332676098 1.5268755108
F -4.8912153162 -2.9713371392 2.8898000712
Cl -3.2091220782 -1.5270528549 4.6508529377
H 2.5778389482 2.0534007293 -0.9026999019
H 3.6342702190 0.8558431217 -0.1388070721
H 1.9911298837 1.1162577852 0.4584619455
H -0.2864652740 -0.4538126044 -3.7845133893
H 0.8406094869 -2.6624952863 -3.9472842353
H 2.7395375852 -3.1728687967 -2.4357929266
H 5.1599229045 -2.1105093714 -2.2072920818
H 7.0262367203 -2.8296554844 -0.7493405456
H 6.7663060211 -2.7793828520 1.7181705161
H 4.6234922039 -2.0188797592 2.7123850294
H 2.7609716196 -1.3096102492 1.2504809033
H -0.4185168634 1.6770131495 -3.0160842664
H 1.0327329620 2.4455331304 -2.3225311365
H -1.3047586859 1.8999986023 1.2853542855
H -3.4502979336 -0.1417997839 0.3906382626
H -4.2549824787 1.5001834840 -1.1368483137
H -5.4377508895 2.1741727102 0.0034653206
H -4.2422967075 3.2342544873 -0.7630735302
H -3.5723774234 4.0101399849 1.5788156661
H -2.9330463505 2.8615682107 2.7587856127
H -4.6645721103 2.8724839851 2.3863118038
H -2.3833494706 0.6895461041 3.1978166220
