46
CONF134
C -7.3585953745 0.2734878894 -1.2536296697
C -6.1601410621 0.2128556015 -0.3091967601
C -5.2326833270 1.4158712863 -0.4803431334
C -4.0401345027 1.4014188685 0.4553454817
O -3.2073128716 0.2165462847 0.2236468930
C -2.3224906042 0.2853790536 -0.7770374379
O -2.0949555936 1.2661583561 -1.4518697938
C -1.6691871900 -1.0805598511 -0.9890604699
C -2.5707474422 -1.9347447087 -1.8693829494
O -0.4288895556 -0.9371955618 -1.6801320039
C 0.6194789980 -0.3555609542 -1.0213448290
C 1.7969310885 -0.2345866071 -1.7680244570
C 2.9280008573 0.3290559144 -1.1982572311
C 2.8721002657 0.7702100041 0.1183478240
C 1.7158561448 0.6614817988 0.8698332650
C 0.5756417322 0.0960960743 0.2997292777
O 3.9943216796 1.3972391251 0.6807323222
C 4.9469821172 0.6073608661 1.2370325106
C 6.0828547652 1.2640988277 1.7325205551
C 7.1206810929 0.5890801187 2.3271988560
C 7.0320782910 -0.8090039367 2.4383056461
C 5.9070215552 -1.4859784612 1.9512019201
C 4.8722369246 -0.7809168431 1.3550130264
C 8.0886914868 -1.5327975356 3.0498129917
N 8.9503585381 -2.1256513478 3.5503412340
F 6.1430178882 2.6056852049 1.6142753432
H -7.9506012857 1.1782082518 -1.0765044990
H -7.0301308458 0.2882539949 -2.2987661766
H -8.0149601190 -0.5916600572 -1.1189985107
H -6.5062551523 0.1719054643 0.7318448915
H -5.5962687888 -0.7102400814 -0.4890731267
H -4.8826624140 1.4792080633 -1.5182527430
H -5.7871704022 2.3420450421 -0.2780989131
H -3.4172234887 2.2914747880 0.3389644266
H -4.3513766517 1.3015682868 1.4978347398
H -1.5158518424 -1.5706232228 -0.0195654676
H -2.1051783303 -2.9101032504 -2.0291780936
H -3.5362839997 -2.0795497930 -1.3792789726
H -2.7289274699 -1.4470729609 -2.8354074929
H 1.8093473427 -0.5866601591 -2.7940181202
H 3.8476519838 0.4275467321 -1.7657921448
H 1.6997472920 1.0161188216 1.8950432540
H -0.3213468647 0.0195989552 0.9023225924
H 7.9808913793 1.1353045544 2.6969228354
H 5.8436670353 -2.5641059107 2.0419937816
H 4.0018170058 -1.3062470809 0.9799720359
