63
CONF39
C 2.3511871661 -1.7599144699 -0.0282273762
C 1.2582428969 -2.4656824531 -0.8255995984
N 0.1374041020 -1.5566836167 -1.0882126098
C 0.6003302853 -0.4243864228 -1.8990509504
C 1.6625571577 0.3806646498 -1.1575212019
C 2.8364798830 -0.5276197349 -0.7920762044
N 3.8877664071 0.1917290615 -0.0673524797
C 5.2040277589 0.3474416811 -0.4893971319
C 5.8705836767 -0.0840897203 -1.6275141833
C 7.2232275954 0.2491973943 -1.7495077987
C 7.8833536430 0.9885072259 -0.7655935098
C 7.2140567009 1.4242287696 0.3815837952
C 5.8743407108 1.0931404546 0.5011788892
N 4.9437732977 1.3616105579 1.4871106747
C 3.7108779391 0.8165163295 1.1648135405
O 2.6815466851 0.8778495936 1.8350998792
C -0.9772145632 -2.2599591159 -1.7390394524
C -2.3012033900 -1.5096250118 -1.5972156116
C -2.7877796558 -1.4534564387 -0.1474100071
C -3.8355409955 -0.3548045919 0.0965517321
C -4.4206589632 -0.4717887313 1.4944625280
C -3.6421703065 -0.1999968788 2.6243169418
C -4.1625841645 -0.3346860743 3.9075797995
C -5.4795594278 -0.7436353697 4.0404088172
C -6.2876357588 -1.0212754840 2.9532957184
C -5.7429194658 -0.8817149893 1.6775561913
F -5.9986634669 -0.8748106649 5.2918938545
C -3.3141657329 1.0531533753 -0.1509901410
C -4.2066850577 2.0420143656 -0.5773972826
C -3.7953702240 3.3562584563 -0.7790511080
C -2.4658428653 3.6652591217 -0.5472963853
C -1.5443514839 2.7221062233 -0.1294133144
C -1.9810757044 1.4135129437 0.0668365945
F -2.0482996911 4.9454648256 -0.7452700004
H 3.1889297865 -2.4456076729 0.1413623356
H 1.9544365913 -1.4546393086 0.9454066724
H 0.8863353309 -3.3240794959 -0.2552477165
H 1.6853079481 -2.8591274180 -1.7721267961
H 1.0121569223 -0.7801623888 -2.8670084739
H -0.2468782748 0.2294769289 -2.1275670760
H 1.2326254931 0.8101198649 -0.2471152253
H 2.0127220425 1.2033246047 -1.7912782124
H 3.2990820952 -0.8704678608 -1.7251397412
H 5.3711347982 -0.6581275215 -2.3998476600
H 7.7673978853 -0.0764107258 -2.6300118341
H 8.9336944533 1.2303377165 -0.8905470428
H 7.7201756397 1.9986886910 1.1501285653
H 5.1034101895 1.8771097600 2.3381591911
H -1.0780041226 -3.2430364034 -1.2606323747
H -0.7594646005 -2.4455053016 -2.8087593214
H -2.1985968160 -0.4935708281 -1.9950951762
H -3.0554404219 -2.0052005968 -2.2206349737
H -3.2309368126 -2.4174480944 0.1307895649
H -1.9332908993 -1.3040709943 0.5217636789
H -4.6605057556 -0.5170756956 -0.6088516574
H -2.6135378541 0.1279201637 2.5067526237
H -3.5650069348 -0.1247552758 4.7882559681
H -7.3148151196 -1.3368839532 3.1015486254
H -6.3621149287 -1.0967485733 0.8112585716
H -5.2464145918 1.7805411864 -0.7558359520
H -4.4851038872 4.1240014613 -1.1129390351
H -0.5089535887 3.0028216809 0.0331527027
H -1.2563761746 0.6690883151 0.3805080279
