47
CONF39
C -6.5796449844 1.6443237023 2.2332741706
O -6.6004996721 1.0020441504 0.9345791969
P -5.2495378322 0.4231550691 0.2979823812
S -5.5037199898 -0.4251151887 -1.4064627812
O -4.1751190483 1.6314193855 0.3665166587
C -4.0670071797 2.5546156286 -0.7403096120
O -4.7048785687 -0.4695459512 1.5439418415
C -3.5306301734 -1.2161258245 1.4158220731
C -2.3116701095 -0.6286685348 1.7340578109
C -1.1538277486 -1.3896283365 1.6589511105
C -1.2174390210 -2.7215358981 1.2402804491
C -2.4497374101 -3.2931103248 0.9198744811
C -3.6158175998 -2.5413049134 1.0176082833
S 0.2434426870 -3.7494097954 1.1732204658
C 1.4156501431 -2.6790109285 0.3523609769
C 2.7404282223 -2.6876505115 0.7922539991
C 3.6986164438 -1.9168669072 0.1420222423
C 3.3129396344 -1.1269987033 -0.9302840842
C 1.9983672629 -1.1018010252 -1.3780486987
C 1.0507084729 -1.8914763025 -0.7432739639
O 4.2768418923 -0.3770854788 -1.6106292356
P 4.6572627421 1.1207327156 -1.1156386461
S 3.1902927750 2.3116775964 -0.7137014079
O 5.6640855846 1.5551915346 -2.2867824636
C 5.1350424292 2.0788779362 -3.5254602213
O 5.6875138656 0.7829839827 0.0665255469
C 6.1428455354 1.8394466671 0.9425613282
H -5.8115543214 2.4229015198 2.2669941478
H -6.3967769167 0.9036467443 3.0161075122
H -7.5676121162 2.0883210748 2.3594428608
H -3.8662438679 2.0108522949 -1.6673594202
H -4.9875527343 3.1379863853 -0.8455315590
H -3.2328915701 3.2139734894 -0.4967335122
H -2.2816479982 0.4092644008 2.0445402768
H -0.1973865374 -0.9470901348 1.9158292272
H -2.4957010407 -4.3222925709 0.5802434681
H -4.5809262446 -2.9624355415 0.7612860911
H 3.0213557902 -3.2910843504 1.6490079125
H 4.7318100302 -1.9094414393 0.4698079760
H 1.7309286679 -0.4707511096 -2.2177147889
H 0.0235570502 -1.8890031928 -1.0916099196
H 4.4799764001 2.9324886301 -3.3277727364
H 6.0010257273 2.3906963192 -4.1101357844
H 4.5852880847 1.2987001302 -4.0614214819
H 5.2885739538 2.3546182708 1.3908131024
H 6.7390009725 1.3489750378 1.7126790141
H 6.7622672379 2.5505404989 0.3873317137
