47
CONF151
C 0.5819847883 -0.0529840646 -2.2015917641
O -0.4508587110 0.8133137304 -1.6702124780
C -0.1674301715 2.1148104131 -1.6598806044
C -0.9943554920 3.0080155592 -1.0630442500
C -2.2206260997 2.6034508227 -0.3426370210
C -3.4637961908 3.1577221573 -0.6793496976
C -4.6199977688 2.8064611353 0.0044987759
C -4.5569045737 1.8981264038 1.0610908454
C -3.3368191385 1.3410581177 1.4234967188
C -2.1941154494 1.6895544726 0.7143764859
O -0.9438696227 1.2282293753 1.1367178197
C -0.6446446377 -0.0889476574 1.0795869461
C 0.6330751693 -0.4475227631 1.4958981293
C 0.9122553416 -1.8014897097 1.4114693268
N 0.0488499179 -2.7158955736 0.9746220737
C -1.1433261907 -2.2377036908 0.6081702446
N -1.5450298502 -0.9684374016 0.6369613541
O 2.1542114476 -2.2010951002 1.8097801186
C 2.4679422653 -3.5519911304 1.7302563022
C 2.4352923865 -4.3229118645 2.8775496490
C 2.8347911323 -5.6555288313 2.8112452320
C 3.2645239677 -6.2094657049 1.6064245257
C 3.3018811536 -5.4341767414 0.4565886592
C 2.9023507135 -4.0910668689 0.5116616020
C 2.9338363607 -3.2771300902 -0.6505142092
N 2.9566559393 -2.6181225461 -1.6032812771
C -0.6772675860 4.4410075342 -1.1087945924
O -1.2880420046 5.2995166986 -0.4901446791
O 0.3782895748 4.7306243957 -1.9063749573
C 0.7731398334 6.1212660560 -1.9347218927
H 0.1980033592 -1.0681851905 -2.1043166922
H 1.4983224659 0.0577570427 -1.6157422695
H 0.7660877253 0.1847945801 -3.2534924405
H 0.7490687324 2.4241207853 -2.1573126432
H -3.5102121223 3.8714569478 -1.4953249202
H -5.5704906011 3.2449130300 -0.2815650950
H -5.4543409712 1.6281031498 1.6081233761
H -3.2608294777 0.6450156320 2.2513326859
H 1.3549914662 0.2774119234 1.8492397672
H -1.8657123197 -2.9678848878 0.2458446665
H 2.0985738986 -3.8770047779 3.8069964329
H 2.8094187741 -6.2636038877 3.7093366080
H 3.5748255819 -7.2474621888 1.5635395759
H 3.6374765641 -5.8498714747 -0.4868159380
H -0.0413057811 6.7404317722 -2.3188058366
H 1.6315397550 6.1621945695 -2.6045220984
H 1.0525861492 6.4591257196 -0.9335641254
