37
CONF17
C 4.5363415541 -0.8472121850 -0.6962103497
C 3.6867831487 0.4138539375 -0.8571205699
C 2.4103088784 0.4137528966 -0.0103945316
C 1.4331760656 -0.6864656721 -0.4160145525
C 0.0738406915 -0.6282845813 0.3380578970
C -0.8072640331 -1.8071119647 -0.1897447784
N -2.1639311269 -1.7656139583 0.3159079171
C -3.2628552527 -1.2585483471 -0.2809160100
N -4.2958194040 -1.2991003773 0.5508034108
C -3.7527600993 -1.8433052333 1.6765796446
N -2.4625586855 -2.1400017140 1.5849751683
C 0.3626547922 -0.8540608222 1.7561778593
N 0.6466043291 -1.0569429304 2.8579268137
C -0.6705973433 0.6911251887 0.1375189886
C -1.2652665741 1.3683670770 1.2010717772
C -2.0047804288 2.5290296537 0.9896808638
C -2.1456623354 3.0046418131 -0.3057952769
Cl -3.0777434629 4.4692969408 -0.5890987558
C -1.5679175288 2.3496404027 -1.3869318684
C -0.8342280664 1.1924542457 -1.1566037187
H 5.4768748288 -0.7565417900 -1.2483516953
H 4.0198596363 -1.7368626919 -1.0701835517
H 4.7795090441 -1.0191905928 0.3586156380
H 4.2845648182 1.2890576050 -0.5765175543
H 3.4168920829 0.5473500202 -1.9130372261
H 1.9144318473 1.3869286974 -0.1093574807
H 2.6773454233 0.2982316624 1.0484421779
H 1.8660224884 -1.6764765248 -0.2379663882
H 1.2204291893 -0.6222203653 -1.4887296145
H -0.8570816702 -1.7269390442 -1.2783845779
H -0.3518200543 -2.7642820521 0.0770054913
H -3.2589003151 -0.8913506337 -1.2992108848
H -4.3171888848 -2.0334298327 2.5808295753
H -1.1627365232 0.9967131588 2.2156774689
H -2.4625836123 3.0480415459 1.8239125584
H -1.6879631406 2.7320929037 -2.3940550431
H -0.3959810758 0.6833642784 -2.0085595097
