33
CONF2
C 5.2900348277 0.2561961646 -0.0248400683
C 4.2568777386 1.1677974471 0.0679890106
C 2.9290491434 0.7518588233 -0.1260925771
C 2.6650885484 -0.6023474998 -0.4163909173
C 3.7084904800 -1.5301544648 -0.5127902891
C 4.9917498107 -1.0755586762 -0.3163202062
F 6.0162646009 -1.9515041575 -0.4078987049
C 1.2891719621 -1.0535200849 -0.5739742371
O 0.9350883945 -2.2042557091 -0.7722195634
N 0.3243962898 -0.0179564096 -0.4385169478
C 0.7160122975 1.2871858603 -0.1975026155
N 1.9231548073 1.6948776591 -0.0499866102
N -0.3278254018 2.2462391420 -0.1206281837
C -1.3079238489 2.5372625060 -1.0220480457
N -2.0055737519 3.5729396990 -0.6045199371
C -1.4032440014 3.8944701858 0.5819555550
N -0.3772128068 3.1325590492 0.9145504869
C -1.0510311865 -0.4197596378 -0.3977818821
C -1.7209855893 -0.5227954207 0.8223653169
C -3.0537176453 -0.9131020493 0.8712478756
C -3.6908281940 -1.2231209469 -0.3237334811
C -3.0372999078 -1.1589719862 -1.5497918957
C -1.7101171409 -0.7566811361 -1.5742776205
Cl -5.3693783944 -1.7164087828 -0.2747355622
Cl -0.8851472032 -0.1664431200 2.3096860061
H 6.3223411430 0.5547925709 0.1212476653
H 4.4533858741 2.2108814927 0.2893486335
H 3.5056295320 -2.5718301076 -0.7324899638
H -1.7331212228 4.7075582021 1.2156451916
H -3.5731989462 -0.9798101675 1.8189711098
H -3.5535054297 -1.4147287979 -2.4669148777
H -1.1745813238 -0.6912293831 -2.5154642819
H -1.4420989263 1.9898382715 -1.9446201382
