56
CONF122
C -3.3097959028 0.9442448850 0.9350828044
C -1.8009092891 0.7646802595 0.7870054087
C -1.0523625350 2.0062662318 1.2777593192
C -1.4351685837 0.4576072684 -0.6909987863
C -2.1459924738 -0.7594780084 -1.2450809284
C -1.9480648168 -2.0327570526 -0.7034532347
C -2.6338560826 -3.1280613311 -1.2050642437
C -3.5280411297 -2.9622116777 -2.2581078063
C -3.7427289811 -1.7090310770 -2.8185947942
C -3.0429323895 -0.6214958297 -2.3019538607
O -4.1463419328 -4.1441079808 -2.6691045352
C -5.0923684649 -4.1449234419 -3.6494495335
F -4.6011205673 -3.6823048464 -4.8409397209
F -6.1578208758 -3.3446298147 -3.3351396555
C 0.0652241872 0.2720436949 -0.7823430142
O 0.7046339066 -0.5570658049 -0.1785036613
O 0.6225029243 1.1899184035 -1.6196609282
C 2.0863521675 1.1886649000 -1.6413836375
C 2.4667560403 1.7309882957 -2.9411786310
N 2.7962254017 2.1606546319 -3.9607226962
C 2.6099350998 2.0070603331 -0.4836273686
C 2.5788715610 3.4000405498 -0.5314055966
C 2.9705159976 4.1268907865 0.5871386297
C 3.3746258970 3.4785012151 1.7477588236
C 3.4027606832 2.0858468076 1.7815373786
C 3.0349560492 1.3409522117 0.6637260111
O 3.8597824087 1.5104750718 2.9426121851
C 3.4533114913 0.2260133684 3.2740071854
C 4.4298419812 -0.6414022658 3.7476255627
C 4.0599681601 -1.9162819465 4.1645048116
C 2.7301360310 -2.3210722856 4.0982005105
C 1.7639034056 -1.4387962374 3.6214887691
C 2.1162151649 -0.1574462496 3.2139411044
H -3.5663904163 1.1564674273 1.9774607136
H -3.6594198427 1.7866820099 0.3262881679
H -3.8558553335 0.0504465458 0.6221385312
H -1.4806852635 -0.1007308464 1.3822833475
H -1.2912293680 2.2083229909 2.3264260836
H -1.3406281643 2.8874766783 0.6929115482
H 0.0347570456 1.8962780198 1.1969697796
H -1.7068985411 1.3273675105 -1.2983191800
H -1.2412037146 -2.1713670380 0.1070120535
H -2.4844947434 -4.1199451739 -0.7933009470
H -4.4314296698 -1.5634810130 -3.6390559751
H -3.2083857048 0.3588618791 -2.7391876807
H -5.4410128912 -5.1732194944 -3.7808493205
H 2.4361453788 0.1529235082 -1.5679429385
H 2.2533080064 3.9068875236 -1.4338796722
H 2.9547634174 5.2113077363 0.5594554535
H 3.6747501819 4.0316784313 2.6308079362
H 3.0470395480 0.2580999933 0.6945706142
H 5.4606635111 -0.3070469116 3.7864525487
H 4.8188122320 -2.5970824574 4.5362713118
H 2.4472109731 -3.3184037143 4.4168448889
H 0.7241971419 -1.7449954821 3.5693769606
H 1.3669728639 0.5336886113 2.8434905834
