27
CONF13
C 3.5224602318 1.3270684334 -0.4447978786
C 3.3562484167 1.1860300308 0.9273843149
C 2.1309056944 0.7807321636 1.4532818908
C 1.0417565427 0.5025528477 0.6101909832
C 1.2170461776 0.6515904878 -0.7645491442
C 2.4429189432 1.0575703873 -1.2740728962
Cl 2.6289496002 1.2313506478 -3.0213419934
C -0.2811875423 0.0665133793 1.2120923980
C -1.3372091953 -0.3018812833 0.2085350313
C -1.3010213114 -1.5482617708 -0.4347864631
C -2.2710219324 -1.8917286809 -1.3758918148
C -3.2886506574 -0.9984398290 -1.6937213011
C -3.3180417411 0.2350447018 -1.0581103075
C -2.3590530176 0.5876706585 -0.1167283528
Cl -4.6018071003 1.3797861110 -1.4478925992
O -0.2789639620 -2.3874554395 -0.1003337312
O 2.0560171714 0.6738455033 2.8137367966
H 4.4753734279 1.6421750028 -0.8540469521
H 0.3899976843 0.4475362506 -1.4357388494
H -0.1035296741 -0.7987142277 1.8662444290
H -4.0427947015 -1.2652897754 -2.4251904097
H -2.3983723175 1.5569594482 0.3695748197
H 1.1701129643 0.4032039344 3.0863469952
H -0.6692632085 0.8736886085 1.8475878622
H 4.1788327923 1.3915833063 1.6046026981
H -2.2309691224 -2.8615866422 -1.8641330589
H -0.3598588229 -3.2123287318 -0.5976352676
