36
CONF2
C -2.5088936321 -2.1205186914 -0.7084542815
C -2.1763447186 -1.7741132232 0.7312729418
C -1.7778711436 -2.9768820033 1.5601142186
O -1.0063232056 -0.8822444239 0.7405752363
C -1.2176078314 0.4252843481 0.5150515814
O -2.3278319890 0.9363775110 0.4618563082
C 0.0454821106 1.1787513697 0.4167652462
C 1.2566510637 0.5393014289 -0.1296554158
O 2.3972786001 0.8376775943 0.1961162960
O 0.9613478172 -0.3607233317 -1.0818221080
C 2.0657021992 -1.1624720820 -1.6312428981
C 2.3492142508 -2.3127842508 -0.6824997136
C 1.5971511628 -1.6152054965 -2.9981447111
C 0.0942686739 2.4898677855 0.8327418204
S 1.5869435111 3.4188627512 0.8690497896
C 0.7772946287 5.0478474475 1.1475489881
C -0.4075647566 4.8087431408 2.0507451729
S -1.3303916486 3.3691772066 1.3699121113
H -2.7380847002 -1.2216986726 -1.2871507167
H -3.3819820096 -2.7795489054 -0.7332304834
H -1.6661709986 -2.6406667485 -1.1753467333
H -3.0054659356 -1.2372392031 1.2014099416
H -1.5240689821 -2.6815817669 2.5817542908
H -2.6141663738 -3.6806045003 1.5990846779
H -0.9180959787 -3.4845071736 1.1112165508
H 2.9382712095 -0.5082406250 -1.7180938793
H 3.1720532972 -2.9163215389 -1.0773016334
H 1.4640501341 -2.9501373125 -0.5876258206
H 2.6333813047 -1.9466674381 0.3076209240
H 1.3789596418 -0.7578104962 -3.6404752211
H 0.6981342318 -2.2335886988 -2.9101693374
H 2.3831599288 -2.2117743144 -3.4697890982
H 0.4794196012 5.4651253967 0.1813822289
H 1.5208365083 5.6984242793 1.6171165986
H -0.1026298619 4.5811258660 3.0761720088
H -1.0961067392 5.6587646711 2.0504185488
