57
CONF256
C 0.7435890312 0.9136282777 -1.0061224264
C -0.4582896699 0.9805941257 -0.0809122874
C -1.1665190448 2.3555736327 -0.1755078993
C -1.8036389923 2.6173358919 -1.5149780202
C -1.1100943450 3.3084996325 -2.5130618360
C -1.6889317829 3.5326698634 -3.7598786623
C -2.9757312338 3.0701897792 -4.0258913247
C -3.6809588338 2.3898522330 -3.0350961632
C -3.0991537402 2.1672116387 -1.7903156556
C -1.4609918485 -0.1457906145 -0.2475054025
C -2.4102061137 -0.3830085238 0.7522169293
C -3.3771941747 -1.3692880905 0.5925285745
C -3.4224814258 -2.1234295358 -0.5785551844
C -2.4890569208 -1.8853902910 -1.5826264977
C -1.5115267039 -0.9061235851 -1.4165508637
O 0.0509494821 1.0053332873 1.3223254142
P 0.5825634354 -0.1681036477 2.2392215192
O -0.2376744305 -0.5544745341 3.4062429015
O 2.0135510773 0.3828233710 2.7524270919
C 2.9327918922 0.9366851653 1.8483479646
C 3.7844598441 0.1024355869 1.1371201028
C 4.7102284116 0.6762328265 0.2682876249
C 4.7775751931 2.0601769304 0.1238407637
C 3.9193403579 2.8783338964 0.8565052305
C 2.9872919982 2.3187431661 1.7259461162
O 0.9047877047 -1.3549850870 1.1940698704
C 0.8545020006 -2.7011620341 1.5840825693
C 1.7480056277 -3.1971051256 2.5243164025
C 1.6928644121 -4.5509737651 2.8473083089
C 0.7619466909 -5.3856199386 2.2325427842
C -0.1217103396 -4.8642574554 1.2897729370
C -0.0827540661 -3.5118567155 0.9600423302
H 1.4474739505 1.7037990453 -0.7320288550
H 0.4314662667 1.0804308564 -2.0395718794
H 1.2452718839 -0.0537562315 -0.9397598076
H -0.4158499629 3.1225936216 0.0425747220
H -1.9246024147 2.3885227425 0.6130400676
H -0.1083466368 3.6772775967 -2.3085781019
H -1.1360684342 4.0735701206 -4.5219545515
H -3.4294424407 3.2460323194 -4.9963120185
H -4.6882515334 2.0345059268 -3.2304459407
H -3.6539411820 1.6371543769 -1.0212059509
H -2.3925335055 0.2034097155 1.6653204465
H -4.0994690304 -1.5459034599 1.3834351834
H -4.1791917940 -2.8911812573 -0.7055237270
H -2.5140238942 -2.4662539609 -2.4994586832
H -0.7925627465 -0.7409285592 -2.2105564266
H 3.7210825647 -0.9729521824 1.2619537337
H 5.3809675494 0.0353314691 -0.2949765965
H 5.5005826554 2.5007884532 -0.5547258350
H 3.9710794621 3.9572713840 0.7507798759
H 2.3049311603 2.9361433558 2.3001760791
H 2.4703638729 -2.5378447976 2.9946688565
H 2.3836054945 -4.9512018635 3.5824548325
H 0.7254603579 -6.4394988873 2.4879676424
H -0.8505130828 -5.5089465035 0.8087402315
H -0.7650231645 -3.0831143402 0.2338433792
