54
CONF51
C -3.3213361558 0.5569471698 -1.8341247240
C -2.5985614909 0.5793195400 -0.4631107263
C -3.1531660417 1.7382022672 0.3861708601
C -4.6018132124 1.5178286107 0.8126579493
C -4.7513022773 0.2186537924 1.5740443832
O -5.6165901975 0.0474296299 2.4201630338
C -3.8380345930 -0.8603595886 1.1812918062
C -2.8912302341 -0.7428351923 0.2290281497
C -2.1692902683 -1.9573675309 -0.2722782620
C -0.6605473518 -1.7417042187 -0.3871680479
C -0.3736143359 -0.5300788253 -1.2823358385
C -1.0551374556 0.7555269360 -0.7644163662
C -0.2056978126 1.4440661596 0.3154668252
O -0.4559252987 2.5681769204 0.7021788509
C 1.0551401368 0.7376729645 0.7523363132
C 1.9387914221 0.4646300969 -0.4871202014
C 1.1086342063 -0.2418138960 -1.6237523458
C 1.9097472140 -1.5001431838 -2.0019786808
C 2.6170182525 -1.8925816422 -0.7072237289
C 3.1160785166 -0.5539716638 -0.1623373551
C 3.4389245160 -0.6093074960 1.3263559021
O 2.8090881927 -1.3111564012 2.0994301942
C 4.5592627757 0.2598493503 1.8537207542
O 4.6441514464 0.2067498968 3.2520257450
O 4.2719838645 -0.1084064999 -0.8884937081
C 2.4889364315 1.8067337556 -0.9845225792
H -4.3816450693 0.3214809071 -1.7145296197
H -3.2346294467 1.5377934784 -2.3129812637
H -2.8963289759 -0.1899856522 -2.5087738476
H -2.5552316787 1.8353094173 1.2942704682
H -3.0406855030 2.6817198655 -0.1568345522
H -4.9579941369 2.3341779035 1.4469088922
H -5.2807964364 1.4722510238 -0.0497037782
H -4.0266294444 -1.8231072836 1.6510903381
H -2.5659547101 -2.2007620088 -1.2701843417
H -2.3937778977 -2.8134153798 0.3708336874
H -0.2069238246 -2.6409219842 -0.8159768669
H -0.2477601763 -1.6326146633 0.6199361030
H -0.8369303509 -0.7753768276 -2.2487448141
H -1.0187631271 1.4961802379 -1.5785576344
H 1.5715052433 1.3868997935 1.4657735902
H 0.8063021167 -0.1938988724 1.2651810115
H 1.0798392514 0.4442652809 -2.4789516125
H 1.2833820775 -2.2980208289 -2.4122977722
H 2.6561274572 -1.2468411812 -2.7614915992
H 1.9280770634 -2.3319018990 0.0191927956
H 3.4395415146 -2.6050562839 -0.8444086448
H 5.5033574322 -0.0640572466 1.3858124437
H 4.3938495201 1.2910985827 1.5011031850
H 3.9760659574 -0.4399053907 3.5347271558
H 4.8825516984 -0.8524561865 -0.9498669979
H 1.6597228107 2.4983214425 -1.1642470043
H 3.0484130512 1.6846560402 -1.9128987687
H 3.1498045299 2.2721064676 -0.2472378651
