44
CONF56
C -4.4746425514 1.6625893691 2.4016782713
N -3.3589760774 1.3467045390 1.5011758903
C -3.7660327792 1.4071152677 0.0787236797
C -4.5983214245 0.1156185352 -0.1610593272
C -4.0346875383 -0.8845404202 0.8818156105
C -2.9372197591 -0.0674868796 1.6208676478
C -1.5719070757 -0.2032779599 0.9336814259
C -1.7024157802 0.1415548295 -0.5464480119
C -2.4865614870 1.4267496139 -0.7682920547
O -0.3714769610 0.3475845121 -1.1266933857
C 0.3159160040 -0.7451652030 -1.4951112702
O -0.1195247953 -1.8797512475 -1.4609812245
C 1.7260527490 -0.3784746468 -1.9205245974
C 2.2966686202 -1.4576680620 -2.8518814322
O 3.6083644498 -1.1246406226 -3.3043114148
C 2.5697516976 -0.1733673672 -0.6753252877
C 2.7089934913 -1.1994125846 0.2645435700
C 3.4859509081 -1.0117852301 1.4038731502
C 4.1351978154 0.2032958606 1.6173050684
C 4.0000344471 1.2294086560 0.6854737389
C 3.2186950933 1.0420009000 -0.4530326563
H -4.7786809841 2.7028981788 2.2455542187
H -5.3628946863 1.0235512952 2.2628695783
H -4.1403498383 1.5571350483 3.4390252029
H -4.3426587682 2.3186508755 -0.1076097261
H -5.6603341271 0.3077064006 0.0131659892
H -4.4975558291 -0.2432393505 -1.1897991271
H -3.6213334427 -1.7871894324 0.4218007583
H -4.8119809723 -1.2026157201 1.5815110932
H -2.8462852337 -0.3437889710 2.6761383308
H -1.1872293876 -1.2221079999 1.0497213446
H -0.8649435277 0.4902142623 1.4036786062
H -2.1674376340 -0.6870108843 -1.0881017508
H -1.8749795262 2.2846793374 -0.4670548059
H -2.7323163907 1.5341894258 -1.8305393078
H 2.3854387349 -2.4062670697 -2.3162257753
H 1.6109593895 -1.6052805819 -3.6977235050
H 3.5837271740 -1.8156958149 2.1270399583
H 4.7418002873 0.3488363402 2.5056543044
H 4.5027994361 2.1786663404 0.8434750864
H 3.1125739086 1.8449466954 -1.1771951970
H 2.2041158381 -2.1487049602 0.1074644179
H 1.6770804665 0.5720444073 -2.4640476089
H 3.5416573960 -0.3364977603 -3.8584588915
