22
CONF1
C -1.7745888545 2.0486990053 0.4886183691
C -2.2933710565 0.8156767603 0.1473211533
C -1.4242718028 -0.2723453308 -0.1138659382
C -1.7827698959 -1.5948528517 -0.4743785182
C -0.8023336527 -2.5411755682 -0.6954802681
C 0.5800826139 -2.2472560922 -0.5768548239
C 0.9562012489 -0.9719005691 -0.2283876879
C -0.0426919868 -0.0084248276 -0.0026605337
C 0.4859361476 1.2472229692 0.3451544851
C -0.3801928695 2.2853365445 0.5933429529
C 1.9958301335 1.1529669069 0.3662867034
C 2.3103641677 -0.3297913985 -0.0206891242
H -2.4557831031 2.8712124372 0.6852147381
H -3.3681537464 0.6754249095 0.0775969224
H -2.8311144401 -1.8601428897 -0.5759215398
H -1.0955855910 -3.5497611498 -0.9710171712
H 1.3126914389 -3.0272979337 -0.7618656657
H -0.0222025460 3.2738645738 0.8653943427
H 2.4464012702 1.8572468372 -0.3411876360
H 2.3935103407 1.4024760585 1.3558516737
H 2.9179842211 -0.3871921880 -0.9301363800
H 2.8740577625 -0.8399864030 0.7676637462
