17
CONF10
C -1.9995628978 1.0840334861 0.5213469035
C -1.0496652511 -0.0900535590 0.2886756245
C -0.8212632653 -0.3558938664 -1.2120644113
C 0.2875459770 0.1967026037 0.9159391055
O 0.8509936333 1.2440795820 1.0517936141
O 0.8593537793 -1.0316696780 1.3046863090
O 2.1310464790 -0.8557487782 1.8853334174
N 3.1917723036 -0.7149315780 0.7689509059
O 2.7919691028 -0.7523258734 -0.3469097417
O 4.2647476796 -0.5896683775 1.2647993567
H -1.6117153318 1.9907635017 0.0491308727
H -2.9709554838 0.8495798788 0.0782163913
H -2.1409203681 1.2775355012 1.5881480364
H -1.4520315769 -0.9991836584 0.7487414422
H -1.7849857658 -0.5719347636 -1.6809032706
H -0.3900282310 0.5270076033 -1.6937710233
H -0.1563012750 -1.2082921088 -1.3724395251
