50
CONF5
C 7.1538249991 1.1474716789 -0.0512585448
C 6.2217374771 0.5047112064 0.9545503997
O 4.9378803573 0.1877902337 0.3500503783
C 4.0484591929 1.2125639903 0.2713330304
O 4.2454581199 2.3196381042 0.7606130136
N 2.9351561830 0.8659588530 -0.4381209702
C 1.7621122432 1.7338508431 -0.3587217911
C 0.7846647778 1.2167279753 0.7124137307
C 0.4372669413 -0.2280824630 0.4674208928
C -0.8311723154 -0.6559774218 0.3083179151
C -2.0004783821 0.2599256453 0.3685138866
C -2.7091319085 0.5179077872 -0.8150060843
C -2.2469517972 -0.1425689057 -2.0807665549
C -2.5762901309 -1.6397980013 -2.0906826621
C -2.0028366280 -2.5112132981 -0.9899129392
C -1.1891089371 -2.0859560876 0.0794864772
N -0.7260394008 -2.9442706780 1.0127739136
C -1.0285913691 -4.2394358008 0.9162713154
C -1.8174296003 -4.7576155690 -0.1043766723
C -2.3028631830 -3.8751707445 -1.0555394081
C -3.8251566842 1.3532006968 -0.7855862057
C -4.2193127717 1.9178042123 0.4212991377
C -3.5349661983 1.6754770683 1.6047791634
C -2.4236747708 0.8376715433 1.5662250921
Cl -5.6313552417 2.9745059508 0.4477695248
C 1.6464432851 -1.1093825789 0.3020592703
C 2.5923358616 -0.5198584182 -0.7603212194
H 7.2947703057 0.4961770180 -0.9187640850
H 8.1297119554 1.3177101222 0.4145577331
H 6.7599731664 2.1100537484 -0.3879688157
H 6.0589270884 1.1467463401 1.8239607756
H 6.6021077531 -0.4638787285 1.2872136743
H 2.0820932953 2.7512141208 -0.1314783176
H 1.2708522526 1.7309448129 -1.3398445013
H 1.2763846568 1.3100764928 1.6915153460
H -1.1648127986 -0.0022899235 -2.1895717413
H -2.7300996013 0.3200826207 -2.9461285664
H -3.6682467566 -1.7550038840 -2.0666427914
H -2.2515383035 -2.0615076969 -3.0503029742
H -0.6288461049 -4.8885362317 1.6938477753
H -2.0464611251 -5.8170608607 -0.1474021730
H -2.9233813036 -4.2388312563 -1.8711101305
H -4.3752048182 1.5641405651 -1.6969224740
H -3.8602246482 2.1258530974 2.5355622151
H -1.8760474331 0.6330613451 2.4813344577
H 1.3719528479 -2.1244249394 0.0122878146
H 3.4974057109 -1.1193895518 -0.8469845635
H 2.0875375174 -0.5173981878 -1.7350346681
H -0.1053212844 1.8497919254 0.7232871474
H 2.1932561353 -1.1701835719 1.2535881739
