28
CONF35
O -3.5998696565 0.5789059191 1.5814665803
C -2.5403707298 1.2063265312 0.8452729137
C -2.0425568602 0.2539044549 -0.2269090410
O -0.9177686532 0.8542666798 -0.9142559506
C 0.0095840924 -0.1495390893 -1.2864369821
C -0.5663970958 -1.4893257880 -0.8254692894
C -1.5038852745 -1.0772148281 0.3034125041
O -2.5059230607 -2.0620759220 0.5104064459
N 1.3293386381 0.1518923362 -0.6447269170
C 1.4452720967 0.9430492635 0.4616367906
C 2.6339804067 1.2005125415 1.0570480548
C 3.8440912430 0.6352865509 0.5254238401
O 4.9824640801 0.7958095507 0.9666679159
N 3.6366727633 -0.1655688589 -0.6070803994
C 2.4379485858 -0.4583126902 -1.2215869189
O 2.3506521587 -1.1980037461 -2.1953175838
H -4.3958138152 0.5984440939 1.0339363186
H -2.8658598589 2.1570433857 0.4044484099
H -1.7397687187 1.4095591389 1.5643480164
H -2.8459255696 0.0481434125 -0.9523266873
H 0.1902382253 -0.1106346976 -2.3631451354
H 0.2075592992 -2.1980579813 -0.5268562881
H -1.1585707137 -1.9258850781 -1.6366082999
H -0.9390641743 -0.8968884837 1.2329359042
H -3.1068463555 -1.7054837284 1.1806610060
H 0.5167384236 1.3665611311 0.8237753552
H 2.6901979939 1.8376115501 1.9289511484
H 4.4538831276 -0.6003250555 -1.0196717112
