27
CONF1
C -2.1020888268 1.7720926068 -0.6873168680
C -2.5065045692 0.3072129487 -0.5442332980
C -1.6733184523 -0.4519189344 0.4940599967
C -2.0415554485 -1.9284985406 0.6056065840
N -0.2065948295 -0.2721703346 0.2780010057
C 0.5275453398 0.3905050591 1.3004323073
O -0.0206911630 0.7814965633 2.3198542162
C 1.9425804496 0.5489827488 1.0243129958
C 2.5181124251 0.1046979900 -0.1227600033
N 1.7128829079 -0.5142572489 -1.0383888864
C 0.3457470112 -0.7310736437 -0.9044174545
O -0.2791975212 -1.2899102276 -1.7939618191
C 3.9635491930 0.2390507139 -0.4664898065
Br 2.9776990318 1.4212800452 2.3480868625
H -2.1142272004 2.2827179308 0.2817733244
H -1.0934531575 1.8687966682 -1.1032301628
H -2.7860139775 2.2991862466 -1.3586565703
H -2.4585604840 -0.2012240460 -1.5110468645
H -3.5459445936 0.2434337596 -0.1998365922
H -1.8407288216 0.0200865491 1.4644939864
H -1.9217627226 -2.4471617314 -0.3473113541
H -1.4269842694 -2.4237628748 1.3633186273
H -3.0882127960 -2.0060809979 0.9150698740
H 2.1066400758 -0.8565166562 -1.9029181265
H 4.5775112352 -0.2471994209 0.2971467301
H 4.2481520336 1.2952881774 -0.4834534389
H 4.1854187387 -0.2050532551 -1.4387587675
