32
CONF22
C -3.5377556601 1.5021370937 -1.6464045367
C -3.1002345863 0.3992830520 -0.7509436583
N -3.5823667302 -0.8156266383 -0.7686768845
C -3.0025887272 -1.6001061144 0.1832386161
C -2.0360326190 -1.0119928384 0.9662044214
S -1.8533345843 0.6429460538 0.4560787660
C -1.3693084217 -1.5927453627 2.1604707462
O -1.9881539522 -2.3274429029 2.9211994521
N -0.0658340346 -1.2495253613 2.4066361737
C 0.7919716178 -0.4926861961 1.5870840154
C 1.2422032096 0.7714192480 1.9993311182
C 2.0809335239 1.5503819159 1.2170683476
C 2.4662457914 1.0453485922 -0.0139568644
C 2.0830689663 -0.2074493629 -0.4643026241
C 1.2613470884 -0.9699842284 0.3532401940
Br 0.7850534812 -2.7127240552 -0.2351249095
O 3.3462584233 1.8058728917 -0.7997766971
C 2.7702814714 2.6130619666 -1.7293572213
F 1.9278168205 3.5145283249 -1.1811605818
F 3.7493875244 3.2684577379 -2.3549053978
F 2.0601038133 1.9227787718 -2.6473887802
Br 0.6653844030 1.4639948075 3.6741460345
C -3.4655134076 -3.0319532481 0.2758678871
F -2.4629261027 -3.8769086085 0.5943049406
F -4.4392685836 -3.1873635767 1.2070254320
F -3.9789991004 -3.4523897511 -0.8996301822
H -4.2674346241 1.1128213031 -2.3578424197
H -3.9968719047 2.3103078258 -1.0682013382
H -2.6885534498 1.9232151193 -2.1925319682
H 2.4174048626 2.5267138900 1.5425141554
H 2.4356798942 -0.5823179507 -1.4168357435
H 0.2835823199 -1.5416919985 3.3121908668
