74
CONF61
C -0.5805728309 -1.9573174774 -0.7081306487
C 0.0119849270 -3.3038280767 -1.1030759509
O -0.8215006853 -4.2737711044 -0.3816910926
C -1.4327125208 -3.6816918239 0.6805361210
O -2.1136935908 -4.3197920596 1.4482962242
C -1.0433961248 -2.2251116666 0.7158904378
C -2.0387613392 -1.1687926534 1.2016230020
C -3.4242122023 -1.3127117342 0.5800044654
C -3.7487259153 -0.6730751326 -0.6184901967
C -5.0079518904 -0.8472500982 -1.1957427354
O -5.4176751410 -0.2666807298 -2.3609940857
C -4.4746319412 0.5722033362 -3.0373853455
C -5.9559853128 -1.6619982423 -0.5680281020
O -7.1861621828 -1.8188937644 -1.1413329956
C -5.6285816288 -2.2875222083 0.6405781999
O -6.6423073224 -3.0451339063 1.1612247001
C -6.3705738233 -3.7711177109 2.3671763993
C -4.3727645448 -2.1145505115 1.2175232910
C -1.4460949515 0.2063960327 0.9121108134
C -2.0505635402 1.3005987134 1.5640390470
C -1.6263019959 2.5636924739 1.2338650794
C -0.6460430626 2.7785749738 0.2715833489
O -0.4233165343 4.1213354668 0.1180604522
C -1.3199714058 4.7844887310 1.0363836494
O -2.0653680826 3.7591148811 1.7318159070
C -0.0414109126 1.7355445158 -0.3818803400
C -0.4370775836 0.4213372953 -0.0406304441
C 0.2894475522 -0.7196577234 -0.7272735527
O 1.5201597177 -1.0991647661 -0.0350816773
C 2.4349573720 -0.0895137477 0.2178913395
O 2.9315554662 0.3971687245 -1.0389707537
C 3.8615482194 1.4563009123 -0.8314251108
C 4.2796425671 2.0453234463 -2.1679374583
O 5.2916259494 3.0321821924 -1.9245236996
C 6.4210261118 2.4771872164 -1.2594547500
C 7.4371889986 3.5688995228 -1.0598221433
O 6.0589461455 1.9617253716 0.0221108576
C 5.1037031639 0.9103500679 -0.1241808586
C 4.6973344876 0.3600699967 1.2283326221
O 5.7767252625 -0.2060488863 1.9730442124
C 3.5839849685 -0.6805624134 1.0332246503
O 3.0625530798 -1.0959568141 2.2902031446
H -1.4572480883 -1.7615870741 -1.3373219458
H -0.0689772628 -3.5383841440 -2.1651596811
H 1.0430252458 -3.4274456153 -0.7609783467
H -0.1611519639 -2.1878600274 1.3756267956
H -2.1544314174 -1.2744867940 2.2864129799
H -3.0253550776 -0.0179956769 -1.0869171411
H -4.9849235175 0.9256201041 -3.9338962838
H -4.1892478554 1.4286124067 -2.4144582572
H -3.5776651425 0.0086569902 -3.3217138654
H -7.6984569615 -2.4133969226 -0.5731277113
H -7.2817966143 -4.3263650117 2.5900893313
H -5.5365292117 -4.4671624925 2.2221248455
H -6.1435088207 -3.0859987023 3.1919107216
H -4.1189255613 -2.6056962055 2.1478507768
H -2.8452296793 1.1423548533 2.2860256794
H -0.7351033620 5.3600967659 1.7614947719
H -2.0154753132 5.4153268736 0.4726112185
H 0.7207539837 1.9044246256 -1.1359638361
H 0.5525670445 -0.4271674234 -1.7505527986
H 1.9779606784 0.7499867757 0.7713134134
H 3.4134602081 2.2493259529 -0.2091307628
H 3.4478349598 2.5522453311 -2.6633794936
H 4.6651658964 1.2483925786 -2.8235480484
H 6.8135137054 1.6430094448 -1.8699636416
H 7.7405864474 3.9727648557 -2.0281828635
H 8.3158747951 3.1663699686 -0.5511559072
H 7.0058300422 4.3706568994 -0.4540712887
H 5.5319507585 0.1001976699 -0.7428355516
H 4.3121834797 1.1788611004 1.8498755835
H 6.1931065890 -0.8886043622 1.4275060038
H 3.9902015948 -1.5394724062 0.4715503009
H 3.8239827783 -1.2876298625 2.8559717862
