42
CONF1
C -4.3163463216 2.9822072174 -0.2743300289
C -3.1146508347 3.4787403915 0.2265507701
C -2.2153326248 2.6234607766 0.8503271561
C -2.5041013658 1.2627903108 0.9811862098
C -3.7084368360 0.7711130737 0.4843938871
C -4.6096315202 1.6298544451 -0.1423924286
C -1.4782684693 0.3687742322 1.6577919086
C -0.2045147742 0.1791909310 0.8496750758
C 0.9536652145 -0.2483645921 1.5018359147
C 2.1210718122 -0.4839594374 0.7921630753
C 2.1666754708 -0.3011481702 -0.5969283465
C 1.0022532670 0.1282917641 -1.2431240452
C -0.1670899943 0.3666282636 -0.5305331175
C 3.4074183560 -0.5574295847 -1.3547201131
C 3.7907407655 0.2794460243 -2.4103436577
C 4.9579574999 0.0343183991 -3.1236717703
C 5.7640027103 -1.0525879680 -2.7972518562
C 5.3936904089 -1.8922468963 -1.7505397332
C 4.2276956773 -1.6469351129 -1.0355434837
N -2.0344290720 -0.9373674664 2.0218048438
C -2.0554857469 -2.0796932969 1.2482831065
C -2.8238987836 -2.9784649505 1.9447164632
N -3.2844635331 -2.4210839806 3.1148001466
C -2.8009078524 -1.1973636375 3.1248874850
H -5.0213773032 3.6490703649 -0.7597892840
H -2.8800279350 4.5343332256 0.1337067722
H -1.2743909547 3.0102370700 1.2337626098
H -3.9480697670 -0.2823192887 0.5896874068
H -5.5463367345 1.2364065978 -0.5239556069
H -1.1974499225 0.8475702339 2.6063103778
H 0.9365682622 -0.3995185468 2.5780843238
H 3.0194155430 -0.7867615456 1.3206812879
H 1.0050442968 0.2504818518 -2.3216836480
H -1.0604708100 0.6942214022 -1.0527153577
H 3.1818401248 1.1448950899 -2.6528729153
H 5.2439843991 0.7002068775 -3.9316959233
H 6.6748091751 -1.2438660171 -3.3550777471
H 6.0108748583 -2.7480157838 -1.4959664728
H 3.9309628830 -2.3229375686 -0.2396456703
H -1.5173088256 -2.1434235723 0.3157068937
H -3.0600930504 -3.9971765395 1.6718112400
H -2.9655876982 -0.4515749891 3.8926658488
