44
CONF35
C -4.1257321873 -1.7014604783 -2.2397691744
S -3.1217485894 -0.5227333533 -3.1692790846
O -3.9043902635 0.7043731709 -3.3942081755
O -2.5461199392 -1.2456958409 -4.3156763209
C -1.7015757842 -0.1244135215 -2.0633300456
C -1.7784266032 0.7783096629 -0.9855324998
C -0.5767209418 1.0543212093 -0.3144453333
C 0.6365894829 0.4492231149 -0.6747125270
C 0.6466938145 -0.4698363107 -1.7224179470
C -0.5133056125 -0.7395280764 -2.4317271792
C 1.9531543889 0.8196815329 -0.0618304701
O 2.2763387257 1.9758372626 0.1125269794
C 2.8872003449 -0.3536248193 0.2601577156
C 3.3326059219 -0.2499408852 1.7347264652
O 2.8526207312 -0.9985124557 2.5526018266
C 4.3877579876 0.7808283154 2.0283741912
C 5.5731213635 0.6350723679 1.0621548668
C 5.1279082228 0.7261086358 -0.4054052735
C 4.0809236632 -0.3079727125 -0.7142647993
O 4.1298541478 -1.0837997913 -1.6420075188
Cl -0.5833014116 2.1346624989 1.0670647166
C -3.0944086210 1.3861112747 -0.5464090087
O -3.9192879110 0.4294280403 0.1366844746
C -3.4255058630 0.0571893206 1.4057873618
C -4.3622182473 -0.9939705060 1.9661216083
F -5.6216286637 -0.5382181251 2.0986800580
F -3.9289146827 -1.3830874589 3.1858120638
F -4.4082488430 -2.0933954595 1.1771671830
H -4.5313990207 -1.2089511717 -1.3561261255
H -4.9161711937 -2.0076695769 -2.9307491214
H -3.4981113325 -2.5545390241 -1.9731609563
H 1.5784958644 -0.9494157325 -2.0084755324
H -0.5006114704 -1.4131229583 -3.2801488730
H 2.3639000968 -1.3013754253 0.1327327678
H 3.9336630386 1.7706130032 1.8881890183
H 4.6941030431 0.6724630510 3.0710087946
H 6.0772231744 -0.3232149495 1.2352799977
H 6.3031698103 1.4231356777 1.2657889623
H 5.9620477899 0.5893936947 -1.0969487310
H 4.6795299651 1.7139008566 -0.5800302900
H -2.9220458702 2.2572116927 0.0918656015
H -3.6719241908 1.6891308213 -1.4184650451
H -2.4208377085 -0.3885588262 1.3560164565
H -3.4042655257 0.9060427521 2.1048562089
