43
CONF24
C -0.1780644625 3.0565074561 1.7881147452
C -0.4916496045 2.0942479094 0.6423795692
C 0.1352426066 2.5717507378 -0.6662035800
C -0.0054377477 0.6791638927 1.0335761504
C -0.2385695696 -0.3831842499 -0.0055715490
C 0.8397466307 -1.0382119348 -0.6355069610
C 0.5597111049 -2.0330059472 -1.5764501530
N -0.6720455150 -2.4111140433 -1.9009282318
C -1.6941866500 -1.7869651267 -1.3270541727
C -1.5344431336 -0.7645762692 -0.3885702966
C -2.7466330656 -0.0639621271 0.1542216067
O -3.4858138457 0.6073693422 -0.5338535030
O -2.8909893710 -0.2753720056 1.4622227455
C -4.0202589600 0.3996841506 2.0858176041
C -3.0425614005 -2.3151668603 -1.7644955427
F -3.5820258299 -1.4993628004 -2.7338448595
F -3.9265510954 -2.3229442278 -0.7110672433
C 1.6408530863 -2.8546788352 -2.2679748642
F 2.7863220362 -2.1707585495 -2.4580459064
F 1.9475763423 -3.9502888387 -1.5248673181
F 1.2341940727 -3.2934963670 -3.4723992706
C 2.2298081316 -0.6984416955 -0.2404985868
N 2.8999814363 0.2543517710 -0.7419563151
C 4.2654862201 0.3010140985 -0.2065051353
C 4.3242105914 -0.4204686448 1.1503293876
S 2.9842987212 -1.6841564020 1.0566579190
H 0.9046598680 3.1179543827 1.9499128813
H -0.5439565085 4.0614134477 1.5554280613
H -0.6456971483 2.7279131046 2.7222213389
H -1.5806900744 2.0708237237 0.5140101009
H 1.2258362543 2.6173812073 -0.5740975053
H -0.2312807624 3.5715947788 -0.9189934690
H -0.1049642297 1.9022270604 -1.4993912438
H -0.5153981689 0.3771580117 1.9547724430
H 1.0623646421 0.7385730469 1.2591292058
H -3.9145636412 1.4802104931 1.9650218915
H -4.9518906429 0.0580395364 1.6300196965
H -3.9740794091 0.1188531333 3.1363026984
H -2.9663538447 -3.3286201728 -2.1689166132
H 4.9211375205 -0.1888262057 -0.9405834547
H 4.5938488770 1.3399867522 -0.1063529995
H 4.0996818417 0.2504003606 1.9838305842
H 5.2831446920 -0.9130175968 1.3201604306
