39
CONF128
C 6.2196133026 0.9007165448 -1.7496943617
C 4.8332825055 1.4366292624 -1.3974969880
C 3.9239068850 0.3460335025 -0.8314575829
C 2.5501356176 0.8705721459 -0.4540459010
C 2.5122146171 1.7139564847 0.8384304947
O 1.9357218259 0.8277041158 1.8146913857
C 1.0309210413 0.0287808045 1.0777309217
C 0.8332534208 -1.2784633988 1.8650244081
N -0.2539707188 -2.0783474513 1.3366159301
C -1.5319359873 -2.1322247745 1.7672018127
N -2.2587483199 -2.8886881718 0.9554985776
C -1.3503974179 -3.2732544912 0.0144951583
N -0.1226117376 -2.8049315002 0.1991043363
O 1.6967542483 -0.2623107932 -0.1345935667
C -0.2954185294 0.7530115461 0.8022500188
C -1.0584530845 1.3924584706 1.7852163015
Cl -0.5563362883 1.4414623282 3.4707357478
C -2.2705320069 2.0110794830 1.4957367296
C -2.7347072280 1.9762893827 0.1882350464
Cl -4.2632533750 2.7511332472 -0.1850075670
C -2.0224880917 1.3425994658 -0.8197021718
C -0.8143237583 0.7396240797 -0.4948715309
H 6.1505758169 0.0985926329 -2.4925397673
H 6.8569660648 1.6887982759 -2.1620600737
H 6.7168028061 0.4934609787 -0.8626922076
H 4.3642305879 1.8684836675 -2.2910267456
H 4.9320152089 2.2547536451 -0.6720651325
H 4.3813323355 -0.1114528430 0.0563049860
H 3.7981262082 -0.4479825546 -1.5781181918
H 2.1061258985 1.4241845590 -1.2923913331
H 1.8858718194 2.6075330214 0.7235496580
H 3.5039035477 1.9978643122 1.1957503220
H 1.7638034781 -1.8492585464 1.8227034711
H 0.5990605059 -1.0367638665 2.9035473397
H -1.5929509568 -3.9179004182 -0.8209372608
H -2.8381669553 2.5019999756 2.2765346905
H -2.3990177734 1.3167187582 -1.8352861133
H -0.2473734129 0.2347012305 -1.2681685969
H -1.8703957658 -1.6219302815 2.6601922203
