65
CONF519
C -1.0395980311 3.3412694050 -1.9013187844
C -2.4514422467 2.8656333841 -2.2338548237
C -3.2940262395 2.5607641069 -0.9879666646
C -4.7228588830 2.1385282607 -1.3626394543
C -2.6708012134 1.4881073654 -0.1177436126
O -2.4630097301 1.5970468388 1.0772701160
O -2.4034720042 0.3756262265 -0.8260462858
C -1.9155696328 -0.7991888051 -0.1039357353
C -3.1033415929 -1.6225923206 0.3636547282
C -2.6312520116 -2.8685767758 1.1284731605
C -1.5049876124 -3.5436981773 0.4034964301
C -0.7843009201 -2.9785960997 -0.5831298626
C -1.0483951971 -1.5721982592 -1.0833739181
C 0.2887886418 -0.8701270454 -1.4001322670
C 0.9769624239 -1.6525848362 -2.5373282080
C 1.0979367259 -3.1044880324 -2.1583297945
C 0.3004747954 -3.6871483017 -1.2463109055
C 2.3208749595 -1.0550319213 -2.9638961552
C 1.1719227705 -0.7343499956 -0.1364288248
C 1.4014861348 0.7232456756 0.2647025251
C 2.1354611395 0.8641879317 1.5862262771
C 3.5496154901 0.3214768839 1.5784149578
C 4.2432545322 0.6881869734 2.8724240757
C 4.3159465211 2.2066578943 2.9705439135
C 3.0348627099 2.9314616615 2.6325951284
O 2.8412466206 4.0904302313 2.9477470200
O 2.0968630123 2.3080381993 1.8987530478
O 5.5517395824 0.1072813443 2.8592230574
C -2.2330696995 -2.5488020539 2.5809638949
H -0.4811161319 3.5788811779 -2.8116716711
H -1.0653118121 4.2393850337 -1.2746821655
H -0.4785167150 2.5711619924 -1.3607537073
H -2.9792740364 3.6382674862 -2.8058744794
H -2.4117884255 1.9722624161 -2.8675989587
H -3.3386774391 3.4569498646 -0.3591809382
H -5.2142922139 2.9528306164 -1.9032879347
H -4.7066195056 1.2551806830 -2.0079584922
H -5.3174827127 1.9091123554 -0.4729708339
H -1.3287990418 -0.4502684740 0.7506585617
H -3.7553229485 -1.0128588143 0.9986157881
H -3.6784684401 -1.9264191401 -0.5197285407
H -3.4738523617 -3.5726942928 1.1746207625
H -1.2539137584 -4.5561220250 0.7201408643
H -1.6116581679 -1.6532296453 -2.0264742745
H 0.0584487555 0.1330857772 -1.7815321442
H 0.3103976860 -1.5853082818 -3.4128913540
H 1.8782480114 -3.6890172475 -2.6430247942
H 0.4474706340 -4.7322211189 -0.9796305500
H 2.2036987347 0.0000354102 -3.2328742881
H 3.0700101436 -1.1239032829 -2.1686888421
H 2.7131653383 -1.5890643671 -3.8353475070
H 0.7088306172 -1.2690317279 0.7039635965
H 2.1334857940 -1.2281501310 -0.3010608137
H 1.9669829739 1.2467375245 -0.5175679429
H 0.4352493632 1.2329660783 0.3617726796
H 1.5568589546 0.3806559169 2.3849701686
H 4.1091556269 0.7267814979 0.7246908933
H 3.5027123866 -0.7667377506 1.4744537107
H 3.6649590907 0.2874840054 3.7194393488
H 5.0585574858 2.5647744215 2.2433772956
H 4.6402681001 2.5461762886 3.9583996449
H 5.9732535475 0.3033136174 3.7060051003
H -1.4172615330 -1.8188926348 2.6127428901
H -1.8934310794 -3.4528704680 3.0963396700
H -3.0872788345 -2.1398135204 3.1305560308
