110
CONF109
C -3.6935952501 -0.2879294873 1.3474250021
N -4.7394155178 0.1072681022 2.3160046831
C -4.4563912980 1.5027888559 2.7225129476
C -3.5860323210 2.0754448179 1.5872613065
C -3.5563619524 0.9796620239 0.4926317246
C -2.3111828195 1.0212328344 -0.3490147376
C -0.9891581952 0.8882094975 0.0323689370
C 0.0425512065 0.9811340715 -0.9079243262
C -0.3186782323 1.2415324902 -2.2498768793
O 0.7246638835 1.3125139145 -3.1224203521
C 0.4515834115 1.6342703094 -4.4917555114
C -1.6472905356 1.4066978596 -2.6499242287
C -2.6416811775 1.2694339878 -1.6786119714
N -4.0080602333 1.3342495469 -1.8646139338
C -4.5427362035 2.2741663113 -2.8442538257
C -4.7045573561 1.1615292146 -0.5753342352
C -5.7353325973 -0.0177951238 -0.6021931068
O -6.6246605468 0.0891680712 0.5034836703
C -5.0208976671 -1.3744217715 -0.5997459426
O -5.9818880932 -2.4259180381 -0.7151327281
C -4.0512782276 -1.5973093216 0.6222172791
C -2.7815060121 -2.2813350726 0.0346367654
C -1.6902330306 -2.6785881940 1.0257658687
C -4.6551512660 -2.5502890260 1.6307884119
C -4.9902473335 -2.2286626936 2.8798986563
C -4.8924587603 -0.8361385016 3.4154456851
C -6.5883569493 0.0747187247 -1.8884254007
N -7.7631690226 0.7137008728 -1.7296071117
O -6.1980981017 -0.3639459489 -2.9715040430
C 1.5181791237 0.7769159661 -0.5371700302
C 1.7227305925 0.8793237823 1.0103002307
C 3.1976805087 0.6846515234 1.3499128416
C 3.5121688354 -0.7089442522 1.9087699971
N 4.9308515341 -0.9991749239 1.7682082871
C 5.7461030813 0.0210511557 2.4297903205
C 5.3905806140 1.5088390952 2.1874885588
O 5.7735543380 1.9110430068 0.8480269872
C 6.0856845405 2.4122332518 3.2177312872
C 7.6127647964 2.3481198520 3.2153928594
C 3.8677433206 1.7164541802 2.2502336419
C 5.3089812974 -1.4794121533 0.4323605960
C 4.6819967109 -0.8655144994 -0.8626079580
C 3.2453403880 -1.2471429616 -1.1295644319
C 2.0143071252 -0.5922087176 -1.0237110741
N 1.0117009668 -1.4973020209 -1.3439158089
C 1.5382640998 -2.7120019155 -1.6751372648
C 0.9098922414 -3.8903997049 -2.0774028819
C 1.7234536429 -4.9800400916 -2.3610874292
C 3.1247303822 -4.8878930742 -2.2522147422
C 3.7414221030 -3.7095769720 -1.8526044850
C 2.9454349831 -2.5911463140 -1.5523987553
C 2.2842799162 1.9877950252 -1.1131049117
O 1.9875028627 3.1317479513 -0.8266511428
O 3.3146719749 1.6726089540 -1.8997683709
C 4.0610473814 2.7943370949 -2.4327105934
H -2.7403112947 -0.4371162700 1.8828791467
H -3.9147721365 1.5264255973 3.6789726133
H -5.3997789243 2.0442284255 2.8551634173
H -2.5641902960 2.2376861964 1.9423358808
H -3.9580219457 3.0248905113 1.1953894911
H -0.7590523937 0.7133189485 1.0767775356
H -0.0392039417 2.6106420916 -4.5740870177
H 1.4242420953 1.6669190770 -4.9836808277
H -0.1728026078 0.8636070761 -4.9579477316
H -1.9002753362 1.6092392597 -3.6822059976
H -4.2557835945 1.9763757612 -3.8573042863
H -5.6322851703 2.2759517522 -2.7984638335
H -4.1804798869 3.2976890708 -2.6581331124
H -5.2893089028 2.0630151409 -0.3434159723
H -6.0220252055 0.1038757735 1.3270373333
H -4.4317425611 -1.4232317294 -1.5200073107
H -6.5834651407 -2.3299045421 0.0383034715
H -3.1360069158 -3.1785463372 -0.4898178472
H -2.3622331391 -1.6185470793 -0.7317823018
H -2.0971407380 -3.2569014753 1.8616567963
H -1.1675120479 -1.8094348029 1.4368861977
H -0.9402894698 -3.2968362925 0.5214352979
H -4.7497455379 -3.5833610323 1.3045064174
H -5.3495974320 -2.9926487994 3.5647916778
H -4.0448110276 -0.7649565938 4.1260253349
H -5.7971920290 -0.5820568625 3.9838492133
H -8.0689621362 0.9790492588 -0.8066746071
H -8.3889274625 0.8067704625 -2.5146504783
H 1.1167120454 0.1084441730 1.4981090312
H 1.3483456429 1.8549054616 1.3372685016
H 3.7440160448 0.7653782214 0.4151011218
H 2.9344147319 -1.4837467716 1.3930464189
H 3.2339430280 -0.7395039182 2.9757278013
H 5.6573112942 -0.1418942704 3.5166461358
H 6.7981286938 -0.1472021092 2.1688405712
H 6.6701106555 1.5920518191 0.6846640157
H 5.7606871251 3.4409793004 3.0157944220
H 5.7071945886 2.1516978749 4.2139938826
H 7.9808185343 1.3606443491 3.5101062980
H 8.0233675855 3.0766184744 3.9210089918
H 8.0232373288 2.5840098353 2.2275111828
H 3.6434072516 2.7403100385 1.9236110869
H 3.5303176492 1.6143797077 3.2899680061
H 6.3978278381 -1.3841407669 0.3472878518
H 5.0805125249 -2.5554971782 0.3990218203
H 5.2766520142 -1.2995725916 -1.6793110057
H 4.8595853960 0.2070572422 -0.9077890936
H 0.0336489548 -1.2542771506 -1.3694107669
H -0.1710207703 -3.9500002352 -2.1645411794
H 1.2725097850 -5.9164386065 -2.6748455537
H 3.7319208799 -5.7571547528 -2.4863284233
H 4.8237284714 -3.6597218692 -1.7782414697
H 4.8706100357 2.3509243442 -3.0114121246
H 3.4147244291 3.4000836097 -3.0729926524
H 4.4575166974 3.4057726336 -1.6189413203
