25
CONF2
C 2.0993791453 -0.6508168153 -0.1866916041
C 1.2185541487 0.0485234493 0.6188118246
C 0.5793599703 1.1808267413 0.1144407247
C 0.8196632865 1.6168365068 -1.1885845431
C 1.7033789677 0.9180241194 -1.9891871922
C 2.3545165201 -0.2298561500 -1.5028323783
N 3.1932217499 -0.9571006337 -2.3215867967
S -0.5981085530 2.0498140179 1.1194216990
O -0.7269245451 3.4245286511 0.6350109642
O -0.3542339026 1.7115342629 2.5223776781
N -2.1484279178 1.3482675533 0.7450125682
C -2.3402766439 -0.0230544986 0.8854650293
N -2.8407421370 -0.7646215773 -0.0631025879
C -3.0183821881 -2.0523059305 0.3760472087
C -2.6411442817 -2.3079725043 1.6587157745
S -2.0491813311 -0.8558110001 2.4090338797
H 2.6018138278 -1.5313568123 0.2026755006
H 1.0345658784 -0.2657033856 1.6396066899
H 0.3291384736 2.5103372320 -1.5592431521
H 1.8982475522 1.2578893338 -3.0020476188
H 3.8480478720 -1.5731409867 -1.8682730481
H 3.5753272384 -0.4781468750 -3.1205600802
H -2.4592971207 1.6606686290 -0.1723682891
H -3.4244420077 -2.7896804831 -0.3062517968
H -2.6540538120 -3.2476827384 2.1922464556
