47
CONF47
C 1.9145187461 -3.9540696602 2.1833824504
C 3.0647766037 -2.9432750958 2.0773233948
C 4.3790807686 -3.6464063516 1.7141543891
C 2.7283776990 -1.8417468551 1.0938442361
C 2.5390948095 -2.1211950862 -0.2644902985
C 2.2030649353 -1.1182988675 -1.1688113782
C 2.0489873379 0.1777404535 -0.6967582293
C 2.2404041739 0.4972364986 0.6372941948
C 2.5840329637 -0.5200576316 1.5242460866
O 1.6959651650 1.2169854752 -1.5825155758
P 0.1818493251 1.2680496650 -2.1264219466
O -0.1878281969 0.3183830779 -3.1946753397
O 0.0689830079 2.7873659853 -2.6082581191
C 0.2683927765 3.8677011900 -1.7232828461
C 1.5360262047 4.4201071721 -1.6146799137
C 1.7096807835 5.5235929495 -0.7823624816
C 0.6289908056 6.0531059661 -0.0798912631
C -0.6350275508 5.4815823032 -0.2112038941
C -0.8256782420 4.3786030150 -1.0402404517
O -0.6825489714 1.1789111336 -0.7727418777
C -1.6593456587 0.1885778929 -0.5701036337
C -1.3319926160 -0.9073842243 0.2155174272
C -2.3146683820 -1.8625111651 0.4657104666
C -3.5939959036 -1.7129100590 -0.0661615274
C -3.8968335677 -0.6012693905 -0.8500585304
C -2.9258217343 0.3638674499 -1.1074772166
H 0.9793965988 -3.4579035278 2.4626728372
H 2.1433118932 -4.7129091874 2.9388996752
H 1.7577612943 -4.4646785238 1.2268552061
H 3.1926364096 -2.4703965810 3.0588278503
H 5.2039328116 -2.9301488658 1.6469428779
H 4.6307835140 -4.3933005866 2.4741512022
H 4.2935867583 -4.1620070553 0.7515652944
H 2.6509793659 -3.1377753718 -0.6294615588
H 2.0549949289 -1.3367191053 -2.2210507675
H 2.1082639934 1.5207026016 0.9726229512
H 2.7300688777 -0.2806908344 2.5739146524
H 2.3630074289 3.9951529668 -2.1726092423
H 2.6946037539 5.9691741796 -0.6867458299
H 0.7711390756 6.9128750997 0.5665730701
H -1.4802289754 5.8939605232 0.3303823896
H -1.8013884352 3.9200921385 -1.1590698718
H -0.3297961794 -1.0055929424 0.6206736192
H -2.0747763714 -2.7257979592 1.0781846937
H -4.3547210597 -2.4609852251 0.1313518730
H -4.8924809329 -0.4799162190 -1.2644582633
H -3.1412801885 1.2377969309 -1.7135600389
