48
CONF14
C 2.4519787496 -2.1822247466 -3.4375714641
C 3.0625598038 -0.7841493720 -3.4977299312
C 2.7985480765 0.0740056303 -2.2590931969
C 1.2955285892 0.2909595290 -2.0639274306
O 0.6900022696 1.0912721392 -2.7722120256
N 0.7084148641 -0.4737428925 -1.1091299438
C -0.6710474008 -0.3516506584 -0.7662138832
C -1.0602001045 0.0804553272 0.6890684142
N -1.7513467965 -1.2081036513 0.8348643248
C -1.4655769442 -1.6411491333 -0.4542758757
O -1.7647110107 -2.6466346791 -1.0536394477
C -3.0143446186 -1.2204602920 1.5362201296
C -3.7361291363 0.1236123391 1.1477572444
S -2.3399184688 1.3702906684 0.9827860625
C -4.4439323284 -0.0605055043 -0.1946439977
C -4.7154962948 0.6249248611 2.2040243336
C -2.7786233144 -1.3467689521 3.0331635393
O -1.8058832499 -0.9211875105 3.6135135093
O -3.8010918220 -1.9806547301 3.6318984994
O 3.4150781844 -0.5803213694 -1.1413941598
C 3.6123151904 0.1411820333 0.0129003665
C 3.1662592818 1.4484617831 0.2155704985
C 3.4178549682 2.0689226184 1.4401492308
C 4.0987293655 1.4046727739 2.4542033101
C 4.5357754251 0.0969135014 2.2388230001
C 4.2959496927 -0.5360274121 1.0266928550
H 2.8120147348 -2.7368241445 -2.5662429467
H 1.3590456037 -2.1399462587 -3.3885838423
H 2.7242125206 -2.7473263932 -4.3332671324
H 4.1492595762 -0.8445157356 -3.6216117883
H 2.6700204283 -0.2324089737 -4.3584116061
H 1.2931153536 -1.1003265951 -0.5724622907
H -0.2147109691 0.2310223775 1.3654681230
H -3.6198718516 -2.0645222645 1.1916163185
H -3.7678303291 -0.4342778840 -0.9684290151
H -4.8515718138 0.8950053933 -0.5342609315
H -5.2690762177 -0.7727625107 -0.0789649124
H -5.5209553680 -0.1052283238 2.3326937754
H -4.2301658137 0.7938193516 3.1688826557
H -5.1627196566 1.5667229521 1.8743331942
H -3.6325846316 -2.0007003326 4.5905264166
H 2.6248480231 1.9914713358 -0.5499664444
H 3.0680774267 3.0851853410 1.5937778992
H 4.2867025695 1.8969167695 3.4024156842
H 5.0686624169 -0.4358987243 3.0203794945
H -1.1851937647 0.2482486709 -1.5231484117
H 3.2455219260 1.0643550716 -2.4101111543
H 4.6307106597 -1.5525519557 0.8465188457
