45
CONF97
C -7.4773374165 0.5105834618 -1.1809585090
C -8.8443458412 -0.0267472148 -0.7448933219
O -9.1450784571 -1.3189989845 -1.2739216075
C -6.3186176813 -0.1532271422 -0.4759809272
C -4.9389154350 0.4825169280 -0.8305455482
C -3.6828433610 -0.3352097599 -0.3662569751
C -2.3704932112 0.5255160236 -0.3134520138
C -1.0607409079 -0.3428108970 -0.2855559717
C 0.1896264550 0.4577633013 0.2289649100
C 1.5543687762 -0.2252146083 -0.1456071823
C 2.7537940074 0.2951553389 0.7267522928
C 4.1559938646 -0.0147673288 0.0875431239
C 5.3332757598 0.0757277210 1.1144124489
C 6.7844276558 0.1938962145 0.5186822046
C 7.2460512729 -0.9055097499 -0.4866793839
F 6.5848151657 -0.7921694216 -1.6457011438
F 8.5540596453 -0.7490225167 -0.7235338492
F 7.0391547213 -2.1272117496 0.0204944208
F 7.6214032732 0.1435057756 1.5823005801
F 6.9209926955 1.3940769231 -0.0828204784
F 5.3010183009 -1.0128650588 1.9115782200
F 5.1548819433 1.1837042429 1.8745551668
F 4.1387634355 -1.2701867257 -0.4203265549
F 4.3740311034 0.8672731323 -0.9112655305
F 2.6375425484 1.6342340936 0.8698579382
F 2.6866376698 -0.2890577848 1.9428245088
F 1.4387510158 -1.5595697750 0.0341436463
F 1.8205772370 0.0268033909 -1.4464750220
F 0.1665041289 1.6961755073 -0.3125032701
F 0.1113526453 0.5587205309 1.5748410135
F -0.8083977617 -0.7847385865 -1.5382179842
F -1.2544690337 -1.4036650424 0.5290937459
F -2.4028782411 1.2928226869 0.8003930525
F -2.3279929766 1.3260634075 -1.4023500520
F -3.4904528570 -1.3571398537 -1.2342715734
F -3.9054876636 -0.8436402256 0.8659545528
F -4.8659843545 0.6226856168 -2.1779848593
F -4.8895582660 1.7180850253 -0.2665993668
F -6.4722233747 -0.0740116312 0.8825007309
F -6.2399728330 -1.4916835017 -0.7888081912
H -7.4276134248 1.5820168255 -0.9553841670
H -7.3546944364 0.3842182095 -2.2598567446
H -8.9330091211 -0.0148270657 0.3488257136
H -9.6033617339 0.6482704351 -1.1491875888
H -8.6299660511 -1.9758621923 -0.7907562371
