46
CONF24
C 2.0977025832 3.2012050292 0.9091858428
O 2.8078231897 2.3298006946 1.8170365995
C 2.3507368732 1.0680209493 1.9757910331
C 3.2317767015 0.0877510794 2.3869312408
N 2.8854627107 -1.2047851679 2.6238534941
C 1.6509921673 -1.5690761444 2.4464800261
N 0.7048511196 -0.6704066360 2.0406410254
C 1.0027443429 0.6692143549 1.8032236519
N -0.1145446087 1.3074795665 1.4535648612
C -1.0408329413 0.3243432644 1.4758332073
N -0.6174900999 -0.9031100710 1.8088983114
N -2.3737487077 0.5406557570 1.1641720094
S -2.7592775460 1.5459060000 -0.1964053566
O -2.5596489955 2.9152496955 0.2411075813
O -4.0526504917 1.0461032087 -0.6548067129
C -1.4741511962 1.1135101189 -1.4273585490
C -0.7324586280 2.0691967603 -2.1430912562
C 0.3033994533 1.6522961769 -2.9780430931
C 0.5957072623 0.3048459479 -3.1212019820
C -0.1608146311 -0.6524570616 -2.4687189042
C -1.2062536397 -0.2578860555 -1.6319165394
O -1.9989853685 -1.1548182268 -0.9935000441
C -1.5825365431 -2.5191719147 -0.9633572030
C -2.4246372190 -3.2236518669 0.0803139227
F -3.7457936411 -3.1759401373 -0.2636277966
F -2.0367310691 -4.5401361444 0.0851983704
C -1.0071781146 3.5686276273 -2.1192354683
F -2.3149765156 3.8453576227 -2.2520733915
F -0.5324689354 4.1663003064 -1.0101608088
F -0.3863270675 4.1763212816 -3.1654914795
O 1.1933429298 -2.8099745082 2.6188554344
C 2.1696345570 -3.7723401179 3.0740058327
H 1.1234118791 3.4844034238 1.3108431408
H 1.9614126088 2.7136853327 -0.0626592318
H 2.7384671417 4.0765106346 0.7993375602
H 4.2739632702 0.3505016297 2.5431584070
H -2.9019270102 -0.3233228190 1.0964690258
H 0.8707331357 2.3882831162 -3.5307244271
H 1.4067524843 -0.0044199263 -3.7714431538
H 0.0508471766 -1.7021855653 -2.6247221100
H -1.7423018966 -3.0032534198 -1.9359018765
H -0.5317573380 -2.6011492376 -0.6586489301
H -2.3009923836 -2.8162015437 1.0901381860
H 2.9812407696 -3.8654852964 2.3479774053
H 2.5799219044 -3.4686701107 4.0403266366
H 1.6175596234 -4.7071277129 3.1626887232
