49
CONF12
C -4.8706484730 0.6989129927 0.1483912213
C -3.4069126117 1.0679357300 0.0434982265
C -2.4908393655 0.3229229750 -0.8827578398
C -2.4407518463 0.0304120234 0.6134718814
C -1.1894430314 0.3571008763 1.3136030238
O -0.3828059126 1.2110047551 1.0165504446
O -1.0207868717 -0.4963954636 2.3714857046
C 0.3024987379 -0.4574847044 2.9792808583
C 0.1290637514 -0.9729719070 4.3347699001
N 0.0231751352 -1.3822015097 5.4089405794
C 1.2599847473 -1.2920793966 2.1583758347
C 2.2209534204 -0.6465388727 1.3885071577
C 3.0234487186 -1.4032667669 0.5371712629
C 2.8960147360 -2.7867888323 0.4745909467
C 1.9421164068 -3.4203567745 1.2670700456
C 1.1140450736 -2.6802696173 2.1041644859
O 4.0107769436 -0.8243512325 -0.2309883005
C 3.7528292660 0.3945109253 -0.8430832693
C 2.5116272642 0.6871405138 -1.4040336075
C 2.3392739898 1.9016050073 -2.0609869185
C 3.3936407986 2.8072374802 -2.1671185615
C 4.6310906031 2.4913376707 -1.6099318312
C 4.8168476026 1.2846096050 -0.9405099301
C -2.9314902406 -0.7661829021 -1.8077308327
C -1.7810730689 -1.5714932737 -2.4317028497
Br -0.7046531283 -2.3541597114 -0.9617051648
Br -0.5903480725 -0.4613787241 -3.5340473986
Br -2.4750603982 -3.0580677479 -3.5178940009
Br -4.0493986072 0.0407063178 -3.2608518777
C -3.1366484808 2.5427409991 0.2326510768
H -5.0499994746 -0.3693711994 0.0062580857
H -5.4500608849 1.2497827234 -0.5985663213
H -5.2418841842 0.9751896023 1.1404994057
H -1.6527224243 0.9121480030 -1.2476652287
H -2.9092216035 -0.8918008000 0.9397790337
H 0.6490709683 0.5799333353 3.0430416699
H 2.3279877875 0.4314850410 1.4312873557
H 3.5367957577 -3.3510771588 -0.1944537419
H 1.8384767849 -4.4993982142 1.2196400258
H 0.3579937866 -3.1753511073 2.7058601839
H 1.6934982381 -0.0213267591 -1.3266615246
H 1.3730824948 2.1341645201 -2.4986525033
H 3.2518927926 3.7512499977 -2.6825747491
H 5.4587391838 3.1892464770 -1.6885641927
H 5.7725053716 1.0253977759 -0.4970215458
H -3.6014767535 -1.4807109475 -1.3261257460
H -2.0760564028 2.7821065317 0.1442180034
H -3.6868139431 3.1073581835 -0.5274231270
H -3.4883354918 2.8664452653 1.2179450304
