71
CONF261
C 3.2656401105 -0.6143857153 -1.3233775585
C 4.5546468875 -1.2273757227 -0.8518758220
C 4.9843289994 -1.0662758361 0.4774005223
C 6.1781969728 -1.6426381279 0.9416913375
C 6.9596246740 -2.3569459862 0.0283623211
C 6.5592716655 -2.5140535910 -1.2929428483
C 5.3579779930 -1.9605264033 -1.7253018247
C 6.6017709490 -1.5390579549 2.3782293891
N 4.1529070802 -0.3379920704 1.3676181947
C 4.4987147926 0.8010145298 2.0192438893
O 5.5969012300 1.3499243494 1.9390331699
C 3.4048664062 1.3436142687 2.9391590515
N 2.0679538078 0.9145738988 2.5506633385
C 1.5401454486 1.7389081871 1.4564762725
C 0.2044448604 1.1882609228 0.9910502877
N -0.7645492909 1.1846148866 2.0942028000
C -0.2267244609 0.3734939665 3.1934439891
C 1.1138867480 0.9167122345 3.6644164973
C -2.0611185489 0.6516243581 1.6511026604
C -2.8466709639 1.6523363399 0.8070757618
C -4.1493981660 1.0882808860 0.2337622096
C -3.9472659225 -0.0419267800 -0.7943832799
C -5.2459965724 -0.6042122977 -1.3539699509
C -6.4683061098 0.0671404006 -1.2862014270
C -7.6251805972 -0.4798993202 -1.8427366899
C -7.5361748792 -1.7088471220 -2.4676843686
C -6.3466106245 -2.4138885895 -2.5577132293
C -5.2080456495 -1.8485069459 -1.9962000342
F -8.6589949620 -2.2511495869 -3.0109831889
C -3.0276770385 0.4041575977 -1.9191662884
C -1.7373423449 -0.1154195033 -2.0345585506
C -0.8663725929 0.3230192638 -3.0310116580
C -1.3177681543 1.2905892371 -3.9096147178
C -2.5931104932 1.8285464296 -3.8386740271
C -3.4434341372 1.3748537774 -2.8356896369
F -0.4792154033 1.7303533443 -4.8860639720
H 3.1150215824 -0.8115884002 -2.3868801182
H 2.4013863759 -1.0147011172 -0.7793790304
H 3.2657802949 0.4698900788 -1.1680135780
H 7.8854416973 -2.8094807146 0.3724149886
H 7.1776766973 -3.0777459770 -1.9846920794
H 5.0384284794 -2.0880717112 -2.7556722285
H 7.3248400913 -2.3220427788 2.6182670237
H 5.7431707163 -1.6336490112 3.0506395372
H 7.0608483499 -0.5666169486 2.5836561734
H 3.1680546107 -0.5789980126 1.4508182740
H 3.6320337510 0.9581390439 3.9423000807
H 3.5210796988 2.4397755390 2.9795310328
H 1.4187999882 2.7906789450 1.7786550605
H 2.2502885282 1.7255214281 0.6215701043
H 0.3537069904 0.1630597306 0.5932451908
H -0.1701634935 1.8090460430 0.1713456764
H -0.9370160532 0.3947700682 4.0280778483
H -0.0967709026 -0.6840140621 2.8855835795
H 1.5019343766 0.2781829504 4.4659485281
H 0.9745970619 1.9355838141 4.0733435217
H -2.6508478157 0.4075454309 2.5441783236
H -1.9142864518 -0.2965020248 1.0993169044
H -3.0804719546 2.5216916148 1.4324920860
H -2.2309221285 2.0195634075 -0.0213658195
H -4.7875674013 0.7128118623 1.0448733345
H -4.6919654909 1.9137723841 -0.2412515165
H -3.4460321740 -0.8756658063 -0.2894003422
H -6.5418061336 1.0293973814 -0.7927925821
H -8.5770502319 0.0375692759 -1.7899557064
H -6.3192407259 -3.3791730612 -3.0517658842
H -4.2648867641 -2.3850977042 -2.0595433841
H -1.3989041531 -0.8714952712 -1.3319909197
H 0.1387336586 -0.0749097384 -3.1232275307
H -2.9070289100 2.5807216107 -4.5544438212
H -4.4481840679 1.7831146222 -2.7692068588
