46
CONF27
C 4.5194813395 4.1026961308 2.3365897455
C 3.7193519881 3.2815230289 3.3243607111
O 3.8815570178 1.8521120333 3.0732935081
C 3.1485263618 1.2754057872 2.1189359305
N 3.4255583669 -0.0129333862 1.9359524157
C 2.6862380775 -0.6060445502 0.9763102101
N 1.7403698125 0.0217730550 0.2366603331
C 1.5654543774 1.3040859460 0.5387592175
N 2.2330768042 2.0036906194 1.4651587977
N 0.6062754252 2.0295937390 -0.1473145416
C -0.3000954354 1.6436825781 -1.1340285693
O -1.1295856242 2.4345884383 -1.5571006065
N -0.1667309135 0.3452606372 -1.5775260616
S -1.3215475342 -0.3813450665 -2.5857982599
O -1.3934232030 0.3751512143 -3.8371403799
O -0.9284229917 -1.7973729106 -2.6020435679
C -2.9061156714 -0.2327725839 -1.7486492297
C -3.8106309659 0.6984158956 -2.2441798691
C -5.0874941831 0.7663609397 -1.6952282146
C -5.4552309867 -0.1083504474 -0.6787090625
C -4.5485304529 -1.0492257834 -0.1993657460
C -3.2553817493 -1.1148998418 -0.7183396444
C -2.2831005329 -2.0585113601 -0.0848929602
O -1.2433660476 -1.7086362968 0.4353549922
O -2.7421136062 -3.3129033997 -0.1058424294
C -1.8914694369 -4.2978841595 0.5423707414
N 2.8977508534 -1.9049260279 0.7330228689
C 2.1938824376 -2.6575077212 -0.2968459063
H 5.5747298301 3.8164847892 2.3626789973
H 4.1399196712 3.9779184538 1.3194154250
H 4.4426318641 5.1606738486 2.6065652703
H 4.1001011132 3.4027016033 4.3406243847
H 2.6565673043 3.5322834463 3.3046113233
H 0.5074776655 2.9952121284 0.1387926188
H 0.4518898596 -0.2744577823 -1.0245818405
H -3.5186545003 1.3535650461 -3.0556162415
H -5.7942276914 1.4965926771 -2.0739074011
H -6.4538616633 -0.0649384903 -0.2571865587
H -4.8343913459 -1.7316769493 0.5938272960
H -2.4154237477 -5.2454160432 0.4298470425
H -1.7651013110 -4.0443173392 1.5971229266
H -0.9193672488 -4.3292035621 0.0450657493
H 3.6229552185 -2.3546593206 1.2690685342
H 2.4118076124 -2.2647205407 -1.2966886825
H 2.5271812164 -3.6947901334 -0.2446239896
H 1.1114823405 -2.6222787257 -0.1358365808
