49
CONF6
C -4.2178232184 -0.4724556485 -0.3410645885
C -3.1157646423 -1.3070402608 0.2794179481
C -1.9127671945 -0.6340699866 0.9528506245
C -1.7733135658 -1.4106438261 -0.3848538134
C -0.9655049747 -2.6904500281 -0.3065363711
C -1.4862509521 -0.6475501143 -1.6603101034
C -1.6892596976 0.8082190965 0.9941685588
O -2.1498396747 1.6831699722 0.2921229513
O -0.7738604102 1.0957848472 1.9943978812
C -0.3263362163 2.4604132391 2.0059245923
C 0.3352856447 2.6488263831 3.2986166416
N 0.8783529445 2.8300000056 4.3014996340
C 0.6368414528 2.7718106319 0.8685274216
C 1.3339166902 1.7378002552 0.2508497361
C 2.2089594817 2.0458676512 -0.7884335950
C 2.3974149857 3.3648951807 -1.1994626967
C 1.6933657485 4.3816353473 -0.5667029925
C 0.8084166866 4.0945357732 0.4696932272
O 2.8868561293 1.0861695232 -1.5054679802
C 3.0687373961 -0.1779754320 -0.9576823703
C 3.6954067474 -0.3442243901 0.2744186370
C 3.9210972317 -1.6340983490 0.7451859661
C 3.5366196048 -2.7408176879 -0.0112611254
C 2.9233677455 -2.5543128371 -1.2474446487
C 2.6809672847 -1.2685424680 -1.7262368439
C -3.6822532364 -2.5009957257 1.0258751162
H -4.9106182634 -0.1361413224 0.4378762437
H -4.7824926885 -1.0965880768 -1.0432453777
H -3.8558118391 0.4064675815 -0.8686096453
H -1.5021684719 -1.1577558296 1.8098990299
H -1.0792633782 -3.2132937432 0.6435625265
H -1.2669555877 -3.3698068177 -1.1128194114
H 0.0976753745 -2.4627624266 -0.4414344616
H -0.4061467184 -0.4897631509 -1.7609191012
H -1.9739438042 0.3244450705 -1.7060513572
H -1.8181687736 -1.2433408981 -2.5183306933
H -1.1839704695 3.1433564124 1.9562459135
H 1.1842832391 0.7099546549 0.5601357447
H 3.0825181441 3.5749342002 -2.0138057424
H 1.8323405628 5.4082863169 -0.8894827875
H 0.2526455354 4.8895796558 0.9569999843
H 3.9999553450 0.5229507486 0.8515454703
H 4.4089096369 -1.7727152014 1.7048708172
H 3.7188827216 -3.7435905619 0.3608633173
H 2.6235956425 -3.4110212871 -1.8428634933
H 2.2000276607 -1.1029199357 -2.6845207326
H -2.9278259633 -3.0535144203 1.5872735311
H -4.4458242796 -2.1626647145 1.7343340683
H -4.1602746321 -3.1900464172 0.3200538597
