47
CONF113
C -2.9963198511 -3.9626819685 -0.5702690830
C -3.2898885078 -2.4566883297 -0.5222224827
C -4.0826838743 -2.0755611420 -1.7783919776
C -1.9649944668 -1.6913592342 -0.3235727490
C -1.2777670871 -2.0726154827 1.0212824501
C -0.7201473624 -0.7716061782 1.6276532178
C -0.7378170421 0.2365187759 0.4763383589
C -0.6553963524 1.7003507071 0.9281638071
C 0.6358767772 1.9845344590 1.6504949700
C 0.6731193045 2.1126054520 3.0409599390
C 1.8697295405 2.3390523862 3.7175270006
C 3.0421222681 2.4377729444 2.9808344470
Cl 4.5667428130 2.7281169223 3.8220215664
C 3.0455000149 2.3185589661 1.5960575786
C 1.8380475128 2.0918783097 0.9433182963
C -2.0100040901 -0.1406448889 -0.3082188232
O -3.1241686047 0.3547189107 0.4541299321
C -2.0821066383 0.5581605202 -1.6870204381
N -0.9348403905 0.3321463391 -2.5582484116
C 0.1399349347 1.1245001012 -2.7447703661
N 0.9824579897 0.5684871508 -3.6082378197
C 0.3521635428 -0.5961169888 -3.9286189272
N -0.8129912742 -0.7836783585 -3.3205559565
H -2.4725550671 -4.3107295541 0.3238856536
H -3.9274443209 -4.5313112513 -0.6602234936
H -3.4543831826 -2.1496049116 -2.6729057657
H -4.9250086131 -2.7642864414 -1.9029280769
H -4.5050567356 -1.0667715812 -1.7408388302
H -1.3013457163 -1.9696235090 -1.1519526470
H -1.9970439469 -2.5400363794 1.7012957267
H -0.4822248941 -2.8031570259 0.8485601968
H 0.2814273957 -0.8931410977 2.0492280509
H -1.3707975477 -0.4082585166 2.4310955906
H 0.1150021664 0.0214941577 -0.1831162068
H -0.7360598155 2.3694980442 0.0631276091
H -0.2481795590 2.0344469578 3.6112571897
H 1.8854182249 2.4383988545 4.7971449281
H 3.9704636685 2.4046197613 1.0368048592
H 1.8360644454 2.0000829900 -0.1394773365
H -2.1463070809 1.6365730409 -1.5171970291
H -2.9765161670 0.2516024393 -2.2303042452
H 0.2558349666 2.0793541725 -2.2485911880
H 0.7517555988 -1.3202844416 -4.6274259548
H -2.3721375164 -4.1955157627 -1.4418380820
H -3.9204900640 -2.2681515599 0.3600081961
H -1.4999102159 1.9170901024 1.5887654655
H -3.9316410679 -0.0589211823 0.1239153065
