43
CONF16
C 4.1056808993 1.4092666116 -1.7198585746
C 3.6318620813 0.2517385397 -0.9170095164
N 2.7900702078 0.3656042807 0.0815139100
N 2.4490481546 -0.8178826284 0.6441188302
C 3.0345121806 -1.8469638470 0.0870893115
S 4.1026471026 -1.3978281002 -1.2335810086
S 2.7387762704 -3.5171423430 0.5538390365
C 1.3250875132 -3.8894172397 -0.6357305438
C 0.1822545280 -3.0038481962 -0.3039538064
C -0.0888888621 -1.8513196912 -0.9634910496
N -0.9461271476 -0.9737980144 -0.2969579509
C -0.8146207778 -0.5525805866 1.1054513686
C -2.1663881602 0.2185810405 0.9266017078
C -2.1243233901 -0.2879862841 -0.5498036670
O -2.8071522263 -0.1589799280 -1.5268927804
N -2.1559235761 1.6486224095 1.0864142510
C -1.3956046348 2.4392446848 0.2957403906
O -0.6304380582 2.0252390795 -0.5677927452
C -1.4791703216 3.9509409307 0.5408359655
N -2.7694005464 4.4301966139 1.0027594948
C -3.7666225171 5.0481147403 0.3383404348
N -4.7794944378 5.2315226135 1.1619360743
N -4.3894374147 4.6995868207 2.3478039872
N -3.1910630383 4.2180489759 2.2723389428
S -0.7016456302 -1.9963999781 2.2237798453
C -0.6479955727 -3.3228465168 0.9055157578
C 0.5870559651 -1.3569581908 -2.2044727796
O 1.1222745698 -2.0876209294 -3.0066180704
O 0.5821240823 -0.0242474135 -2.3869949402
H 3.7200580645 1.3448317703 -2.7422713781
H 5.1976563512 1.4440880253 -1.7682570590
H 3.7334790938 2.3260927588 -1.2596625403
H 1.0983033389 -4.9425456150 -0.4452310120
H 1.6767206152 -3.7593428222 -1.6575783330
H 0.0512556180 0.0970908277 1.2688161423
H -2.9891867361 -0.2147181382 1.4978068740
H -2.7111744137 2.0719470213 1.8179231893
H -0.7159605570 4.2252110256 1.2774949174
H -1.2378119369 4.4391867169 -0.4045625913
H -3.7161198224 5.3410970623 -0.7003799772
H -1.6785643157 -3.5189324348 0.5906142071
H -0.2631062691 -4.2052461228 1.4222447848
H 0.1521759588 0.4607898546 -1.6562536562
