47
CONF19
C -6.5643032092 -1.3305693181 2.7649534748
O -6.0392220997 -0.3378635765 1.8364121266
P -5.2042205290 -0.7994725546 0.5553722362
S -3.8120934774 -2.1286350712 0.8234236879
O -6.3712780363 -1.1519260955 -0.4773528118
C -6.0468508217 -1.7273515760 -1.7753566272
O -4.7145266965 0.6354377098 -0.0206204688
C -3.5088985981 1.2155394595 0.3878922401
C -2.4406052572 1.2012159748 -0.5000508158
C -1.2523482251 1.8236166640 -0.1410896323
C -1.1334328917 2.4301631483 1.1127675159
C -2.2158623318 2.4306430172 1.9951780161
C -3.4170260067 1.8307365166 1.6280252496
S 0.3516957052 3.2988327211 1.6036305211
C 1.6488551237 2.2523627612 0.9540971101
C 1.6427365558 0.8709080176 1.1679903225
C 2.6866403059 0.0890021756 0.6917031957
C 3.7409046032 0.7027002757 0.0227412285
C 3.7724189756 2.0739392144 -0.1812801416
C 2.7148117724 2.8516445950 0.2809953733
O 4.8299812110 -0.0484368454 -0.4213982689
P 4.6841698086 -1.1469007604 -1.6201770076
S 3.4940826357 -0.6425888817 -3.0651862797
O 4.2568136118 -2.5190411990 -0.9319223929
C 5.0239486197 -3.0568384572 0.1918998243
O 6.2277026731 -1.3966649837 -1.9422141774
C 7.0101576037 -0.3563250853 -2.5958620937
H -7.0683787687 -0.7609024684 3.5447834536
H -5.7438299437 -1.9142927050 3.1892467603
H -7.2756948685 -1.9838927436 2.2531692766
H -7.0023265274 -1.8667211350 -2.2797806649
H -5.4159081082 -1.0388233897 -2.3440504808
H -5.5422126399 -2.6873070335 -1.6419866112
H -2.5478313422 0.7173860367 -1.4650187604
H -0.4188168853 1.8297091734 -0.8353639326
H -2.1249058015 2.8961549533 2.9711912530
H -4.2654047876 1.8303009634 2.3037631002
H 0.8233471063 0.4031972257 1.7036328426
H 2.6896750458 -0.9838756272 0.8532459652
H 4.6056854905 2.5219110459 -0.7118721397
H 2.7174429081 3.9225891322 0.1069144199
H 4.4412130651 -3.8992247651 0.5623616528
H 6.0026127060 -3.3921074297 -0.1565339777
H 5.1305818858 -2.2991970707 0.9724410870
H 8.0121711227 -0.7690916438 -2.7060062421
H 6.5820933985 -0.1305939872 -3.5759350195
H 7.0362348240 0.5406538552 -1.9717273751
