37
CONF219
C -2.6364523855 -2.8839018352 0.6341064723
C -2.7285183923 -1.3955223508 0.4074788871
O -1.9881401644 -1.0933817385 -0.8206214173
P -1.3817508941 0.3435272106 -1.1042060151
O -0.6548793344 0.4387950973 -2.3823379769
O -2.6071693757 1.3391752099 -0.8795909024
C -2.5903157155 2.6534647340 -1.5185878811
C -1.6122488210 3.5935444790 -0.8479826162
O -0.4738567284 0.6843203766 0.2135445523
P 0.7718847870 -0.1671162532 0.8202385427
O 0.3735394165 -1.4131097980 1.5123080833
O 1.8090131541 -0.3288267508 -0.3784844458
C 1.7440035890 -1.5182952937 -1.2343890607
C 2.4364799222 -1.1731518923 -2.5284618754
O 1.4125297187 0.9910689246 1.7032106696
C 2.1954595073 0.6224092903 2.8786769029
C 3.5546301124 0.0741402203 2.4998714255
H -3.2132988058 -3.1507692649 1.5251055726
H -1.5948055960 -3.1706000718 0.7953590903
H -3.0410114744 -3.4334135180 -0.2201409464
H -3.7591874982 -1.0577844421 0.2563385039
H -2.2818688013 -0.8460087305 1.2417350525
H -3.6195154284 3.0066506286 -1.4200646070
H -2.3565819106 2.5181292090 -2.5796391867
H -1.8168838781 3.6693704612 0.2233068560
H -0.5812911359 3.2558701363 -0.9855228358
H -1.7066129204 4.5890531413 -1.2937282759
H 0.6978911635 -1.7895104377 -1.4098781084
H 2.2343253740 -2.3371213486 -0.6974372791
H 1.9032220238 -0.3617551130 -3.0288047284
H 3.4716470989 -0.8711946134 -2.3464431526
H 2.4392389802 -2.0494820877 -3.1840996203
H 2.2827902357 1.5558771149 3.4396010314
H 1.6206265069 -0.0987697099 3.4692445230
H 4.0901794197 0.7763494964 1.8555878948
H 4.1444909648 -0.0898650895 3.4075158611
H 3.4624380848 -0.8821656977 1.9771914072
