55
CONF1
C 2.2079009751 -1.8447029262 -3.8824435284
C 1.5260713336 -1.8273586534 -2.5156239754
C 2.0262839522 -2.9851290332 -1.6410659567
N 1.8186269301 -0.5579569308 -1.8681848260
C 1.0164626879 -0.0832065433 -0.9629992702
C -0.1954101308 -0.6744414422 -0.4777895120
C -0.9731699433 -0.0491200798 0.4603507430
C -0.6051543899 1.2640934959 0.9930345707
N -1.3464155803 1.9174161789 1.8653700243
C -2.5030634386 1.3418710617 2.3099084969
C -3.2968724492 2.0366916474 3.2403478266
C -4.4671520726 1.4878388575 3.7273949664
C -4.8750500156 0.2208729566 3.2946618880
C -4.1189442033 -0.4926479007 2.3774921753
C -2.9347847679 0.0607534608 1.8778401795
N -2.1396679887 -0.6049752279 0.9532803336
C -2.5347408176 -1.8988314042 0.4805195843
C -3.3704471095 -2.0027555675 -0.6257591016
C -3.7429368098 -3.2569713712 -1.0950904520
C -3.2633019398 -4.3898946143 -0.4459136461
C -2.4239714537 -4.2954199395 0.6594055147
C -2.0586236322 -3.0368608211 1.1220849780
Cl -3.7269629446 -5.9711682571 -1.0332923586
C 0.6037773025 1.8531744649 0.5367508022
C 1.4129571120 1.2269280221 -0.3741651896
N 2.5810934917 1.7090767119 -0.8762492891
C 3.3499311035 2.8026999949 -0.4813349223
C 4.1467945230 3.4321698797 -1.4480331563
C 4.9690217415 4.4961735082 -1.1103798584
C 4.9919232867 4.9473583333 0.2044622446
C 4.2210383951 4.3305944649 1.1818841178
C 3.4074598717 3.2578255310 0.8421585325
Cl 6.0127270943 6.3066759244 0.6351549646
H 1.8493825870 -1.0185809627 -4.5029617746
H 2.0067560730 -2.7854559820 -4.4048580307
H 3.2906516610 -1.7366635629 -3.7622979650
H 0.4408245206 -1.9523963143 -2.6746440347
H 1.5429319216 -2.9775489164 -0.6594013849
H 3.1064277554 -2.8935848821 -1.4886501916
H 1.8223170725 -3.9467014490 -2.1231316143
H -0.4924238100 -1.6397500412 -0.8639243800
H -2.9495236573 3.0145057474 3.5561599814
H -5.0684585575 2.0358245809 4.4446578527
H -5.7921810248 -0.2148224500 3.6766342394
H -4.4421961592 -1.4733716982 2.0481116441
H -3.7262774391 -1.1024671948 -1.1156111169
H -4.3953025669 -3.3560304821 -1.9544707977
H -2.0631792139 -5.1923353914 1.1485733435
H -1.4019537310 -2.9332604586 1.9794587705
H 0.8288347207 2.8376844897 0.9247749842
H 2.9209674421 1.1231542550 -1.6392480305
H 4.1125360732 3.0842046930 -2.4759362119
H 5.5791212543 4.9800348146 -1.8640713666
H 4.2666209371 4.6755832155 2.2083063599
H 2.8487247316 2.7512031921 1.6187528338
