44
CONF6
C -1.0459395367 -3.6420024942 1.0635028629
C -1.4648336702 -3.1948657701 -0.3285599262
N -1.9020781422 -1.7681684180 -0.3394047348
C -3.2242439883 -1.5423556939 -0.3896358927
C -3.8088038478 -0.3062551419 -0.2464455980
C -2.9916873559 0.8411435871 0.0113875889
O -3.4763784542 1.9969128978 0.1804753366
C -1.5608413140 0.6033345994 0.0558174971
C -0.7042160701 1.6909449437 0.2841183156
C 0.6431108507 1.4940219514 0.3404465184
C 1.2551447560 0.2340892250 0.1314610175
C 0.3746559579 -0.8198697775 -0.1471227647
C -1.0264162911 -0.6969434096 -0.1316995077
F 0.9439050499 -1.9949125828 -0.4961255437
N 2.6206615698 0.0915090423 0.2374107380
C 3.2325883649 -1.1648965945 0.6818549961
C 4.5414819827 -0.8349217294 1.3893238832
N 5.4259982355 -0.1077203105 0.4701159390
C 4.8254294768 1.1778331270 0.0788934796
C 3.5047752470 0.8882748237 -0.6273897310
C 5.7707510712 1.9405357426 -0.8367724310
F 1.4449019661 2.5363148866 0.6484822200
C -5.2829650384 -0.2066516861 -0.3408940956
O -6.0135839277 -1.1602496927 -0.5661056390
O -5.7769912676 1.0216493300 -0.1596238284
H -1.8816859515 -3.5492663384 1.7632376211
H -0.7445449151 -4.6923212276 1.0197560571
H -0.2014459446 -3.0629821691 1.4446884047
H -2.3296535492 -3.7689376336 -0.6640528653
H -0.6755730735 -3.3347465864 -1.0641397164
H -3.8503018995 -2.4140624946 -0.5457932224
H -1.1259734548 2.6741412907 0.4555639980
H 3.4348492698 -1.8374765134 -0.1653880146
H 2.5561133455 -1.6659777087 1.3788961309
H 5.0247229709 -1.7712547611 1.6892554661
H 4.3148689104 -0.2555571266 2.3031386590
H 6.3082136691 0.0768787391 0.9387049700
H 4.5970374439 1.7970709869 0.9682085623
H 3.7099883346 0.3242570655 -1.5538446488
H 3.0137210967 1.8233801928 -0.9009502874
H 5.3405258176 2.9079409058 -1.1135456795
H 5.9665795690 1.3691826939 -1.7504101443
H 6.7256978653 2.1241822110 -0.3339159586
H -4.9795773779 1.6360847529 0.0092692328
