39
CONF27
C 5.0920877773 2.9443197896 2.0762886906
C 6.2549101572 1.9694611014 2.2703991625
C 5.8948009815 0.5161453684 1.9429377166
C 5.5629679507 0.2925579352 0.4680927577
C 5.2163292455 -1.1547529913 0.0899456403
C 5.1936316925 -1.3182971941 -1.4386974397
C 4.8300779202 -2.7178332846 -1.9303668252
C 3.9169687504 -1.6168133237 0.7400002766
O 2.8063407001 -0.8481070895 0.1889510164
C 2.2004832868 0.0351975314 0.9907802864
O 2.4702069356 0.2522625870 2.1499617841
C 1.1740371437 0.8342462347 0.2442233500
C 1.3003707099 2.2134966830 0.3668601052
C 0.4422558092 3.0657818256 -0.3076615054
C -0.5851932143 2.5502286053 -1.1045988038
C -0.7447264351 1.1561467328 -1.1994616149
C 0.1399861799 0.3000708153 -0.5281614570
Br -0.1203847315 -1.5798408068 -0.5751083643
Br -2.1578701404 0.4395794816 -2.2344243892
Br -1.7477841509 3.7220029722 -2.0233073322
Br 0.7264552344 4.9306738771 -0.1019616275
H 4.2118282724 2.6073885181 2.6355795617
H 5.3542550258 3.9468889550 2.4273647283
H 4.8091714746 3.0335023441 1.0222362458
H 7.1092283694 2.2844991895 1.6561541924
H 6.5905125166 2.0191929865 3.3131717292
H 6.7347113668 -0.1351494036 2.2199271722
H 5.0427610315 0.2241941070 2.5685389133
H 6.4212008635 0.6100589906 -0.1398943956
H 4.7282104153 0.9382404848 0.1639993449
H 5.9948251921 -1.8204544826 0.4961366568
H 6.1874933147 -1.0472617914 -1.8146351972
H 4.4943219634 -0.5864760192 -1.8614616861
H 4.9865051862 -2.8001425510 -3.0097751101
H 5.4477999512 -3.4829864507 -1.4459878247
H 3.7797730841 -2.9571327302 -1.7379280130
H 3.9312182989 -1.4945435503 1.8244554162
H 3.6941478018 -2.6585147700 0.4964084072
H 2.0867322329 2.6139633319 0.9955373910
