41
CONF95
C -4.7276864228 -0.8188117983 -0.5651396729
C -4.5320596517 0.0275946159 0.6918161577
N -3.5734867632 1.1292225780 0.5113610993
C -4.1446378980 2.4762280817 0.4614050032
C -4.8083862656 2.8019859015 -0.8753544721
O -3.8882184405 2.7871835822 -1.9675529487
C -2.2380453743 0.8927969764 0.3902440151
C -1.3194435402 1.9108979998 0.0132175321
C 0.0267938690 1.6467812216 -0.0679197621
C 0.5484142558 0.3665468792 0.2078155789
C -0.3581730095 -0.6566694247 0.5685838534
C -1.7039485164 -0.4065404303 0.6498503509
N 1.9140768075 0.2283530690 0.0930035508
N 2.3864164913 -0.9305710299 0.3477659833
C 3.7751308332 -1.0283911627 0.2076420140
C 4.3318533731 -2.2710619615 0.5601030062
C 5.6926144709 -2.4903798900 0.4621593976
C 6.5062461775 -1.4554567522 0.0007416252
C 5.9788548866 -0.2124672623 -0.3624999758
C 4.6194911381 0.0004644081 -0.2594617969
N 7.9397692469 -1.6754463668 -0.1073208463
O 8.6438169429 -0.7499437076 -0.5178189508
O 8.3880433002 -2.7776704215 0.2165664770
H -3.7911986843 -1.2782989121 -0.8924707215
H -5.1180334760 -0.2124957359 -1.3876942912
H -5.4455567264 -1.6180188126 -0.3573852333
H -4.2204306474 -0.5988122959 1.5359966327
H -5.4834979254 0.4822110194 0.9788274692
H -3.3728509744 3.2137872126 0.6870596445
H -4.9030262210 2.5517160012 1.2510195582
H -5.6485074139 2.1170708097 -1.0593635278
H -5.2105909638 3.8186356711 -0.8199878287
H -3.5947025642 1.8760613505 -2.0986045771
H -1.6723235518 2.8996603376 -0.2453534098
H 0.7163173913 2.4315439351 -0.3642783767
H 0.0172492944 -1.6494476252 0.7879504375
H -2.3614802327 -1.2167843537 0.9360297216
H 3.6714416163 -3.0555602482 0.9142533396
H 6.1263854895 -3.4437669366 0.7354906166
H 6.6378785764 0.5684223612 -0.7210945417
H 4.1954921136 0.9565895939 -0.5396026340
