41
CONF3
C 4.8748206559 -2.4323522692 1.8951877256
C 4.1956540451 -1.4588426677 0.9803438245
C 3.6419786476 -1.8534260709 -0.2342706381
C 3.0236004470 -0.9479597766 -1.0828340190
C 2.9177497840 0.4019347262 -0.7599087168
C 3.4802815583 0.8051200129 0.4473888323
C 4.1022643915 -0.1059943622 1.2906582344
F 4.6283551462 0.3406673774 2.4448603619
F 3.4413033511 2.0923510614 0.8119616835
C 2.2040462598 1.3531282049 -1.6736266075
O 0.7999498333 1.0064571947 -1.8158372892
C 0.0303533728 1.2554895947 -0.7230185132
O 0.4541732367 1.7583601132 0.2935707229
C -1.3614653630 0.8242343507 -0.9763373380
C -2.2197697490 0.4746715475 0.2468680852
C -2.5523224704 1.6882260435 -0.5946002296
C -2.3379790039 3.0429627059 0.0410110172
C -3.7331359895 1.6445324752 -1.5397486498
C -3.0218796114 -0.7427799349 0.2168973693
C -3.2651746644 -1.5483099564 1.2533307913
C -4.1028368249 -2.7935770399 1.1525025193
F -3.3977702639 -3.8991131583 1.4787261984
F -4.5698807725 -2.9681752285 -0.1044635393
F -5.1727721343 -2.7480549082 1.9766401598
Cl -2.6440784853 -1.2735500729 2.8582241328
F 2.5155984914 -1.3873834458 -2.2461651321
F 3.7113153744 -3.1445727476 -0.6046682729
H 4.4652730158 -3.4346484906 1.7625158269
H 5.9485710438 -2.4763204881 1.6816923969
H 4.7544540676 -2.1281549919 2.9361490393
H 2.5929213475 1.2821373187 -2.6910064388
H 2.2952883492 2.3756163718 -1.3028680757
H -1.4918727061 0.2089388175 -1.8602096577
H -1.7302929326 0.7049271588 1.1881731237
H -2.1372956435 3.7953276174 -0.7299673972
H -3.2473277954 3.3404869782 0.5736866026
H -1.5046898756 3.0399047865 0.7439038048
H -3.6314547163 2.4324213021 -2.2930006186
H -3.8222770591 0.6926735421 -2.0677095665
H -4.6642046461 1.8200645282 -0.9901449595
H -3.4694736062 -1.0374180187 -0.7268405825
