58
CONF32
C -2.1553245428 4.3309068806 -3.4502503138
C -2.1444777529 2.8676344467 -3.7136889079
C -2.4226435463 1.8099126563 -2.8023985514
C -2.2755855645 0.6623265056 -3.5745036585
N -1.9330307773 1.0429032658 -4.8226859276
N -1.8689761770 2.3963230885 -4.9290447155
C -1.7190386140 0.1994651511 -5.9802414704
O -2.4349636248 -0.6439828562 -3.2502529930
C -1.5218514062 -1.1942713830 -2.3420527342
C -1.9213109326 -2.3711369069 -1.7213941692
C -1.0541464877 -2.9838420561 -0.8237386857
C 0.1930539744 -2.4258235005 -0.5536780829
C 0.5757290564 -1.2502933260 -1.1911136983
C -0.2802878916 -0.6227689076 -2.0916256774
C -2.7669986206 1.8138728467 -1.4073728556
N -2.5808882677 2.8550974917 -0.6783850716
O -3.0983939882 2.6313291189 0.6222743129
C -2.1893517741 3.2062579691 1.5778030865
C -1.0089404782 2.2931293824 1.7721563491
C 0.1091478103 2.3899066523 0.9396379211
C 1.1386868578 1.4660437680 1.0346861748
C 1.0759534347 0.4360827383 1.9770141851
C -0.0289721681 0.3472674322 2.8283537648
C -1.0634130961 1.2653311368 2.7157333988
C 2.1897409821 -0.5496612186 2.0071752580
O 3.0403591973 -0.6229319276 1.1406780349
O 2.1269514105 -1.3349650699 3.0998818330
C 3.1427453007 -2.3824058894 3.3475557434
C 4.5270248442 -1.7542155504 3.4714722876
C 3.0774128414 -3.4402016933 2.2514370507
C 2.6943975929 -2.9627493186 4.6837748532
H -2.0613180904 4.8756697751 -4.3918922987
H -3.0795790927 4.6249700251 -2.9438617627
H -1.3331340758 4.6141256140 -2.7857872531
H -2.5672123128 0.2686539928 -6.6693948714
H -1.6081281401 -0.8327331197 -5.6431611944
H -0.8113064824 0.5219737889 -6.4950671384
H -2.8990216183 -2.7844000007 -1.9432902254
H -1.3608100244 -3.9007948805 -0.3306580686
H 0.8676164392 -2.9008167842 0.1502326662
H 1.5458268321 -0.8145339613 -0.9770569390
H 0.0088607506 0.3018211183 -2.5792363612
H -3.1837235813 0.8992155024 -0.9743429502
H -2.7734439377 3.3002948031 2.4980372549
H -1.8808629995 4.2007102250 1.2323077886
H 0.1551210259 3.1848532506 0.2019721100
H 2.0042173381 1.5245447859 0.3836699594
H -0.0773934828 -0.4482165920 3.5621267921
H -1.9336448086 1.1792391750 3.3604966796
H 5.2294019998 -2.5133872974 3.8296341430
H 4.8806859515 -1.3702099123 2.5146359949
H 4.5070037710 -0.9383903247 4.2003374027
H 3.3778445764 -3.0313462666 1.2858240756
H 2.0628908382 -3.8441009053 2.1772166822
H 3.7514667095 -4.2633637151 2.5082501573
H 3.3649490516 -3.7745557677 4.9790313425
H 1.6780307936 -3.3595815317 4.6088800248
H 2.7130541571 -2.1941821199 5.4613758490
