18
CONF5
O -0.3163292649 0.4883705742 1.3480006069
C -0.1248600509 0.3721536220 0.1567618492
O -1.0448553203 0.4779674285 -0.8124255558
C -2.4118112101 0.7015396187 -0.3568956471
C -3.0691449850 -0.5996955090 0.0495850960
O 1.0530604534 0.1212199724 -0.4301430014
C 2.1777265997 -0.0155896127 0.4872754966
C 3.3980187966 -0.3054095567 -0.3525865034
H -2.3959952015 1.4235299362 0.4638934813
H -2.9045670840 1.1466603591 -1.2238613654
H -2.5631480154 -1.0397581454 0.9125384948
H -3.0558206574 -1.3147733478 -0.7777748434
H -4.1114892588 -0.4079966675 0.3234233324
H 1.9573347103 -0.8269382286 1.1879861942
H 2.2790997973 0.9153797751 1.0538568561
H 3.2715343992 -1.2321641759 -0.9187544033
H 3.5937905515 0.5112228406 -1.0527884256
H 4.2674558196 -0.4157190895 0.3019196475
