111
CONF88
C 2.9029070977 -1.0788738485 1.6002886516
N 1.9577163537 -2.0040565825 2.2438676790
C 2.4178456407 -3.2406109804 2.8442623110
C 0.7476034360 -1.9230050719 1.5754327321
C -0.3291258761 -2.8059503473 1.6176681232
C -1.4864010231 -2.4566013613 0.9098038421
O -2.5924269303 -3.2594069537 0.8760781201
C -2.5658087755 -4.4925160163 1.6009735440
C -1.5832394458 -1.2626083858 0.1673592723
C -0.4622431567 -0.4225295299 0.1331981338
C 0.6876319456 -0.7472667701 0.8208148613
C 1.9542437410 0.0371575185 1.0716351554
C 1.7182274045 1.1062578571 2.2043203999
C 2.0420602734 2.4449552364 1.5426074168
N 3.0483298859 2.0757163396 0.5492848494
C 3.3532015473 3.1321011565 -0.4030747435
C 4.1753692300 2.5937914251 -1.5334448645
C 4.2315246185 1.2951158181 -1.8187209814
C 3.4178736367 0.2366232913 -1.1113290731
C 2.5994088416 -0.5365551943 -2.1917532012
C 1.8634914277 0.3428664943 -3.2013844804
C 4.4108583383 -0.7365232586 -0.4328938468
O 5.3442442138 0.0403724501 0.3546255701
C 6.6661392520 -0.2181206259 0.2238276246
C 7.4652785260 0.7035020779 1.0915582621
O 7.1205722914 -1.0737957277 -0.5084667729
C 3.7609307948 -1.7840913251 0.5169742805
O 2.9317060241 -2.6677737740 -0.2122492867
C 4.9226099291 -2.5498052452 1.1888517212
O 5.5038113050 -2.1937543760 2.1924641995
O 5.2460534212 -3.6404892872 0.4815947447
C 6.3831200647 -4.3937254856 0.9764982356
C 2.4644227510 0.8957697025 -0.1043474880
C -2.9128982792 -0.8875226428 -0.4907184668
C -3.9960816348 -0.5917704355 0.5749758621
C -3.6374400074 0.4116152976 1.7009472579
C -2.8925741336 1.6936049509 1.3026385629
N -3.7314958447 2.6934557678 0.6375023444
C -4.7734357501 3.1346207879 1.5736492488
C -5.4467316810 2.0193137276 2.3494297386
C -6.7264116545 2.3750489179 3.0559902350
C -6.5541601882 3.4835894391 4.1045750541
C -4.9104513416 0.7939282124 2.4096397042
C -4.3437611700 2.1884175043 -0.6164803235
C -3.3651989547 1.5219639658 -1.5336312538
C -2.7772789628 0.2647686052 -1.4732118802
N -1.9459904883 0.1108196524 -2.5707554040
C -1.9625768931 1.2431447383 -3.3416696558
C -1.3025487484 1.5367193940 -4.5349633070
C -1.5201489912 2.7900557333 -5.0913062772
C -2.3766289355 3.7229341614 -4.4759652640
C -3.0396433657 3.4203947269 -3.2952559743
C -2.8409631638 2.1608412141 -2.7092571718
C -3.4487088623 -2.0567790065 -1.3558780085
O -4.6184085434 -2.3478886652 -1.4773778908
O -2.4582973820 -2.6695062249 -2.0290722743
C -2.8750092792 -3.7360410617 -2.9171466669
H 3.6054810376 -0.6762797843 2.3342032309
H 1.6286089356 -3.6530987037 3.4800080389
H 3.2848320990 -3.0346989642 3.4769776285
H 2.6926687804 -4.0013579345 2.0954098579
H -0.2710029876 -3.7333521620 2.1715058948
H -1.7776196613 -5.1548255919 1.2240741955
H -2.4198156234 -4.3157245096 2.6730355669
H -3.5410083656 -4.9516935656 1.4348965727
H -0.5045246253 0.4973252521 -0.4415730667
H 2.3957336607 0.9214707845 3.0424703640
H 0.6926492997 1.0669211795 2.5782506398
H 2.4313403307 3.1921088217 2.2428089803
H 1.1384717784 2.8669471770 1.0565812791
H 3.9002596716 3.9340700391 0.1100957722
H 2.4271658920 3.5973260793 -0.8086680891
H 4.7359915019 3.3111945100 -2.1277970747
H 4.8545877181 0.9408404173 -2.6398444899
H 1.8804337703 -1.1823481944 -1.6848514992
H 3.2916932903 -1.1961828431 -2.7305392829
H 2.5496834853 0.9487502262 -3.7995663783
H 1.2925890025 -0.2943348258 -3.8840103557
H 1.1519727480 1.0203062768 -2.7187223083
H 4.9691409934 -1.2762309048 -1.2067623124
H 8.5140118384 0.4099335434 1.0773321637
H 7.3621013244 1.7267709288 0.7156639341
H 7.0761833939 0.6867953291 2.1128335192
H 3.4782109949 -3.1399621993 -0.8557976692
H 7.2715973391 -3.7582090565 0.9849658165
H 6.5042601696 -5.2221940357 0.2804873302
H 6.1746916516 -4.7598670024 1.9842912508
H 1.5676805674 1.2165544973 -0.6718053863
H -4.9039065651 -0.2826822931 0.0570552216
H -4.2399197906 -1.5411369251 1.0574980802
H -2.9863515819 -0.1260077885 2.4061999156
H -2.0301321886 1.4733748731 0.6744231913
H -2.5069745412 2.1578572926 2.2202256097
H -4.3235130971 3.8453559742 2.2844274263
H -5.5331557276 3.7029001165 1.0181357232
H -7.4651732835 2.7063041183 2.3118424112
H -7.1336986514 1.4770811095 3.5347422839
H -7.4993760852 3.6725460244 4.6225074223
H -5.8062467334 3.1955333033 4.8508557498
H -6.2314449650 4.4237003086 3.6471019161
H -5.4335259736 0.0090354548 2.9576370000
H -4.7552002776 3.0587136399 -1.1418262775
H -5.2021804507 1.5315768429 -0.4101364318
H -1.3975962605 -0.7153031753 -2.7534091279
H -0.6454359038 0.8149969060 -5.0086268735
H -1.0218904341 3.0547125258 -6.0187506066
H -2.5210817907 4.6945749316 -4.9381716244
H -3.7004064726 4.1494423342 -2.8354342107
H -3.5536881865 -3.3483867901 -3.6807290574
H -1.9572543633 -4.1092695868 -3.3698285460
H -3.3710112378 -4.5237726812 -2.3449576483
