61
CONF17
C -4.4031447951 2.1210274268 -3.1182330549
C -4.4108182251 0.6522864545 -2.6972266387
C -4.0922301848 0.4752411018 -1.2136877800
C -4.1344120390 -0.9796490586 -0.7325119272
C -2.9943726275 -1.8525764172 -1.3174799801
C -1.9466236546 -1.9731472726 -0.1721103473
N -2.4212447440 -1.0615946901 0.8717362674
C -3.8854270754 -1.0895331297 0.7733150673
C -1.9089037262 -1.3960462928 2.1973022098
C -0.5510644194 -1.6209827869 -0.6615334365
O 0.1852514562 -2.4810710099 -1.1807391771
N -0.2056782076 -0.3368313433 -0.5124241326
C 1.0401614055 0.2598269869 -0.9660921674
C 2.0723746623 0.3816172273 0.1662731468
C 2.9010273792 -0.8771634182 0.4288625691
C 3.8439559363 -0.6382754631 1.6154408643
C 3.0705175327 -0.0794471193 2.8222044386
C 2.1821813754 1.1141264115 2.4395978361
O 1.3493265256 0.7973491556 1.3378591275
S 3.1523597834 2.6805353504 2.2002587053
C 1.7536275839 3.8547619137 2.3629336336
O 2.2537979710 -1.0984312595 3.4031310515
O 4.8463637538 0.2719966938 1.1660413153
O 2.1275953506 -2.0307115401 0.7669555485
C 0.7254379424 1.6367302493 -1.5983610620
C -0.2413682560 1.5219238909 -2.7676965537
O 1.9371596377 2.2839048586 -2.0023131291
H -5.1476021347 2.6931804497 -2.5535097923
H -3.4231087820 2.5744984026 -2.9311404138
H -4.6280318357 2.2342662742 -4.1834225543
H -5.3947449381 0.2117890864 -2.9075263892
H -3.6866306247 0.0969023365 -3.3067772927
H -4.8181695247 1.0554916464 -0.6276380301
H -3.1032234087 0.9016954941 -0.9949402462
H -5.1110992955 -1.4047924211 -0.9902981687
H -3.3506213650 -2.8466597009 -1.5963358904
H -2.5548308913 -1.4008287496 -2.2113916314
H -1.8980116074 -3.0168161729 0.1844233946
H -4.2942291779 -2.0407724141 1.1658447806
H -4.3245826110 -0.2651960950 1.3468519994
H -2.2772473700 -0.6699611801 2.9289870046
H -0.8134017003 -1.3510780025 2.1972566040
H -2.2151004181 -2.4076632553 2.5210860739
H -0.8597206019 0.2265988917 0.0225921726
H 1.4579673912 -0.3867377477 -1.7495236345
H 2.7831788132 1.1686154920 -0.1176674712
H 3.5132213901 -1.0684993968 -0.4658928566
H 4.2854522156 -1.6022927109 1.9063563160
H 3.7797191074 0.2355639547 3.5967648838
H 1.4979451790 1.3079703186 3.2719376027
H 2.1615101355 4.8596812716 2.2313865532
H 1.0092725724 3.6665345112 1.5854043480
H 1.2946856142 3.7759355468 3.3520946453
H 1.8166318099 -1.5577876607 2.6651931094
H 5.4741228454 0.4051404732 1.8876517671
H 1.5703060743 -2.2759298691 0.0001587131
H 0.3034154146 2.2851032005 -0.8191662885
H -1.2022334901 1.1041010234 -2.4564521540
H -0.4183281467 2.5109503739 -3.1988941402
H 0.1794894129 0.8697851822 -3.5430167726
H 2.2785705654 1.8132455834 -2.7751660859
