50
CONF190
C -1.4548850061 -0.1770891367 -2.1517672340
C -1.9763202859 -1.5787492618 -1.9404549654
C -1.1775692128 -2.7807375965 -2.3994802081
C -1.3440871596 -2.4923010750 -0.8943479736
C -0.2263175973 -2.0315880915 -0.0583200319
O 0.7795034897 -1.4473040493 -0.4004665639
O -0.4840598443 -2.3448686474 1.2512373943
C 0.4934865616 -1.8305102343 2.1921342289
C 0.2999924222 -2.6105572971 3.4144266667
N 0.1693823595 -3.1967042368 4.4004970479
C 0.2967463920 -0.3511149351 2.4511071515
C 1.3718878608 0.5156583540 2.2935808695
C 1.1841614029 1.8774302772 2.5163982177
C -0.0623658208 2.3757897493 2.8901966687
C -1.1282810358 1.4922780637 3.0372180972
C -0.9592641035 0.1285639678 2.8246065187
O 2.3034554743 2.6725620712 2.4049886252
C 2.1550759875 3.9930861565 2.0001457485
C 2.8429631181 4.9607220668 2.7224140505
C 2.7870444104 6.2869734782 2.3001351736
C 2.0456693630 6.6373655344 1.1742375739
C 1.3634359169 5.6520404245 0.4613952172
C 1.4170400802 4.3217666992 0.8659923934
C 0.1167963708 -2.6277335006 -3.0632945416
C 0.5742908852 -3.4029351163 -4.0516906874
C -0.1873002039 -4.5815009441 -4.6140934912
F -1.4020263711 -4.1999698104 -5.0904112835
F -0.4265227982 -5.5156494767 -3.6560829928
F 0.4521607139 -5.2021731474 -5.6182335241
Cl 2.1334374364 -3.0935876635 -4.7828877232
C -3.4794955683 -1.6936556210 -2.0670003921
H -0.3774594266 -0.0876288660 -2.0168634379
H -1.7082794600 0.1515758999 -3.1650822980
H -1.9425699288 0.5015744801 -1.4439922375
H -1.7822317509 -3.6251002187 -2.7103846340
H -2.0304128501 -3.1570561757 -0.3816281622
H 1.5057579118 -2.0197706712 1.8168879434
H 2.3477470981 0.1519772796 1.9890363498
H -0.1972514336 3.4372271875 3.0662840502
H -2.0990109050 1.8764790044 3.3331783080
H -1.7936196550 -0.5550212625 2.9445666427
H 3.4122168686 4.6691631450 3.5987670770
H 3.3225577119 7.0477446554 2.8592981852
H 2.0016508303 7.6720010835 0.8506616172
H 0.7918183111 5.9165236833 -0.4226913882
H 0.8971092856 3.5476265662 0.3109189800
H 0.7560548245 -1.8171339653 -2.7340358024
H -3.8199488112 -2.7210309730 -1.9128857117
H -3.9692353152 -1.0495784378 -1.3289139151
H -3.7929286382 -1.3700790163 -3.0653015866
