78
CONF141
C -0.8061280841 0.1913197507 -0.8608095855
C 0.1232984189 0.8353702897 -1.8788901123
O -0.3392217345 0.2871201380 -3.1618279256
C -1.0007824546 -0.8839161288 -2.9661583521
O -1.4011700260 -1.5443618532 -3.8958144630
C -1.0527684113 -1.1725320922 -1.4852850830
C -2.2781109865 -1.8594572072 -0.8764945064
C -3.6020812819 -1.2343024396 -1.3024271307
C -4.2237675880 -1.6937118886 -2.4651300503
C -5.4155829525 -1.1089259219 -2.8863436469
O -6.1220718153 -1.4646510575 -4.0031007522
C -5.5655702107 -2.4890771795 -4.8373567272
C -6.0036541059 -0.0700199086 -2.1551688997
O -7.1756912660 0.5066270550 -2.5549530621
C -5.3852611595 0.3776928696 -0.9832064286
O -6.0339580211 1.3840493314 -0.3275992220
C -5.4337117517 1.8669877458 0.8796030055
C -4.1898424821 -0.2073437694 -0.5605537110
C -2.1074701381 -1.8471121257 0.6373608437
C -2.8944333151 -2.7602996775 1.3706375809
C -2.8014573805 -2.7367641495 2.7392038727
C -1.9678735616 -1.8409121932 3.4020625293
O -2.0679864164 -2.0202859572 4.7561311083
C -3.0102393985 -3.0978488152 4.9508489118
O -3.4626507934 -3.5200792853 3.6445950299
C -1.1970313165 -0.9372694904 2.7174521799
C -1.2697039081 -0.9432383333 1.3053772989
C -0.3551125619 0.0237568696 0.5761724185
O 0.9960239335 -0.5268186730 0.6097016882
C 1.9497055533 0.2582348388 1.2456584176
O 2.3459227561 1.3135735291 0.3557841184
C 3.3381159437 2.1308451196 0.9727437175
C 3.6925257660 3.2799999506 0.0472542501
O 4.7354158959 4.0511458529 0.6719501384
C 5.8908208428 3.2860276599 0.9945178781
O 5.5940814561 2.1647328095 1.8122656687
C 4.6030038163 1.3106264509 1.2200740771
C 4.3027057123 0.1582543863 2.1510773914
O 5.4703318146 -0.6489227078 2.2781941042
C 3.1424518376 -0.6448339813 1.5626075758
O 2.7895856485 -1.6280746009 2.5321943147
C 6.6701548996 2.8839858754 -0.2334879033
C 7.4729571204 1.7888681062 -0.4116544572
C 8.1449198160 1.7870768376 -1.6644374154
C 7.8567868924 2.8871368959 -2.4243463768
S 6.7486125373 3.9441721546 -1.6128487362
H -1.7537122230 0.7449493837 -0.8480772010
H 1.1649660399 0.5367405405 -1.7409732640
H 0.0441585569 1.9210406721 -1.9456153708
H -0.1736933927 -1.8088841883 -1.2900307202
H -2.2888791499 -2.9038497135 -1.2087547747
H -3.7666897636 -2.4918556094 -3.0352729877
H -6.2578857901 -2.5993391153 -5.6721714406
H -5.4888939271 -3.4365834324 -4.2919929753
H -4.5779379632 -2.1934000469 -5.2093828345
H -7.4488338500 0.0704318119 -3.3758574390
H -6.0915006066 2.6587434929 1.2393478929
H -5.3673159432 1.0725462145 1.6327765862
H -4.4347789862 2.2767081585 0.6871321664
H -3.7235279622 0.1178168250 0.3606918778
H -3.5571169201 -3.4518365264 0.8603011690
H -3.8658533151 -2.7311636898 5.5274597285
H -2.5059892619 -3.9345836655 5.4461138974
H -0.5530472475 -0.2369968731 3.2393226338
H -0.3451598808 0.9897159054 1.0953059017
H 1.5520284265 0.7055782011 2.1752791247
H 2.9684614498 2.5302443327 1.9317724719
H 2.8508294618 3.9613019993 -0.0956856475
H 4.0156466666 2.8881141202 -0.9280819271
H 6.4910135253 3.9479483024 1.6280094614
H 4.9658448992 0.9164583817 0.2584051135
H 3.9988144629 0.5559218890 3.1337824979
H 5.2419856679 -1.3927214427 2.8515027990
H 3.4740988592 -1.1139819761 0.6229777757
H 2.1239805893 -2.2053727444 2.1346047808
H 7.5737083102 1.0100613578 0.3351768263
H 8.8137294356 0.9990796186 -1.9904186876
H 8.2174624724 3.1377947504 -3.4132211179
