47
CONF65
C -1.4910044448 2.7612738595 3.0046084736
C -1.1701919420 2.3632014005 1.5807737398
C -2.0473122141 2.9541623876 0.5046527293
C -2.2146893386 1.4755900504 0.9054035611
C -1.8225092456 0.3842557097 -0.0013114557
O -0.9753191295 0.4086170450 -0.8685908944
O -2.5673296258 -0.7275859047 0.2802502692
C -2.2169636319 -1.9133989519 -0.4964703745
C -3.4339478887 -2.7179322577 -0.5574823032
N -4.3812371852 -3.3751415290 -0.6154526362
C -1.0627208609 -2.6480377398 0.1470123079
C -1.2689310587 -3.4534397343 1.2664158649
C -0.1785402310 -4.0661053146 1.8735274899
C 1.1072859755 -3.8708493476 1.3839490993
C 1.2992086880 -3.0627442150 0.2657542986
C 0.2174062831 -2.4561074385 -0.3672616732
O 2.5873003822 -2.9557022897 -0.2025976394
C 2.9680200587 -1.8141756935 -0.8914852164
C 3.7389063462 -1.9939781735 -2.0333898367
C 4.2109999499 -0.8771801259 -2.7158014344
C 3.9084531724 0.4042971415 -2.2652247153
C 3.1358222491 0.5666953113 -1.1179486333
C 2.6650879823 -0.5395220826 -0.4199422898
C -1.5220946480 3.3406314484 -0.8068478141
C -1.8894707641 4.4260976513 -1.4879670718
Br -1.1238237309 4.8463580221 -3.1753011268
Br -3.1923198194 5.6754736136 -0.8843360403
C 0.3023313625 2.1408418080 1.3284075190
H -0.9611352559 3.6841106937 3.2641153221
H -1.1739561318 1.9786645250 3.7022511546
H -2.5617281693 2.9329983200 3.1455303397
H -2.8597754584 3.5767433681 0.8664782079
H -3.0951813326 1.2533510371 1.4979743424
H -1.9463876781 -1.5996815466 -1.5110047408
H -2.2721705252 -3.6052451433 1.6508727343
H -0.3292483100 -4.7006059090 2.7405361284
H 1.9680459978 -4.3386877975 1.8487257342
H 0.3701551208 -1.8237373929 -1.2337851197
H 3.9605263661 -3.0011070971 -2.3687462317
H 4.8134328973 -1.0125901164 -3.6081324487
H 4.2731235748 1.2723948517 -2.8033342642
H 2.9038002123 1.5632813271 -0.7557603868
H 2.0650077005 -0.4208199058 0.4754914181
H -0.7820657156 2.6998579021 -1.2730639052
H 0.8431820618 3.0821174701 1.4733727478
H 0.5084245851 1.7704482463 0.3246273954
H 0.6935342693 1.4129132260 2.0475540805
