51
CONF87
C 5.9450004089 -0.6191386855 1.2524228954
C 5.0315033700 -0.4394900698 2.4351897290
C 5.4586022866 -0.3997628732 3.7233165317
C 6.8502778949 -0.5447453512 4.2353500426
O 6.9639727685 -1.6781491161 5.1306603892
C 3.6143425937 -0.2862913455 2.1782415480
C 3.0228392453 -0.2682382801 0.9521347790
C 1.6150545886 -0.1049847212 0.7745683393
C 0.9166916084 -0.0665183807 -0.4055122384
C 1.5727057316 -0.2007207000 -1.7513989842
C -0.5137396777 0.1175355847 -0.3415978542
C -1.3334348744 0.1722865436 -1.4269493691
C -2.7750840610 0.3260569088 -1.5178992121
C -3.3544753621 0.1422164610 -2.7440069683
C -2.5753967567 -0.1073372632 -4.0137257046
C -4.8410657786 0.1257975292 -2.9650250043
C -5.6537815989 0.0600188501 -1.6825300303
C -5.0595433438 1.0411842994 -0.6875179386
C -3.6158174671 0.6803933256 -0.2790752735
C -3.0565422047 1.9336072023 0.4263314354
C -3.6654359744 -0.4988428810 0.7134310890
H 5.9338200364 0.2744672607 0.6176161646
H 6.9764699216 -0.8106091152 1.5457224565
H 5.6056512443 -1.4555416220 0.6320164656
H 4.7047255419 -0.2698999547 4.5004501061
H 7.5885224619 -0.6221740153 3.4295704772
H 7.1182328537 0.3226331254 4.8501518386
H 6.6807046999 -2.4564250648 4.6331155486
H 2.9793897496 -0.1679011151 3.0568579718
H 3.6468564606 -0.3775839329 0.0698949857
H 1.0341806368 0.0029129792 1.6917159196
H 2.6507952083 -0.3394422716 -1.6797321591
H 1.1577973409 -1.0546454022 -2.2993911350
H 1.3857024172 0.6898395397 -2.3626022534
H -0.9130865177 0.2027632903 0.6628518580
H -0.8400833635 0.0415474369 -2.3837788708
H -3.2180682257 0.0704227255 -4.8806862570
H -2.2336035309 -1.1487731028 -4.0749823096
H -1.6957759243 0.5338495963 -4.1149066856
H -5.1137829539 1.0253349442 -3.5413808544
H -5.0779069623 -0.7191112017 -3.6269453552
H -6.7041059937 0.2968258000 -1.8843247332
H -5.6289828211 -0.9586163983 -1.2774861445
H -5.6676188042 1.1063150566 0.2230437696
H -5.0578408926 2.0415105161 -1.1435425287
H -2.1019849726 1.7630300523 0.9248894900
H -2.9239081474 2.7487691588 -0.2932685160
H -3.7735567405 2.2651582965 1.1861975713
H -4.1663562426 -1.3643779953 0.2693101500
H -2.6702567819 -0.8209862462 1.0259401878
H -4.2226050849 -0.2041703935 1.6103819358
