28
CONF3
O -1.6659786070 0.8380710192 1.9106918550
C -2.5323388610 1.2069108097 0.8310792961
C -2.2173388355 0.3593240424 -0.3818483982
O -0.9078481750 0.7012055461 -0.9074793505
C -0.0642449604 -0.4493779690 -0.9135466411
C -0.7065840807 -1.4490993892 0.0450982151
C -2.1920868739 -1.1534521639 -0.1299928337
O -2.7250579678 -1.7787883058 -1.3068391935
N 1.2870586884 -0.0237681423 -0.5175190428
C 1.4487767512 0.7013713465 0.6353544261
C 2.6530691741 1.1432315920 1.0600375772
C 3.8355956944 0.8564118097 0.2916093827
O 4.9855256051 1.1969192789 0.5682454066
N 3.5829371346 0.1158499395 -0.8709643868
C 2.3688348604 -0.3507611636 -1.3339837627
O 2.2665961916 -0.9982796110 -2.3678728502
H -1.8564769311 1.4202686243 2.6560548715
H -3.5866308391 1.0420142756 1.0980886492
H -2.4017818714 2.2652774926 0.5664182453
H -2.9635915097 0.5858868559 -1.1533556158
H 0.0290914214 -0.8515104555 -1.9256570227
H -0.4038076647 -1.2388928923 1.0745823014
H -0.4490967370 -2.4823226061 -0.2004551981
H -2.7798085215 -1.4264282654 0.7547376186
H -2.6620315747 -2.7347922602 -1.1832341283
H 0.5287774080 0.9054555647 1.1767629354
H 2.7461186410 1.7157724277 1.9727597598
H 4.3823230385 -0.1164967972 -1.4487721154
