41
CONF40
C -0.2645180604 0.4578810892 -2.5786007221
C 0.1562816880 -0.8302403931 -1.9316650610
C 0.5605121821 -1.9151966437 -2.7147323071
C 0.9680613449 -3.1074163371 -2.1280270033
C 0.9762481709 -3.2396509677 -0.7432864639
C 0.5773836212 -2.1821557554 0.0756984800
C 0.1747570072 -0.9837443547 -0.5371992979
N -0.2315192764 0.1117173936 0.3008601334
C -1.5771912968 0.1468915853 0.9043178094
C -2.5518392526 -0.8100554427 0.2187638225
C -2.1554182753 1.5561560576 0.7999486935
O -2.0896696632 2.2701789772 -0.1784087059
O -2.8498487591 1.8548471409 1.9080602003
C -3.5442060703 3.1280643626 1.8870413945
C 0.6763658125 0.9945387712 0.8073074306
O 0.3554150386 1.8441536727 1.6384114843
C 2.0997489200 0.8567525487 0.2858725444
O 2.8860348431 1.8960986786 0.8251220682
C 4.2386937317 1.7962929526 0.3772226227
C 0.5675959505 -2.3338572924 1.5706369448
H -0.4940281722 0.2945585979 -3.6339208342
H -1.1327744251 0.8975770134 -2.0827237547
H 0.5385499719 1.2036958517 -2.5255974747
H 0.5495734360 -1.8171690404 -3.7964329316
H 1.2789845653 -3.9393261187 -2.7526624663
H 1.2936550477 -4.1724554355 -0.2864023958
H -1.5011108009 -0.1041138466 1.9692316583
H -2.6654781990 -0.5656463821 -0.8406092348
H -2.2166761977 -1.8452440362 0.3105908684
H -3.5267936948 -0.7220408773 0.7053451677
H -4.2606907873 3.1519972276 1.0626949262
H -2.8248654648 3.9433414075 1.7795818546
H -4.0574370771 3.1924491421 2.8453947002
H 2.4950607903 -0.1319870825 0.5764277766
H 2.0991202101 0.8884946720 -0.8155356183
H 4.6896382984 0.8444050444 0.6924436178
H 4.7855742191 2.6251568872 0.8310347956
H 4.2999000581 1.8743347668 -0.7177447721
H -0.4571979119 -2.3992592628 1.9547789934
H 1.0419773490 -1.4845978419 2.0727701262
H 1.0921313294 -3.2454262379 1.8639910357
