39
CONF416
C 8.6616687064 1.7322684189 1.2924320033
C 7.3908752753 0.9172195125 1.5230214040
C 6.1267030851 1.6991008947 1.1666255464
C 4.8193820347 0.9790833767 1.5119084966
C 4.6523590754 -0.4266478688 0.9102853639
C 4.7369068004 -0.4373084293 -0.6217212003
C 4.8024693308 -1.8342553788 -1.2375346939
C 3.3713715019 -1.0717701286 1.4297923870
O 2.2111339350 -0.2709781529 1.0532003104
C 1.3882170833 -0.7700847069 0.1101950167
O 1.4902791155 -1.8523850652 -0.4138472727
C 0.3427214503 0.2446145279 -0.2427149544
C 0.7631998428 1.5582956369 -0.4263729539
C -0.1182933181 2.5329725181 -0.8633132819
C -1.4577616632 2.2168732285 -1.1081138488
C -1.8991357574 0.8985492592 -0.8947070683
C -0.9981605626 -0.0873324269 -0.4671226028
Br -1.6049463295 -1.8457075065 -0.1082226110
Br -3.7182019660 0.4626277211 -1.1817618684
Br -2.6497120975 3.5536171063 -1.7079512211
Br 0.5685642125 4.2867423655 -1.1039488437
H 8.6644015480 2.6381949323 1.9080319577
H 9.5587962300 1.1565036451 1.5384603617
H 8.7403733804 2.0439215891 0.2452319385
H 7.4407916609 -0.0032326494 0.9276041904
H 7.3371593893 0.6009123349 2.5738188547
H 6.1394006216 2.6565445837 1.7038723592
H 6.1496573025 1.9595161982 0.1007134110
H 3.9739886267 1.6033900466 1.1963514003
H 4.7438738707 0.8948385280 2.6050793470
H 5.4601162037 -1.0674828775 1.2966208664
H 5.6299657862 0.1213679902 -0.9221734677
H 3.8835032153 0.1189452981 -1.0351649875
H 3.8823454190 -2.3994446628 -1.0696877768
H 4.9533965268 -1.7713568511 -2.3191110046
H 5.6398575931 -2.4028897357 -0.8174768955
H 3.3615533849 -1.0801008939 2.5237561417
H 3.2345637599 -2.0881991754 1.0550724940
H 1.7972638793 1.8148708275 -0.2366083170
