27
CONF42
C -3.0284290924 0.0197131646 -0.8021578726
C -3.7606758698 -0.0212232467 0.5434213702
O -3.6468783441 1.1757354522 1.2978995292
C -1.5186208291 0.1403324085 -0.7637846891
C -0.7893386193 -0.9446286353 0.0792295432
C 0.7568579837 -1.1487156661 -0.1239572417
C 1.6692073491 0.1075676403 0.0623116201
C 3.1855954796 -0.2501696793 0.2468340013
C 4.1542755111 0.9524241020 -0.0022039009
F 3.7601682525 2.0243235963 0.6996192814
F 4.2040264781 1.2700803650 -1.2997945350
F 5.3839941069 0.6013663729 0.3981074880
F 3.5336589005 -1.2354934209 -0.6119789576
F 3.3832978521 -0.6761587396 1.5124579791
F 1.5414129170 0.9003109236 -1.0257931650
F 1.2704462326 0.7918351739 1.1582731909
F 1.1340082404 -2.0750098511 0.7959575264
F 0.9593764590 -1.6584917321 -1.3558160771
F -1.0086441202 -0.6873604053 1.3967419125
F -1.3512327655 -2.1491906033 -0.2120080030
F -1.1384168876 1.3577008977 -0.2590984710
F -1.0357132909 0.0666224062 -2.0428820561
H -3.2661158223 -0.8853070533 -1.3706256542
H -3.3713811118 0.8845196772 -1.3807600746
H -4.8271188287 -0.1340121940 0.3258877542
H -3.4558201592 -0.9000524846 1.1277244897
H -2.7379404290 1.2626579180 1.6063951123
