40
CONF30
C 3.2995252391 0.0667933921 2.2991369203
O 3.7497914767 1.3426777868 1.7947365016
C 2.8691042712 2.3567347552 1.9464527512
O 1.8061869102 2.2555161788 2.5108136637
C 3.3880835729 3.5974684798 1.2635645178
S 2.4723567202 3.8535368148 -0.3276058837
C 2.4259021294 2.1824673991 -0.9480466486
C 1.2058516931 1.5026774626 -0.9063428906
C 1.0599464347 0.1942447741 -1.3837766364
C 2.2096289502 -0.4102664976 -1.9116857930
C 3.4355253072 0.2247418507 -1.9615964554
C 3.5401029236 1.5275600847 -1.4863537776
Cl 5.0971158739 2.3095357742 -1.5659992069
F 2.1228962741 -1.6674674636 -2.3793274645
N -0.1475455731 -0.4854942235 -1.4405112399
C -0.9224653290 -0.6098772583 -0.4350535456
N -2.1375836234 -1.2632353871 -0.5471035854
N -2.9571672262 -1.1188624198 0.5905571691
C -2.3178777387 -0.6767970536 1.7218047558
O -2.7641668309 -0.6880763779 2.8430836082
S -0.6694698022 -0.0617518919 1.2556275210
C -4.0283139245 -2.1170831288 0.6912890115
C -4.8804045433 -2.0637597925 -0.5709987057
C -3.9965405680 -2.2282810892 -1.8074096706
C -2.8845943437 -1.1858837169 -1.8138330963
H 2.4015124865 -0.2501212617 1.7616676950
H 3.0755983529 0.1346625579 3.3666177321
H 4.1218687186 -0.6240708059 2.1157463627
H 4.4614553955 3.5338529444 1.0773302397
H 3.1484911176 4.4727812770 1.8718495810
H 0.3433986282 2.0199680890 -0.5011994587
H 4.2926487419 -0.2948793750 -2.3721232444
H -3.5827806235 -3.1156426894 0.8168687440
H -4.5973058667 -1.8704374494 1.5895314208
H -5.6357815215 -2.8545820450 -0.5253341171
H -5.4070553786 -1.1025299291 -0.6114251286
H -3.5506846546 -3.2304096061 -1.8175138643
H -4.5860354800 -2.1198218100 -2.7232762986
H -3.2988702003 -0.1722251944 -1.9319768991
H -2.1623491907 -1.3636632393 -2.6114796016
