22
CONF4
C 4.2771955850 1.3123664744 0.1745305441
C 3.4286533374 2.0326327632 -0.6576314791
C 2.1096954159 1.6264326389 -0.8193511686
C 1.6116278558 0.4978888021 -0.1644882729
C 2.4692484899 -0.2166932861 0.6764394431
C 3.7845182586 0.1944237935 0.8353613677
Br 4.9377020749 -0.7973611521 1.9871673868
C 0.2068853561 0.0477001976 -0.3130329224
C -0.7316145789 0.4107865840 0.6518372397
C -2.0591182227 0.0074385556 0.5585365381
C -2.4651798546 -0.7797237805 -0.5198420309
C -1.5417750114 -1.1607309073 -1.4891729037
C -0.2216942709 -0.7487932207 -1.3771094347
Br 1.0144341229 -1.3039363245 -2.7149646183
Br -4.2574025185 -1.3676542991 -0.7221115160
Br -3.2618834703 0.5565533556 1.9188273305
Br 0.9698372344 2.6493346145 -1.9553699873
H 5.3066175721 1.6233071965 0.3058576111
H 3.7934593391 2.9108157372 -1.1768798414
H 2.0975383174 -1.0954545670 1.1904415143
H -0.4182838418 1.0296262450 1.4847128784
H -1.8560845138 -1.7768978607 -2.3215344115
