39
CONF63
C 4.0157793562 -1.9403008855 1.6780680915
C 3.0612057117 -0.9922588358 2.4030512684
C 3.5129932314 0.4700665747 2.3773210688
C 3.4649000122 1.1259964572 0.9952013858
N 2.0983116807 1.2205634579 0.4799874346
C 1.6260984692 0.4092567002 -0.4774804645
O 2.2649851822 -0.4767273292 -1.0448979085
N 0.2611204054 0.6423066745 -0.8272141733
C -0.4955068786 1.8200217146 -0.7210202366
C -0.1592831704 3.1408887649 -0.4509316156
C -1.1973658805 4.0730123815 -0.4772935565
C -2.5118837037 3.6986931125 -0.7798528910
C -2.8342322391 2.3788468678 -1.0819851595
C -1.8106647551 1.4354171977 -1.0564648866
N -1.8698497832 0.0833129604 -1.3694734067
C -0.6467692827 -0.3518774786 -1.2324840984
N -0.1840232020 -1.6276559614 -1.4353507444
C -0.9621358516 -2.7610787059 -1.5802111925
O -2.1689791993 -2.8275380991 -1.5018691553
O -0.1384556966 -3.8049971018 -1.8205887568
C -0.8073364994 -5.0790374737 -1.9771551465
H 4.0940031308 -1.6952795066 0.6146787099
H 3.6687170324 -2.9756453880 1.7524534555
H 5.0196273573 -1.8888415046 2.1144500750
H 2.9667690201 -1.3044698482 3.4498663355
H 2.0550992399 -1.0726740879 1.9702188485
H 2.8952128884 1.0624315209 3.0642866044
H 4.5460542104 0.5433982519 2.7411542432
H 4.0525709822 0.5653512709 0.2652962032
H 3.8742649908 2.1405910792 1.0510982994
H 0.8563223566 3.4595029899 -0.2468670806
H -0.9723607305 5.1128932958 -0.2649032855
H -3.2902808170 4.4547017114 -0.7906888823
H -3.8462717782 2.0854738205 -1.3406816959
H -0.0100921149 -5.7965638791 -2.1662864595
H -1.4992695667 -5.0411338058 -2.8216696928
H -1.3475904433 -5.3368435089 -1.0631927436
H 1.4432339411 1.7820566327 1.0058115560
H 0.8278282535 -1.7260852850 -1.4680641758
