47
CONF37
C -1.7068355790 -2.5737177555 1.1831908379
C -2.1514754538 -1.3838478154 0.3631109318
C -3.4266470400 -0.6557567836 0.7139008806
C -2.0745230471 -0.0287534135 1.0693861520
C -1.6673193631 1.1887904358 0.3551223390
O -2.0922956149 1.6057934888 -0.7002833465
O -0.6891911454 1.8363916046 1.0658258583
C -0.1873529668 3.0406943648 0.4396020889
C 0.4409549141 3.8032136104 1.5202032878
N 0.9605000905 4.4264215377 2.3417336338
C 0.8099581984 2.7489792708 -0.6619419384
C 1.8049686300 1.7967379675 -0.4498746016
C 2.7354205472 1.5390627287 -1.4495686182
C 2.6606282400 2.2635489125 -2.6409294902
C 1.6830182997 3.2155791876 -2.8568371033
C 0.7424387110 3.4556011791 -1.8596147571
F 3.5737360100 2.0154490557 -3.6018492850
O 3.7726901087 0.6549230163 -1.3081958336
C 3.5284942866 -0.5298857000 -0.6171628188
C 4.4665208300 -0.9226897575 0.3282801487
C 4.2918685526 -2.1400220767 0.9832490069
C 3.1916451921 -2.9444228763 0.6960722652
C 2.2638319291 -2.5325114114 -0.2598117372
C 2.4267153007 -1.3217241243 -0.9256892391
C -4.3058798380 -1.0783945152 1.8057029445
C -5.6384070610 -1.0331350459 1.7807947716
Cl -6.5726489061 -0.4610063284 0.4263428752
Cl -6.6112531824 -1.5566170157 3.1314641388
C -1.7990171016 -1.4914146530 -1.1020210338
H -1.8992780923 -2.4492284905 2.2505440737
H -0.6309509519 -2.7275586572 1.0503690724
H -2.2243093618 -3.4760226056 0.8392532980
H -3.9121154591 -0.1807467568 -0.1330817955
H -1.7697491512 -0.0704637286 2.1094927867
H -1.0219876454 3.6287114913 0.0401954138
H 1.8616357803 1.2500989259 0.4861290815
H 1.6560726457 3.7455487348 -3.8026693647
H -0.0410628057 4.1886990206 -2.0196393105
H 5.3152633183 -0.2812362816 0.5403374886
H 5.0194854455 -2.4550934192 1.7243781169
H 3.0594240915 -3.8905186635 1.2103495808
H 1.4123766155 -3.1616516385 -0.4999555519
H 1.7168039900 -0.9970094109 -1.6796075952
H -3.8547886809 -1.4561023731 2.7180987264
H -0.7129459814 -1.5679801321 -1.2226286982
H -2.1545638434 -0.6362438392 -1.6783072821
H -2.2498531322 -2.4004891577 -1.5138303019
