46
CONF88
C -1.2360925557 -1.4224226993 2.1279193272
C -2.3925921247 -1.9188845432 1.2921664009
C -3.8101648287 -1.5005986728 1.6082404958
C -3.1210225936 -0.9738926309 0.3371274221
C -2.6953475211 0.4290556245 0.1940581952
O -2.4733923487 1.2289864036 1.0826302432
O -2.5443221828 0.7288138062 -1.1232896117
C -1.9713597181 2.0298399873 -1.4028219351
C -0.5101711626 2.0928909106 -1.0403460346
C 0.2906382311 0.9555292004 -1.1323196281
C 1.6407231637 1.0374250148 -0.8101112258
C 2.2164813578 2.2410231081 -0.4077710887
C 1.4107837594 3.3727472826 -0.3346763832
C 0.0539994991 3.3049445306 -0.6414087167
O 2.3509948711 -0.1490282422 -0.8352482713
C 3.6791721885 -0.1343190371 -1.2294647666
C 4.5555909032 -0.9506165128 -0.5218941417
C 5.8848644229 -1.0331600983 -0.9283273964
C 6.3339802230 -0.3015906394 -2.0255731740
C 5.4414823885 0.5101450382 -2.7244577027
C 4.1081011540 0.5965415750 -2.3353998205
C -4.1275750468 -0.6196871461 2.7333422151
C -5.2344386764 -0.6952037466 3.4724699688
Cl -5.5260514393 0.3770332391 4.8200201923
Cl -6.5197619411 -1.8461629772 3.2127033466
C -2.2070947691 -3.3310058571 0.7816514817
H -1.1297923560 -2.0612594984 3.0112157658
H -0.3092486660 -1.4912961841 1.5477274737
H -1.3526579929 -0.3902369744 2.4568134381
H -4.5640389281 -2.2486129629 1.3837261472
H -3.4609386738 -1.4257252961 -0.5885232098
H -2.5337373354 2.8058859285 -0.8765108022
H -2.1123863077 2.1534304206 -2.4803438534
H -0.1240646895 0.0009451918 -1.4394785185
H 3.2684630170 2.2879169304 -0.1485752822
H 1.8450398818 4.3140159119 -0.0123795943
H -0.5688172562 4.1906427562 -0.5588835202
H 4.1898888831 -1.5102806851 0.3327115401
H 6.5717192253 -1.6691434911 -0.3786014543
H 7.3714450838 -0.3649967715 -2.3366874012
H 5.7807595432 1.0760502569 -3.5865526518
H 3.4083913250 1.2203041447 -2.8817299232
H -3.4205073489 0.1562025687 3.0008870419
H -1.3084069803 -3.3926457615 0.1580815425
H -3.0645614453 -3.6612847760 0.1890282719
H -2.0839729256 -4.0183146265 1.6258791949
