35
CONF147
C -2.8698738521 -2.8955396733 0.7863273086
C -1.6157069434 -2.1328589036 0.4281204880
O -1.9312449403 -0.7128062373 0.2784770492
P -1.9838284927 -0.0784861573 -1.1879606051
S -3.0361588233 -0.9148046872 -2.5657974998
O -2.3114146332 1.4180286508 -0.7456801476
C -2.8820269978 2.3773458725 -1.6881450092
C -1.8646555610 2.8516539662 -2.7016466797
O -0.3908201225 -0.0554865296 -1.6587537043
C 0.5713056204 0.4215930695 -0.8314321707
N 0.9713910266 1.7171018409 -0.8524009827
C 1.9405697536 1.6999239526 0.0430901393
N 2.1145087921 0.4711884133 0.5758863830
N 1.2200263854 -0.3786089689 0.0016902019
C 3.0836039121 -0.0206402203 1.5645556769
C 4.0696283205 -0.9722954109 0.8924524713
C 2.3470742489 -0.6682174716 2.7330132106
Cl 2.8868626919 3.0630585703 0.4913203700
H -3.5991353418 -2.8356794588 -0.0253218810
H -3.3193031668 -2.4915868319 1.6974932617
H -2.6213270217 -3.9480382943 0.9576543125
H -1.1600736956 -2.5113576441 -0.4936286952
H -0.8635667903 -2.1714685631 1.2203304107
H -3.7495229410 1.9117274275 -2.1684038887
H -3.2221644952 3.1930414251 -1.0457321919
H -2.3116652483 3.6451995741 -3.3094980902
H -1.5661640789 2.0382211475 -3.3691478528
H -0.9725282427 3.2393953658 -2.2047210597
H 3.6124124482 0.8718904843 1.9139872178
H 3.5427804091 -1.8483624044 0.5050381506
H 4.5881755801 -0.4807675525 0.0648184059
H 4.8139538844 -1.3047063036 1.6212100984
H 1.6294637941 0.0254785899 3.1790807571
H 3.0693914136 -0.9649651622 3.4982261356
H 1.8100323350 -1.5581721611 2.3954983935
