39
CONF24
C -3.1411233401 -2.4306146632 5.7567034726
C -2.4107566562 -2.3202742463 4.4518239822
C -2.0279262809 -1.0857110564 3.9231813718
C -1.3344726892 -0.9506727434 2.7081627116
C -1.0331078368 -2.1287972319 2.0116130961
C -1.4256497788 -3.3682614065 2.4917716571
C -2.1019846889 -3.4541822367 3.7000703242
Cl -0.1290903406 -2.0461467310 0.5234721591
N -0.9164055375 0.3045492960 2.2314466395
S -1.7647907801 1.0228508028 0.9115140708
O -2.7822471580 0.0934438053 0.4355703941
O -2.0567646202 2.3962051044 1.3254203543
C -0.4653548757 1.1383252540 -0.3298451198
N -0.7194208195 0.7732353991 -1.5808505444
N 0.4632385383 1.0942986756 -2.1654886257
C 0.8143597883 0.9356606331 -3.4768622410
C 2.0815743456 1.3313214392 -3.8272014982
C 2.9219847558 1.8683446861 -2.8150016840
N 2.5917595604 2.0229456261 -1.5503348030
C 1.3545070159 1.6338903657 -1.2227967626
N 0.7425007614 1.6632301557 -0.0412364162
O 4.1419499003 2.2317902512 -3.2376782688
C 5.0315965066 2.7838698857 -2.2444071969
O -0.1325900333 0.4128503058 -4.2425499438
C 0.1854652832 0.2264599100 -5.6325846832
Cl -2.4218459091 0.3713653149 4.8183089372
H -3.3508355591 -3.4768550472 5.9871639137
H -2.5538830174 -2.0041471318 6.5763387655
H -4.0896935762 -1.8848038654 5.7257385947
H -1.1855590901 -4.2600134516 1.9256649139
H -2.3968932506 -4.4287422611 4.0753928097
H -0.8420666215 1.0118391108 2.9571698120
H 2.4512025456 1.2466680728 -4.8379487780
H 4.6037398779 3.6900478779 -1.8082597486
H 5.9498243356 3.0100246264 -2.7858389767
H 5.2172239243 2.0565221289 -1.4500654890
H 1.0307448819 -0.4610303089 -5.7429489884
H 0.4107798843 1.1879466120 -6.1059573112
H -0.7099886520 -0.2074322540 -6.0744099034
