53
CONF3
C -3.4759095065 0.5344594650 1.2626545501
C -2.0407507804 0.0457109873 1.0481009558
N -1.4784953563 1.0381740143 0.1092438499
C -2.5412236549 1.9179587918 -0.4263823839
C -3.8210187009 1.1623140862 -0.0965635970
N -4.0687518822 0.1075963134 -1.0871358247
C -5.1911847634 -0.7544036636 -0.6841271440
C -4.8061374457 -1.5222396871 0.5752228249
C -4.4626583537 -0.5474712728 1.7049902182
C -0.1477238356 1.2031314191 -0.1165878338
C 0.4216253436 2.4436059363 -0.5169348508
F -0.3926698702 3.5212539911 -0.6511884061
C 1.7493027553 2.6225058406 -0.7627857970
C 2.6537018913 1.5681789104 -0.5624535170
C 4.0518337330 1.7609085990 -0.8692536850
O 4.5026435703 2.8758467595 -1.2712220129
C 4.8943516587 0.6066302204 -0.7181771705
C 4.3700640418 -0.5528712453 -0.2005602665
N 3.0786954716 -0.7093825141 0.1378439321
C 2.7219993245 -1.9111832963 0.8953876755
C 2.2519035422 -1.7473024760 2.3019907322
C 3.6187342499 -2.3212347976 2.0265148361
C 2.1579901821 0.3181252414 -0.1172672294
C 0.7697217967 0.1238446386 0.0041637113
O 0.2710720939 -1.1438902418 0.1602051210
C -0.1955685354 -1.6983565361 -1.0918265875
C 6.3354516546 0.6488496665 -1.0476206098
O 6.7795819084 1.8343904040 -1.4759363930
O 7.0861660379 -0.3115126963 -0.9430534933
H -3.4650595628 1.3424981806 2.0046281669
H -1.4576339667 0.0248801758 1.9752208954
H -2.0424490137 -0.9609510732 0.6213429579
H -2.5568384601 2.8911210747 0.0775466306
H -2.4077067598 2.0785069108 -1.5013388965
H -4.6720965012 1.8591596245 -0.0013666953
H -4.2877339403 0.5487215905 -1.9750066722
H -6.1112579932 -0.1698595795 -0.4869422860
H -5.4098374431 -1.4460182979 -1.5051485856
H -3.9519195833 -2.1716157350 0.3481898382
H -5.6336490963 -2.1706798314 0.8840120577
H -4.0647485692 -1.0833198980 2.5752127057
H -5.3853670035 -0.0514205353 2.0326931879
H 2.1161689756 3.5904540563 -1.0836859510
H 5.0134121255 -1.4042638637 -0.0114352157
H 2.2704261668 -2.6914717149 0.2930210043
H 1.4544450860 -2.4030979187 2.6321458512
H 2.2175931187 -0.7357647490 2.6938560328
H 3.7765599933 -3.3861094952 2.1574914005
H 4.4721753744 -1.6949318475 2.2635771304
H 0.6361631177 -1.7747882387 -1.8021240460
H -0.9933892891 -1.0782142114 -1.5178421201
H -0.5823703559 -2.6918698439 -0.8577623913
H 5.9723659034 2.4653989232 -1.4732813969
