41
CONF7
C -4.0373953315 -3.1623530460 3.0098905749
C -3.3415639337 -2.2657816913 2.0371933249
C -3.7578696743 -0.9526521978 1.8119313568
C -3.0576712200 -0.1914622131 0.8831872868
N -2.0111595878 -0.7151910607 0.2227737122
C -1.6798870398 -1.9740834133 0.5142346230
N -2.2894246436 -2.7841063054 1.3858482284
N -0.5839802341 -2.5433536149 -0.1305751472
C 0.3099049571 -2.0168316866 -1.0546810027
O 1.2767300287 -2.6658200281 -1.4289229227
N 0.0025815984 -0.7477924469 -1.5078868258
S 1.0942656176 0.1663942991 -2.4253443851
O 0.4686393487 1.4942850378 -2.4969889428
O 1.4042748551 -0.5638960684 -3.6562400960
C 2.6053048478 0.2959913702 -1.4577116780
C 3.6944789310 -0.4670381018 -1.8607093665
C 4.9129439614 -0.3153119880 -1.2056772949
C 5.0382789401 0.6103405775 -0.1757517500
C 3.9470911892 1.3832148526 0.2104308343
C 2.7104720040 1.2264931097 -0.4158422296
C 1.5418747167 1.9920463176 0.1192817955
O 0.5309268496 1.4731827714 0.5463297850
O 1.7873681086 3.3057334293 0.1286153659
C 0.7321962936 4.1310203755 0.6932834027
C -3.4071914625 1.2250554277 0.5664003625
H -4.8674208015 -2.6521098012 3.5008255953
H -4.4158216313 -4.0491426525 2.4909853870
H -3.3282011216 -3.5106433428 3.7676061535
H -4.6047034189 -0.5376696520 2.3452972234
H -0.3627807122 -3.4884161049 0.1546357125
H -0.7298978874 -0.2377574748 -0.9774818988
H 3.5893391543 -1.1622051777 -2.6845057484
H 5.7633803483 -0.9142892340 -1.5126485215
H 5.9899434899 0.7385300933 0.3289707601
H 4.0445954059 2.1050690217 1.0142188428
H -0.1877102043 3.9977197822 0.1196525968
H 1.0955622804 5.1539475477 0.6117949348
H 0.5653536030 3.8585064868 1.7376912045
H -4.2806081630 1.5554100068 1.1301631845
H -3.6048250567 1.3302194942 -0.5053020189
H -2.5573942940 1.8747467987 0.8021860952
