54
CONF483
C -5.3797066380 0.0922358858 -0.5768201549
C -4.8155101609 1.2567434283 0.2334835185
C -3.6090047932 1.9446319616 -0.4987878603
N -2.4650389064 1.0779803124 -0.2606986219
C -2.3338195511 0.5493284719 1.1043044168
S -4.0261744124 0.6291392544 1.8255591520
C -1.8017728489 -0.7884370470 0.4750237343
C -1.9928913099 -0.0617544296 -0.8654858719
O -1.8748666247 -0.3530438064 -2.0471867516
N -0.5189691647 -1.3117347262 0.8232552382
C 0.6195257663 -0.6309801775 0.5523298545
O 0.6237216119 0.4442504483 -0.0422771204
C 1.9039481590 -1.2756028747 1.0891907314
C 2.1325704670 -0.8514436865 2.5234819370
C 2.1691494248 0.5007667273 2.8742167438
C 2.3643249939 0.8737723575 4.2001898565
C 2.5225601267 -0.0984199481 5.1868104921
C 2.4848795121 -1.4465731951 4.8412529415
C 2.2885189934 -1.8218745313 3.5140258890
C 3.0372183205 -0.8828211965 0.1540160663
O 3.9543938644 -0.1438289956 0.4032877401
O 2.8528853804 -1.5007691460 -1.0434806659
C 3.7572041585 -1.1796105493 -2.0739668246
C 4.8448159117 -2.0108168777 -2.2899807440
C 5.7012155362 -1.7211992767 -3.3503483069
C 5.4601643267 -0.6179787042 -4.1668724405
C 4.3586160545 0.2017242812 -3.9267518903
C 3.4938762480 -0.0760468541 -2.8708424337
C -3.9453407058 2.2916677427 -1.9515364206
O -4.7031618738 3.2149233896 -2.1681724882
O -3.4372963139 1.5840144031 -2.9553692581
C -5.9072802451 2.2516451184 0.6066391151
H -6.1365293701 -0.4347450176 0.0091589763
H -4.6086213449 -0.6311217265 -0.8573402042
H -5.8570561228 0.4682654042 -1.4897837649
H -3.4122487838 2.9029047069 -0.0050502882
H -1.6181571422 1.0810636860 1.7365341841
H -2.5517315831 -1.5794432991 0.5645884137
H -0.4742007429 -2.1932124055 1.3134078998
H 1.8034551871 -2.3652812924 1.0410952621
H 2.0450911452 1.2606400049 2.1092537521
H 2.3920066429 1.9263963942 4.4641589397
H 2.6739073661 0.1949669554 6.2209002970
H 2.6066601460 -2.2094672350 5.6038446481
H 2.2575185704 -2.8739915053 3.2455036063
H 5.0121193450 -2.8639070229 -1.6408670495
H 6.5574790059 -2.3615072707 -3.5362869539
H 6.1298039138 -0.3979237044 -4.9918587826
H 4.1681381823 1.0602751552 -4.5626472661
H 2.6291035201 0.5461696107 -2.6649227546
H -2.8169428308 0.8497325164 -2.6797678303
H -6.4056211929 2.6038418139 -0.3008217172
H -5.4958984029 3.1106807373 1.1429310144
H -6.6570315143 1.7657747339 1.2377645489
