48
CONF82
C -3.1599059916 1.0783135231 -2.9401625227
O -4.0801572519 1.2212698016 -1.8476751319
C -3.7695750410 0.6033028905 -0.6787420463
C -4.7083533229 0.8008645931 0.3630625891
C -4.4957836986 0.2326828649 1.5879403061
C -3.3459040379 -0.5576250135 1.8420719392
N -3.2096010828 -1.0819132709 3.0917779444
C -2.1412754307 -1.8195618860 3.3276108001
C -1.1542330721 -2.0853606221 2.3627001148
C -1.2519032783 -1.5652454873 1.0892240152
C -0.1498889829 -1.9024087998 0.1008683154
O -0.6245804441 -2.6788223690 -1.0121415172
C 0.6737841884 -0.6968945018 -0.3831880381
C 1.9102047248 -1.1440103304 -1.2077953535
C 3.0809987930 -0.2220434326 -0.8354751807
C 3.4778328846 -0.5219075411 0.6158615410
C 2.1979498662 -0.4264353627 1.4906451756
N 1.0736470195 0.1764048690 0.7405627915
C 1.5381291869 1.4561650983 0.1752809357
C 2.5891600044 1.2416559096 -0.9639300101
C 3.6836887475 2.2544741188 -0.8938843652
C 3.9585125085 3.1465971385 -1.8464035817
C -2.3937047541 -0.7622190818 0.7899766724
C -2.6403009618 -0.1637089281 -0.4718860538
H -3.0600122209 0.0262629363 -3.2320275055
H -3.5885719583 1.6500709655 -3.7631145549
H -2.1766595908 1.4862621604 -2.6773987143
H -5.5863313371 1.4075019744 0.1656375992
H -5.2048097059 0.3749090941 2.3973290255
H -2.0417760889 -2.2373779376 4.3287160900
H -0.3063111703 -2.7074678799 2.6334597970
H 0.5300378198 -2.5881293109 0.6185869561
H -1.1042589191 -2.1051044658 -1.6226432724
H 0.0315158884 -0.0775404256 -1.0207687278
H 1.6968569000 -1.0911987646 -2.2802169577
H 2.1741409285 -2.1838501788 -0.9753337505
H 3.9273474896 -0.3892438166 -1.5096507194
H 4.2422582242 0.1818129154 0.9613750802
H 3.9128460513 -1.5254265608 0.6763842211
H 2.3739255912 0.1912691017 2.3781530988
H 1.8897065324 -1.4147434415 1.8460432658
H 1.9785755995 2.0402008663 0.9929073906
H 0.6776914440 2.0166134760 -0.2091735015
H 2.0928566770 1.3421228637 -1.9380738987
H 4.2758891753 2.2610204559 0.0228603151
H 4.7608021997 3.8698625781 -1.7327689022
H 3.3845158481 3.1788481515 -2.7702117299
H -1.9389774697 -0.2902494404 -1.2819300471
