83
CONF2
C -4.4239422317 0.5418285006 -0.0073047747
C -5.2018806340 0.2187350462 1.2638567917
C -6.6356927950 0.5922164176 0.8622784783
C -6.7480913985 0.1042595134 -0.5878857099
N -5.3595527881 0.1598361805 -1.0728493362
C -5.0486114230 -0.2756548086 -2.3187903115
O -5.9092134067 -0.6026822651 -3.1285408428
C -3.5633459197 -0.4031724226 -2.6894344877
C -3.2907456410 -1.8600326877 -3.1110274281
C -1.8922469151 -2.1247073993 -3.6801892571
C -1.6824488168 -3.6356540116 -3.8071783783
C -1.6839564492 -1.4352974865 -5.0288675617
N -2.6967233214 0.0483499015 -1.6055038330
C -1.5063847245 0.6695590539 -1.7425817728
O -0.9207166923 0.9487568189 -2.7761038970
C -1.0126096872 0.9802297465 -0.3094630863
N 0.2256907581 0.2873787348 -0.0224976432
C 0.4023302417 -1.0505567808 -0.1204408451
O -0.4902365985 -1.8657066679 -0.3597239574
C 1.8497129852 -1.5121030811 0.1096096964
C 2.8516833868 -0.7769187971 -0.7885803330
N 3.1037075737 0.5623974162 -0.2588574771
C 3.7070331222 1.4527045767 -1.2452965012
C 3.7772507954 0.5604617163 1.0405587651
C 5.3314961183 0.3996671443 1.0026409426
C 5.8216771504 0.4359450757 2.4114578688
C 6.9919592539 0.7823660124 3.0290142813
Br 8.5987358708 1.3981067046 2.2751994059
N 6.8884021007 0.6260831808 4.4052772337
C 5.6177841914 0.1693035302 4.7014649009
C 4.9684144479 -0.1731770347 5.8862230149
C 3.6521984820 -0.6198507308 5.7731963570
C 2.9846861572 -0.7315700763 4.5404137357
C 3.6338949108 -0.3936351580 3.3560211916
C 4.9512676157 0.0584880780 3.4690367317
C 3.1343443666 -0.4567922838 1.9770818131
C 2.2470651620 -1.3645138575 1.5481273084
O -2.0699096865 0.5107385491 0.5356362637
C -3.0844033069 -0.1575712874 -0.2147878247
O -3.1807763155 -1.4866202355 0.1358507803
C -0.8372296818 2.4958531134 -0.0669494748
C 0.2880121655 3.1260370893 -0.8917157578
C -0.6520658871 2.7908759074 1.4243024142
H -4.2126623175 1.6220442627 -0.0572004206
H -5.1212457802 -0.8520511089 1.4712286845
H -4.8297370929 0.7747596192 2.1271688478
H -7.3901164071 0.1366362374 1.5075434163
H -6.7662466933 1.6792911156 0.9064782536
H -7.1118210843 -0.9285392783 -0.6540036594
H -7.4017830327 0.7249353326 -1.2081423699
H -3.3829503687 0.2656996591 -3.5399306227
H -4.0503404592 -2.1178002036 -3.8576525778
H -3.4641519837 -2.4993377941 -2.2383812099
H -1.1471534083 -1.7427219600 -2.9714475499
H -2.4273067588 -4.0760793902 -4.4811967198
H -0.6904401102 -3.8596034124 -4.2128676874
H -1.7698521865 -4.1308129579 -2.8345246672
H -0.6885678026 -1.6612316959 -5.4253132710
H -2.4246057548 -1.7848688995 -5.7585558609
H -1.7583303823 -0.3482017355 -4.9446704644
H 1.0883182981 0.8257227014 0.0709822347
H 1.8413860050 -2.5745103258 -0.1548016419
H 2.4440397705 -0.6741022389 -1.8009819955
H 3.7725174710 -1.3834805844 -0.8627601450
H 4.6611203350 1.0776802423 -1.6538907132
H 3.0100201669 1.5870838362 -2.0793803032
H 3.8898296592 2.4342179012 -0.7940381849
H 3.5949675534 1.5509911930 1.4903938497
H 5.7784499639 1.2040056926 0.4101868790
H 5.5959251734 -0.5520444439 0.5218382723
H 7.6315572305 0.8137437913 5.0551424085
H 5.4501021470 -0.0991122012 6.8552202566
H 3.1159992009 -0.8837552359 6.6788987465
H 1.9509320219 -1.0616673036 4.5230087066
H 1.8127077871 -2.0665927075 2.2554321069
H -2.2779459636 -1.8483981327 0.0003514818
H -1.7901288592 2.9353772120 -0.3915161526
H 0.2431314699 4.2143669869 -0.7860680335
H 0.2097572079 2.8703820397 -1.9498263548
H 1.2731650512 2.8115084467 -0.5284023974
H -0.6115086658 3.8731953185 1.5803732736
H 0.2867255336 2.3672488577 1.7987693550
H -1.4703187078 2.3820610430 2.0198592798
