27
CONF5
C -3.1442003621 -0.5264731970 1.9366868301
C -1.8445436184 0.0767254980 1.4068474874
C -1.3229635991 -0.6710442072 0.1739080307
C -2.2479975622 -0.6163668868 -1.0403988945
N 0.0565575781 -0.2181164395 -0.1709721593
C 1.1155525994 -1.1510367846 0.0335302605
O 0.8985417746 -2.2635464144 0.4780311873
C 2.4342978356 -0.6589374802 -0.3337464963
C 2.6367921342 0.5929506067 -0.8147078305
N 1.5455827369 1.4095549746 -0.9501749899
C 0.2290772907 1.0743410588 -0.6343737850
O -0.6620466349 1.8944967172 -0.7775969967
C 3.9623470838 1.1557767158 -1.2094430320
Br 3.8821304543 -1.8534920176 -0.1071611233
H -3.9696784663 -0.3913914248 1.2318700715
H -3.0347403937 -1.5994304192 2.1301914687
H -3.4332812727 -0.0457359908 2.8754100270
H -1.0739528281 0.0206865702 2.1856229281
H -1.9895157216 1.1332217946 1.1630059733
H -1.1799498093 -1.7182200894 0.4518563772
H -2.5261379507 0.4078714617 -1.2938931885
H -1.7664856752 -1.0790133199 -1.9071199064
H -3.1548168472 -1.1876978976 -0.8254960301
H 1.6566713922 2.3525580940 -1.2899364247
H 4.6468832992 1.1434087613 -0.3563416726
H 3.8705356329 2.1806492184 -1.5759572105
H 4.4153405118 0.5382611928 -1.9902644035
