47
CONF20
C 4.6339421677 2.4119797557 -1.4112050557
C 4.3354446600 1.0129611710 -1.9687939932
C 3.7559643509 0.1050251361 -0.9377746227
N 4.5055313921 -0.7863694825 -0.2738248329
N 3.6872766185 -1.4148895754 0.5837454446
C 4.2270876356 -2.4555446751 1.4522774919
C 2.4084594811 -0.9518098213 0.5178359981
C 1.3105189859 -1.5498334555 1.3138412143
O 1.3209184658 -2.7482598591 1.6135195504
N 0.3286560955 -0.6891290786 1.6653744571
C -0.9265557542 -1.1117493181 2.2768145706
C -2.1025755593 -0.8865003242 1.3546876534
C -2.0844088426 -1.3745754946 0.0446790717
C -3.1674259742 -1.1768640576 -0.7995533169
C -4.3141320923 -0.4863878477 -0.3751840491
C -4.3219187192 -0.0041734517 0.9352426991
C -3.2318146427 -0.1980140572 1.7856798712
C -5.4819386888 -0.2886007569 -1.3438226837
C -4.9924795978 0.4982504219 -2.5748195532
C -6.6426455671 0.4849151200 -0.7076153943
C -6.0079151467 -1.6651383473 -1.7942711648
C 2.4376515725 0.0396077468 -0.4631800453
Cl 1.1082944280 0.9783448326 -1.0623594655
H 3.7228178266 2.8834866953 -1.0305905149
H 5.3561920965 2.3530502970 -0.5914738148
H 5.0503881979 3.0541093300 -2.1928460118
H 3.6348618522 1.0926655124 -2.8075685854
H 5.2537672599 0.5583253526 -2.3525885830
H 3.8185664538 -2.3497354967 2.4580644566
H 5.3097038366 -2.3269862428 1.4732611091
H 3.9744671200 -3.4463791439 1.0665658893
H 0.4016070261 0.2758877725 1.3779170888
H -1.0791929044 -0.5674663433 3.2151918388
H -1.2109019229 -1.9101501086 -0.3188219791
H -3.1166769750 -1.5698170890 -1.8103259676
H -5.1789127238 0.5406813929 1.3138209562
H -3.2665881665 0.1967335429 2.7980139279
H -4.1959076679 -0.0339165956 -3.1031784882
H -4.6093368200 1.4802490504 -2.2774122089
H -5.8213803090 0.6489551905 -3.2752608784
H -6.3365427450 1.4883509250 -0.3938994790
H -7.4466224911 0.5943390150 -1.4422531151
H -7.0509599987 -0.0423775574 0.1608573047
H -6.8468574171 -1.5344361551 -2.4866886102
H -6.3584723239 -2.2443894869 -0.9333872986
H -5.2344226193 -2.2454822898 -2.3055162399
H -0.8210819672 -2.1739574108 2.5179259613
