46
CONF6
C 5.5953532611 0.6941885524 0.3553937476
C 4.1057929384 0.8971579876 0.6040732643
C 3.4092500156 -0.4055788174 1.1289823436
N 2.0118731299 -0.2780969514 0.7540928266
C 1.7519856124 0.2414213750 -0.5923196034
S 3.2638466017 1.1909807881 -1.0552772051
C 0.5033157684 0.9925034785 -0.0118705900
C 0.9262994971 0.3481386212 1.3273022434
O 0.5484423788 0.4103495676 2.4823486611
N -0.8012542468 0.7663142264 -0.5473118559
C -1.3850738594 -0.4719535842 -0.4590792125
O -0.7603059991 -1.4439072965 -0.0672650768
C -2.8189505279 -0.5347275506 -0.8927679710
C -3.8171208235 0.1329577320 -0.1711607881
C -5.1643809616 -0.0227637687 -0.5067432410
C -5.4944617651 -0.8443013810 -1.5773898975
C -4.5264906695 -1.5079293029 -2.3213345819
C -3.1821481559 -1.3519685029 -1.9729458039
O -2.1497325550 -1.9281429672 -2.6373594982
C -2.4584906158 -2.8232152315 -3.7028630099
O -3.3717939753 0.9085873136 0.8577594607
C -4.3432228176 1.4933510490 1.7237072423
C 3.7437955497 -0.6657810058 2.6081363350
O 4.8734552966 -0.9968716704 2.8827189668
O 2.8174656053 -0.5029639292 3.5483341024
C 3.8596301334 2.0737923687 1.5471911738
H 6.0981702809 0.4929941939 1.3051132832
H 5.7719965403 -0.1475907391 -0.3186988126
H 6.0318563287 1.5935167909 -0.0892242639
H 3.8303470811 -1.2578595431 0.5827654477
H 1.5210788885 -0.5212544640 -1.3402600048
H -5.9445893805 0.4778141989 0.0507871310
H -6.5394294527 -0.9684279577 -1.8429685445
H -4.8215025815 -2.1310488404 -3.1548333663
H -1.4983304473 -3.1967294665 -4.0598523182
H -2.9770362687 -2.3068365401 -4.5207285072
H -3.0682134898 -3.6636318871 -3.3490333208
H -4.9769783802 0.7237734315 2.1806094038
H -4.9688577053 2.2199257974 1.1899999495
H -3.7732849248 2.0036650118 2.5006792919
H 4.2309207511 2.9985883390 1.0990728759
H 4.3890640722 1.9110894564 2.4935223506
H 2.7965258655 2.2104153503 1.7665799530
H 1.9270985188 -0.2120449912 3.2129697271
H 0.7011630147 2.0672663106 0.0327858311
H -1.3915750308 1.5574395240 -0.7475966807
