43
CONF4
C 1.7284670383 2.2534189710 4.0808396990
C 2.1718983408 2.6973716923 2.7026390006
O 1.8253577612 1.7244972238 1.6835758573
N 0.4521410750 1.7529425668 1.4854487361
C 0.0405116092 0.8399134561 0.6866689577
C -1.3976031738 0.7367024976 0.3871790753
C -1.8372719189 0.6468441442 -0.9513824874
C -3.1968345909 0.5566982768 -1.2456048591
C -4.1272591377 0.5548952968 -0.2135391175
C -3.7043938487 0.6288313215 1.1044466116
C -2.3456566841 0.7208566364 1.4247098790
O -1.9747023409 0.8120575432 2.7332933569
C -1.4667084883 -0.4224111817 3.2900486291
Cl -4.8893173109 0.5931915492 2.3977703142
O -0.8596419693 0.6637842911 -1.8900234244
C -1.2339690318 0.4559448948 -3.2626096803
O 0.9563026368 0.0392299425 0.0330931434
C 0.6094928122 -1.2315086006 -0.3727052550
O -0.2883211154 -1.8592460323 0.1406190783
C 1.4845511069 -1.7093559184 -1.4590385776
C 2.3856894407 -0.8622202370 -2.1157837489
C 3.1645262481 -1.3573277780 -3.1546257189
C 3.0524219122 -2.6925863079 -3.5389025941
C 2.1559631952 -3.5378320168 -2.8851510591
C 1.3715864115 -3.0495250403 -1.8492416026
H 2.0595989801 2.9851365593 4.8246105933
H 0.6385043494 2.1784235287 4.1335161151
H 2.1638586165 1.2816784411 4.3328741285
H 1.7405255314 3.6667174229 2.4276541118
H 3.2613867106 2.7604003192 2.6325365686
H -3.5442834651 0.4980644961 -2.2686118994
H -5.1855568492 0.4894940988 -0.4399825737
H -2.2230647192 -1.2114274683 3.2109790213
H -1.2505351548 -0.2131310934 4.3383451689
H -0.5511233410 -0.7334635019 2.7749831470
H -1.8628350403 1.2766797335 -3.6236064489
H -0.2955788549 0.4367415639 -3.8168838649
H -1.7562588818 -0.4996447346 -3.3796750835
H 2.4661847049 0.1773272815 -1.8218310100
H 3.8594030634 -0.7002391458 -3.6672748497
H 3.6635722896 -3.0754038427 -4.3501936615
H 2.0698181617 -4.5770228535 -3.1851633171
H 0.6691537836 -3.6954974085 -1.3340002693
