65
CONF867
C -1.5724090394 2.2316089462 -2.9251568949
C -2.9943578202 2.1813604856 -2.3723194635
C -3.1175119198 2.7948618127 -0.9711536580
C -4.5730118424 2.7914675320 -0.4788288812
C -2.2510813917 2.0890322446 0.0523515664
O -1.4811257165 2.6474078429 0.8116520783
O -2.4688425261 0.7599087336 0.0482384330
C -1.8040033028 -0.0445636196 1.0722114878
C -2.7020537128 -0.1319017608 2.2945929032
C -2.0353895697 -0.9668806674 3.3983112687
C -1.4297426343 -2.2165263013 2.8306431842
C -1.2089755719 -2.4321171290 1.5203294886
C -1.5602409198 -1.4118667486 0.4569756957
C -0.4722119310 -1.4008877354 -0.6367367716
C -0.4611516715 -2.7884911013 -1.3092935810
C -0.3030865153 -3.8599865377 -0.2631126205
C -0.6241530902 -3.6708931371 1.0287375090
C 0.5816637939 -2.9148617134 -2.4232716347
C 0.9095333518 -0.9975524498 -0.0686792230
C 1.4783573422 0.2463031451 -0.7506999324
C 2.8069728352 0.6796356554 -0.1625917223
C 3.9225462238 -0.3519975271 -0.3117057017
C 5.3244103245 0.2798474718 -0.2309953729
C 5.2386099090 1.6868529929 0.3545038825
C 4.3298648854 2.5136314861 -0.5161294552
O 4.5911483639 3.6142596060 -0.9552053831
O 3.1585749748 1.9313643183 -0.8498187437
O 5.9074241674 0.4511437708 -1.5344980440
C -0.9911930562 -0.1620648935 4.1928393694
H -0.8813148882 1.6580399281 -2.2978919251
H -1.5283355089 1.8119134101 -3.9345930929
H -1.2053829889 3.2626378670 -2.9698350609
H -3.6697996887 2.7363340061 -3.0346689295
H -3.3561543199 1.1471930032 -2.3442122050
H -2.7517162275 3.8271970652 -0.9996553429
H -4.9694042215 1.7718901580 -0.4577238941
H -4.6548197953 3.2178325806 0.5257446373
H -5.1899545585 3.3890472277 -1.1564561985
H -0.8595925865 0.4455965467 1.3244773817
H -2.9276862199 0.8742224169 2.6647165599
H -3.6470402784 -0.6011958019 1.9941119868
H -2.8172690232 -1.2656680044 4.1107358775
H -1.1433135463 -2.9900339498 3.5433522574
H -2.5014678474 -1.7325518852 -0.0169622712
H -0.7717709065 -0.6646124143 -1.3935721060
H -1.4483118330 -2.9188804178 -1.7823138665
H 0.1046693796 -4.8181152855 -0.5812759912
H -0.4585873684 -4.4649951869 1.7545700665
H 0.4431442364 -2.1263085415 -3.1703614264
H 1.6026981266 -2.8419570423 -2.0351407834
H 0.4863145982 -3.8827398719 -2.9260851633
H 0.8353662489 -0.8080240161 1.0101813253
H 1.6090574956 -1.8331710540 -0.1675715570
H 1.6103784199 0.0618452899 -1.8251222835
H 0.7668150325 1.0750350127 -0.6460066325
H 2.6730576448 0.9324300012 0.8978021405
H 3.8187759015 -0.8777460393 -1.2681076825
H 3.8046775016 -1.0946110577 0.4836960588
H 5.9867448011 -0.3352250190 0.3911384437
H 6.2186861977 2.1639364486 0.3953772122
H 4.8306992990 1.6356069928 1.3712208841
H 5.9767487309 -0.4200693658 -1.9447758321
H -0.5266622451 -0.7865356828 4.9626202966
H -1.4619733194 0.6958101182 4.6841197913
H -0.1958410669 0.2077768356 3.5372773459
