59
CONF409
C 6.1817825476 -1.5691993238 -2.0488676284
C 7.1656599470 -2.5122074288 -1.2980475292
C 7.1299146799 -2.0598315130 0.1752599181
C 5.7636471427 -1.3797379933 0.3495902236
C 5.6312640758 -0.6068149137 -0.9782914261
C 5.7024231359 -0.4839501297 1.5794501306
C 4.3511815143 0.1410687161 1.8066792666
O 4.2192305334 1.2313338527 2.3442289168
N 3.2276350089 -0.5863667961 1.3984925002
C 3.2872251125 -1.8048989965 0.7136480536
O 2.2606772546 -2.3477911466 0.3301337125
C 4.6471576430 -2.4157814713 0.4989861433
C 1.8996370827 0.0219778836 1.6024808428
C 1.5030069980 0.8993720406 0.4155870141
C 0.1629132785 1.6108128722 0.6211026584
C -1.0188034888 0.6436888072 0.6816415790
N -2.3168794865 1.3222174078 0.8028458392
C -3.3528149159 0.3613526643 1.2066699016
C -4.7006408373 1.0567332986 1.3726331318
N -5.0801500019 1.7169455100 0.1231797864
C -4.0566217049 2.6698375854 -0.3064626759
C -2.7120075020 1.9637274035 -0.4587738049
C -5.9242572543 1.1216768377 -0.7728075886
N -6.6479577502 0.0597250802 -0.3409169353
C -7.5059311898 -0.4659256305 -1.2125450984
C -7.6725838624 0.0177234337 -2.5051908787
C -6.8754795212 1.1034274367 -2.8490965633
N -6.0036995623 1.6632790248 -2.0130891999
H 5.3689526805 -2.1465696135 -2.4999016690
H 6.6707680179 -1.0225180995 -2.8594733587
H 6.8409462623 -3.5533417828 -1.3890996354
H 8.1788073685 -2.4587575477 -1.7052073676
H 7.9111180220 -1.3121701767 0.3607209235
H 7.2799793881 -2.8808587000 0.8842436844
H 6.2567201034 0.2919639197 -0.9164995411
H 4.6063553986 -0.2799037231 -1.1881921345
H 5.9354073578 -1.0727106734 2.4792421171
H 6.4298697334 0.3306385510 1.5246236236
H 4.5667428234 -3.0730571761 -0.3700551361
H 4.8534842211 -3.0522391463 1.3717217426
H 1.9475145892 0.6168813280 2.5171145210
H 1.1945051785 -0.7974957918 1.7463591941
H 2.2876203547 1.6485787758 0.2609065349
H 1.4605143035 0.2814458738 -0.4901331955
H 0.0288141403 2.3183801726 -0.2035137910
H 0.1916356102 2.2017368189 1.5457201201
H -0.9131367341 -0.0012941039 1.5619013831
H -0.9978576595 -0.0221871472 -0.2053094403
H -3.4619695152 -0.4555644456 0.4640196998
H -3.0613982941 -0.0905312043 2.1620937629
H -4.6233076603 1.8270360155 2.1505669796
H -5.4675320109 0.3396543324 1.6617247425
H -4.3522749987 3.1321024730 -1.2470064173
H -3.9762948804 3.4485919100 0.4625942824
H -2.7861011048 1.2202912069 -1.2789327220
H -1.9601897327 2.7051720037 -0.7455117013
H -8.0853027414 -1.3186591019 -0.8592651502
H -8.3732220151 -0.4262998504 -3.2009088530
H -6.9352856728 1.5438182389 -3.8441304416
