44
CONF58
C -3.4766667837 0.5576916938 2.2913511909
N -3.9800338039 0.4179871389 0.9310294905
C -3.3506912081 1.2660298787 -0.0963382957
C -4.1241007190 0.8257402259 -1.3559654359
C -4.4957660999 -0.6575485652 -1.0665545779
C -3.8961812580 -0.9248157654 0.3292993035
C -2.4394580268 -1.4285787445 0.2376792013
C -1.6131297664 -0.4764407868 -0.6134005821
C -1.8392026448 0.9835685447 -0.2346948197
O -0.2022058526 -0.8308254774 -0.3957600656
C 0.6783363768 -0.4797255121 -1.3447735810
O 0.3824798020 0.0266393041 -2.4098663028
C 2.0970634419 -0.7783172263 -0.8940866619
C 3.0706364235 -0.6917972912 -2.0780032875
O 4.3892757299 -1.0818670512 -1.6933590885
C 2.4890433947 0.1734470443 0.2205337668
C 3.0128490298 -0.3139744956 1.4192391838
C 3.3998949791 0.5634480571 2.4306169823
C 3.2621438282 1.9377561018 2.2543383194
C 2.7398043648 2.4318961083 1.0598305656
C 2.3589079453 1.5558385751 0.0481149344
H -2.4084415028 0.3203235813 2.4243462033
H -3.6317450022 1.5899188334 2.6249441780
H -4.0487183364 -0.1020369366 2.9534170552
H -3.5018281302 2.3246545784 0.1437150413
H -5.0246142195 1.4337978933 -1.4730938513
H -3.5220660540 0.9419865647 -2.2619451750
H -4.1003174303 -1.3472525603 -1.8178974097
H -5.5808967034 -0.7838929849 -1.0357755001
H -4.4895113020 -1.6372563876 0.9135538424
H -2.4173592103 -2.4348467292 -0.1951526802
H -2.0057697415 -1.4916121251 1.2421793519
H -1.8240359483 -0.6311484742 -1.6752269257
H -1.3316693536 1.1923085844 0.7146608532
H -1.4036533901 1.6425455588 -0.9931853215
H 2.7583927484 -1.3873811600 -2.8619999574
H 3.0626610351 0.3240936383 -2.4944754930
H 3.1155078748 -1.3862552017 1.5607253184
H 3.8073557734 0.1708347285 3.3572292043
H 3.5601161430 2.6215450984 3.0429639332
H 2.6279117401 3.5021677714 0.9160291842
H 1.9527338911 1.9497548663 -0.8801893661
H 2.1141647458 -1.8002044718 -0.4987193216
H 4.7110835640 -0.4378546826 -1.0480307511
