37
CONF333
C 1.2153686119 -3.7532761357 -1.3116658352
C -0.0316253287 -3.1461501663 -0.7211851253
O -0.2872691779 -1.8863238311 -1.4377629275
P -1.1941725881 -0.7479527904 -0.8092622909
O -1.4026172621 0.4033476614 -1.7096987660
O -2.4896615998 -1.5128522009 -0.2882481515
C -3.7531248959 -0.7889101375 -0.1236729116
C -3.7277649566 0.1139442838 1.0893051001
O -0.4686313331 -0.3593714339 0.6002055856
P 1.0963931531 0.0387850985 0.8730502254
O 1.9789525797 -1.1388561150 0.9839380231
O 1.4618173989 1.1240642894 -0.2336214833
C 2.0452784715 0.7408094841 -1.5258317521
C 2.9158971096 1.8841474069 -1.9854975789
O 0.9718994637 0.8879708551 2.2008498271
C 0.1747965788 2.1202459728 2.2457721374
C 1.0952188854 3.3154621452 2.3183420922
H 2.0715623825 -3.0944707102 -1.1472602834
H 1.0929165485 -3.9310734817 -2.3835682839
H 1.4154511762 -4.7103515933 -0.8202897464
H -0.9103730688 -3.7827919290 -0.8617131123
H 0.1013437554 -2.9297291070 0.3429536618
H -4.4967902861 -1.5816536946 -0.0193057422
H -3.9508496550 -0.2286914251 -1.0427103618
H -3.0095483142 0.9292819713 0.9610069799
H -4.7202336810 0.5547714460 1.2272153664
H -3.4678192539 -0.4496394883 1.9895745666
H 1.2166964035 0.5576198075 -2.2161488960
H 2.6203128411 -0.1803524883 -1.3894782480
H 3.7342396692 2.0580100183 -1.2815971691
H 3.3424772674 1.6400081030 -2.9632223003
H 2.3291902910 2.8014151372 -2.0848130419
H -0.4804518909 2.1661003270 1.3698091387
H -0.4443327376 2.0266091525 3.1418173981
H 1.7524118682 3.2444753731 3.1890908792
H 1.7066536056 3.3878931911 1.4153357864
H 0.4963887730 4.2274846865 2.4082876470
