84
CONF3
C 0.7596274193 1.3951059274 0.1717132813
C -0.6869340033 1.1453710156 -0.2627534672
C -1.4119044818 0.3227687210 0.7912695329
O -2.7619390996 0.0181095781 0.3391597665
C -3.7197557401 0.9335889487 0.5907280843
O -3.5134966994 1.9864006735 1.1686285343
C -5.0486567041 0.5058440306 0.0862531698
C -5.2237910921 -0.7307488519 -0.5402858984
C -6.4944614209 -1.0895207375 -0.9888292067
O -6.7914410031 -2.2639786678 -1.6027301454
C -5.7211774111 -3.2040889588 -1.7742760012
C -7.5757599682 -0.2079127309 -0.8243607489
O -8.8100257528 -0.5363592763 -1.3138854987
C -9.6109635745 -1.2931428544 -0.3785743775
C -7.3824128334 1.0302393238 -0.1886712149
O -8.4936042939 1.8008880641 -0.0690686065
C -8.3400251174 3.0791830378 0.5645449760
C -6.1146468495 1.3899114473 0.2652221757
C -0.7376628854 -1.0182129339 1.0517420556
O -1.3598510970 -1.6817050679 2.1565738615
C -2.2256436567 -2.7570229313 1.7866199030
C 0.7252406363 -0.7918754892 1.4348422200
C 1.4275578924 -2.1190103222 1.6222183794
O 1.1003730771 -3.1726471527 1.1152559551
O 2.5263718335 -1.9704514446 2.3857376126
C 3.3384723057 -3.1588590485 2.5574337207
C 1.5061549329 0.0751124608 0.4171506331
C 1.7729261673 -0.6390943515 -0.9102823183
C 2.5051027894 0.2625810602 -1.9080078228
N 1.7800243778 1.5394533327 -2.0932708258
C 2.5110139112 2.3985834579 -3.0420160784
C 3.8996389841 2.8596742267 -2.5438482471
C 4.5884057649 1.7201691527 -1.8661088998
C 3.9393526517 0.5501307325 -1.5606863597
N 4.8189541024 -0.3136799419 -0.9262319725
C 6.0454953386 0.2974326346 -0.8094927426
C 5.9347915176 1.5901249371 -1.3898162361
C 7.0676837402 2.4168386351 -1.3917289732
C 8.2481538063 1.9551595326 -0.8354152963
C 8.3282644057 0.6654019932 -0.2660508820
O 9.5576883647 0.3404692919 0.2470111885
C 9.7004372686 -0.9541476184 0.8355515802
C 7.2273866067 -0.1871076283 -0.2426974733
C 1.5512106260 2.2425608015 -0.8222038757
H 0.7349105952 1.9510928413 1.1194591917
H -1.2062402130 2.1003161883 -0.3949763274
H -0.7207329689 0.6157697875 -1.2205121539
H -1.4814319116 0.8767962016 1.7343695911
H -4.3795968706 -1.3923640917 -0.6688875127
H -6.1683711051 -4.0702391064 -2.2620830505
H -4.9317847486 -2.7878510744 -2.4104978574
H -5.3005267932 -3.4999175513 -0.8060234138
H -9.1147590757 -2.2364607617 -0.1249527952
H -10.5583282973 -1.4956386274 -0.8806207243
H -9.7891303822 -0.7076676438 0.5305646227
H -7.9938856306 2.9658107361 1.5982948028
H -9.3322533180 3.5304206032 0.5559491839
H -7.6408449713 3.7116077925 0.0056389594
H -5.9321115112 2.3348912178 0.7586466059
H -0.8031207406 -1.6464701987 0.1527703322
H -2.5775843493 -3.2078002259 2.7177445922
H -1.6819103564 -3.5113734607 1.2027808273
H -3.0892175059 -2.4015695826 1.2107479106
H 0.7412443536 -0.2636513811 2.3966238516
H 3.6897759604 -3.5176244718 1.5868280829
H 2.7597607379 -3.9414899332 3.0534979705
H 4.1770241388 -2.8480148669 3.1790696742
H 2.4747550422 0.3182363111 0.8733541391
H 2.3612517651 -1.5495425224 -0.7491632135
H 0.8362787019 -0.9622840969 -1.3751742087
H 2.4817168328 -0.2508096118 -2.8820851859
H 1.8871812788 3.2704397842 -3.2712856319
H 2.6356613115 1.8252395225 -3.9693231770
H 3.8008026580 3.7146222562 -1.8599649951
H 4.4812034775 3.2225159410 -3.4007444207
H 4.6068022106 -1.2462501946 -0.6112157525
H 7.0256564275 3.4118187297 -1.8257910248
H 9.1389563771 2.5749715609 -0.8250826614
H 9.5107726719 -1.7465588800 0.1005651244
H 9.0227991472 -1.0776960403 1.6897281986
H 10.7341041815 -1.0143354469 1.1782476078
H 7.2674447235 -1.1799754329 0.1883354828
H 1.0004549639 3.1645119611 -1.0483622711
H 2.4971012671 2.5349862768 -0.3318659591
