54
CONF97
C -2.9732014192 2.3850363607 -0.6445748051
C -2.2247577377 1.0838711467 -0.2619354845
C -1.8609110682 1.1291606201 1.2327426420
C -3.0909500184 1.0859244926 2.1380375583
C -4.0625419626 -0.0145103335 1.7755705649
O -4.8843760653 -0.4317180202 2.5973018317
C -4.0076581498 -0.5407982621 0.4216821201
C -3.1671922390 -0.0681823305 -0.5263143827
C -3.0745372092 -0.6970222656 -1.8748281667
C -1.7129179778 -1.4149228157 -1.9256025037
C -0.5287336084 -0.4413162512 -1.7300733047
C -0.9789007118 0.9683987647 -1.2337651779
C 0.1825322335 1.7975288288 -0.7176416412
O 0.2297538116 3.0036832298 -0.9173275016
C 1.2661885512 1.0983117554 0.0631026314
C 1.8025923497 -0.1519517392 -0.6620375140
C 0.6322564155 -1.1142214459 -0.9822921080
C 0.3230696298 -1.8436332189 0.3469826780
C 1.5773160284 -1.6693693457 1.2336975099
C 2.6434938981 -1.0438438656 0.3208687900
C 3.6995525584 -0.2601147313 1.0852256289
O 3.4232855939 0.4710534085 2.0251440545
C 5.1417188830 -0.3963349252 0.6546888406
O 5.9810090407 0.4786841630 1.3803793957
O 3.2771467067 -2.0378173094 -0.4939486019
C 2.5804378770 0.2811875362 -1.9031738401
H -3.8518361115 2.5283798133 -0.0119372948
H -2.3043289813 3.2422832490 -0.5250273353
H -3.3064481105 2.3472541683 -1.6857975083
H -1.2290852508 0.2712108341 1.4806633173
H -1.2810184888 2.0344957230 1.4469127979
H -2.8016668882 0.9553064840 3.1853286459
H -3.6499187408 2.0299072258 2.0899549227
H -4.6960004797 -1.3497778343 0.1862469389
H -3.1277854779 0.0619879546 -2.6657897788
H -3.8880848915 -1.4106199326 -2.0287615291
H -1.6078361661 -1.9444137653 -2.8777492758
H -1.7144659059 -2.1723531873 -1.1358055346
H -0.1329549480 -0.2286509246 -2.7303584588
H -1.3033026910 1.4945681556 -2.1366805293
H 2.0628846951 1.8201405726 0.2580140969
H 0.8343511876 0.8165024343 1.0303481040
H 1.0307993924 -1.8649313781 -1.6747325827
H -0.5625432875 -1.4386225127 0.8437121795
H 0.1154794126 -2.9002246949 0.1623752264
H 1.3875999210 -1.0049498891 2.0802040401
H 1.9444212118 -2.6143723043 1.6467101081
H 5.4425180023 -1.4455205326 0.8028740830
H 5.2123074634 -0.2036517339 -0.4255536929
H 5.4104414076 0.8988104229 2.0474821139
H 3.5110711552 -2.7835002688 0.0739590715
H 2.9787486186 -0.5803662332 -2.4426297265
H 3.4076227362 0.9485481094 -1.6385637590
H 1.9253550009 0.8354763020 -2.5841569474
