39
CONF48
N 1.3400179676 -0.3933583484 2.3814389520
C 1.7739973401 -1.4680721829 1.6775552035
N 1.7941812405 -2.6477204137 2.3177575914
C 2.1837107761 -3.7201622939 1.6082824337
N 2.2548683004 -4.9097961395 2.2848978228
N 2.5527165018 -3.7330296059 0.3139931339
C 2.5255404924 -2.5337600141 -0.2913234904
C 2.1546314647 -1.3505194850 0.3150553298
C 2.1355882232 -0.0396863391 -0.4162203364
C 0.7483992885 0.5509675985 -0.6125904298
C -0.3285395052 -0.2841068064 -0.9078637343
C -1.5942986130 0.2660056612 -1.1242229547
O -2.7097378267 -0.4588028867 -1.4149212344
C -2.5652403194 -1.8836544883 -1.4935524497
C 0.5704845707 1.9313818121 -0.5269624524
C -0.6965768466 2.4840313111 -0.7415878519
O -0.9793516465 3.8139874634 -0.6722582892
C 0.1029070201 4.7010992090 -0.3570656169
C -1.7836472489 1.6542054958 -1.0496136786
O -3.0217632628 2.2006590334 -1.2977861784
C -3.8459180452 2.2798717841 -0.1159062902
H 1.2464253376 -0.4830898195 3.3809683781
H 1.4574579480 0.5345098409 2.0094340967
H 2.2769982838 -5.7441975828 1.7196431542
H 1.7298808104 -4.9739964525 3.1430882933
H 2.8231646702 -2.5196681288 -1.3407290836
H 2.5980268994 -0.1904388482 -1.4001781783
H 2.7615147349 0.6994992517 0.1013398997
H -0.1704638341 -1.3545211563 -0.9577092243
H -3.5584384924 -2.2664081216 -1.7298712573
H -1.8628832286 -2.1644483509 -2.2866997227
H -2.2278885707 -2.2984313220 -0.5365345569
H 1.4184115223 2.5625651487 -0.2890453116
H -0.3307034224 5.7014190571 -0.3496992636
H 0.8903589927 4.6458197370 -1.1173874359
H 0.5232714381 4.4737281192 0.6293018744
H -4.7959846843 2.7180480950 -0.4279286630
H -3.3732180327 2.9194940496 0.6387707634
H -4.0179018684 1.2805762139 0.3003915538
