32
CONF4
C -6.6104669261 0.1858068230 -0.2078828653
C -5.2274539848 -0.3349077362 -0.0409074682
N -4.9281373852 -1.4884236474 0.4973663441
C -3.5818436287 -1.6922753480 0.5290293365
C -2.7945022045 -0.6918716739 0.0101197574
S -3.8268505928 0.5895545534 -0.5456442782
C -1.3230797092 -0.6703374093 -0.1797428099
O -0.7048965617 -1.6569650021 -0.5547962639
N -0.7360689900 0.5450623559 0.0593105802
C 0.6538024541 0.7241891347 -0.0843269348
C 1.2579671337 0.8048255158 -1.3456883036
C 2.6238779659 0.9692680032 -1.4963851803
C 3.4105872213 1.0765642485 -0.3560153956
C 2.8672916825 1.0173337438 0.9205086981
C 1.4947782406 0.8301473940 1.0270047492
Br 0.7427724267 0.7057157591 2.7726637372
O 4.7645287208 1.2483423591 -0.6302510063
C 5.6688877541 1.3899365438 0.3741393952
F 5.4209864753 2.4669633803 1.1478045316
F 5.7190109913 0.3123463273 1.1838293845
F 6.8650223558 1.5457502200 -0.1949342718
Br 0.1834250653 0.7207131451 -2.9128446596
C -3.0742469940 -2.9733355243 1.1357861628
F -2.8616625831 -3.9273856918 0.1953321092
F -1.9104605655 -2.7924904210 1.7968213915
F -3.9596933959 -3.4821904106 2.0170192452
H -6.9986911008 0.5189932246 0.7608679413
H -6.6426164883 1.0277496289 -0.9011430954
H -7.2596651718 -0.6126330489 -0.5760940693
H 3.0815504928 1.0294125319 -2.4757185364
H 3.4665345419 1.0959232727 1.8162311496
H -1.2491405014 1.2385781326 0.5881020004
