47
CONF77
C -2.5218529747 -0.6332092937 -0.0836714410
C -1.9838997015 -0.8336433675 -1.4804344638
C -1.6762092509 -2.2773759747 -1.8126156046
C -2.4620324609 0.0259977074 -2.6226929486
C -3.4593990485 1.0806666341 -2.4375550727
C -4.3071217688 1.5088578043 -3.3730159452
Br -5.5949088214 2.8641563338 -3.0036748305
Br -4.3572173268 0.8498428011 -5.1589815481
C -1.0187891853 0.1806089003 -2.0938487893
C -0.6018595492 1.3870553824 -1.3700092996
O -1.2830909495 2.1515282728 -0.7206065523
O 0.7513325424 1.5628417544 -1.5239985968
C 1.2891082303 2.7046209916 -0.8197443528
C 2.5874630174 2.9669285319 -1.4434395884
N 3.6243355892 3.1951285232 -1.8974230096
C 1.4540664240 2.4521470250 0.6668127928
C 1.1732470537 3.4740866749 1.5701719740
C 1.3703603787 3.2534661530 2.9309407372
C 1.8255135366 2.0227794892 3.3890866366
C 2.0908985977 1.0091321625 2.4705748265
O 2.5969878003 -0.1707165064 2.9729884449
C 2.2581634391 -1.3590082041 2.3377854193
C 3.2844446227 -2.2486220896 2.0449915854
C 2.9680535237 -3.4841595348 1.4839014269
C 1.6426761606 -3.8192376771 1.2175077288
C 0.6261341956 -2.9142608560 1.5215232896
C 0.9264793719 -1.6778386968 2.0843055156
C 1.9201000055 1.2150091709 1.1045109719
H -2.6734709194 0.4137116511 0.1774198880
H -1.8223304835 -1.0641308773 0.6397148795
H -3.4766136144 -1.1606454290 0.0138099733
H -0.9066625481 -2.6643963796 -1.1360758098
H -1.3214275625 -2.3876956352 -2.8408725684
H -2.5783509302 -2.8862169258 -1.6895300331
H -2.4872698542 -0.4625656438 -3.5916724525
H -3.5332514686 1.5569810758 -1.4664588468
H -0.2504449122 -0.2358491467 -2.7356063654
H 0.6465508684 3.5786559668 -0.9793334674
H 0.8005508221 4.4291299102 1.2141182178
H 1.1519474796 4.0421252448 3.6434335682
H 1.9731300342 1.8334434661 4.4469091937
H 4.3111250573 -1.9699793953 2.2579884546
H 3.7646692652 -4.1839986220 1.2519483873
H 1.4009801866 -4.7823339519 0.7801788313
H -0.4103246729 -3.1749188120 1.3309092299
H 0.1420560434 -0.9702251795 2.3336093995
H 2.1461534665 0.4249258732 0.3961193142
