51
CONF163
C -0.8198512110 -1.7755671072 -2.5723706979
N -1.9681745530 -1.6054121309 -1.6776195953
C -3.1556331092 -2.1777097575 -2.3387497879
C -4.3976960601 -2.0891003892 -1.4638841472
C -4.6724217769 -0.6343491053 -1.0964148045
C -3.4269244487 -0.0324900236 -0.4526550551
C -2.1935961630 -0.1809423528 -1.3523678958
C -0.9589607651 0.4816995481 -0.7196865366
C -0.4435650582 -0.2324800578 0.5328453467
N 0.5250296617 0.5977797680 1.2630166420
C 0.5097891193 0.5817533218 2.6728745755
C -0.0491825851 -0.4728607325 3.4062601054
C -0.0865339624 -0.4244839438 4.7978566017
C 0.4661495705 0.6511154431 5.4864971532
C 1.0668665395 1.6852516253 4.7719182072
C 1.0734283819 1.6579287447 3.3807857713
S 1.7325709754 3.0286118589 2.4530981324
C 2.4324818930 2.0948872022 1.1101359080
C 1.7266020299 0.9753687043 0.6345519256
C 2.2542302586 0.2625251630 -0.4422157427
C 3.4301463669 0.6840297206 -1.0752635285
C 4.1177481728 1.8026801437 -0.6017025632
C 3.6221245742 2.4838826292 0.5086694870
S 3.9549474237 -0.2915706769 -2.4669338692
C 5.5342713224 0.4791268828 -2.9559257185
H -0.7465301261 -2.8274851654 -2.8660620940
H 0.1149515242 -1.5061977304 -2.0749016315
H -0.9081473229 -1.1670467060 -3.4929197605
H -2.9338980128 -3.2242397111 -2.5789116353
H -3.3521770067 -1.6567378040 -3.2995154766
H -5.2466982462 -2.5275077659 -2.0007419318
H -4.2429472583 -2.6804993139 -0.5518826650
H -5.5302030693 -0.5551756890 -0.4191198141
H -4.9230302377 -0.0718625084 -2.0065585319
H -3.5750452272 1.0329349185 -0.2413904965
H -3.2458314150 -0.5346316020 0.5059603588
H -2.4016268390 0.3780843907 -2.2910272119
H -1.2476788245 1.5006894695 -0.4358079202
H -0.1634078765 0.5853357360 -1.4627796072
H -1.2827321675 -0.3886080424 1.2113116477
H -0.0410466585 -1.2276480846 0.2949899712
H -0.4543709432 -1.3373446478 2.8934079493
H -0.5388691906 -1.2469955927 5.3428021404
H 0.4424846488 0.6848148292 6.5705325464
H 1.5146184208 2.5270642723 5.2912260465
H 1.7531128437 -0.6311692841 -0.7947975424
H 5.0301146262 2.1489029485 -1.0700561323
H 4.1595469485 3.3458104100 0.8923834047
H 5.3845255419 1.5083663852 -3.2904990976
H 6.2571560057 0.4417273633 -2.1373582461
H 5.9038820479 -0.1202555483 -3.7910037924
