45
CONF241
C 5.0351937646 2.7262315659 0.2677617694
C 3.7093677447 1.9943960211 0.4717336765
C 3.4302581126 0.9829935489 -0.6417816620
C 2.1746621293 0.1297507857 -0.4302481803
C 0.8775464682 0.9405146504 -0.4233001916
C -0.3966572626 0.0912559236 -0.2307167334
C -0.6703214885 -0.8231657420 -1.4380668195
C -1.9269141356 -1.6910217211 -1.3057093368
C -1.9522170075 -2.6068722621 -0.0776977253
C -0.7748750355 -3.5786518018 0.0086799914
C -0.9025259620 -4.5379962884 1.1909347228
C -1.5779798496 0.9870964681 0.0765445954
C -2.0874632984 1.8676893092 -0.8855830038
C -3.1597889990 2.7057354780 -0.5926942700
C -3.7467518181 2.6806185736 0.6721082286
C -3.2481977621 1.8119108778 1.6395051388
C -2.1736833549 0.9753120888 1.3408641175
H 5.2219124370 3.4507174925 1.0669237484
H 5.0378998710 3.2683019494 -0.6847003989
H 5.8727842750 2.0198378876 0.2505253471
H 3.7192805948 1.4712171217 1.4377675006
H 2.8961547433 2.7279420089 0.5243381201
H 3.3490849527 1.5153743003 -1.6003483415
H 4.2984397645 0.3161009779 -0.7320868926
H 2.1343196384 -0.6270431576 -1.2221065941
H 2.2615264003 -0.4160188182 0.5203612140
H 0.7931289966 1.5091447861 -1.3605734162
H 0.9148420190 1.6782685556 0.3870924895
H -0.2337055124 -0.5420035584 0.6520602265
H -0.7583101311 -0.2026329247 -2.3397333242
H 0.2000948341 -1.4685539980 -1.5971662484
H -2.8115968709 -1.0415136007 -1.2811406843
H -2.0192761294 -2.3071331610 -2.2101775127
H -2.8860494692 -3.1851634834 -0.0935267698
H -1.9869315577 -2.0028215261 0.8392234361
H 0.1648403409 -3.0187318338 0.0968598076
H -0.7075975080 -4.1489504135 -0.9280660096
H -1.8161010819 -5.1377035170 1.1103183125
H -0.9500119619 -3.9850000518 2.1360121060
H -0.0519629265 -5.2249614538 1.2460117425
H -1.6428711714 1.8986399657 -1.8764959156
H -3.5399348789 3.3806883875 -1.3541092213
H -4.5843206701 3.3327804556 0.9000154449
H -3.6957996743 1.7834375673 2.6287530468
H -1.7894905588 0.2999836458 2.1015092671
