47
CONF49
C 2.9057443680 -3.3784042399 -2.2641669912
C 3.3648686230 -2.0397074182 -1.8478154079
C 2.7796923793 -1.0010710719 -1.1701622614
C 3.7961179847 0.0014756259 -1.1225331387
N 4.9020912676 -0.4007749536 -1.7063150996
O 4.6203847177 -1.6902063098 -2.1850233410
C 3.7455983905 1.3181788933 -0.4678705772
C 3.5066113597 1.3917956702 0.9069074260
C 3.4310773250 2.5772563097 1.6098410532
C 3.6003349402 3.7646115589 0.9045118855
C 3.8321327851 3.7554853646 -0.4668761156
C 3.8991442570 2.5397109048 -1.1371630696
Cl 4.1340222653 2.5577269771 -2.8719953898
F 3.3454013260 0.2277520831 1.5737353592
C 1.4202387439 -1.0056037640 -0.6024097382
O 0.8806576807 -2.0422040456 -0.2073706380
N 0.8004670602 0.2034886807 -0.5283241099
C -0.4761682281 0.3551887147 0.0943209762
C -1.7502010226 -0.3808782061 -0.4519582599
N -1.9098917057 -0.9868158592 0.8747504450
C -0.7770982874 -0.3945268284 1.4146381562
O -0.2901524479 -0.4366464731 2.5204715303
C -3.2396497884 -1.0884914864 1.4278512053
C -4.0118880964 0.1941470820 0.9393238103
S -3.3098744177 0.5439832051 -0.7692743973
C -3.6937766609 1.3512108740 1.8869282606
C -5.5187373702 -0.0042870561 0.8209493760
C -3.9423388656 -2.3840703788 1.0512496750
O -4.7536049053 -2.9293886475 1.7671301878
O -3.5827087149 -2.8342233166 -0.1601520658
H 1.8167924003 -3.4195152388 -2.2413074778
H 3.2708406885 -3.6077066356 -3.2685333390
H 3.2934482170 -4.1381760107 -1.5762437911
H 3.2471466813 2.5623217991 2.6778203108
H 3.5467410647 4.7123678624 1.4290502342
H 3.9521514409 4.6823961452 -1.0145137837
H 1.2327653674 1.0172505075 -0.9403814484
H -0.6808746576 1.4205386027 0.2331665171
H -1.5604123290 -1.0880194506 -1.2623636420
H -3.1828928539 -1.0692866196 2.5204940609
H -4.1327797839 1.1493156374 2.8707436137
H -4.1186811665 2.2798337634 1.4976762507
H -2.6164438933 1.4947703351 2.0095211907
H -5.9313563836 -0.2538257131 1.8039285506
H -5.9890098613 0.9227206398 0.4815282173
H -5.7757223114 -0.7997502490 0.1165091798
H -4.0802080796 -3.6499477614 -0.3474941771
