38
CONF1
C 4.8023879071 -1.5051943126 -2.0642857195
C 4.9088768759 -0.6513040487 -0.9661800463
C 3.7822787681 -0.0236647339 -0.4492129233
C 2.5271981675 -0.2752077496 -1.0157601938
C 2.4179979207 -1.1185562881 -2.1300138228
C 3.5574627826 -1.7279022177 -2.6469531017
N 1.4074476395 0.3908711180 -0.4898883279
C 0.3829881615 -0.2421122888 -0.1071845911
N -0.7699059057 0.3888441766 0.3411111214
C -1.8058674821 -0.3996856852 0.7719237778
N -2.8900258128 0.1582361432 1.1683485143
C -4.0439574586 -0.4858792006 1.6022179127
F -4.9934911382 0.4599631418 1.8505740389
F -4.6052864153 -1.3290045206 0.6931865143
F -3.9014633937 -1.1718406942 2.7684279078
C -1.4142236701 -1.8545045692 0.6912816931
N -2.2107526333 -2.7586671624 1.1043515675
C -1.8461913939 -4.1190405826 1.0433790780
F -2.8641281948 -4.8793991434 1.4822128210
F -1.5535847121 -4.5347380272 -0.2181907632
F -0.7668607736 -4.4089267064 1.8160484698
S 0.1967356706 -2.0330244505 -0.0043720608
C -0.8628211657 1.8268705672 0.3274627045
C -1.3285448802 2.4600041540 -0.8175571009
C -1.4200989114 3.8486811455 -0.8218953418
C -1.0480750490 4.5777423122 0.3058078333
C -0.5820420837 3.9228832497 1.4442117865
C -0.4859872279 2.5346523323 1.4613812902
H 5.6876133938 -1.9834036057 -2.4704735786
H 5.8777234403 -0.4668836447 -0.5127480797
H 3.8570492648 0.6485938378 0.3992520786
H 1.4525165570 -1.2644042092 -2.6046043144
H 3.4687835469 -2.3736526641 -3.5149548263
H -1.6133082545 1.8732451685 -1.6847093012
H -1.7823699265 4.3594825373 -1.7078759093
H -1.1211602925 5.6604159603 0.2972921359
H -0.2914085012 4.4915017822 2.3213151297
H -0.1255044280 2.0050090694 2.3370740295
