39
CONF2
C -1.9396039542 -1.7825893665 -0.0584505064
C -2.0823047857 -0.6393101940 0.9450443447
C -1.0145180893 -0.7540149573 2.0344414568
C -2.0507912831 0.7629561208 0.2503414027
C -3.1692794534 0.9327262328 -0.7932524615
C -2.2879267794 1.7815794220 1.2903156262
N -2.4838573443 2.5789487100 2.1031753024
N -0.7170990394 1.0737762194 -0.3002854866
C -0.2335798922 0.7769258804 -1.5358876406
O -0.8369661267 0.2325439217 -2.4478074639
C 1.2105189487 1.2689947609 -1.7602814711
C 1.2116433963 2.7069872592 -2.2475149758
O 1.9921162583 1.2421847949 -0.5536253181
C 2.2456034441 0.0272771757 0.0113605483
C 2.8109508933 0.0352031420 1.2959233448
C 3.0953361568 -1.1458020739 1.9646142951
C 2.8030309355 -2.3563920963 1.3460970850
C 2.2390479019 -2.3951046318 0.0800773155
C 1.9613178554 -1.2033653538 -0.5826002353
Cl 3.1458967329 -3.8493861400 2.1928231444
Cl 3.1331069456 1.5586837171 2.0786610493
H -0.9767436626 -1.7296378139 -0.5737916476
H -2.7298595953 -1.7864976642 -0.8115128170
H -1.9799320143 -2.7355333858 0.4777401065
H -3.0728689537 -0.7002086529 1.4164016171
H -1.0693881043 0.0656909273 2.7576624227
H -0.0116583580 -0.7696821413 1.5948710631
H -1.1436454730 -1.6916812051 2.5819307998
H -3.1480948877 1.9454679890 -1.2021037645
H -4.1317928513 0.7730738834 -0.3009931447
H -3.0447279760 0.2274663446 -1.6108016502
H -0.0507317512 1.4695758474 0.3491021327
H 1.6531066645 0.6136804640 -2.5192898453
H 0.7904169519 3.3701504074 -1.4870678573
H 2.2329243513 3.0259850644 -2.4688071283
H 0.6094106742 2.7797619839 -3.1563520032
H 3.5269823718 -1.1166206200 2.9571545817
H 2.0086679681 -3.3440489618 -0.3888948529
H 1.5052916069 -1.2497651048 -1.5641558475
