50
CONF14
C 3.4968178727 4.3319599655 2.4568013641
C 4.4956548002 3.6357532675 1.5545215323
O 3.8483654428 2.6314935066 0.7351952952
C 3.6470551714 1.4293328538 1.3477227831
O 4.0062420723 1.1816438616 2.4858259288
N 3.0340272455 0.5340898904 0.5082332378
C 2.5061531598 -0.6872697263 1.1095199137
C 1.0112813752 -0.5146077294 1.4445059124
C 0.2532140973 -0.0794211807 0.2206162402
C -0.7971808895 -0.7410250568 -0.3036636313
C -1.3100053317 -2.0356475213 0.2172290651
C -2.6502844972 -2.2611440518 0.5850263823
C -3.7648641510 -1.2304646163 0.5598443969
C -3.4248312633 0.1930020255 0.1040901526
C -2.8569615700 0.2278942093 -1.2837752215
C -1.5430952721 -0.2237754809 -1.4852957920
N -0.9419441178 -0.2329548713 -2.6808208889
C -1.6440854899 0.2069436745 -3.7314320651
C -2.9529281997 0.6651630901 -3.6415101398
C -3.5643558318 0.6779976350 -2.3923553581
C -3.0255955990 -3.5366431484 1.0230967862
C -2.1066918444 -4.5694319752 1.0850594551
C -0.7864878606 -4.3768188922 0.6993861013
C -0.4134448391 -3.1156682389 0.2646999301
Cl -2.6236821538 -6.1510031978 1.6432089286
C 0.8239269904 1.1725366944 -0.3874612760
C 2.3177433900 0.9492175731 -0.6980193220
H 2.6873775926 4.7741714218 1.8684903622
H 3.9956526605 5.1323980460 3.0127339600
H 3.0746803925 3.6260277244 3.1759809897
H 5.2944752464 3.1643715946 2.1336435752
H 4.9308019577 4.3293653958 0.8300413755
H 2.6351091822 -1.5064484795 0.3899405886
H 3.0833769633 -0.9127567624 2.0072000771
H 0.6121294765 -1.4348482057 1.8761235141
H 0.9383095895 0.2722955330 2.2091193513
H -4.1991203885 -1.1781114647 1.5664341767
H -4.5591078611 -1.6207805172 -0.0907847254
H -4.3393308997 0.7939534281 0.1485811515
H -2.7064993659 0.6399232384 0.8015134505
H -1.1301883955 0.1900240120 -4.6910514737
H -3.4767240498 1.0095263377 -4.5268186006
H -4.5814784257 1.0440338940 -2.2775339037
H -4.0538461333 -3.7184370792 1.3200905802
H -0.0761333444 -5.1944645680 0.7249318202
H 0.6038352100 -2.9531418980 -0.0756606214
H 0.3011788670 1.4592908648 -1.3013068360
H 0.7487338896 2.0021479751 0.3307014047
H 2.4097711722 0.1489288276 -1.4432469838
H 2.7729550686 1.8513773330 -1.1043718138
