42
CONF118
C -0.5947301728 1.9272705640 1.4199744426
C -2.1109672789 2.0993399619 1.4940626306
C -2.8401561207 0.8735665000 1.0054648244
O -4.2492281991 1.0580977537 1.0606869722
C -4.7831934074 0.0702318641 0.1679772939
C -3.6452521328 -0.1722822358 -0.8589868613
O -2.5628222707 0.6389770560 -0.3732207214
C -3.2690579448 -1.6425186481 -0.9382890998
O -2.2211507649 -1.8596413112 -1.8952472029
C -0.9104696537 -1.7440741569 -1.5124497631
C -0.4502584060 -1.7984884117 -0.1934632763
C 0.9136833900 -1.7064113217 0.0651423261
C 1.8118966095 -1.5587305283 -0.9832901540
C 1.3664019222 -1.5145602169 -2.2976632019
C 0.0050356286 -1.6106135495 -2.5608401691
O 3.1823053778 -1.5109898738 -0.7301584226
C 3.6933575581 -0.3657773122 -0.1557672193
C 2.9795047853 0.8282940074 -0.0607678474
C 3.5918245893 1.9392452282 0.5173424959
C 4.8985863349 1.8685315066 0.9925967081
C 5.6008441487 0.6677508576 0.8837218834
C 5.0049944369 -0.4512663014 0.3138230165
H -0.0869047933 2.8069177277 1.8246989581
H -0.2670403581 1.7909991480 0.3853705340
H -0.2692661064 1.0537044267 1.9954163764
H -2.4382421880 2.9545045066 0.8917129521
H -2.4244862267 2.2796415293 2.5282958802
H -2.5642567495 -0.0233699785 1.5939315610
H -5.0214587368 -0.8536311420 0.7153662804
H -5.6911992671 0.4700811735 -0.2869599925
H -3.8974232185 0.1947905611 -1.8589100045
H -4.1296785515 -2.2061571055 -1.3142142958
H -3.0120410346 -2.0422276747 0.0478203213
H -1.1295802526 -1.9039853512 0.6422576185
H 1.2782394015 -1.7412815487 1.0871775426
H 2.0805397256 -1.3992479790 -3.1066156710
H -0.3640983853 -1.5749866566 -3.5806195834
H 1.9637440106 0.8929747723 -0.4331289880
H 3.0347659595 2.8686283777 0.5900105425
H 5.3664769898 2.7382043403 1.4417131085
H 6.6208109790 0.5980301726 1.2493278810
H 5.5399515373 -1.3914888434 0.2267004244
