44
CONF98
C -4.9678949465 0.9108426701 1.2409567077
C -3.5584435514 0.3627279204 1.2752149904
C -3.4377369435 -1.0731378110 1.8331681701
O -3.1704997308 -1.8809310526 0.6726619885
C -2.4420167723 -1.0298598605 -0.1927894573
O -3.0817354606 0.2272335531 -0.0924567852
C -2.6274821361 -1.5710601892 -1.6217913224
N -1.7342696021 -0.9300525411 -2.5674539197
C -0.5292685855 -1.3618184779 -2.9926026901
N 0.0504143188 -0.4373154534 -3.7479763579
C -0.8670371052 0.5712331890 -3.7406136603
N -1.9630465750 0.3225930877 -3.0352240110
C -0.9624692509 -0.9161819537 0.1954704329
C -0.3692752602 0.3497845331 0.2376021828
C 0.9775632688 0.5352583940 0.5122366663
C 1.7720215772 -0.5830328964 0.7451865363
C 1.2273161440 -1.8616116105 0.7147824899
C -0.1257391918 -2.0104713500 0.4391625209
Cl -0.7164824663 -3.6692149645 0.3681959859
O 3.1059922397 -0.4960352792 1.0757193470
C 3.8778468378 0.4920895535 0.4861284816
C 3.7995011567 0.7645776029 -0.8773170774
C 4.6506222672 1.7127836870 -1.4333390558
C 5.5693937640 2.3614077552 -0.6154122498
C 5.6588576351 2.0854319660 0.7434398677
C 4.7992437610 1.1428091568 1.2982790663
Cl 6.6494981979 3.5596765651 -1.3216952340
H -4.9938033326 1.8712355854 0.7184270312
H -5.3283420799 1.0649431591 2.2627251341
H -5.6359073937 0.2085052404 0.7323336692
H -2.8879178942 1.0421485818 1.8163029885
H -2.6122282564 -1.1584949445 2.5507487905
H -4.3638765999 -1.4350282310 2.2842535339
H -2.4105009349 -2.6410390510 -1.6284605904
H -3.6637602146 -1.4055811486 -1.9253819099
H -0.1344747997 -2.3376726053 -2.7391318625
H -0.7317925306 1.5054970043 -4.2710735190
H -0.9956856610 1.2132100653 0.0464247145
H 1.4006486856 1.5328619671 0.5429769227
H 1.8599980470 -2.7227993346 0.8942144177
H 3.0848177861 0.2419199996 -1.5043196550
H 4.6022798389 1.9335913196 -2.4935583512
H 6.3820639649 2.5997180065 1.3659346192
H 4.8436067847 0.9092583931 2.3565280350
