53
CONF2
C 4.8881389119 1.3918531171 0.9919795456
C 4.6554921192 0.2336553973 0.0515227164
O 5.4487872750 -0.6963234476 0.0120975006
C 3.3999853828 0.2652077152 -0.7895451936
C 3.3574779297 -0.7725439647 -1.9355000934
C 1.8782533663 -1.2219519582 -2.0692880251
C 1.1191346954 -0.2585744843 -1.1541601351
C 2.0868215559 -0.0053637729 0.0238243155
C 1.5354156777 1.1664297048 0.8360478036
C 0.0978273147 0.8862518125 1.3020733846
C -0.8521250574 0.5364327953 0.1444961232
C -0.2976923810 -0.6171319052 -0.7172788989
C -1.2037775175 -0.8550077842 -1.9222930089
C -2.6444736837 -1.1294296006 -1.4822029664
C -3.1761469132 -0.0585351720 -0.5806510871
C -4.3786825243 0.5062372680 -0.8348999512
C -5.0529240765 1.4192549343 0.0759863350
O -6.1566452024 1.9019885925 -0.1891626987
C -4.3636982845 1.6760072524 1.3913983267
C -2.8456958683 1.6250972921 1.2469404714
C -2.3273557064 0.3131856883 0.6225855443
C -2.4318500426 -0.8357560879 1.6521947166
C 2.2859648216 -1.2458368927 0.9080049975
H 4.4713064336 1.1231584786 1.9709415093
H 5.9605771474 1.5535743725 1.1218400993
H 4.3956828939 2.3078464706 0.6592786801
H 3.3101789822 1.2835377160 -1.1908907209
H 3.7285045817 -0.3236448806 -2.8611820248
H 4.0133912160 -1.6148428291 -1.7028390739
H 1.7459749800 -2.2560198068 -1.7295690229
H 1.5263426813 -1.1743375130 -3.1033588964
H 1.0469059633 0.7049870261 -1.6871156762
H 1.5458662296 2.0682418778 0.2078969655
H 2.1570082398 1.3745904189 1.7142706859
H 0.1075982678 0.0678091226 2.0300836683
H -0.2697614485 1.7697366011 1.8327654915
H -0.8884342231 1.4147090362 -0.5226629249
H -0.2666065085 -1.5419753729 -0.1233374436
H -1.1809349196 0.0311030823 -2.5727903422
H -0.8408589671 -1.7010355351 -2.5157314668
H -2.6617146862 -2.0802706007 -0.9288384410
H -3.3062765217 -1.2515101822 -2.3449859221
H -4.9340968053 0.2237787209 -1.7272129948
H -4.6987023829 2.6381132054 1.7898636690
H -4.7136174998 0.9024290204 2.0900402032
H -2.5272274519 2.4609155793 0.6096064557
H -2.3854375875 1.7749711656 2.2277647845
H -1.9683335926 -1.7547988626 1.2859126719
H -1.9407116768 -0.5533733133 2.5872332036
H -3.4800533372 -1.0570896778 1.8743841104
H 2.9434213052 -1.0077080981 1.7519977106
H 2.7455568661 -2.0680378383 0.3526305284
H 1.3422193246 -1.6097584799 1.3198338699
