65
CONF13
C -1.8645094780 2.6218870792 -0.2810723139
C -1.4618112333 3.3251993343 1.0119633142
C -1.3056795604 2.3585291304 2.1965578049
C -1.0011677166 3.1089842392 3.4982262125
C -0.1835409699 1.3791875381 1.9191512520
O 0.9893531244 1.6942884446 1.8244776187
O -0.6373604890 0.1192889087 1.7981002063
C 0.3473243223 -0.9621074320 1.6732458365
C 0.6401464838 -1.5238243820 3.0559348913
C -0.5917869068 -2.1293726692 3.7524591829
C -1.5190652254 -2.7804065874 2.7728866610
C -1.3962040800 -2.7398146852 1.4323607213
C -0.2516509834 -2.0158827689 0.7494545282
C -0.6741407042 -1.4710936068 -0.6320436901
C -1.2267868800 -2.6147009419 -1.5124962335
C -2.2748701026 -3.3902389568 -0.7679270425
C -2.3460444666 -3.4244379305 0.5723498729
C -0.1512253276 -3.5752195118 -2.0533938312
C 0.4583696974 -0.6898309306 -1.3070508666
C 0.0790131312 -0.1320641186 -2.6800512199
C 1.0664884373 0.8816210957 -3.2394100831
C 2.4794391239 0.3641491259 -3.4185811312
C 3.4190072878 1.5038124395 -3.7678296846
C 3.4192558328 2.4983892941 -2.6144351317
C 2.0503338288 2.8623096887 -2.0941882842
O 1.8568299418 3.8509957325 -1.4091800497
O 1.0109244217 2.0493031737 -2.3352208486
O 2.9342634749 2.1105679208 -4.9765830473
C -1.3515536571 -1.1188467352 4.6321769339
H -2.8107884169 2.0845626370 -0.1543502573
H -1.9854883492 3.3395783428 -1.0981925521
H -1.1035800527 1.8983505626 -0.5912361816
H -0.5178440585 3.8673113820 0.8750554058
H -2.2200809521 4.0672124482 1.2885638677
H -2.2331910289 1.7867602512 2.3105239051
H -0.8800319332 2.4180607523 4.3385377787
H -0.0821141931 3.6932673020 3.3943474675
H -1.8237083260 3.7918680840 3.7298529689
H 1.2592831747 -0.5424662085 1.2456827651
H 1.4043707368 -2.2985335035 2.9197561992
H 1.0850331481 -0.7428234530 3.6827399727
H -0.2291395149 -2.9148590963 4.4322944113
H -2.3659216367 -3.3200874684 3.1982456778
H 0.5586081120 -2.7426508750 0.5816355094
H -1.5101226028 -0.7756014494 -0.4680312300
H -1.7154823814 -2.1559608849 -2.3829800263
H -2.9872230810 -3.9603644978 -1.3614262998
H -3.1301587615 -3.9994878578 1.0623535810
H -0.6226575941 -4.3725316456 -2.6368153295
H 0.5613309695 -3.0597643869 -2.7046392806
H 0.4041596959 -4.0462031604 -1.2362136541
H 0.7401604132 0.1552066297 -0.6687737346
H 1.3452040851 -1.3313832390 -1.3836883022
H -0.0097587626 -0.9328344246 -3.4234544830
H -0.9047850087 0.3514810186 -2.6213879110
H 0.6929164434 1.2539305204 -4.1987414035
H 2.8424796365 -0.1152390219 -2.5041459496
H 2.4675429014 -0.3874732317 -4.2147474489
H 4.4374277910 1.1227070260 -3.9211980861
H 3.9624904418 2.0684437933 -1.7618905703
H 3.9345447737 3.4270008974 -2.8775592794
H 3.5456696427 2.8179904210 -5.2176043668
H -0.6804831598 -0.6879162254 5.3828091513
H -2.1772704115 -1.6122669179 5.1555668346
H -1.7647423530 -0.3059556895 4.0292295949
