29
CONF137
C -3.2398570928 0.1486446912 -1.6881790575
N -2.9953727172 -0.3981028266 -0.3405227469
C -3.2513979885 -1.8444364666 -0.1572110556
C -4.7452492762 -2.1101247643 -0.0115469097
O -5.2860403835 -1.5177435675 1.1686702026
S -1.9615814343 0.3762778315 0.6777836217
O -2.0522820707 1.8211897187 0.4488432422
O -2.0841259583 -0.2078620134 2.0152610674
C -0.1991941338 -0.1074364427 0.0752393095
C 0.9190557890 0.8155806078 0.6465853484
C 2.3576569935 0.2080022546 0.5250686348
C 3.5102422089 1.2513144146 0.6952206542
F 4.6740392010 0.5975072354 0.8091261339
F 3.5794733297 2.0640566112 -0.3643594768
F 3.3144279744 1.9842669612 1.8003389867
F 2.4980149962 -0.3628018365 -0.6947354578
F 2.5138468687 -0.7381716792 1.4756498876
F 0.6638434435 1.0446237123 1.9561664537
F 0.8862175471 1.9914584449 -0.0201567849
F -0.2008559163 -0.0354388962 -1.2714167081
F 0.0235753721 -1.3862612340 0.4461954114
H -2.9773965048 1.2059518845 -1.7171334717
H -2.6612880630 -0.4012508917 -2.4379360930
H -4.3059473333 0.0531622217 -1.9098672561
H -2.7394146836 -2.1906727556 0.7431675670
H -2.8517286500 -2.3895028263 -1.0226743404
H -5.2912739982 -1.7776130292 -0.9049918549
H -4.8851993606 -3.1912030132 0.0845232763
H -5.2147477121 -0.5585631367 1.0747061330
