42
CONF47
C -2.5652600559 -1.5362678586 0.2609349175
C -2.4341073133 -0.1958240490 -0.4716016274
C -1.8476234938 0.9288261215 0.3841081137
C -1.7883520390 2.2567171167 -0.3735306000
C -1.3866024965 3.4649919750 0.4785355219
C -0.0659602631 3.2877424604 1.2394441340
C 1.0668256068 2.9384562155 0.3085894748
O 1.2493702324 3.4337558685 -0.7803828999
O 1.8672156930 1.9789452233 0.8415497848
C 2.9143108645 1.4872504312 -0.0272288791
C 2.3604768730 0.4611173896 -0.9885234192
O 1.8154254283 -0.6533963873 -0.2446300099
C 2.5408518648 -1.8063831490 -0.2404971564
O 3.5879502881 -1.9457466812 -0.8285949272
C 1.8432629162 -2.8758237554 0.5576402636
C 0.7454320651 -3.5889127941 -0.2598096510
C -0.4742038952 -2.7324785715 -0.6123597300
C -1.2397895426 -2.2228366706 0.6097649361
H -3.1637923489 -2.2229470144 -0.3525432211
H -3.1373458407 -1.3723083234 1.1839377739
H -3.4299382228 0.1121240933 -0.8166796042
H -1.8262523280 -0.3162404046 -1.3782201420
H -2.4589486212 1.0477322086 1.2910059462
H -0.8402590365 0.6509083710 0.7194834122
H -2.7719082370 2.4618089000 -0.8158373220
H -1.0926302449 2.1609705526 -1.2171393084
H -1.3061863167 4.3453317087 -0.1673119781
H -2.1719487339 3.6745052336 1.2151217672
H 0.2024966588 4.2304797533 1.7329219626
H -0.1439443163 2.5264799265 2.0193674024
H 3.3609385345 2.3167391230 -0.5841895873
H 3.6536925821 1.0359869088 0.6383653369
H 3.1480876399 0.1101257065 -1.6615625114
H 1.5328616866 0.8823953609 -1.5646083372
H 2.6069969811 -3.6013443389 0.8468006085
H 1.4144951098 -2.4361813237 1.4628631228
H 1.1978182634 -3.9868413030 -1.1760235611
H 0.4144941824 -4.4548883143 0.3272085049
H -0.1663428336 -1.8912447074 -1.2429262486
H -1.1520469255 -3.3445325715 -1.2225682904
H -0.6102807218 -1.5343254016 1.1856557315
H -1.4492792467 -3.0748667380 1.2715219998
