28
CONF30
O -3.5748775387 0.5550119839 1.6553579417
C -2.5302108060 1.1884120561 0.9030684639
C -2.0486326374 0.2419897046 -0.1815871149
O -0.9417949331 0.8513353756 -0.8904093769
C -0.0169198418 -0.1461419939 -1.2854219583
C -0.5752801643 -1.4902942770 -0.8166022973
C -1.4910669966 -1.0874175800 0.3329270928
O -2.4826786172 -2.0792864444 0.5572640185
N 1.3146287919 0.1610708737 -0.6703384673
C 1.4509456443 0.9567477146 0.4307411035
C 2.6510855920 1.2208294691 0.9998324488
C 3.8518332452 0.6583829952 0.4449000214
O 4.9986430193 0.8248660120 0.8612331672
N 3.6235603818 -0.1470778601 -0.6804408248
C 2.4135414506 -0.4451191987 -1.2698945805
O 2.3088342730 -1.1857001421 -2.2411976320
H -4.3765499736 0.5614488008 1.1157593034
H -2.8656638565 2.1401718749 0.4718791885
H -1.7180155400 1.3907100304 1.6091938615
H -2.8656461106 0.0334274129 -0.8909032319
H 0.1409334140 -0.1028931560 -2.3656286878
H 0.2086570169 -2.1959236966 -0.5373456708
H -1.1819610691 -1.9274674105 -1.6167205131
H -0.9079158783 -0.9068410634 1.2510156005
H -3.0709201525 -1.7297649532 1.2422803792
H 0.5288718695 1.3780095832 0.8115538636
H 2.7227919156 1.8610197425 1.8683110941
H 4.4338080996 -0.5795052662 -1.1088271879
