37
CONF1
C -3.1900763522 -0.1951018589 1.3976622777
C -1.6642632048 -0.3091335010 1.3610230792
C -1.2060050766 -1.4717697889 2.2474930083
C -1.1388996912 -0.4639449331 -0.0976361491
C 0.3905563769 -0.4406278218 -0.2064904486
C 0.9830418574 -1.0012650296 -1.3435982987
C 2.3558743000 -0.9738414303 -1.5246978485
C 3.1606447753 -0.3737768437 -0.5633023190
C 2.6074676743 0.2007870526 0.5720304080
C 1.2236398281 0.1614021847 0.7347106296
O 4.5255856429 -0.4102705120 -0.8623399943
C 5.4381030858 0.1019799869 -0.0026081799
F 6.6433496773 -0.0894306045 -0.5409088195
F 5.4123634912 -0.5007204872 1.2073213932
F 5.2737881338 1.4269559060 0.2078744182
C -1.6952763973 0.6494185510 -0.9716097184
C -2.6586964887 0.4324588727 -1.9544174747
N -3.1604007570 1.4252822373 -2.6981790822
C -2.6915246895 2.6468335956 -2.4434312892
N -1.7684609606 2.9779046752 -1.5346899698
C -1.2766656301 1.9698114589 -0.8140281620
O -1.6353102802 -1.6895749923 -0.6552629326
H -3.6501169223 -1.0602277560 0.9105985421
H -3.5475374710 0.7086357165 0.8979040308
H -3.5351327132 -0.1648389410 2.4353913157
H -1.2503995824 0.6267585047 1.7575914201
H -0.1309997212 -1.6612972752 2.1755330484
H -1.4403752245 -1.2597625218 3.2947420988
H -1.7411816089 -2.3913230114 1.9837008160
H 0.3530872987 -1.4598128847 -2.0978854546
H 2.8167359957 -1.4064117988 -2.4055541762
H 3.2182800196 0.6732395711 1.3294067397
H 0.8118954022 0.6129064341 1.6301049525
H -3.0355324435 -0.5676215133 -2.1470130725
H -3.1002755185 3.4618451191 -3.0399859091
H -0.5073933624 2.2251583513 -0.0850362730
H -1.1898884735 -2.4106247970 -0.1948072175
