35
CONF64
C 1.2242275806 -0.0024591337 2.3153558588
C 0.2883449304 -0.8984883503 1.5706807337
C 0.0873409963 -2.2183293022 1.8494394636
S -1.0676148910 -2.9472462557 0.7692972120
C -1.3069882742 -1.4539231234 -0.0875418566
C -0.5165684206 -0.4713079205 0.4604256443
N -0.5453277039 0.8739685635 -0.0155884974
C 0.3659028825 1.3540122216 -1.0999299477
C 1.3906001841 2.3530796696 -0.5655797941
C 1.0198357277 0.1939570343 -1.8279331918
O 2.0164327238 -0.3984185892 -1.0021282235
C 2.3545286100 -1.7107243669 -1.4373515975
C -1.5293457555 1.7243831194 0.3947739882
O -1.6734775206 2.8544624910 -0.0623525776
C -2.4506430132 1.1381514247 1.4697359315
Cl -3.4920940797 2.4181134758 2.2124534702
C -2.2775698849 -1.3478703202 -1.2136699786
H 2.1260571051 0.1829985351 1.7227401246
H 1.5207611943 -0.4540290949 3.2646593936
H 0.7606268271 0.9692385172 2.5179803245
H 0.5494100334 -2.8120513132 2.6273100700
H -0.2754615217 1.8616892508 -1.8309343875
H 1.9827669960 2.7442285853 -1.3993353576
H 0.8885018116 3.1896953254 -0.0757296542
H 2.0671281434 1.8760980314 0.1452681571
H 0.2649124874 -0.5537500952 -2.1108148739
H 1.4732684798 0.5811196050 -2.7544196752
H 1.4756099072 -2.3720420897 -1.3981712918
H 3.1225417850 -2.0890813684 -0.7585200322
H 2.7501781718 -1.7038831009 -2.4638835010
H -1.8810691566 0.6724881034 2.2760164903
H -3.1197037062 0.3919277194 1.0343685179
H -2.0199834328 -2.0287240551 -2.0316615393
H -3.2951386094 -1.5897842064 -0.8880954957
H -2.2779906445 -0.3274986694 -1.6068634309
