48
CONF2
C 0.4417191466 -2.4721403362 -2.9212774849
C 0.8880838770 -1.0740776028 -2.5065253977
C 0.2137523296 -0.5964805233 -1.2218941008
C 0.5448399811 0.8722342464 -0.9250853076
O 0.9399323959 1.6542498349 -1.7552908577
O 0.2324186103 1.1733500422 0.3484793326
C 0.3577575345 2.5601080298 0.7608489529
C -1.0090622506 3.2102333613 0.8693640885
C -1.7812699364 3.3138363674 -0.4572222361
C -2.4709951014 2.0498242645 -0.8771063032
C -2.4512166471 1.5297401919 -2.1024687299
N 0.4435660445 -1.4938653920 -0.0734138553
C 1.8499330716 -1.8439214640 0.2393296424
C 2.6596186856 -0.7107839915 0.7528972827
C 2.8971439182 -0.2027762552 1.9929212897
C 3.6855209323 0.9730269308 1.8074060473
C 3.8720592260 1.1046303575 0.4671018163
O 3.2592097970 0.0823673100 -0.1956052516
C -0.3843530596 -1.5102342446 1.0228669737
O -0.0196796640 -1.7264213645 2.1621934901
N -1.7778101777 -1.3184696532 0.7531346529
C -2.6539596905 -0.7353754228 1.6513981656
C -3.8940071781 -0.8741281596 1.0963574877
N -3.8200485829 -1.5535399037 -0.1052488835
C -2.5488447207 -1.8082619216 -0.2829245142
H 0.9556491959 -2.7853008146 -3.8340827060
H 0.6489985911 -3.2166765948 -2.1457945157
H -0.6344463701 -2.4955296904 -3.1248651713
H 1.9766289180 -1.0139911529 -2.4067095559
H 0.6267252259 -0.3474297530 -3.2801945276
H -0.8658347253 -0.5603022812 -1.4056287891
H 0.9957325432 3.0827044482 0.0425159008
H 0.8573289081 2.5218530356 1.7328374051
H -1.6141147178 2.6702617838 1.6090008110
H -0.8425007802 4.2168162885 1.2734663875
H -1.1188693744 3.6675594378 -1.2562140097
H -2.5580063942 4.0807237571 -0.3254428092
H -3.0656684948 1.5556205558 -0.1075415493
H -3.0309873933 0.6421873301 -2.3386913160
H -1.8661028069 1.9807186264 -2.9005464961
H 1.8227526883 -2.6335367262 0.9909514488
H 2.3064070254 -2.2458130491 -0.6688489201
H 2.5241466777 -0.6137531816 2.9180383683
H 4.0684493110 1.6315768226 2.5723617523
H 4.3950774045 1.8176990468 -0.1497267993
H -2.2958949209 -0.2970705637 2.5686634202
H -4.8391019365 -0.5274916974 1.4890580901
H -2.1185892979 -2.3791974487 -1.0945856503
