78
CONF860
C -0.6117870628 -0.3264673921 -0.8057315833
C 0.5360884084 -0.3480706738 -1.8050122690
O 0.1701118533 -1.4356225796 -2.7243925603
C -0.6802026007 -2.3034260159 -2.1153967599
O -1.0480577722 -3.3158642559 -2.6637151095
C -0.9740386974 -1.8006567988 -0.7230685924
C -2.3593154518 -2.0088542666 -0.1072121800
C -3.5032180739 -1.5813745361 -1.0206914035
C -4.0201228760 -0.2850434117 -0.9719300868
C -5.0443298082 0.1027981526 -1.8381361420
O -5.6133518726 1.3431529550 -1.8655258262
C -5.1067155758 2.3115203682 -0.9401883072
C -5.5615357760 -0.8140040285 -2.7591723177
O -6.5672303047 -0.4242081118 -3.5973775442
C -5.0472156554 -2.1154813340 -2.7931841759
O -5.6428457096 -2.9183613352 -3.7276660555
C -5.1505193344 -4.2586940897 -3.8558185735
C -4.0267288097 -2.5039231592 -1.9287372640
C -2.3866712277 -1.2598399046 1.2187301974
C -3.3805307071 -1.6434032497 2.1434920151
C -3.4575406575 -0.9546186973 3.3272950352
C -2.6007757527 0.1042087995 3.6165474937
O -2.9292404159 0.6485126121 4.8328062139
C -3.8672407716 -0.2783226108 5.4186876940
O -4.3541923334 -1.1190841612 4.3504432682
C -1.6353236317 0.5085646822 2.7316962876
C -1.5233065549 -0.1937974550 1.5100508574
C -0.3940942935 0.2309760269 0.5878023028
O 0.8534384605 -0.2864995246 1.1378663554
C 1.8067382379 0.6733144954 1.4451614207
O 2.3468509501 1.1767560845 0.2120583343
C 3.3402507527 2.1659021315 0.4598824126
C 3.8152044887 2.7388339548 -0.8632432057
O 4.8923367554 3.6580948494 -0.6000883889
C 5.9652688016 3.0917063293 0.1318538920
O 5.5435891193 2.5104521585 1.3626053216
C 4.5280150862 1.5169824636 1.1606823943
C 4.1004360499 0.9463473770 2.5010757824
O 5.1647999452 0.3003202173 3.1896993894
C 2.9020518113 0.0019274595 2.2884612863
O 2.3778615729 -0.4642169694 3.5242788042
C 6.7633926551 2.1211210820 -0.7031888101
C 6.8800262994 2.0622500303 -2.0659592958
C 7.8093882292 1.0799548948 -2.5056187766
C 8.4014459570 0.4076812202 -1.4724434276
S 7.8216697790 0.9675673349 0.0622479932
H -1.4551889447 0.2156794664 -1.2527694221
H 1.4894328496 -0.6083002825 -1.3397488932
H 0.6391039453 0.5580626326 -2.4029966441
H -0.2357906559 -2.3055203789 -0.0778593379
H -2.4880699961 -3.0772821566 0.1005924263
H -3.6351784333 0.4134135050 -0.2398240465
H -5.2589353199 1.9853686535 0.0957962571
H -5.6770876603 3.2221911652 -1.1253157065
H -4.0406000599 2.5020378892 -1.1134421706
H -6.7969228068 -1.1854068949 -4.1511523591
H -5.7332571910 -4.7124076573 -4.6576230138
H -4.0874907707 -4.2580567459 -4.1225890405
H -5.3000953570 -4.8191725826 -2.9259778940
H -3.6265159877 -3.5087921052 -1.9607157806
H -4.0645507535 -2.4539390851 1.9138052508
H -4.7020340025 0.2754218007 5.8525303538
H -3.3465072777 -0.9011674439 6.1584509446
H -0.9779085948 1.3417974062 2.9569603927
H -0.3321072753 1.3254769739 0.5593555447
H 1.3661316531 1.5215109791 2.0053047677
H 2.9378016685 2.9746318047 1.0925442584
H 3.0340237647 3.3209568038 -1.3573705171
H 4.1387918425 1.9242463281 -1.5258806258
H 6.5867152130 3.9440393918 0.4269777928
H 4.9109245997 0.7035436726 0.5211337570
H 3.7897330014 1.7749720912 3.1533739926
H 5.4727474817 -0.4370089740 2.6443809292
H 3.2388539834 -0.8895282998 1.7427457372
H 2.1433622834 0.3039300870 4.0634401833
H 6.3149280508 2.7058842115 -2.7297822882
H 8.0285629503 0.8788508658 -3.5477467205
H 9.1342945206 -0.3870722098 -1.5165243402
