35
CONF142
C -3.2526115261 1.9157443553 0.4270053052
C -2.9611520674 0.6137482612 -0.2799805417
O -3.8229717617 0.0281678336 -0.9410340773
N -1.6903260463 0.1501998609 -0.1364913078
C -1.2108958843 -1.0486010249 -0.7995166872
C -0.4970845772 -1.9511071390 0.2141783725
O -1.2705676761 -2.2562361781 1.3223828727
O 0.6937374003 -1.2796648282 0.6879699547
C 1.6637032259 -1.0066935865 -0.3378815852
C 2.8552574195 -0.3654445811 0.3411637569
O 2.5730648472 0.9733883645 0.8303248109
P 1.5271216419 1.3028936000 1.9960388020
O 1.5134758577 0.0498839556 2.9937694804
O 2.3633806491 2.3836575274 2.8204473542
O 0.1958339933 1.7785318908 1.5251581983
C 1.0477131825 -0.1263273445 -1.4357343987
O 1.9722917001 0.0936462787 -2.5009960150
C -0.2424933177 -0.7580376678 -1.9505711668
O -0.8960840134 0.0841780356 -2.8922866513
H -2.4545058563 2.2238631567 1.1048740924
H -3.3951406254 2.6926992420 -0.3311653308
H -4.1901571675 1.8154554125 0.9790444391
H -1.0289289830 0.7108646730 0.3998551519
H -2.0815725597 -1.5820151806 -1.1938315842
H -0.2003786340 -2.8986274436 -0.2562925423
H -1.7366351662 -1.4506976012 1.5994358707
H 2.0088616469 -1.9560373439 -0.7838472675
H 3.6641121686 -0.2378643625 -0.3793391379
H 3.1993875269 -0.9919262865 1.1705319126
H 1.0512345470 -0.7079356438 2.5848034495
H 1.8071135708 3.0873159338 3.1889135191
H 0.8270422638 0.8667896269 -1.0289078983
H 2.1891544878 -0.7630466221 -2.8977524769
H 0.0132979997 -1.7275056306 -2.4154679623
H -0.2342782878 0.3367402662 -3.5513121956
