39
CONF4
C 6.6784636272 -0.4793925313 0.7571476328
C 7.1345107171 -0.2771345126 -0.6926426205
O 7.2735446505 -1.4854526454 -1.4245322448
C 5.2794894101 -1.0250482118 0.9573841827
C 4.1452372752 -0.1864044188 0.2882755809
C 2.7022319663 -0.4682336881 0.8307123736
C 1.5690973209 0.0343999635 -0.1345289184
C 0.1752254612 0.1752368868 0.5758454232
C -1.0253509314 0.2273379012 -0.4358456280
C -2.3378048914 0.8082209723 0.2016428959
C -3.6274396035 0.4574910885 -0.6219989944
C -4.8492063243 1.3725838165 -0.2686939853
C -6.2283194245 0.8007341356 -0.7347174054
F -6.1722393050 0.4413145243 -2.0248886127
F -7.1586258833 1.7536366701 -0.5897107501
F -6.5836829761 -0.2569875663 0.0013850520
F -4.9109428737 1.5430189946 1.0724425596
F -4.6827973013 2.5730724315 -0.8622255623
F -3.3596746133 0.5978192260 -1.9400643936
F -3.9628962768 -0.8284160388 -0.3740117173
F -2.2245129235 2.1530889415 0.2746959692
F -2.4771765820 0.3036634914 1.4478956877
F -1.2757663316 -1.0269541385 -0.8731849418
F -0.6777014821 1.0044226694 -1.4857953236
F 0.1752900996 1.3135247498 1.3052822926
F -0.0038854478 -0.8816261468 1.3986646001
F 1.9207771646 1.2422887821 -0.6303439280
F 1.4470479445 -0.8465552586 -1.1533932713
F 2.5510086963 -1.7984976988 1.0067824190
F 2.5606709721 0.1587517081 2.0212131833
F 4.4205996757 1.1288310901 0.4748305750
F 4.1600079709 -0.4445120196 -1.0501675246
F 5.0075096013 -1.0832774667 2.2988924127
F 5.1820667074 -2.3012529836 0.4691699926
H 7.3437121294 -1.1937877667 1.2544984871
H 6.7380126130 0.4725388329 1.2942413446
H 6.4812140629 0.4380945603 -1.2111531849
H 8.1345217920 0.1654763744 -0.6593452363
H 6.3999256446 -1.8712791319 -1.5538169664
