47
CONF163
C -6.3268212504 -1.9566647743 1.9629130079
O -5.9056552370 -0.6349804806 1.5163015385
P -5.2433132338 -0.4495997604 0.0749564468
S -3.8386994937 -1.6926659774 -0.4340310276
O -6.5336367112 -0.3693454053 -0.8629630967
C -6.3831555970 -0.3037861081 -2.3101308460
O -4.8146733595 1.1144025535 0.1381727571
C -3.5577122567 1.5053856759 0.6084677424
C -3.2933230009 1.5018389984 1.9701184226
C -2.0415886304 1.9219621383 2.4128011234
C -1.0860238398 2.3594184138 1.4950498395
C -1.3812435360 2.3799370704 0.1284069059
C -2.6178167446 1.9368606297 -0.3200358376
S 0.4845325449 2.9637475269 2.1024032125
C 1.6636950764 1.9607950748 1.2046664047
C 2.9177085673 2.5190552793 0.9406714418
C 3.8991398229 1.7618751486 0.3107599244
C 3.6076448064 0.4606108312 -0.0720380803
C 2.3622149054 -0.1058238648 0.1712761948
C 1.3911381618 0.6443799065 0.8241877009
O 4.5885703872 -0.2548060163 -0.7636844364
P 5.3414559360 -1.5407447976 -0.1001541341
S 5.7145786062 -1.3991889580 1.7973270518
O 6.5636723412 -1.6898270265 -1.1171944653
C 7.6292614516 -0.6971266011 -1.1196841581
O 4.4557165705 -2.8184549132 -0.4506565093
C 4.0543737381 -3.0882361727 -1.8312509426
H -6.7064903041 -1.8144594050 2.9739977766
H -5.4722804764 -2.6376352926 1.9688420051
H -7.1174944281 -2.3380440583 1.3116552974
H -5.8610451050 -1.1931322321 -2.6711765312
H -7.3969198113 -0.2699249106 -2.7074676963
H -5.8368477336 0.6011774002 -2.5896147174
H -4.0467901735 1.1633890318 2.6727924290
H -1.8109522361 1.9035654011 3.4726462583
H -0.6427000501 2.7313771334 -0.5845659039
H -2.8627213296 1.9331494414 -1.3767179483
H 3.1304511557 3.5447009900 1.2249572968
H 4.8785414364 2.1793240933 0.1029527002
H 2.1540062495 -1.1250050558 -0.1375846375
H 0.4231885083 0.2005363366 1.0304152370
H 8.3304610038 -1.0216128945 -1.8875524206
H 7.2237768050 0.2870559206 -1.3682568783
H 8.1188506884 -0.6756791727 -0.1426318429
H 3.3532202169 -3.9196605263 -1.7709162450
H 3.5629464604 -2.2107640690 -2.2592243345
H 4.9287579924 -3.3673763268 -2.4221600132
