55
CONF55
C 4.4560054718 -3.4016415710 -3.3553502874
O 4.5106423538 -3.5425409470 -1.9295163670
C 3.5373179631 -2.9324712135 -1.1982264437
C 2.4871322302 -2.1878128542 -1.7428010838
C 1.5450889703 -1.6091504141 -0.8963868649
C 1.6262436715 -1.7525944257 0.4888326685
C 2.6791269211 -2.5111487924 1.0148156438
C 3.6267138155 -3.0935687496 0.1891638238
C 0.6478567515 -1.1107817707 1.4379357916
S -1.0817455306 -1.4890285022 0.8612039745
C -2.0480215488 -0.2059806171 1.6353747187
C -3.0281533994 -0.5710449106 2.5616912099
C -3.8815144323 0.3815661521 3.1069647464
C -3.7353334169 1.7200294322 2.7524794436
C -2.7513612727 2.0991182033 1.8476775222
C -1.9134986327 1.1456403261 1.2638084038
N -0.9467436462 1.5667105645 0.3122382584
C -1.3843396586 2.3661099161 -0.8464395845
C -1.7576175996 1.4906448602 -2.0383036986
N -2.9058234179 0.6209148220 -1.7813432140
C -4.1571197359 1.3765180868 -1.7240779874
C -2.9940266389 -0.4116319541 -2.8149525224
C 0.3704549162 1.2113847659 0.3735673465
O 1.1879517281 1.5362620336 -0.4832459268
C 0.7957566632 0.4107219476 1.6093662675
O 2.1875442820 0.6419318364 1.8815607705
C 2.5022542360 1.9015086364 2.2794433976
C 3.9734934217 2.0332306161 2.5162697581
O 1.6719742361 2.7743232894 2.4191146012
H 3.5322390704 -3.8335566971 -3.7577180965
H 5.3154563414 -3.9517479943 -3.7391768040
H 4.5311117747 -2.3481870471 -3.6491773322
H 2.3884399441 -2.0533693275 -2.8128245261
H 0.7329356082 -1.0384410564 -1.3344288584
H 2.7586569897 -2.6427446412 2.0903787425
H 4.4412055485 -3.6806872460 0.6009707293
H 0.7811646491 -1.5539222679 2.4299899096
H -3.1204114419 -1.6146886120 2.8434511764
H -4.6451037962 0.0802321225 3.8163296404
H -4.3776285277 2.4766333049 3.1911683726
H -2.6239342104 3.1464348139 1.5946115651
H -0.5622636922 3.0266098082 -1.1310514734
H -2.2229372232 2.9913295984 -0.5358787584
H -1.9319204012 2.1549220191 -2.9097141260
H -0.8957749171 0.8576264298 -2.2801998730
H -4.3623643744 1.9241391297 -2.6645299898
H -4.1376159869 2.0998690172 -0.9032451814
H -4.9884324377 0.6888416415 -1.5387027272
H -2.0751193306 -1.0077525688 -2.8231027713
H -3.8353822342 -1.0779909422 -2.5983626767
H -3.1424944771 0.0113731474 -3.8275960971
H 0.2110217527 0.7313373825 2.4767949182
H 4.2115566771 3.0596186734 2.7912901401
H 4.2774777321 1.3513201269 3.3162511435
H 4.5198564617 1.7455837256 1.6136081801
