68
CONF148
C 2.3081430375 -4.3757484062 -2.3329508223
C 2.0249766904 -3.6203710891 -1.0362428290
C 1.5523238668 -2.1505906805 -1.2223849492
C 0.2641851407 -2.0849405447 -2.0480350144
C 1.3671496500 -1.6229236314 0.1995325856
O 0.0781044884 -1.5506830881 0.5715613764
C -0.2159283122 -1.0923484396 1.9328181773
C -0.3489038611 -2.3295769240 2.8033986817
C -0.6611073299 -1.9560973668 4.2516241857
C -1.7673741757 -0.9457735230 4.2875672650
C -2.1618950809 -0.2049094551 3.2352918876
C -3.2551944283 0.7484793476 3.3564051888
C -3.5434879997 1.6511130929 2.4061256449
C -2.7267969722 1.8190985720 1.1573623696
C -1.3376974670 1.1648114591 1.3305254475
C -1.5071960004 -0.2811857711 1.8663366544
C -0.4740048242 1.2599564524 0.0706690139
C -0.2993167660 2.6816513005 -0.4646812328
C 0.7506517892 2.7470456281 -1.5567501105
C 0.9857762912 4.1420476391 -2.1114294329
C 1.8497792242 4.1214137099 -3.3837226777
C 2.2675413455 2.6851317396 -3.7399965216
C 1.0688518135 1.7793745914 -3.7364052494
O 0.2836105508 1.8704311143 -2.6421029344
O 0.7565840277 1.0175083222 -4.6290445909
O 1.0516542273 4.6803963412 -4.4396411746
C -3.5136350038 1.3233786221 -0.0695168352
C -1.0087336424 -3.1965007725 5.0814027509
O 2.2952333437 -1.3242417126 0.9298930703
C 2.6418207462 -1.2970506947 -1.8909791689
H 3.0816966724 -3.8819569149 -2.9284220907
H 2.6628518865 -5.3846152121 -2.1008321487
H 1.4116617785 -4.4748189181 -2.9514660712
H 1.2542455867 -4.1566111499 -0.4664644254
H 2.9296625365 -3.6075634955 -0.4169690074
H -0.5144638627 -2.7339768046 -1.6385372142
H -0.1204297277 -1.0618246748 -2.0866698080
H 0.4718519350 -2.3992161961 -3.0744668081
H 0.6169575876 -0.4697285930 2.2783364596
H 0.5759640186 -2.9145965637 2.7473740635
H -1.1645530015 -2.9493416735 2.4066658649
H 0.2391905114 -1.5003950802 4.6962595333
H -2.2815831981 -0.8093757352 5.2393259540
H -3.8515255790 0.7034847365 4.2658601838
H -4.3991238079 2.3122533818 2.5314581052
H -2.5704956847 2.8986729583 1.0213011674
H -0.8238195313 1.7307448829 2.1237640397
H -2.1915625878 -0.8208740616 1.1940002563
H -0.8832943724 0.6181233854 -0.7151685846
H 0.5261811978 0.8751826506 0.2995242806
H -1.2386201850 3.0875575322 -0.8577096127
H 0.0283710911 3.3501479358 0.3423436214
H 1.6898719624 2.3175562710 -1.1814414465
H 1.4513289329 4.7520352978 -1.3319216546
H 0.0200961826 4.5965662883 -2.3571855085
H 2.7564954381 4.7241389964 -3.2482582716
H 2.7463382464 2.6425983795 -4.7203035087
H 2.9877320687 2.3232396281 -2.9942397829
H 1.6030779788 4.7354326044 -5.2312679778
H -2.9971612493 1.5600366790 -1.0045582139
H -4.4971842230 1.8030502090 -0.0987437089
H -3.6738406754 0.2415368196 -0.0284524144
H -1.9083152194 -3.6803263091 4.6851471016
H -1.1967232197 -2.9277603888 6.1257341983
H -0.1881301995 -3.9207277055 5.0553111401
H 2.3522192659 -0.2403035390 -1.8852153547
H 3.5972698414 -1.3951568681 -1.3697835755
H 2.7726474261 -1.6020831947 -2.9323986310
