37
CONF11
C 4.0022879254 0.3528482792 -1.4996205256
C 3.8810968869 -0.2122957315 -0.0839395641
C 2.4704243206 -0.1022456438 0.5035712134
C 1.4513788148 -0.9582695687 -0.2434196731
C 0.0107952296 -0.8686333666 0.3349773369
C -0.9041258546 -1.7887887989 -0.5368597509
N -2.3054783254 -1.6845396420 -0.1863303151
C -3.2539096306 -0.9099449409 -0.7528864548
N -4.3908848404 -1.0088935529 -0.0760182100
C -4.0669309243 -1.8705158322 0.9294515237
N -2.8134619131 -2.3053037460 0.9077981497
C 0.0581562421 -1.4046889651 1.6971570279
N 0.1528233828 -1.8592827852 2.7554664527
C -0.5503167957 0.5530728475 0.3297785962
C -0.4404431039 1.3281378933 -0.8280945686
C -1.0068924910 2.5949750912 -0.8958578037
C -1.6945215713 3.0832383487 0.2089201026
Cl -2.4168929074 4.6848935310 0.1300446394
C -1.8250422929 2.3356595472 1.3700964194
C -1.2497194235 1.0688262964 1.4199882986
H 5.0434177550 0.3404891281 -1.8366013932
H 3.6488526436 1.3898241824 -1.5336978335
H 3.4169645014 -0.2246431065 -2.2220675907
H 4.1968026259 -1.2637343692 -0.0743379921
H 4.5706998125 0.3252006190 0.5774622268
H 2.1516878445 0.9479980056 0.4843315723
H 2.4941339260 -0.4078739318 1.5569355275
H 1.7577891019 -2.0110448064 -0.2239842295
H 1.3931016506 -0.6649860969 -1.2950620590
H -0.7977884132 -1.4739065630 -1.5780338111
H -0.5866764643 -2.8304633978 -0.4429846857
H -3.0729469637 -0.3164972334 -1.6399305666
H -4.7677458600 -2.1926020276 1.6893658205
H 0.0847976072 0.9523621886 -1.7000044062
H -0.9148307236 3.1899072923 -1.7972933634
H -2.3665299663 2.7271833345 2.2235497110
H -1.3600726100 0.4845382199 2.3281294639
