41
CONF1152
C -3.2239119047 3.6533038416 2.0470657268
C -2.0556579697 4.1547403230 1.2011425946
C -2.4864299983 5.3342557371 0.3358044127
N -1.5615131907 3.0787005225 0.3176925589
C -0.7015899491 2.0938341302 0.9803221960
C -0.5475734434 0.8834105840 0.0580439401
O -1.8308749033 0.3841443335 -0.3103316135
C 0.2219435760 -0.2197761974 0.7466317581
O 0.5246492692 -1.2165349391 -0.2330542718
C 1.2024002417 -2.3315194874 0.1692079466
C 1.6528035722 -2.5443544851 1.4733039060
C 2.3470237761 -3.7144174713 1.7803081134
C 2.5926848621 -4.6664532691 0.7996230610
C 2.1354014622 -4.4418669080 -0.4986757404
C 1.4370292887 -3.2875543738 -0.8365438919
C 0.9639107625 -3.0418353705 -2.2507284489
C 1.8669497855 -2.0862869067 -2.9811171512
C 2.5287417856 -2.3794014564 -4.0979236584
H -3.5691723896 4.4447952252 2.7195445411
H -4.0558179001 3.3585408442 1.3984344323
H -2.9490187852 2.7918925581 2.6622056667
H -1.2506952539 4.4950276141 1.8794727156
H -1.6456967260 5.7312281958 -0.2439138533
H -2.8795207941 6.1428251092 0.9583674541
H -3.2723225317 5.0233301340 -0.3615840593
H -1.0290561347 3.5024425319 -0.4372972118
H 0.2919734260 2.4946301876 1.2472259885
H -1.1887291946 1.7660706137 1.9066082928
H 0.0136145390 1.1860520190 -0.8444970466
H -2.3764260845 1.1797239099 -0.4317574462
H -0.3879857115 -0.6513927508 1.5525441359
H 1.1516240760 0.1859173242 1.1718365097
H 1.4705346235 -1.8139605293 2.2519405487
H 2.6939544911 -3.8723774270 2.7967711630
H 3.1312540970 -5.5773406817 1.0385536340
H 2.3219288140 -5.1808884946 -1.2735550859
H 0.9245134100 -3.9935043964 -2.7898202156
H -0.0512329665 -2.6260556958 -2.2229235303
H 1.9725964363 -1.0997991850 -2.5317483268
H 2.4444650406 -3.3575115905 -4.5660738333
H 3.1732290098 -1.6513937316 -4.5811059009
