40
CONF16
C 4.9742661529 1.2962597890 1.0705371612
C 4.5753634230 -0.1475076277 1.2792963986
O 3.1572783530 -0.2796259421 1.6010245365
P 2.0285029463 -0.1483488915 0.4792827770
S 2.4392581721 -0.7879179354 -1.3022556388
O 1.5679956495 1.3740078819 0.6345004801
C 0.9650151200 2.1513095657 -0.4487539612
C 1.9406601896 3.2082609546 -0.9093502927
O 0.9285399709 -1.0281451762 1.3456482347
C -0.3656449651 -1.1833678001 0.9484979272
C -1.1260513142 -2.1443979385 1.6102044790
C -2.4409293091 -2.2724974529 1.1886467299
N -2.9396569144 -1.5100483122 0.1920679554
C -2.1220161387 -0.6233291046 -0.3674019391
N -0.8355262334 -0.4211137308 -0.0194538214
C -2.6185623689 0.2159857004 -1.5211713136
C -2.0174589105 -0.3389959653 -2.8248657028
C -4.1393642866 0.2987509892 -1.6018534891
C -3.3778574012 -3.2613623624 1.8067445786
H 4.5027644048 1.7116406242 0.1758029678
H 6.0599050787 1.3513182165 0.9408251760
H 4.6945266987 1.9067268400 1.9335834036
H 5.0780176204 -0.5814645927 2.1464771294
H 4.7898970738 -0.7601817716 0.3974210031
H 0.6798771076 1.4785150963 -1.2607843393
H 0.0592155540 2.5856725672 -0.0175112346
H 2.2698698129 3.8314035617 -0.0730125446
H 1.4517168380 3.8503354989 -1.6492690338
H 2.8152675077 2.7489546406 -1.3784964560
H -0.7027334784 -2.7492610435 2.4022617083
H -2.2068566905 1.2218363236 -1.3656993385
H -2.3887683255 -1.3530271798 -3.0090756858
H -0.9254249011 -0.3743256022 -2.7723094281
H -2.3080507633 0.2916263744 -3.6707478786
H -4.5735537492 -0.6833221916 -1.8070218899
H -4.5704173011 0.6668445714 -0.6665085142
H -4.4271702729 0.9796315165 -2.4088993676
H -4.2427985997 -2.7379654220 2.2265640661
H -3.7573852020 -3.9419426163 1.0382262559
H -2.8917117387 -3.8409320527 2.5935338791
