43
CONF50
C 5.4528135033 1.9952758200 -0.5806577368
C 5.2614769539 1.1750599848 0.6707442790
O 4.4280556853 0.0260117692 0.3066274118
C 4.1019703868 -0.8022940501 1.2978009851
O 4.4609986680 -0.6863127286 2.4528131164
C 3.2578954454 -1.9845013621 0.8231122150
C 4.1696158226 -3.1726245681 0.5495544304
O 2.5508392295 -1.7185801191 -0.3903167487
C 1.5439375168 -0.7917094380 -0.3655421180
C 0.9262103981 -0.5509953605 -1.5976571861
C -0.1104921545 0.3648325339 -1.6894335688
C -0.5225002525 1.0359873585 -0.5452887785
C 0.0797544713 0.8136939444 0.6791420285
C 1.1236901049 -0.1064792913 0.7763922066
O -1.5242483050 2.0167340376 -0.6454055188
C -2.8161102460 1.6088849285 -0.5828397465
C -3.7833026605 2.6514555448 -0.7269479400
N -5.0647232796 2.4013074312 -0.6887319951
C -5.4405676943 1.0981443249 -0.5042751188
C -6.8127578594 0.7807204499 -0.4598374078
C -7.1780655476 -0.5309261467 -0.2733398342
C -6.2309099607 -1.5612931950 -0.1251753403
C -4.8886941002 -1.2592107058 -0.1674792311
C -4.4641546573 0.0713444774 -0.3583201298
N -3.1298941228 0.3575988237 -0.4015466912
Cl -8.8834496181 -0.9513256535 -0.2162568782
H 6.0730816454 2.8651525801 -0.3462564556
H 4.4923780727 2.3495404409 -0.9655125154
H 5.9548086594 1.4122946716 -1.3577091825
H 4.7450013473 1.7328805285 1.4575088205
H 6.2074044802 0.7952193363 1.0680746886
H 2.5552678312 -2.2264576651 1.6303454189
H 3.5650130594 -4.0341140659 0.2566187787
H 4.8720689196 -2.9341607458 -0.2538237850
H 4.7294995775 -3.4236757317 1.4533197474
H 1.2711270269 -1.0880779428 -2.4748954644
H -0.5977327505 0.5593805068 -2.6391565571
H -0.2598017015 1.3534045228 1.5568942755
H 1.5832973809 -0.2696062781 1.7438203630
H -3.4490026812 3.6771430231 -0.8717284844
H -7.5457331878 1.5714315023 -0.5729101581
H -6.5625390882 -2.5830771203 0.0206077385
H -4.1415259005 -2.0380765052 -0.0561161391
