47
CONF114
C -6.6319549005 2.3641672935 -0.4149512137
O -6.7194221775 1.8331152348 0.9261683525
P -5.3710904627 1.6108077166 1.7705826254
S -4.1028532931 3.0432163377 1.9103167979
O -5.9608176896 1.1169348597 3.1749420373
C -6.8855536904 0.0010553248 3.2283857086
O -4.8507171844 0.2429314805 1.0240530432
C -3.6077989637 -0.3297498584 1.2563272967
C -2.9555076573 -0.8681746299 0.1511063630
C -1.7397753671 -1.5121294715 0.3200217120
C -1.1564871002 -1.5876443602 1.5881128950
C -1.8153930420 -1.0324834852 2.6846416113
C -3.0521313674 -0.4144445451 2.5269949147
S 0.3817689645 -2.4546337962 1.8557004352
C 1.4465099714 -1.7407447639 0.6104944300
C 1.3942308361 -0.3860282866 0.2724771709
C 2.2783431252 0.1308231343 -0.6642901899
C 3.2238201494 -0.7063740343 -1.2417159983
C 3.3001828452 -2.0504895646 -0.9080535185
C 2.3984017989 -2.5702954341 0.0137360586
O 4.0761960234 -0.1945182136 -2.2245029856
P 5.5533621804 0.3520364477 -1.8306251315
S 5.6745870911 1.5435447336 -0.3166350645
O 6.0298434263 0.9144007554 -3.2565397305
C 5.6401959806 2.2448344292 -3.6639887974
O 6.3644090637 -1.0308732954 -1.7601809328
C 7.7070663980 -1.0442371647 -1.2230607739
H -6.0869877810 3.3128263756 -0.4099897996
H -7.6601296146 2.5203342933 -0.7426185003
H -6.1335950279 1.6461528953 -1.0739086586
H -6.4500079412 -0.8812420651 2.7493287253
H -7.0514836786 -0.1928022171 4.2884063911
H -7.8271899401 0.2673906764 2.7416889484
H -3.4163748518 -0.7890318069 -0.8272732119
H -1.2329457113 -1.9472719706 -0.5346380471
H -1.3575622778 -1.0761853363 3.6669543801
H -3.5603094672 0.0185170585 3.3813902033
H 0.6646118092 0.2645107616 0.7422979685
H 2.2574319641 1.1804351774 -0.9338930855
H 4.0448826328 -2.6796514840 -1.3820238346
H 2.4290739529 -3.6257127889 0.2637470498
H 6.1579379294 2.4309496268 -4.6054941273
H 4.5575539552 2.2914635056 -3.8189386863
H 5.9433211967 2.9770440196 -2.9098267100
H 8.3819908374 -0.4828689243 -1.8765108292
H 7.7166443861 -0.6167268056 -0.2165561838
H 8.0037215844 -2.0931776506 -1.1946131116
