35
CONF15
C -0.5579420615 2.7273356899 1.4488343242
C -2.0443577225 2.9122385748 1.6639935155
C -2.8618747185 3.0962784208 0.4087798410
Br -2.3357171440 4.7863980258 -0.4893570848
Br -2.8103092983 1.3027501357 2.5698054083
O -0.3059543817 1.7857890270 0.3877674797
P 0.2880631213 0.3241253016 0.7031016861
O 0.8374448929 0.1500142908 2.0644998782
O 1.2678920999 0.1062294010 -0.5483547208
C 2.2564216935 1.0663119484 -0.9580902087
C 3.6481059463 0.6958392457 -0.4895212463
C 3.8439807036 0.6087225648 1.0051464040
Br 3.6286493437 2.4237824501 1.7891026542
Br 4.1489162611 -1.0881099334 -1.2269917837
O -0.8732759463 -0.6832847222 0.2713790750
C -1.2212228468 -1.8196250256 1.0853454521
C -0.9599501941 -3.1039398391 0.3290931553
C 0.4414632901 -3.2780008310 -0.2057661892
Br 1.7123469693 -3.4456033146 1.3074211611
Br -2.1658925784 -3.2079295046 -1.2613125731
H -0.0594303419 2.4116163322 2.3695629441
H -0.1380097234 3.6827747415 1.1154271027
H -2.2059388894 3.7265770671 2.3734658303
H -2.6843945154 2.2983239612 -0.3102307167
H -3.9224357674 3.1980115982 0.6273051994
H 2.0096103238 2.0635465575 -0.5740489088
H 2.2242068059 1.0904166189 -2.0498686247
H 4.3624689210 1.3887583888 -0.9400569840
H 3.1009354346 -0.0193778737 1.4972008313
H 4.8561146480 0.3027648613 1.2603178218
H -0.6273125712 -1.8179483355 2.0077355814
H -2.2813027218 -1.7304224767 1.3344964715
H 0.7720675531 -2.4219487352 -0.7938021999
H 0.5414462415 -4.1990485777 -0.7755085384
H -1.2565944520 -3.9502049219 0.9523628968
