121
CONF2
C -7.2201325467 0.8965196930 -0.0812569132
C -6.5263395428 2.0037533431 -0.8734860584
C -5.1332185739 2.2969281407 -0.3399855154
C -4.4088757422 3.5123766903 -0.9888447132
C -3.1426633247 3.8074791990 -0.1454869251
C -2.1122098120 4.7565697307 -0.7930371853
C -0.8988081836 4.8683243584 0.1253366686
O -1.0251326170 5.3770540802 1.2367483966
C 0.4540940009 4.4433329253 -0.3999888052
C 0.5262352508 2.9362246791 -0.7120254248
C 0.5710429847 2.0147860261 0.5166140052
C 0.5714358585 0.5214661485 0.0658284069
C -0.7782589364 0.0744222982 -0.5689284485
C -1.5983053136 -0.7713986638 0.4248704353
C -3.0886974320 -0.8334241170 -0.0243089876
C -3.7857821582 0.4324881932 0.4351301110
O -3.8801867119 0.7708251310 1.5995630356
O -4.3185715417 1.1072133295 -0.6008619901
C -3.9060043397 -2.0225557849 0.5019679296
O -0.9947494835 -2.0711164103 0.5103722745
C -1.1087724679 -2.6903947449 1.7882737535
C -0.8876198173 -4.1869392586 1.6293003349
C 0.5795029122 -4.6159785391 1.5265159697
C 1.3526554324 -3.9535625999 2.6772113820
C 1.1506681278 -2.4324794110 2.6673863479
O -0.2546891139 -2.1121708183 2.7632564788
C 1.8131565191 -1.7524718369 3.8468943543
O 2.7436970989 -4.2730632999 2.6097650127
C 0.6883318745 -6.1386681714 1.5891753324
O 1.2396163049 -4.0910906637 0.3521027624
C 0.8253517003 -4.6127792402 -0.9078021291
C -0.5901337687 -0.6330575567 -1.9124855476
O 1.6807602234 0.3715959208 -0.8469718391
C 2.5406177499 -0.7024485460 -0.6120814907
C 3.3780235860 -0.9470799288 -1.8621673662
C 4.3985621103 -2.0526212384 -1.5590377530
C 5.2768161039 -1.6297887326 -0.3816884810
C 4.3868085147 -1.3245450739 0.8189265265
O 3.3999990367 -0.3291508952 0.4686590619
C 5.1598664996 -0.7696426561 1.9978721737
N 5.0687934531 -2.4470018019 -2.8086629707
C 5.6194081683 -3.8013651546 -2.7394078279
C 6.0896416986 -1.4986719543 -3.2633533867
O 2.5448722077 -1.3499613690 -2.9440573142
C 1.8020488807 2.3070153921 1.3732535531
O -0.6585143023 2.2676657389 1.2278935944
C -0.6924874237 1.9353758473 2.6168071183
C 0.7981300345 5.2573597898 -1.6610826369
C -2.6287626858 6.1772668667 -1.0750633624
O -3.6129844229 4.3160292414 1.1118639976
C -4.0834117582 3.2536856120 -2.4518919602
O -5.3028312850 4.6286234150 -0.9286901105
H -7.3172175939 1.1729466213 0.9742658884
H -6.6605427363 -0.0430915965 -0.1355701538
H -8.2229410799 0.7094774825 -0.4762843652
H -6.4672043975 1.7268165153 -1.9320771001
H -7.1053996662 2.9293987462 -0.8120289951
H -5.1752903727 2.4543798239 0.7415068254
H -2.6273843930 2.8516595492 0.0181955401
H -1.7978680975 4.2902760942 -1.7302271199
H 1.1801326571 4.6972945564 0.3776259695
H -0.3184144804 2.6589753495 -1.3547299530
H 1.4336622119 2.7601443001 -1.2958027077
H 0.7665506677 -0.0951590793 0.9528235213
H -1.3817370281 0.9733947738 -0.7451481828
H -1.5616700261 -0.3031916056 1.4156510971
H -3.1297805966 -0.8636927853 -1.1149882339
H -3.4137815525 -2.9626237981 0.2413672956
H -4.0439528823 -1.9743436555 1.5850512094
H -4.8953308269 -2.0166309757 0.0343227833
H -2.1057258170 -2.5019625703 2.1968617104
H -1.3026595694 -4.6739050411 2.5189479499
H -1.4608684774 -4.5526752291 0.7721479817
H 0.9767426711 -4.3537885707 3.6278059432
H 1.5532691141 -2.0357782252 1.7267805093
H 2.8826703732 -1.9717378959 3.8558566385
H 1.3730196644 -2.1082717525 4.7847917144
H 1.6788163262 -0.6680154780 3.7831538537
H 2.9741275908 -4.2494325506 1.6683231300
H 0.0342532750 -6.6091816654 0.8493824364
H 0.3843314783 -6.4895032836 2.5796629222
H 1.7174735246 -6.4595369856 1.4067328137
H -0.2521989672 -4.4830266270 -1.0687787103
H 1.3632657421 -4.0350128097 -1.6645387959
H 1.0845280982 -5.6730495756 -1.0188690201
H 0.0392706564 -1.5190290669 -1.8147363036
H -1.5515950310 -0.9378174459 -2.3341285497
H -0.1068960643 0.0354556446 -2.6273085802
H 1.9790030125 -1.6188006612 -0.3491349422
H 3.8905971663 0.0004318820 -2.0992219524
H 3.8128892911 -2.9315459529 -1.2452943141
H 5.9798515264 -2.4276219057 -0.1156881738
H 5.8569141471 -0.7323085343 -0.6294020367
H 3.8601644680 -2.2458870876 1.1171741913
H 5.6981555740 0.1372518898 1.7034885822
H 4.4849893087 -0.5254073849 2.8226332990
H 5.8862753017 -1.5082698457 2.3489788526
H 4.8327883768 -4.5081414412 -2.4557319910
H 6.0003852934 -4.0863468653 -3.7258127874
H 6.4502390729 -3.8942352045 -2.0171749093
H 6.9856549175 -1.4885006450 -2.6191717692
H 6.4045512872 -1.7746685611 -4.2750203630
H 5.6811487342 -0.4845093498 -3.3011588945
H 3.1364191322 -1.9026913131 -3.4900180165
H 1.7329122150 3.2959977325 1.8329762702
H 1.9206229085 1.5651521861 2.1674062460
H 2.6970175120 2.2695082019 0.7499419704
H -0.3183956359 0.9222375772 2.8148404839
H -1.7433852298 1.9845896070 2.9118986990
H -0.1153415557 2.6496050012 3.2172795071
H 0.1400189384 5.0042800208 -2.4980259023
H 0.7245400094 6.3326300187 -1.4730086993
H 1.8257773720 5.0310673034 -1.9599955648
H -1.8175462556 6.8064348542 -1.4539827279
H -3.4273977733 6.1566088184 -1.8174424219
H -3.0167840171 6.6357400781 -0.1619198665
H -2.8733872650 4.8096140055 1.5090102060
H -3.7103063984 4.1646239885 -2.9243266181
H -3.3268645602 2.4704235271 -2.5488934420
H -4.9796767768 2.9364452033 -2.9903121824
H -5.2174776305 4.9855794523 -0.0298656643
