63
CONF3
C 3.1286619785 -0.5233320122 0.7888035791
C 2.8964442020 -1.6078586530 -0.2594154049
N 1.6939568552 -1.3152343377 -1.0458086790
C 1.8802695357 -0.0576487199 -1.7794686170
C 2.0659323102 1.1093316282 -0.8152018877
C 3.2548243382 0.8399765175 0.1075569102
N 3.4555347534 1.9217465462 1.0711608798
C 2.5801176739 2.3675307905 2.0583775858
C 1.3147718690 1.9509479362 2.4550941851
C 0.7036774767 2.6384406717 3.5080467155
C 1.3361894909 3.7059163676 4.1477914151
C 2.6098868515 4.1261538188 3.7563156865
C 3.2131386490 3.4456506014 2.7117619295
N 4.4426304836 3.6146449467 2.1023052652
C 4.6181594410 2.6902145381 1.0893650380
O 5.5974850563 2.5697255167 0.3551091740
C 1.3593218977 -2.4243919639 -1.9497221134
C -0.0873740080 -2.3521579835 -2.4379596457
C -1.1049295321 -2.5815547372 -1.3140234263
C -2.4317975347 -1.8392673321 -1.5617998175
C -3.5709428121 -2.2974218422 -0.6678550874
C -4.8886553699 -2.1116573875 -1.1015619289
C -5.9726975787 -2.4780070522 -0.3108750818
C -5.7145451069 -3.0348521474 0.9307846692
C -4.4314093047 -3.2393869731 1.4028735810
C -3.3607294780 -2.8652889448 0.5911887484
F -6.7670117590 -3.3993511908 1.7133891105
C -2.2219595243 -0.3372065672 -1.4335153468
C -1.9563587763 0.2366573662 -0.1854308395
C -1.7134443192 1.5997616403 -0.0548555192
C -1.7346708483 2.3806399536 -1.1990077491
C -1.9990421389 1.8605374797 -2.4522853670
C -2.2456724225 0.4915183988 -2.5565824702
F -1.4868091338 3.7139107008 -1.0811602807
H 4.0421528306 -0.7393856853 1.3538967937
H 2.2899170057 -0.5224718850 1.4934100471
H 2.7641288434 -2.5749946004 0.2380612762
H 3.7919775636 -1.6903557049 -0.9100942666
H 2.7562654612 -0.1249235724 -2.4578399944
H 1.0006184137 0.1354172891 -2.4014506685
H 1.1472203043 1.2377256517 -0.2337332707
H 2.2365329351 2.0334850193 -1.3787997696
H 4.1668473101 0.8342900260 -0.5019823734
H 0.8048598817 1.1234921935 1.9777655084
H -0.2851163114 2.3291498779 3.8309118632
H 0.8349184887 4.2181498426 4.9624042973
H 3.1111775786 4.9531934708 4.2478296343
H 5.1401262103 4.3005540961 2.3444649945
H 1.4991829170 -3.3613617821 -1.3948919737
H 2.0495874696 -2.4575443012 -2.8149048915
H -0.2642021181 -1.3789302562 -2.9092737748
H -0.2309768700 -3.0984782368 -3.2281304615
H -1.3039728163 -3.6547748017 -1.2066830526
H -0.6748624484 -2.2357034439 -0.3669524107
H -2.7389393284 -2.0350216982 -2.5973697046
H -5.0711706788 -1.6716443590 -2.0785311054
H -6.9949657159 -2.3406388506 -0.6468413805
H -4.2729919637 -3.6826028310 2.3802168732
H -2.3526064850 -3.0262155241 0.9578901652
H -1.9377023892 -0.3875005054 0.7035820570
H -1.5063842357 2.0513464264 0.9097041980
H -2.0107330933 2.5078953246 -3.3226268874
H -2.4538385726 0.0641987447 -3.5334260280
