45
CONF1
C 1.9122776438 2.6148857394 -1.5974315420
O 2.7697333071 2.6090150813 -0.4300950072
C 2.8504183503 1.4781903443 0.2777232801
C 3.6974503068 1.4581169693 1.3782551965
C 3.7486093089 0.2517324757 2.0736395430
O 4.5606415586 0.1931209069 3.1360868009
C 4.6258458387 -1.0544457664 3.8658919357
N 3.0356830851 -0.8259856388 1.7309861758
C 2.2564006792 -0.6757585593 0.6580427754
N 1.5161803485 -1.8082575255 0.3277562042
C 0.5657966239 -2.0267866099 -0.6577327604
O -0.0302503547 -3.0933313540 -0.7304995367
N 0.3552733296 -0.9750507058 -1.5297393490
S -0.9737176561 -0.9739142851 -2.5764236737
O -1.0675112641 0.4121082409 -3.0396467521
O -0.8261507197 -2.0609309670 -3.5421885140
C -2.3746253039 -1.3226050111 -1.5408334199
C -2.9675500189 -0.4961473393 -0.5809477148
C -4.0906777606 -1.2267567516 -0.1596189599
N -4.1801340665 -2.3959008175 -0.7954534565
N -3.1360179907 -2.4487207348 -1.6313622506
C -2.9544094031 -3.6394209376 -2.4609603347
C -2.5505957969 0.7851681238 -0.0615865331
N -3.3943594175 1.6249567802 0.5544181489
N -2.5865620272 2.6138929153 0.9000519537
C -3.0431842316 3.8060118821 1.6021765357
N -1.3252871948 2.4297767853 0.5368969581
N -1.2818425800 1.2694327426 -0.0739121238
N 2.1253890386 0.4151802762 -0.0962868069
H 2.2486482967 1.8682152965 -2.3219986462
H 2.0125639087 3.6171661540 -2.0121512790
H 0.8747160231 2.4231155675 -1.3123349438
H 4.2830776400 2.3187949848 1.6711932669
H 5.3362813525 -0.8694597367 4.6709239307
H 4.9826358913 -1.8592283419 3.2185944958
H 3.6452463910 -1.3121779231 4.2732288654
H 1.6538562290 -2.6023589102 0.9392378638
H 0.7506404951 -0.0595041890 -1.2627475206
H -4.8207427522 -0.9488107875 0.5878505035
H -3.7120223027 -4.3546393233 -2.1431125655
H -3.0896658057 -3.3910508587 -3.5151980651
H -1.9547796955 -4.0461423064 -2.3046560250
H -3.7640544259 4.3376656693 0.9771644835
H -3.5120219224 3.5098970609 2.5427355590
H -2.1712032465 4.4309417649 1.7914278799
