47
CONF35
C 2.9197100258 -0.1323500216 -5.1382756748
C 3.2563128112 0.2980927976 -3.7659882335
C 2.5243354037 0.4599512897 -2.6172025708
C 3.4920614530 0.9152785139 -1.6648354452
N 4.6878431282 1.0209737671 -2.1869062327
O 4.5389381480 0.6182204783 -3.5246045594
C 3.2730257388 1.2724812514 -0.2502375682
C 2.6759666499 2.4922228944 0.1019484868
C 2.3666362191 2.8060728001 1.4182893845
C 2.6639841488 1.8871896722 2.4171612660
C 3.2619458132 0.6703783014 2.1142218908
C 3.5557716980 0.3746506282 0.7882864052
Cl 4.2456946935 -1.1843128312 0.4079359841
Cl 2.2726296980 3.6300961381 -1.1546248199
C 1.0723968565 0.2430037547 -2.4845036837
O 0.3289880883 0.1173935193 -3.4504439011
N 0.6116629906 0.1935923163 -1.1911531169
C -0.7795241677 0.2045219912 -0.8753368910
C -1.3823097776 -1.0134362343 -0.0988237209
N -1.5652334163 -0.1334710162 1.0655983521
C -1.1726470350 1.0192396493 0.3859880351
O -1.1850609245 2.1773991910 0.7071161076
C -2.7672302944 -0.2804498363 1.8583402897
C -3.5622136230 -1.5090638431 1.2723553984
S -3.0868830968 -1.5293160139 -0.5379550488
C -5.0691512976 -1.3039266952 1.3827547817
C -3.1402213126 -2.8246195941 1.9307716181
C -2.4464952050 -0.4782821442 3.3331045250
O -1.3864080450 -0.8139389771 3.7919963992
O -3.5509631553 -0.2350135137 4.0866092144
H 3.6590028810 -0.8514762975 -5.5018780228
H 1.9202425579 -0.5657059422 -5.1474724221
H 2.9267259519 0.7307839222 -5.8130559914
H 1.8828701604 3.7471572727 1.6475076773
H 2.4150109773 2.1180724207 3.4470914290
H 3.4857285732 -0.0517268393 2.8896266543
H 1.2692108483 0.3135086886 -0.4349034080
H -1.3567624794 0.4755707840 -1.7632584380
H -0.7084739756 -1.8603988507 0.0603637333
H -3.3781762373 0.6262716196 1.7606967863
H -5.5993743628 -2.1474100752 0.9314178284
H -5.3822332064 -0.3852902041 0.8795610648
H -5.3590372868 -1.2461288018 2.4361476411
H -3.4531641173 -2.8432968176 2.9816722066
H -3.6184198250 -3.6617741396 1.4178801182
H -2.0571280769 -2.9698089018 1.8986789587
H -3.2995845330 -0.3909251722 5.0111357195
