45
CONF190
C -5.7988428747 1.1680175066 1.2780808034
O -5.3941933616 1.2902200496 -0.0945956192
N -4.0309626902 1.1802775053 -0.1657590533
C -3.5206043239 1.2859656726 -1.3553539153
C -4.1802661013 1.5045695721 -2.6193270910
C -3.7068100751 1.5979189389 -3.9102328599
C -4.8319360495 1.8101199285 -4.7443246583
C -5.9187420913 1.8350125371 -3.9226843524
O -5.5505811551 1.6515289617 -2.6336107344
C -2.0109188222 1.1559597388 -1.3602875152
O -1.3288376060 1.3274338996 -2.3616344835
N -1.4532401974 0.8277309132 -0.1588246016
C -0.0337976884 0.7793883382 -0.0163914263
C 0.6986136077 -0.5868926194 -0.2019415765
N 1.1210332287 -0.4972538544 1.1953906870
C 0.4901114864 0.7300543539 1.4378743961
O 0.4241241795 1.4373659698 2.4024930619
C 2.1945155384 -1.1411564962 1.7902182383
C 3.0539219221 -1.8682086100 1.0440333148
C 2.9448837890 -2.0037461599 -0.4538335247
S 2.1393843957 -0.5994265562 -1.3249182153
C 4.1528804156 -2.6851205151 1.6476722492
O 5.4608213637 -2.3050697940 1.1112560386
C 5.9473294360 -1.1078410002 1.5117768160
O 5.4343930754 -0.3774401173 2.3477355234
N 7.0882653047 -0.8052036347 0.8475061593
C 2.1685462986 -1.0738259731 3.3069102605
O 1.1601615914 -1.3624276952 3.9007018435
O 3.2913992808 -0.7074560527 3.9223393041
H -6.8853965882 1.2667154978 1.2644149732
H -5.5126227093 0.1894973824 1.6775460483
H -5.3532581710 1.9650536630 1.8819867350
H -2.6726593665 1.5260977056 -4.1989031992
H -4.8344339841 1.9308382936 -5.8166276327
H -6.9759253288 1.9678029769 -4.0912362661
H -2.0559535132 0.7407035734 0.6472191764
H 0.4467439908 1.5725975482 -0.6010753224
H 0.0385674673 -1.4391335730 -0.3946869605
H 3.9506745496 -2.0733771171 -0.8817997065
H 2.4244742930 -2.9363148551 -0.7143039121
H 4.1751133868 -2.6431554073 2.7384563907
H 4.0695125221 -3.7319571863 1.3381673116
H 7.6136192377 -0.0118805044 1.1701985697
H 7.5411569066 -1.5006004253 0.2805805926
H 4.0197347210 -0.5144139874 3.2797939320
