63
CONF53
C 1.6741308163 -1.2245437086 -0.2189355495
C 0.5636426551 -1.5914808163 -1.1978001329
N 0.0305527217 -0.3951762371 -1.8600615177
C 1.0920518618 0.2520979205 -2.6386160521
C 2.2268132846 0.7111030110 -1.7275769297
C 2.7889323274 -0.4837601696 -0.9572771924
N 3.8825457271 -0.0984371159 -0.0606194544
C 5.2011146720 -0.5297468379 -0.1594318475
C 5.8339326810 -1.3797059295 -1.0554618460
C 7.2006923348 -1.6110793555 -0.8708901961
C 7.9066854498 -1.0118597347 0.1745180376
C 7.2712073341 -0.1551076925 1.0778872068
C 5.9174364516 0.0732426927 0.8938650800
N 5.0108090098 0.8484102995 1.5917412189
C 3.7481277269 0.7619731764 1.0262310539
O 2.7287184882 1.3311032646 1.4125981352
C -1.1273669913 -0.7244089154 -2.7041827448
C -2.4035479287 -0.9197748188 -1.8856609024
C -2.8832610126 0.3808440276 -1.2371327178
C -3.8500513746 0.1551517632 -0.0631123031
C -3.2325177408 -0.6025792272 1.1030310895
C -1.8651951439 -0.5637677760 1.3893552069
C -1.3382322572 -1.2323121310 2.4929708301
C -2.2045419826 -1.9409270247 3.3053108998
C -3.5656043088 -2.0123814344 3.0602189250
C -4.0673623370 -1.3371684925 1.9517046243
F -1.6994755079 -2.5996340746 4.3840368711
C -4.4310179227 1.4782446530 0.4081432919
C -3.6330390409 2.4126635840 1.0765842436
C -4.1468188538 3.6405743853 1.4810239250
C -5.4766192831 3.9160987724 1.2074505141
C -6.3038116095 3.0233733749 0.5509560945
C -5.7653356562 1.8004468001 0.1526688863
F -5.9890732409 5.1122406766 1.6068397579
H 2.0739911576 -2.1330395062 0.2454206234
H 1.2719325669 -0.5847178745 0.5729031862
H -0.2418378261 -2.0930656612 -0.6524464340
H 0.9506435638 -2.3128751597 -1.9479033626
H 1.4948076824 -0.4316161358 -3.4154182523
H 0.6667369652 1.1184600471 -3.1574387224
H 1.8499087935 1.4569100858 -1.0202083007
H 3.0195078870 1.1739216902 -2.3260731100
H 3.2308569942 -1.1766122811 -1.6830174925
H 5.2986573725 -1.8513173154 -1.8718427733
H 7.7194433957 -2.2717000544 -1.5578728109
H 8.9667500195 -1.2123680482 0.2903000984
H 7.8130267459 0.3139200317 1.8923120053
H 5.2037611642 1.4095949172 2.4062017457
H -0.9283468309 -1.6243845055 -3.3174152717
H -1.2817930880 0.1082697297 -3.4027862721
H -3.1877817070 -1.3151555635 -2.5426684860
H -2.2376775041 -1.6827280449 -1.1165333710
H -2.0209574078 0.9636665459 -0.8937077056
H -3.3927683395 0.9991018438 -1.9861670839
H -4.6884887150 -0.4505277782 -0.4304791280
H -1.1854239730 -0.0209657924 0.7400514722
H -0.2762237609 -1.2081528540 2.7142763773
H -4.2105029022 -2.5849125358 3.7182305422
H -5.1331718415 -1.3812712226 1.7431913691
H -2.5944943238 2.1796698752 1.2932713766
H -3.5347729970 4.3695757903 2.0013287309
H -7.3408000931 3.2774497117 0.3591258777
H -6.3995009563 1.0861906441 -0.3650104444
