54
CONF15
C -1.1037083885 0.9078018337 -3.2575152152
C -0.7938445849 -0.5802231343 -3.1369408893
C -0.1361066294 -1.0334255943 -1.8522225198
O 0.4574615428 -2.0853021500 -1.7477797430
O -0.3306973146 -0.1377158153 -0.8646763502
C 0.0923534565 -0.3902575384 0.5210305174
C -0.6115837431 -1.6785391459 1.0175014158
C -2.0579069013 -1.7861866450 0.5973675952
C -2.4316198188 -2.7082658377 -0.3840746706
C -3.7551394132 -2.8092229061 -0.8041962841
C -4.7294936690 -1.9872997048 -0.2476707173
C -4.3710991071 -1.0734245033 0.7395624123
C -3.0490764682 -0.9754912112 1.1600348651
C -0.3609026332 0.8546588062 1.2804217932
C -0.4337572446 0.8512720942 2.6781227996
C -0.7984526619 1.9936833138 3.3823075090
C -1.1013886244 3.1697082402 2.7046115938
C -1.0315680870 3.1872033246 1.3166713936
C -0.6633736508 2.0447486973 0.6125565285
C 1.6420438357 -0.5340484585 0.5528103637
C 2.2111877910 -0.8540942140 1.9347876537
C 2.3354482700 0.7126246185 -0.0190603261
N 3.7294703605 0.4398579343 -0.3807884311
C 4.4936586879 1.6808672529 -0.4570913216
C 3.8125713016 -0.2726145189 -1.6538015446
H -0.1990224064 1.5106364748 -3.1325333654
H -1.8292726384 1.2215095343 -2.5037765786
H -1.5208915137 1.1256819865 -4.2447563259
H -0.1493649811 -0.9292858194 -3.9492658686
H -1.7187623961 -1.1689706913 -3.2066659235
H -0.0581347560 -2.5376663922 0.6319343282
H -0.5387638281 -1.7103934341 2.1071306971
H -1.6740962542 -3.3499918338 -0.8239043449
H -4.0240525878 -3.5356735895 -1.5650507244
H -5.7620050724 -2.0639932988 -0.5733293384
H -5.1255481706 -0.4347570124 1.1884700235
H -2.7841574650 -0.2592923843 1.9307623330
H -0.2187867162 -0.0516707269 3.2377394651
H -0.8513677451 1.9585682913 4.4658817381
H -1.3917639784 4.0601121334 3.2526508131
H -1.2680932508 4.0954817363 0.7712010951
H -0.6199806947 2.0771877154 -0.4678844975
H 1.8546458355 -1.3847336868 -0.0983411728
H 2.0378977655 -0.0371703766 2.6420682556
H 3.2919949568 -0.9819268480 1.8338613133
H 1.7984899289 -1.7767482066 2.3535158447
H 2.3251343772 1.4983929455 0.7468196845
H 1.7727424239 1.1085652503 -0.8865705395
H 4.1021811000 2.3834635508 -1.2205008785
H 5.5357509278 1.4570150741 -0.7090429469
H 4.4795103250 2.1883754010 0.5129600990
H 3.4038920911 0.3228562223 -2.4962487132
H 4.8584152079 -0.5072972359 -1.8774458311
H 3.2589339976 -1.2145907981 -1.6116472648
