22
CONF2
C -0.7695230906 -0.0154700194 0.0088294375
C -1.4825042436 0.7822947716 0.9047472610
C -2.8794894404 0.7844139290 0.9137275726
C -3.5733539459 -0.0275554282 0.0080666620
C -2.8720158282 -0.8335673532 -0.8971714136
C -1.4751012644 -0.8193291879 -0.8874616688
Cl -0.5823605883 -1.8070913788 -1.9972280326
Cl -3.7265871693 -1.8343699409 -2.0154221982
Cl -5.3000365687 -0.0348967843 0.0074871135
Cl -3.7432989238 1.7777605675 2.0315354098
Cl -0.5989940412 1.7776881354 2.0150839339
C 0.7119873765 -0.0090284516 0.0093669662
C 1.4248380896 -0.9006127682 0.8120747448
C 2.8218241784 -0.9034517015 0.8212549659
C 3.5158118396 0.0038308319 0.0112120841
C 2.8146068429 0.9047128553 -0.7997779036
C 1.4176964700 0.8889720553 -0.7924822259
Cl 0.5250950063 1.9940544522 -1.7856241355
Cl 3.6693251272 2.0250519213 -1.7980992285
Cl 5.2424944818 0.0116667876 0.0122595050
Cl 3.6855068397 -2.0158600635 1.8207812396
Cl 0.5411804297 -2.0139332126 1.8039844557
