38
CONF1713
F -1.7252173244 0.4843020059 1.1864564373
C -1.6138984914 -0.1863423231 0.0224253650
F -2.1946946338 -1.3978876367 0.1566476692
C -0.1086120072 -0.3679489437 -0.3404944844
F -0.0232992539 -0.6886735678 -1.6530566309
F 0.5341010525 0.8009410869 -0.1222430230
C 0.6037284928 -1.4936893825 0.4907419827
F 0.2012211645 -1.4011042409 1.7789005738
F 0.2312097018 -2.6962671625 -0.0027418029
C 2.1697058220 -1.3952385694 0.4525157880
F 2.5604688191 -1.0821429306 -0.8041029011
F 2.5619009637 -0.4105927120 1.2919530203
C 2.8816919601 -2.7282042738 0.8687843828
F 2.2443765596 -3.2689731515 1.9328195275
F 2.8264635137 -3.5925978997 -0.1668373718
C 4.3861242079 -2.5498087953 1.2587854584
F 4.9483997639 -3.7609686735 1.3667535111
F 5.0328215442 -1.8534871020 0.3135780234
F 4.5065050048 -1.9182409534 2.4308627207
S -2.5862293043 0.7973566508 -1.3235943675
O -3.0103164121 -0.2190805874 -2.2909255354
O -1.6788181666 1.8927343444 -1.6838120757
N -3.8860023293 1.4042676767 -0.5445871453
C -5.1769146901 0.6942461957 -0.5269580783
C -5.3902148164 -0.1057067056 0.7596350798
O -6.7029725783 -0.6682825745 0.7815301829
C -3.7874598234 2.7192717065 0.1381205003
C -4.2992451297 3.8556695151 -0.7350293454
H -5.9578369981 1.4581333149 -0.6241253900
H -5.2477461632 0.0375615072 -1.3967393306
H -4.6928246237 -0.9477954838 0.7978471393
H -5.2117944473 0.5270967639 1.6398712503
H -7.3330703684 0.0523193664 0.9097661991
H -4.3687779813 2.6376600328 1.0620964616
H -2.7484558198 2.8926207962 0.4264195682
H -3.6857810059 3.9571698133 -1.6338832223
H -5.3385585329 3.6920572330 -1.0334249462
H -4.2515275549 4.7924260263 -0.1714804414
