46
CONF3
C 4.3321487733 -3.4969142213 -1.0673274725
C 2.8913703332 -3.0537994732 -0.8347753932
C 2.3181796308 -2.1235825134 -1.9675887074
N 1.3034530786 -1.3116074947 -1.3410344343
C 1.5230915947 -0.8774701329 0.0422711659
S 2.8335997171 -1.9875877478 0.7105665117
C 0.0086525750 -1.1743950573 0.3251996543
C -0.0487699877 -1.5792615860 -1.1698303962
O -0.8847578138 -2.0268982000 -1.9183955657
N -0.8626153234 -0.1540652370 0.8183584283
C -1.1285654920 0.9708206307 0.1071142816
O -0.6504133120 1.1733849349 -1.0074977746
C -2.0538664554 1.9425938948 0.7783680253
C -1.5422936151 2.9170351591 1.6419187890
C -2.3931346722 3.8644629473 2.2191973774
C -3.7499696533 3.8148369779 1.9145288906
C -4.2837192733 2.8565451019 1.0581981098
C -3.4221432127 1.9156466403 0.4866171288
O -3.8090071620 0.9263188391 -0.3627070547
C -5.2013216677 0.8427779269 -0.6984867806
O -0.1983268258 2.8549244733 1.8487556300
C 0.3850673627 3.8243647479 2.7310516265
C 3.3861072452 -1.2386000613 -2.5917564219
O 3.7078605794 -0.1496645095 -2.1736916192
O 3.9427105925 -1.8326145953 -3.6616587823
C 1.9758466399 -4.2679574368 -0.6783695527
H 4.6650102257 -4.1246485719 -0.2360810327
H 4.3897381608 -4.0917283965 -1.9845801310
H 5.0148688895 -2.6472535887 -1.1508417110
H 1.8213712241 0.1669278795 0.1587838515
H -1.2759949296 -0.2598468503 1.7328279300
H -2.0165136436 4.6269308013 2.8882402779
H -4.4145157396 4.5487889866 2.3597581379
H -5.3448950068 2.8501155260 0.8467069924
H -5.2875463069 -0.0050347484 -1.3781148510
H -5.5376054144 1.7561165447 -1.2019580733
H -5.8093056371 0.6643017970 0.1955389234
H -0.0356026161 3.7389833938 3.7393135501
H 0.2355107340 4.8404750650 2.3492241610
H 1.4501461908 3.5936302402 2.7556306807
H 4.6460218643 -1.2532815759 -4.0039686663
H 2.2834797886 -4.8594162325 0.1877680988
H 2.0435700535 -4.8969562341 -1.5736675658
H 0.9310959424 -3.9776997870 -0.5383365589
H -0.0984217026 -2.0703682988 0.9429416297
H 1.8638792361 -2.7452808398 -2.7454775187
