56
CONF7
C 0.4940575230 1.5389576901 -1.1261236708
C -0.6850513927 1.8790115024 -0.2299707768
N -1.0115714872 0.7406572088 0.6429755072
C -1.3350542667 -0.4129958426 -0.2116511788
C -0.1585601744 -0.7544778796 -1.1093627037
N 0.1832627554 0.3822962362 -1.9715467985
C 1.3241533119 0.0539542742 -2.8358292479
C 0.9423298447 -0.9722093627 -3.8581411253
C 1.6977602738 -1.9550820839 -4.3728625459
C 3.1053054963 -2.2598693652 -4.0981216864
C 4.0631807188 -1.2746430825 -3.8070353372
C 5.3854978109 -1.6222386493 -3.5469025508
C 5.7833637868 -2.9571304745 -3.5783023637
C 4.8500262865 -3.9445494666 -3.8924822035
C 3.5306627946 -3.5981649218 -4.1581111917
C -2.1403613246 1.0652830160 1.5305574771
C -1.8435290411 2.2818455186 2.3946805371
C -0.6240504833 2.4165190771 3.0646237162
C -0.3784082926 3.5089468326 3.8893574791
C -1.3774985250 4.4577655963 4.0368588540
C -2.5983560767 4.3629297931 3.3943676725
C -2.8194689110 3.2635698158 2.5665255654
F -1.1431534411 5.5290277437 4.8421504993
C -2.4974460711 -0.1044316443 2.4354172912
C -3.8378819468 -0.4131933215 2.6677119461
C -4.2012699423 -1.4385656454 3.5388132464
C -3.1926241253 -2.1493758588 4.1632498121
C -1.8492595533 -1.8807496872 3.9560044396
C -1.5100272616 -0.8482262870 3.0879754814
F -3.5317489201 -3.1592709022 5.0095372011
H 0.7167489660 2.3989446138 -1.7687653205
H 1.3854699343 1.3483228144 -0.4951828529
H -1.5553825154 2.1596114606 -0.8559717175
H -0.4237194738 2.7452765519 0.3849721368
H -1.5633515429 -1.2781697525 0.4179269099
H -2.2271669124 -0.2038188032 -0.8345745062
H -0.4230888805 -1.6141780575 -1.7355306262
H 0.7064139976 -1.0502668599 -0.4811978069
H 1.6335902338 0.9819248525 -3.3402545219
H 2.1926020394 -0.2886167002 -2.2411022896
H -0.0930803663 -0.9080334626 -4.1912736144
H 1.2099966241 -2.6446784477 -5.0609035525
H 3.7824642056 -0.2274585673 -3.8218562854
H 6.1111506748 -0.8440247879 -3.3302040622
H 6.8156680670 -3.2247264070 -3.3756132796
H 5.1531248894 -4.9863748876 -3.9344537029
H 2.8081503259 -4.3708445448 -4.4072528704
H -3.0415558158 1.3029414386 0.9327509861
H 0.1506919761 1.6689907484 2.9302954668
H 0.5670546299 3.6280860645 4.4076623134
H -3.3510595231 5.1317238877 3.5318772498
H -3.7691264327 3.1731954360 2.0466808414
H -4.6147813938 0.1540006767 2.1626169820
H -5.2410490065 -1.6861752807 3.7233524935
H -1.0911963812 -2.4697308492 4.4612303323
H -0.4628492837 -0.6315109454 2.9052202475
