47
CONF149
C -4.5145229988 -0.2784754015 -2.4752271703
O -4.5142169734 -0.6920753465 -1.0893627678
P -5.2827048740 0.1865598215 0.0095056919
S -5.1481733924 2.1086749903 -0.1227502942
O -6.7504133561 -0.4588568331 -0.0451287796
C -7.8267349601 0.1473220679 0.7047919120
O -4.7261124916 -0.4987540447 1.3731286240
C -3.4548810658 -0.1764704072 1.8551542205
C -3.3244377401 0.8207561316 2.8089892557
C -2.0608052239 1.1164440924 3.3092138770
C -0.9468151415 0.4004061238 2.8687264095
C -1.1008155311 -0.6158017585 1.9216305256
C -2.3559997286 -0.8966829139 1.4013090678
S 0.6430110184 0.7647339180 3.5993819632
C 1.7216315804 0.7623414271 2.1744610868
C 2.9922054513 0.1999443342 2.3088596789
C 3.8858321406 0.2277788625 1.2431629309
C 3.4873410700 0.8013932534 0.0453356459
C 2.2257876063 1.3627123651 -0.1078215535
C 1.3464193344 1.3547970480 0.9652136521
O 4.3902736925 0.8625178755 -1.0204472208
P 4.4582196883 -0.3392512431 -2.1125258484
S 2.8389712147 -0.8930461888 -2.9856750518
O 5.2266482974 -1.4486461742 -1.2182786023
C 5.2907568423 -2.8146673104 -1.6854116097
O 5.5576311638 0.2507893369 -3.1167151965
C 6.8192884731 0.7499010146 -2.6079781139
H -5.5187623284 -0.3784055739 -2.8982807306
H -3.8257100883 -0.9526192633 -2.9851123584
H -4.1706260551 0.7559473885 -2.5620912670
H -8.7275758281 -0.4007475820 0.4269726995
H -7.6442636106 0.0437928304 1.7791153899
H -7.9256201129 1.2042685762 0.4404762651
H -4.1988956129 1.3754989697 3.1284374739
H -1.9380093615 1.9155184648 4.0325234546
H -0.2372452251 -1.1793658479 1.5852219973
H -2.4947926486 -1.6744258716 0.6590850829
H 3.2791032257 -0.2693489156 3.2440444272
H 4.8740031823 -0.2094167143 1.3268186172
H 1.9479444011 1.8018215287 -1.0589642047
H 0.3628075743 1.7997290774 0.8608453901
H 5.7926368884 -3.3758826720 -0.8960431998
H 4.2828532970 -3.2051188586 -1.8507328244
H 5.8682314916 -2.8773418880 -2.6136402651
H 7.4402961276 0.9327733891 -3.4854694678
H 6.6605843314 1.6810064171 -2.0579514657
H 7.2956551765 0.0079717214 -1.9597513457
