49
CONF79
C -1.9133101000 -2.0061059953 4.6909047063
C -2.9179221894 -1.3886142010 3.9481841836
C -2.7513895366 -1.1639462021 2.5858985100
C -1.5589997530 -1.5539531407 1.9751320579
C -0.5383638731 -2.1555827207 2.7095808113
C -0.7287286899 -2.3916761056 4.0675149592
N -1.3596404944 -1.3448616771 0.5823125389
C -1.1531058779 -2.3550034428 -0.3380810996
O -0.7529038307 -3.4755291478 -0.0732561645
C -1.5608946564 -1.8172878899 -1.6933195198
C -2.0539731374 -0.4146280148 -1.4042193049
O -2.3872681592 0.4362773061 -2.2088762980
N -1.9788654262 -0.2225885185 -0.0334078509
C -1.7767680948 1.0617103923 0.5551734523
C -2.8022249182 1.9996688737 0.4689223688
C -2.6063019573 3.2688130624 1.0055542436
C -1.4095070806 3.5860643438 1.6438024008
C -0.3973931755 2.6320616693 1.7356996286
C -0.5706598638 1.3662868466 1.1864444921
C -0.4224938885 -1.8210250410 -2.7267448868
C 0.7607453465 -0.9900330625 -2.2495110631
S 2.0622277089 -0.9346940285 -3.5682361888
O 1.4416750329 -0.1585222431 -4.7320564661
C 3.1619822834 0.2132692865 -2.6798042727
C 4.0169544974 -0.2886063013 -1.7027198592
C 4.8611557534 0.5941440433 -1.0346203476
C 4.8536012849 1.9505436854 -1.3586134335
C 4.0011484814 2.4302747748 -2.3509977345
C 3.1463592686 1.5584397457 -3.0228101617
H -2.0514391804 -2.1803929631 5.7529280668
H -3.8427212098 -1.0847512932 4.4279915884
H -3.5371823081 -0.6936607009 2.0049182491
H 0.3903751980 -2.4264658163 2.2214327861
H 0.0615966534 -2.8643567852 4.6416729004
H -2.3871675233 -2.4345094896 -2.0674300022
H -3.7381434554 1.7329773012 -0.0086776065
H -3.4002321509 4.0053977900 0.9369003667
H -1.2665835130 4.5724453964 2.0727948976
H 0.5375967307 2.8740645510 2.2307043699
H 0.2193267555 0.6251440974 1.2450250790
H -0.1203639829 -2.8589363982 -2.8991172732
H -0.8172443168 -1.4189089211 -3.6645943125
H 0.4902530358 0.0544946893 -2.0518926984
H 1.2421399321 -1.4187182031 -1.3623825632
H 4.0251654255 -1.3483258691 -1.4627684050
H 5.5307685526 0.2196943198 -0.2670038943
H 5.5189000712 2.6335028050 -0.8400940648
H 4.0008505251 3.4854216335 -2.6059101693
H 2.4789688112 1.9109886653 -3.8026858931
