51
CONF16
C 5.8136946853 0.2497900041 1.9008189293
C 5.1469676830 -1.0936851740 2.0113426814
C 5.7675375579 -2.1801686104 2.5374424440
C 7.1551329966 -2.2086601040 3.0977588906
O 7.2414405717 -1.6004238312 4.4133668401
C 3.7830085185 -1.2274455268 1.5480004918
C 3.0230895253 -0.2326544648 1.0137842572
C 1.6810045153 -0.4390064770 0.5690411508
C 0.8303872375 0.4852818156 0.0218313910
C 1.2024287534 1.9248275965 -0.1934251847
C -0.4886046768 0.0480462821 -0.3718457060
C -1.4489865494 0.8357957568 -0.9149088398
C -2.7880306548 0.4092782156 -1.3139450173
C -3.0295704511 -0.7711074952 -1.9409364389
C -1.9626990069 -1.7000227981 -2.4519630307
C -4.4217814123 -1.2668261030 -2.2338272930
C -5.5058909380 -0.5116173266 -1.4800247203
C -5.2442680406 0.9800361552 -1.6187746988
C -3.9127979980 1.4053752215 -0.9748352336
C -3.5785399249 2.8122145327 -1.5094749696
C -4.0690415554 1.4929231986 0.5549063837
H 5.2773888566 0.9913663177 2.5038863979
H 6.8474651096 0.2233170635 2.2448015714
H 5.7985402611 0.6076731595 0.8655172712
H 5.1998415386 -3.1079199797 2.5987253859
H 7.5142580853 -3.2447819360 3.1455226580
H 7.8557274684 -1.6413490415 2.4778559557
H 6.5736470088 -2.0278115518 4.9653618172
H 3.3409018177 -2.2198203139 1.6418327362
H 3.4532353037 0.7604352219 0.9200841539
H 1.2986731110 -1.4546963957 0.6782857278
H 1.1402880971 2.1844275181 -1.2565367426
H 0.5046008394 2.5847039265 0.3351096919
H 2.2093993105 2.1536688403 0.1537101627
H -0.7110913178 -1.0022983018 -0.1921582492
H -1.2322010079 1.8967045856 -1.0110624528
H -2.2668988080 -2.0929602541 -3.4302327325
H -1.8419304730 -2.5700971010 -1.7932500957
H -0.9894630145 -1.2158151044 -2.5499219835
H -4.5994366135 -1.1992451609 -3.3191647047
H -4.4579574050 -2.3407055174 -2.0016209294
H -6.4951112124 -0.7711891557 -1.8728223338
H -5.4943960541 -0.8018318789 -0.4222344163
H -6.0529097488 1.5718173889 -1.1725047313
H -5.2155606957 1.2310176607 -2.6887299221
H -3.3137521160 2.7754064129 -2.5718592977
H -4.4594099379 3.4545996544 -1.3989492605
H -2.7592868577 3.2859037462 -0.9614711199
H -4.3645306477 0.5297183806 0.9829383711
H -3.1241827234 1.7905086443 1.0219213121
H -4.8303310216 2.2373012986 0.8157407320
