41
CONF24
C -3.2248425720 -1.5701994677 1.0003819867
C -3.7654201360 -0.8905115306 -0.2597890382
C -5.2446352875 -0.5411246959 -0.0867519199
C -2.9029362819 0.3429679578 -0.6568846412
C -2.7113048550 1.3059663306 0.5295167856
O -3.5372677390 1.9562687271 1.1285098753
N -1.3436535142 1.2843577080 0.7746204753
C -0.7242421339 0.4497422479 -0.1329421434
N -1.5368440106 -0.1055489000 -0.9652582290
C 0.7397425135 0.2774413244 -0.0757699845
C 1.5267224010 -0.5598507133 -0.9039727609
C 2.9001349424 -0.5406636319 -0.6553552959
C 3.4582001653 0.2467737129 0.3404073117
C 2.5898047251 1.0273093537 1.1010220008
N 1.2775343072 1.0374956943 0.8948656378
C 4.9411791528 0.2357884008 0.5683025432
O 5.2735618743 1.1168554096 1.6192216805
C 6.6716614842 1.1395513796 1.8700222968
C 1.1390218181 -1.5153789286 -2.0455923942
O 2.0220614597 -2.1523139362 -2.5846113311
O -0.1177371720 -1.6301969954 -2.4162322693
C -3.4751291881 1.1068766989 -1.8532261734
H -3.7653219737 -2.5031148370 1.1833508337
H -3.3655700763 -0.9301828590 1.8791166290
H -2.1625388856 -1.8145453264 0.9096467946
H -3.6610419015 -1.5863142339 -1.1038927302
H -5.3792171703 0.2344641551 0.6728148830
H -5.7895974143 -1.4333599123 0.2364142368
H -5.6999633813 -0.1970344597 -1.0185086255
H -0.8420986628 1.8051923970 1.4788295317
H 3.5180720939 -1.1776878274 -1.2811196816
H 2.9682613238 1.6604934480 1.8971495952
H 5.4554145683 0.5283693097 -0.3651896235
H 5.2667300650 -0.7939585281 0.8032370797
H 6.8379827293 1.8415038093 2.6891699232
H 7.0404243342 0.1455101918 2.1645719332
H 7.2302853770 1.4777678913 0.9843352366
H -0.7691739180 -1.0355434338 -1.8825115822
H -2.7626378413 1.8616481343 -2.1969854562
H -3.6755065396 0.4161610890 -2.6773366472
H -4.4001140615 1.6096652112 -1.5635769438
