53
CONF231
C 2.1666188441 2.9912933625 -2.0674944206
C 1.5331356287 1.6534726090 -1.6698964822
C 1.6282135846 0.6890081328 -2.8671726508
C 0.0435104945 1.8676194853 -1.3642892401
O -0.0900872668 2.7637510783 -0.2605567589
C -1.3780421474 2.6858022995 0.3715385899
C -1.5334684380 1.3981498467 1.1418888690
C -2.3143650303 0.3625462058 0.6322611787
C -2.3711862490 -0.8558302399 1.3064373945
C -1.6838385955 -1.0482071805 2.4990477192
C -0.9227730725 -0.0011724090 3.0156588693
C -0.8367434213 1.2104909486 2.3399020196
O -3.1686628585 -1.8959280869 0.8582107041
C -3.2295667099 -2.1479248060 -0.5023637557
C -4.4650824867 -2.5226572683 -1.0209954271
C -4.5637418349 -2.8538024888 -2.3699627096
C -3.4416984036 -2.8030166136 -3.1943927672
C -2.2102116472 -2.4293748917 -2.6581696172
C -2.0943937681 -2.1049277696 -1.3099880761
C 2.1920303637 1.0258892349 -0.4403729301
C 1.7448634778 -0.2167039491 0.0268997159
C 2.2876496925 -0.8155929740 1.1569028902
C 3.2945824741 -0.1454126809 1.8339260893
C 3.7835849748 1.0725783310 1.3986955430
C 3.2246065382 1.6522294745 0.2618402680
O 3.9225029787 -0.7298641059 2.9603925583
C 3.2382983714 -0.8105325518 4.1119950657
F 4.0531165547 -1.3413503865 5.0312181654
F 2.1378733317 -1.5949725214 4.0318326607
Br 2.6088072139 0.9701842373 4.7999735174
H 3.2207127422 2.8633492791 -2.3340771473
H 2.0954445097 3.7311361329 -1.2663257512
H 1.6427329068 3.3890516760 -2.9423397851
H 1.1348155899 -0.2654630744 -2.6614079534
H 2.6773163272 0.4887987419 -3.1051777064
H 1.1539072961 1.1351326807 -3.7475864287
H -0.4621055894 2.2876835998 -2.2495330971
H -0.4246622814 0.9009074422 -1.1329302409
H -2.1771094366 2.7853770594 -0.3780111093
H -1.4205091016 3.5451700086 1.0472605480
H -2.8700088946 0.4989581858 -0.2908502716
H -1.7516995265 -2.0036176037 3.0087098622
H -0.3837076007 -0.1424151843 3.9469157499
H -0.2225211062 2.0143792989 2.7356051103
H -5.3307950573 -2.5514975244 -0.3675622889
H -5.5266497002 -3.1456417296 -2.7774625098
H -3.5245426649 -3.0558990248 -4.2461907606
H -1.3274242605 -2.3970308559 -3.2893969812
H -1.1362597899 -1.8239497883 -0.8864766462
H 0.9515284635 -0.7414064110 -0.4942950255
H 1.9345989361 -1.7816970215 1.4976822139
H 4.5824486423 1.5623239170 1.9446360671
H 3.6089567010 2.6108499648 -0.0641521379
