45
CONF68
O -0.6793213566 -0.4155268139 -2.9734912891
C -1.9598697964 -1.0189181102 -2.7895803490
C -2.4741633696 -0.9368574389 -1.3693522312
O -1.5702820135 -1.6756810299 -0.4972391739
C -1.4852794406 -1.0578648694 0.7736236478
C -1.6912307987 -2.0764808122 1.8882379320
O -0.6700870197 -3.0627743004 1.9372853336
O -0.2057311926 -0.4122917841 0.9704100415
C 0.9194031489 -0.9303652108 0.2949982928
O 1.2123705759 -0.1764246265 -0.8747415365
C 1.4916574787 1.2254063191 -0.6276292537
C 1.6418971589 1.9053163227 -1.9774570201
O 0.3933058310 2.1968028002 -2.6008133184
C 2.7458170087 1.3248179713 0.2452661251
O 3.0940831409 2.6800869483 0.5364379825
C 2.5277970334 0.5431169934 1.5410681757
O 3.7189220799 0.4792931996 2.3251834573
C 2.1237313650 -0.8894309282 1.2349636529
O 1.7764428875 -1.6113521432 2.4180814865
C -2.5341793228 0.0722245403 0.7569062814
O -2.2721692145 1.1405727957 1.6416747329
C -2.5710863489 0.4388007341 -0.7302464538
O -3.7644405542 1.0792028096 -1.1521335167
H -0.0923540774 -0.7097053631 -2.2542248692
H -2.6644879070 -0.4967920270 -3.4450769622
H -1.9287962566 -2.0757201197 -3.0912521639
H -3.4679167897 -1.4107800238 -1.3394184088
H -2.6394011643 -2.5937576252 1.7078028977
H -1.7688151947 -1.5252978646 2.8374230802
H 0.1443048976 -2.6355197252 2.2552330555
H 0.7390554152 -1.9499976668 -0.0534129231
H 0.6407772727 1.6790715053 -0.0955173525
H 2.2807108359 1.2807097692 -2.6210578516
H 2.1452661961 2.8635910270 -1.8219532104
H -0.0555848786 1.3541864696 -2.8013489290
H 3.6043655335 0.9035081537 -0.2932422603
H 2.3440472693 3.0926975710 0.9889070828
H 1.7187293938 1.0300840980 2.1119904650
H 3.9927232488 1.3886369560 2.5052859724
H 2.9565026215 -1.3862750048 0.7158133098
H 2.5713931427 -1.7062545098 2.9583658350
H -3.5113470693 -0.3409259156 1.0379324160
H -1.3437616988 1.3888703879 1.5204376975
H -1.6852572407 1.0438209443 -0.9781111498
H -3.7477398411 1.9841756818 -0.8160285190
