45
CONF25
C -4.0256913189 -1.6043445855 0.8035986655
C -3.2113369169 -0.3492961272 0.7683888133
N -3.4573660363 0.6484444664 -0.0075884693
O -4.5518757279 0.4018058017 -0.8378448023
C -4.7895069847 1.5607330746 -1.6534077663
C -2.0489845989 -0.1659922375 1.6613402191
C -0.8700371578 0.4515506462 1.2024927324
C 0.1460802350 0.7242872045 2.1249682405
C 0.0311623654 0.3689997502 3.4600775513
C -1.1254682110 -0.2679413079 3.8972709905
C -2.1566682659 -0.5346666613 3.0069206160
O 1.2899611146 1.4287267151 1.7656802152
C 2.1411472251 0.9076732875 0.8353176968
N 1.9652266546 -0.3591243744 0.4758271274
C 2.8209309574 -0.7995660564 -0.4493479543
C 3.8434899666 -0.0121436331 -0.9835623264
C 3.9187957302 1.2837782956 -0.4850350363
N 3.0593909400 1.7653499624 0.4297622948
O 4.8362838575 2.1867607457 -0.8593895510
C 5.8169305237 1.7824214974 -1.8373903050
O 2.7179535413 -2.0545320092 -0.8983921070
C 1.6623399978 -2.8800457756 -0.3460502097
C -0.6613759288 0.7874291974 -0.2376998529
O -0.3189239304 1.8815474459 -0.6422908037
O -0.8304399769 -0.2866556828 -1.0211781610
C -0.6341665865 -0.0608648233 -2.4386739913
H -4.0389967547 -2.0542737728 -0.1950822741
H -5.0656407455 -1.3845642051 1.0675166739
H -3.6157481541 -2.3253820669 1.5102580005
H -3.9129276907 1.7836225593 -2.2712078307
H -5.6376413227 1.2984826669 -2.2885413156
H -5.0408374858 2.4268112201 -1.0321257073
H 0.8502359707 0.5867403328 4.1366606337
H -1.2235806811 -0.5481057294 4.9406852470
H -3.0690590854 -1.0017088067 3.3619508642
H 4.5133133849 -0.4157991212 -1.7284708417
H 5.3303902919 1.5102026440 -2.7792470379
H 6.4116065940 0.9444820964 -1.4604690382
H 6.4526367490 2.6543614057 -1.9848840237
H 1.7526446951 -3.8325211782 -0.8669926465
H 0.6865732587 -2.4269083915 -0.5350232148
H 1.8092042900 -3.0161251921 0.7282508820
H 0.3866630551 0.2832593353 -2.6247081215
H -1.3497273980 0.6812343970 -2.8022169525
H -0.8069614399 -1.0272826077 -2.9101470013
