41
CONF12
C 1.2647780359 -1.7420605180 -1.2991347239
C 0.3677636588 -1.0194588446 -0.3545655955
C -0.9982154144 -1.1037479005 -0.2658832105
C -1.4250434641 -0.3563634406 0.8843759308
C -0.2679870716 0.1345467941 1.5144166661
N 0.8342485929 -0.2435979722 0.7254036674
C 2.1569754608 0.1291488762 1.0271531937
O 2.5203870617 0.2780471473 2.1802211732
C 3.0564882414 0.4340623871 -0.1154916069
C 2.5878442386 1.0693675465 -1.2682747474
C 3.4698389003 1.4489416042 -2.2710969634
C 4.8239080002 1.1708457608 -2.1160435839
C 5.3142087118 0.5472313740 -0.9712349008
C 4.4255382736 0.1974583790 0.0335957240
Cl 5.9391954485 1.6256168710 -3.3835647585
C -0.3380982732 0.9043177883 2.6717141404
C -1.5950288756 1.1701100160 3.1887635779
C -2.7621924449 0.6870051910 2.5679292659
C -2.6931182571 -0.0774490784 1.4076268748
O -3.9275873284 1.0343677244 3.1923068141
C -5.1400338521 0.5652646758 2.6166273240
C -1.9015417378 -1.8382986348 -1.2089145227
C -2.2301612974 -0.9302097942 -2.3745883800
O -1.5516252780 -0.7952758336 -3.3640738930
O -3.3736587305 -0.2300368446 -2.1563644163
H 2.1950761368 -2.0514036880 -0.8156715263
H 1.5288387999 -1.1452625944 -2.1773477204
H 0.7526437844 -2.6364987215 -1.6615677701
H 1.5290722332 1.2833145214 -1.3765630256
H 3.1150098884 1.9539535313 -3.1617294926
H 6.3750665396 0.3502201015 -0.8714503206
H 4.7827123430 -0.2634954125 0.9482146484
H 0.5537982426 1.2663027645 3.1650710768
H -1.7051943194 1.7552398129 4.0947480024
H -3.5804510005 -0.4339720360 0.9001878907
H -5.2776290058 0.9550160590 1.5989228848
H -5.9401888783 0.9377881221 3.2577845203
H -5.1728835092 -0.5324688923 2.5934107062
H -2.8176824911 -2.1410919665 -0.6951407998
H -1.4112083359 -2.7257183521 -1.6164419739
H -3.4838633132 0.3682439689 -2.9126896468
