47
CONF132
C -2.7084406291 1.7628396661 2.2606604381
C -2.2932199464 0.5189679958 1.5082682387
C -3.3032798355 -0.5696277154 1.2277958392
C -2.8745246238 0.3677624593 0.0991426492
C -2.0467592400 -0.1769890792 -0.9855875989
O -1.4450410916 -1.2291456536 -0.9921838173
O -2.0088835036 0.7058675230 -2.0335467362
C -1.0677743937 0.3493765269 -3.0860869376
C -1.5338313711 1.0490187444 -4.2812407557
N -1.8788549303 1.5864963458 -5.2428583659
C 0.3352446784 0.7521572438 -2.6961939724
C 1.2721008503 -0.2354500354 -2.3983153927
C 2.5329768223 0.1265867551 -1.9479924545
C 2.8413410645 1.4783268164 -1.8057926658
C 1.9238102350 2.4707443056 -2.1021062807
C 0.6614063222 2.1011014304 -2.5505323701
F 4.0679133298 1.8136684358 -1.3618476146
O 3.4814996648 -0.8371872995 -1.6916635537
C 3.7937444647 -1.0935168024 -0.3626501909
C 3.0100711330 -0.6473827156 0.6975109858
C 3.3853787785 -0.9809092959 1.9978377712
C 4.5211977490 -1.7492088589 2.2361584557
C 5.2901304313 -2.1891190803 1.1586303078
C 4.9331937525 -1.8637933015 -0.1448693658
C -4.6847989119 -0.4996573156 1.7087671710
C -5.3951591321 -1.5336303079 2.1605334203
Cl -4.7940112858 -3.1658322161 2.2564667904
Cl -7.0386071125 -1.3586143452 2.7203587919
C -0.8704038489 0.0909640558 1.7870045419
H -2.6950385473 1.5658697016 3.3383392366
H -3.7053984265 2.1122817899 1.9852872891
H -1.9983988711 2.5703467158 2.0547371223
H -2.8735694393 -1.5636321444 1.1509370811
H -3.5689456318 1.1467230194 -0.1966833698
H -1.1184792496 -0.7287577905 -3.2750877184
H 1.0295077023 -1.2886789995 -2.4901721112
H 2.2036759255 3.5117233376 -1.9835508861
H -0.0700663201 2.8694738857 -2.7808364050
H 2.1188077356 -0.0560091309 0.5183380566
H 2.7755752521 -0.6352415282 2.8269665938
H 4.8059135494 -2.0043764744 3.2513212901
H 6.1785017325 -2.7884275145 1.3316681542
H 5.5224434011 -2.1966318160 -0.9928316531
H -5.1868176020 0.4630375810 1.7015729633
H -0.6037198503 -0.8315189586 1.2690824799
H -0.7479813276 -0.0691331084 2.8634389530
H -0.1724291354 0.8791372478 1.4814356971
