44
CONF62
C -0.3392883758 -1.2462865272 3.1660647763
C -0.8372950466 -0.3897034776 2.0107060245
C -1.8997192723 -1.0950015475 1.1724226189
O -2.2863774139 -2.2265934952 1.3806911745
O -2.3654438270 -0.2844235371 0.2176763031
C -3.3942564625 -0.8231175250 -0.6947699636
C -4.7555058415 -0.6426092032 -0.0517088279
C -3.2323018952 -0.0613209444 -1.9927852121
N 0.2628621666 0.1102784309 1.1530447017
C 0.5490728961 -0.5392330020 -0.0821942407
C 0.8422833195 -1.9022327340 -0.1196424849
C 1.0831557907 -2.5289470451 -1.3372516932
C 1.0467614978 -1.7857722034 -2.5028233459
C 0.7522289380 -0.4254703469 -2.4758611608
C 0.4819797501 0.1960820080 -1.2670336628
Cl 0.6835883901 0.4771707387 -3.9670491677
F 1.2947625616 -2.3893652640 -3.6802987235
C 0.8687553938 1.2842107717 1.5395212652
O 0.4315343170 1.9615212784 2.4715537881
C 2.1177915742 1.6953293149 0.8279608555
C 2.2545383666 3.0323662095 0.4467122834
C 3.4274900969 3.4659055937 -0.1613483067
C 4.4810027678 2.5751702075 -0.3612907509
C 4.3579298743 1.2483647328 0.0474987055
C 3.1763054760 0.8039923394 0.6314337275
H -1.1703848825 -1.4751785937 3.8378993373
H 0.0896103586 -2.1884204024 2.8192315766
H 0.4192073988 -0.6935219973 3.7258405729
H -1.3234770244 0.5058561579 2.4179639878
H -3.1716786602 -1.8847818735 -0.8381136291
H -5.5267865935 -1.0354476098 -0.7209806270
H -4.9545409534 0.4196343299 0.1218185248
H -4.8161786402 -1.1791735916 0.8984487350
H -2.2321937478 -0.2094589747 -2.4085258028
H -3.3987354392 1.0091342704 -1.8361860004
H -3.9675993346 -0.4244175237 -2.7164705120
H 0.9040167877 -2.4778095987 0.7957227315
H 1.3183530208 -3.5863553757 -1.3890565508
H 0.2087487445 1.2444822994 -1.2473976825
H 1.4341680479 3.7221175120 0.6179582769
H 3.5219466571 4.5006431974 -0.4751584367
H 5.3990888527 2.9162082555 -0.8293175725
H 5.1828820059 0.5566693935 -0.0904988099
H 3.0816994442 -0.2304939599 0.9455931975
