65
CONF396
C -3.8304388992 1.9503359810 -2.8916187352
C -4.1705680463 0.7538411363 -2.0046864917
C -3.0684887032 -0.3318506076 -1.9549572767
C -2.8945358678 -1.0675233847 -3.2798992020
C -1.7641834803 0.2883205052 -1.5005769609
O -0.7683917405 0.4173800272 -2.1882861863
O -1.8469214545 0.7001035330 -0.2193239368
C -0.6765685057 1.3665751170 0.3497135636
C -0.7209303164 2.8496320652 0.0240399087
C 0.5418107312 3.5450208390 0.5536052766
C 0.8613278764 3.0792969939 1.9427940404
C 0.3151066107 2.0014843014 2.5384339913
C -0.7186876074 1.1265144320 1.8502364039
C -0.5174780887 -0.3529442656 2.2499311334
C -0.6993248229 -0.4641873486 3.7781773591
C 0.2156054779 0.5009168751 4.4809952945
C 0.6840747993 1.6135329003 3.8910856636
C -0.5461156124 -1.8915255676 4.3109515899
C 0.8370967339 -0.8905229270 1.7370653720
C 0.6759500109 -1.8293548261 0.5389265658
C 1.9696677932 -2.1198524607 -0.1919853984
C 1.8157123550 -3.1686257137 -1.2859248956
C 2.9634944793 -3.1344528598 -2.3045112513
C 4.0900238754 -2.2123952330 -1.8177605768
C 3.5186798016 -0.8517578105 -1.5342721821
O 3.9558215339 0.1990256159 -1.9617416293
O 2.4018432699 -0.8395244113 -0.7797799845
O 2.4178392852 -2.6274301345 -3.5357140124
C 1.7501933812 3.3467729792 -0.3800213351
H -3.6551052430 1.6522181759 -3.9296073242
H -4.6521590122 2.6726326529 -2.8873731238
H -2.9331053896 2.4678848072 -2.5333666665
H -4.3695150235 1.0996869781 -0.9849688355
H -5.0873954482 0.2710532074 -2.3626146389
H -3.3590418282 -1.0501252956 -1.1775955392
H -2.1371091228 -1.8517617922 -3.1941870368
H -3.8420517735 -1.5319900209 -3.5684478887
H -2.5842292055 -0.3891334784 -4.0783491894
H 0.2154495531 0.9109435639 -0.0889956563
H -0.8056322912 2.9926393705 -1.0583225033
H -1.6132688352 3.2824405660 0.4931307226
H 0.3421543541 4.6250504553 0.5957615649
H 1.6036363856 3.6576681206 2.4932914416
H -1.7138804238 1.4335253014 2.2093534959
H -1.3222659797 -0.9381991280 1.7866279674
H -1.7373171818 -0.1583156592 3.9895688869
H 0.5038153923 0.2711262772 5.5055019428
H 1.3646868843 2.2726413885 4.4270573596
H -0.8130199956 -1.9297075420 5.3720626953
H -1.2037162273 -2.5785263050 3.7679801726
H 0.4821619882 -2.2532879364 4.2157278636
H 1.4842466263 -0.0505301279 1.4580826328
H 1.3706460716 -1.4244694366 2.5296086462
H 0.2538393326 -2.7862058770 0.8710775736
H -0.0314851534 -1.4163591749 -0.1909646945
H 2.7501269213 -2.4170463287 0.5209241715
H 0.8732211548 -3.0058462240 -1.8196799224
H 1.7574182611 -4.1489758919 -0.8040372361
H 3.3705705168 -4.1396918602 -2.4675376031
H 4.8821128885 -2.1191724001 -2.5634661620
H 4.5296715451 -2.6252616043 -0.9004795828
H 3.1206736236 -2.6451649273 -4.1989610764
H 1.9834054529 2.2834283903 -0.4984896674
H 2.6386229692 3.8412433121 0.0256337182
H 1.5422224489 3.7687816869 -1.3688428117
