47
CONF57
C -7.1161413838 0.5050239175 -0.7088240689
O -6.2809776515 1.4762586439 -0.0406267822
P -4.6856996346 1.2849332832 -0.0646741161
S -3.8002385433 0.9862549746 -1.7407246914
O -4.2050694762 2.6040028942 0.7052011803
C -4.7532906757 2.9307775306 2.0074812453
O -4.5744210210 0.0791632367 1.0443143102
C -3.4028108784 -0.6366884305 1.2624159713
C -2.1745631146 -0.0020279258 1.4254340258
C -1.0467674168 -0.7643368325 1.6942854465
C -1.1398634853 -2.1557891837 1.7789630545
C -2.3782297070 -2.7770906542 1.6112648378
C -3.5139990240 -2.0159151944 1.3604468047
S 0.2776574215 -3.1708086908 2.1702875312
C 1.5551173294 -2.4339943210 1.1603468374
C 2.8258742013 -2.2693927517 1.7138417317
C 3.8613673663 -1.7501944281 0.9443432546
C 3.6067739891 -1.3824340646 -0.3675942675
C 2.3471612012 -1.5367125810 -0.9345029487
C 1.3224386603 -2.0769532226 -0.1705262765
O 4.6535417993 -0.8887797087 -1.1507426616
P 4.8650133266 0.7128757178 -1.3179215716
S 4.8435566650 1.7718435285 0.2971358467
O 3.7632674477 1.0352518949 -2.4370926991
C 3.4179083342 2.4076920048 -2.7358767904
O 6.2096412724 0.7246671529 -2.1932721625
C 7.4909962325 0.6118733959 -1.5350330058
H -7.0450301467 -0.4647371005 -0.2061251450
H -6.8183401685 0.4089553143 -1.7572003343
H -8.1348861392 0.8873385907 -0.6387603183
H -5.8154083177 3.1729440324 1.9199902084
H -4.6129605064 2.0971876008 2.7025829298
H -4.1953601823 3.8021737855 2.3513143412
H -2.1005703139 1.0772388243 1.3460430307
H -0.0879145545 -0.2758295920 1.8300651170
H -2.4515397933 -3.8583835835 1.6608909061
H -4.4813717877 -2.4843100706 1.2177555095
H 3.0012410062 -2.5320630540 2.7516503914
H 4.8505587800 -1.5998143382 1.3608026067
H 2.1845003795 -1.2451632944 -1.9657433575
H 0.3381486856 -2.2133034128 -0.6053014169
H 4.2652137866 2.9170624031 -3.2048921460
H 2.5807069675 2.3565755417 -3.4325316682
H 3.1230565529 2.9313106878 -1.8222832876
H 7.5971750175 -0.3785555640 -1.0811359022
H 8.2393049257 0.7437184706 -2.3171719180
H 7.5952314733 1.3881547846 -0.7712535860
