59
CONF160
C 3.3169490756 -3.1621506487 -1.4801079240
C 2.4105510823 -1.9813003600 -1.8380909461
C 2.5476435864 -1.0649770041 -0.6152388011
C 4.0182146104 -1.2466261633 -0.1156023264
C 4.5581500316 -2.4636012550 -0.9150780061
C 4.0658151009 -1.4990989890 1.3904623417
C 3.5490131043 -0.3355163982 2.1956434314
O 2.9779750875 -0.4859176016 3.2657837742
N 3.7695574275 0.9453151110 1.6731693927
C 4.4336517331 1.1907096300 0.4660126930
O 4.6553408239 2.3388591842 0.1085007433
C 4.8573345072 0.0035760984 -0.3614053735
C 3.2609251209 2.1171992784 2.4169754108
C 1.9617325297 2.6535178254 1.8160987646
C 0.8102738308 1.6497336047 1.8546207588
C -0.4103190459 2.1829053425 1.1112099783
N -1.5848223339 1.3046877328 1.2010703864
C -2.7545438670 1.9833574967 0.6266282521
C -3.9984125612 1.1057943168 0.7289303558
N -3.7662374237 -0.1689367422 0.0491129021
C -2.6002331848 -0.8587652167 0.6003487263
C -1.3638668240 0.0306736050 0.5034902608
C -4.1814192755 -0.3804861505 -1.2361970125
N -5.0870200021 0.4864620606 -1.7519480913
C -5.5242630102 0.2245268651 -2.9817828108
C -5.0924373719 -0.8657231905 -3.7284203050
C -4.1549384843 -1.6854931731 -3.1104574059
N -3.6880534175 -1.4649627564 -1.8834319735
H 3.5457623693 -3.8116783581 -2.3304238770
H 2.8381250874 -3.7756108880 -0.7061634956
H 2.7988853871 -1.4793338725 -2.7333277961
H 1.3729254239 -2.2664220308 -2.0365267302
H 1.8505154122 -1.3943323823 0.1652962705
H 2.3109597947 -0.0190737771 -0.8398564744
H 5.1841503391 -3.1138758466 -0.2958535250
H 5.1772734215 -2.1023444371 -1.7453454329
H 3.4811743164 -2.3765011195 1.6798287173
H 5.1045285392 -1.6741134730 1.7065585237
H 5.9121001173 -0.1978812157 -0.1231630907
H 4.8203590762 0.3195546921 -1.4085014672
H 4.0365032780 2.8854302662 2.3909699006
H 3.1077262002 1.7985863004 3.4489724651
H 1.6885642270 3.5578230420 2.3743233017
H 2.1482224040 2.9649466354 0.7814056944
H 0.5400990965 1.4225230769 2.8931868861
H 1.1419804154 0.7122083658 1.3967738865
H -0.1378986722 2.3703909972 0.0519014754
H -0.6933860005 3.1526380595 1.5418241217
H -2.9253315850 2.9168745946 1.1757744096
H -2.5882917933 2.2433906132 -0.4390779681
H -4.8584467036 1.6090937840 0.2897160475
H -4.2110850330 0.8909658632 1.7838571262
H -2.8081086378 -1.0800382120 1.6549600297
H -2.4362166662 -1.7952803610 0.0694120470
H -0.5228265962 -0.4976949587 0.9629915700
H -1.1177372258 0.1952889662 -0.5664721058
H -6.2530043655 0.9242645620 -3.3902180318
H -5.4573113656 -1.0599859609 -4.7290629116
H -3.7553597313 -2.5590475904 -3.6251237473
