51
CONF1
C 3.0380125230 -1.7163953786 0.8857939966
C 3.5315095678 -0.9927878170 -0.3642367937
C 2.4291353576 -0.6022809883 -1.3885938100
C 3.0642597762 0.2735643874 -2.4835002044
C 1.7939219363 -1.8421625437 -2.0238439700
C 1.4358176996 0.2615043398 -0.6377358428
O 1.6316639133 1.3674311562 -0.2118848588
O 0.2324093733 -0.4113719721 -0.3991890730
C -0.8331751745 0.2163323462 0.1395300458
C -1.3352644887 1.4591574875 -0.0142713380
C -2.5513974642 1.5086677648 0.8185520408
O -3.3218406020 2.4299477128 0.9882400060
O -2.7496273834 0.2988509789 1.4141413273
C -1.6833550732 -0.6229473235 1.0438975770
C -0.9341887792 -1.0428880119 2.3130748030
C -1.8180883909 -1.8872404593 3.2326366265
C -2.3882284231 -3.0984151364 2.4927139503
C -3.1706973292 -2.6610861801 1.2532331915
C -2.2987636289 -1.8238306522 0.3162847366
C -0.9097339041 2.6184132157 -0.7962239584
C -0.8064606677 3.8673598107 -0.1684116747
C -0.3992166332 5.0022000998 -0.8532435512
C -0.0983524804 4.8901751012 -2.2054909727
C -0.2040474306 3.6825000009 -2.8811704807
C -0.6166610019 2.5657105164 -2.1640678171
Cl -0.7883579522 1.0589679579 -3.0451016198
Cl 0.4225209467 6.3107780873 -3.0937581997
H 3.8863009758 -1.9841669966 1.5224322812
H 2.5008701152 -2.6377700921 0.6420967486
H 2.3704408192 -1.0815920352 1.4793320447
H 4.2464342690 -1.6219055637 -0.9077372180
H 4.0615184682 -0.0787869325 -0.0730863126
H 3.8436787495 -0.3046282002 -2.9885655521
H 3.5155472691 1.1722428239 -2.0560506732
H 2.3183232636 0.5712523661 -3.2267485894
H 2.5712043090 -2.3927364924 -2.5625968769
H 1.3479509298 -2.5106238016 -1.2852532335
H 1.0179076107 -1.5572248224 -2.7400855741
H -0.5685527843 -0.1439678858 2.8218289565
H -0.0611914670 -1.6266743464 1.9972605216
H -1.2265587346 -2.2078535647 4.0969267996
H -2.6405843900 -1.2710894012 3.6165604137
H -3.0355659995 -3.6765051846 3.1613032732
H -1.5648686607 -3.7597278556 2.1884326859
H -4.0470211119 -2.0761906079 1.5592147850
H -3.5431161102 -3.5334392904 0.7054485470
H -2.8685807922 -1.4587565950 -0.5453202796
H -1.4695086716 -2.4324695036 -0.0643577433
H -1.0317632008 3.9385485808 0.8898546544
H -0.3131767994 5.9542693623 -0.3431874920
H 0.0185186304 3.6096398292 -3.9385302108
