74
CONF55
C -0.5963089263 -1.9187418260 -0.7653844890
C 0.0008649633 -3.2432902134 -1.2228242212
O -0.8095243281 -4.2481428672 -0.5232863397
C -1.4060158267 -3.7034850008 0.5719694475
O -2.0659317610 -4.3774155915 1.3273886008
C -1.0308018929 -2.2450356954 0.6553187759
C -2.0268246717 -1.2172108642 1.1974929046
C -3.4201459007 -1.3481631573 0.5902743826
C -3.7699545079 -0.6584224634 -0.5725825772
C -5.0354417707 -0.8219873716 -1.1392853173
O -5.4683936630 -0.1955201554 -2.2718728550
C -4.5427069750 0.6789116543 -2.9269748732
C -5.9644506141 -1.6758864630 -0.5356201977
O -7.2011269120 -1.8226244067 -1.0974514667
C -5.6114770733 -2.3521742162 0.6379566000
O -6.6076215303 -3.1468472576 1.1369340579
C -6.3069381347 -3.9271312030 2.3014397909
C -4.3494280263 -2.1900977364 1.2040713405
C -1.4497178493 0.1731673346 0.9534470493
C -2.0464405717 1.2344384020 1.6634934945
C -1.6285942957 2.5120690836 1.3853721093
C -0.6691101309 2.7737876754 0.4123083552
O -0.4909722366 4.1290558060 0.2874640731
C -1.1860010471 4.7023032863 1.4144548661
O -2.0872893395 3.6900641195 1.9136618187
C -0.0786705974 1.7637063830 -0.3030082210
C -0.4607854272 0.4344684164 -0.0092843609
C 0.2629127676 -0.6732497074 -0.7516080422
O 1.5067302644 -1.0675296344 -0.0925903645
C 2.4261707189 -0.0633320589 0.1659371961
O 2.8993157685 0.4505043844 -1.0888436752
C 3.8358611985 1.5030470841 -0.8770302483
C 4.2304754855 2.1176775580 -2.2092267425
O 5.2495709975 3.0969215816 -1.9655302048
C 6.3895075137 2.5265503852 -1.3323410031
C 7.4118091371 3.6119675380 -1.1300644034
O 6.0497427748 1.9868670962 -0.0546628159
C 5.0895017348 0.9404424470 -0.2039227419
C 4.7062657005 0.3642774919 1.1447180981
O 5.7976981292 -0.2166441234 1.8596886500
C 3.5891440962 -0.6720713691 0.9477865403
O 3.0897731398 -1.1135311450 2.2047269488
H -1.4857433733 -1.7079515622 -1.3714871404
H -0.0991120087 -3.4376657545 -2.2913582339
H 1.0394463399 -3.3697653842 -0.9056656329
H -0.1373773314 -2.2239816403 1.3004673196
H -2.1254830935 -1.3664362656 2.2787113501
H -3.0606991242 0.0255833720 -1.0209365548
H -3.6444596388 0.1356792257 -3.2447002747
H -5.0684791648 1.0619306359 -3.8021159302
H -4.2572999953 1.5130811899 -2.2746439798
H -7.6972481910 -2.4488780010 -0.5492898722
H -5.4655483644 -4.6025152059 2.1091269064
H -6.0764209641 -3.2800293639 3.1553853319
H -7.2067147695 -4.5060055687 2.5102682346
H -4.0755771935 -2.7197941006 2.1070980108
H -2.8301722830 1.0411477894 2.3889256989
H -0.4587235880 4.9544637974 2.1980497803
H -1.7618272254 5.5687338098 1.0841811645
H 0.6609409832 1.9685972766 -1.0707094117
H 0.5072100226 -0.3394265444 -1.7668243688
H 1.9797633020 0.7635891287 0.7461029668
H 3.4014536331 2.2843740973 -0.2307542736
H 3.3908443710 2.6366184686 -2.6783681804
H 4.6008918519 1.3330847066 -2.8880258786
H 6.7684274489 1.7034710082 -1.9660718022
H 7.6985177364 4.0340704362 -2.0957382847
H 8.2986518690 3.1978453839 -0.6454451272
H 6.9933672816 4.4026197803 -0.5010948224
H 5.5045509890 0.1418747515 -0.8461700441
H 4.3326078706 1.1709691636 1.7886601998
H 6.2038380320 -0.8888493266 1.2940423900
H 3.9847303968 -1.5191830843 0.3611975623
H 3.8609730653 -1.3189443191 2.7521457477
