27
CONF277
C 3.3108830110 -0.9692587435 -0.1848485507
C 4.4584192809 -0.8388843182 0.8213186148
C 4.8553142247 0.5941008108 1.1583515721
O 5.3189402943 1.3319536890 0.0144694948
C 2.0012059589 -0.3758136276 0.3462247402
C 0.8556203820 -0.5968205067 -0.6093565340
C -0.4748099973 0.0732421888 -0.1510549360
C -1.7550754187 -0.3549368797 -0.9423316280
C -2.9651503281 0.6224547201 -0.7823409080
F -3.1893519890 0.8873378018 0.5128188966
F -4.0606033825 0.0467693464 -1.2996775068
F -2.7443944071 1.7712704280 -1.4319519057
F -2.1552194246 -1.5698982520 -0.5014420823
F -1.4820299600 -0.4397677257 -2.2653384066
F -0.3275396694 1.4207445331 -0.2578345797
F -0.6865249046 -0.2262511479 1.1564374101
F 0.5968184548 -1.9372567278 -0.7742169310
F 1.1541736634 -0.0964818371 -1.8511446132
H 3.5826193927 -0.4848384741 -1.1292636088
H 3.1614662165 -2.0307727344 -0.4078324340
H 4.1845317394 -1.3432754801 1.7577646604
H 5.3359063729 -1.3598303505 0.4205393791
H 5.6943240791 0.5800598708 1.8610231653
H 4.0283405008 1.1305613946 1.6452279469
H 4.5589094624 1.5154613231 -0.5507062087
H 2.0887930933 0.7043684054 0.5060668093
H 1.7361135893 -0.8330011559 1.3047060676
