39
CONF156
C 3.5138724788 0.7612858065 -2.0905869455
C 2.3127531896 -0.1475377708 -2.3549524963
C 1.9763451390 -1.0759843344 -1.1856403026
C 1.5157136648 -0.3556593602 0.0720076042
C 1.0589814035 -1.2962624143 1.1870164953
O -0.3547434910 -1.4141430385 0.9470470050
C -0.7727665560 -0.1373152127 0.5199316550
C -2.0047484531 -0.3219814400 -0.3851043576
N -1.6968115752 -1.0546754889 -1.5957899255
C -1.2626471135 -0.5598729331 -2.7716183627
N -1.0294834185 -1.5462643363 -3.6285859573
C -1.3417879264 -2.6547147709 -2.8979597189
N -1.7496149051 -2.4094877503 -1.6593816855
O 0.3143150229 0.4191168849 -0.2064977118
C -1.1471940631 0.7518752827 1.7154965605
C -1.3416170947 2.1349886338 1.6347553864
Cl -1.1840605566 3.0129980900 0.1175467480
C -1.6863256354 2.8998214453 2.7449806864
C -1.8496926170 2.2581881807 3.9644818582
Cl -2.2806312118 3.2148804786 5.3709338027
C -1.6872711653 0.8862201873 4.0924450615
C -1.3441009575 0.1548234209 2.9631678255
H 3.3181952973 1.4652832529 -1.2753532320
H 4.3976401840 0.1725435498 -1.8198833273
H 3.7598103565 1.3494527349 -2.9800716586
H 2.5126022704 -0.7664873253 -3.2376473562
H 1.4341902540 0.4610270680 -2.5976938303
H 2.8651608682 -1.6642811100 -0.9187551241
H 1.1942454339 -1.7883927211 -1.4799056794
H 2.2798920578 0.3404503383 0.4331256941
H 1.2437668160 -0.8710357790 2.1820563717
H 1.4940557616 -2.2950039680 1.1194617743
H -2.7700516192 -0.8641219832 0.1756194846
H -2.3992857870 0.6556211455 -0.6685670595
H -1.1458952711 0.5008231931 -2.9506748074
H -1.2753559727 -3.6636972016 -3.2854123419
H -1.8261304985 3.9700156214 2.6541663221
H -1.8258174464 0.3956409495 5.0485442589
H -1.2155066729 -0.9181365105 3.0472971854
