71
CONF305
C 5.6325952899 -2.1457065898 -0.9094314963
C 6.2590905442 -0.9119068373 -0.3274339147
C 5.7258869731 -0.2761863941 0.8050480091
C 6.2777507521 0.9109394081 1.3169683963
C 7.3972399293 1.4498269551 0.6831399214
C 7.9565895998 0.8225604866 -0.4263074926
C 7.3889471506 -0.3442178181 -0.9244739252
C 5.6751827380 1.5752982802 2.5229485898
N 4.5785423032 -0.8060245651 1.4505969022
C 4.5166279779 -2.0046328385 2.0816821878
O 5.4335999738 -2.8239524550 2.1256156946
C 3.2009967220 -2.2581275853 2.8152356506
N 2.1237799736 -1.3591468170 2.4219862893
C 1.1176204782 -1.1916201838 3.4767101522
C 0.0576752565 -0.1981885645 3.0280384796
N -0.6061264672 -0.6594249900 1.8032582765
C 0.4041496578 -0.8274499791 0.7525874378
C 1.4681335618 -1.8196302438 1.1905355875
C -1.6502709487 0.2932697895 1.4048034129
C -2.5572541609 -0.2299243348 0.2950860966
C -3.7017660601 0.7414395465 0.0088840764
C -4.6344357625 0.2630123431 -1.1179696229
C -5.8403359001 1.1822223288 -1.2324717144
C -7.0891966656 0.7658729166 -0.7662402074
C -8.2006623404 1.6048106025 -0.8253281487
C -8.0345837219 2.8696760397 -1.3592163649
C -6.8158202315 3.3256202343 -1.8339332169
C -5.7213168336 2.4690451705 -1.7666370236
F -9.1111249810 3.6986671887 -1.4232260401
C -3.9522844739 0.0867783452 -2.4643778093
C -4.4316036926 -0.8904784529 -3.3426045036
C -3.8779622723 -1.0687601160 -4.6068217851
C -2.8272415205 -0.2479218072 -4.9791836795
C -2.3151516122 0.7292192730 -4.1445749845
C -2.8872436391 0.8884987991 -2.8841035205
F -2.2726860024 -0.4134331616 -6.2098547064
H 5.9452241521 -2.2771636531 -1.9479389671
H 5.9229793195 -3.0371202402 -0.3438754826
H 4.5399983870 -2.0884170999 -0.8736025727
H 7.8366031757 2.3640794711 1.0719752261
H 8.8310851809 1.2490825940 -0.9079901686
H 7.8137952393 -0.8227905290 -1.8024460420
H 5.5866434055 0.8726318874 3.3586920338
H 4.6660649713 1.9501714918 2.3129456175
H 6.2878007657 2.4213395677 2.8413682685
H 3.7755879806 -0.2061581004 1.6227390129
H 2.9503454250 -3.3251365973 2.6841313405
H 3.4229567619 -2.1145843246 3.8810031282
H 0.6348110929 -2.1552918197 3.7280307981
H 1.6104111942 -0.8130224926 4.3793204179
H 0.5340023671 0.7920491166 2.8777861105
H -0.6936861294 -0.0921218726 3.8191114345
H -0.0705885251 -1.2075800552 -0.1569204371
H 0.8848863714 0.1411066873 0.5038336068
H 2.2210012104 -1.9172890502 0.3994464506
H 1.0048786948 -2.8129613101 1.3431254689
H -1.2063062195 1.2607622308 1.0917420298
H -2.2623903614 0.4984947349 2.2928946488
H -1.9852997150 -0.3907605332 -0.6248438634
H -2.9677435920 -1.2035757871 0.5925621903
H -4.3110022761 0.8677666750 0.9126838753
H -3.3060796555 1.7366891487 -0.2318007648
H -5.0158942041 -0.7232139439 -0.8253669273
H -7.1999374370 -0.2306512614 -0.3480434498
H -9.1737682236 1.2860150738 -0.4676214661
H -6.7314150916 4.3246680453 -2.2478466251
H -4.7624202298 2.8118362674 -2.1436796646
H -5.2573683223 -1.5258727151 -3.0334510577
H -4.2468235918 -1.8278641377 -5.2880818513
H -1.4855432501 1.3463470636 -4.4723066176
H -2.4801506572 1.6485116902 -2.2250522226
