57
CONF176
C -1.7347056750 2.0661318499 -4.8458664453
C -1.0087376966 0.7323474798 -4.6262120812
C -0.1363449329 0.8345876342 -3.3845540366
O 0.9443484472 1.4139430892 -3.4574079619
N -0.6313512557 0.3277559776 -2.2013841619
C -1.9052204843 -0.3314383496 -2.1784448760
C -1.9840099800 -1.6907924325 -2.4828801672
C -3.2150737783 -2.3370904518 -2.4751475608
C -4.3716245037 -1.6307154897 -2.1548217058
C -4.2909615184 -0.2768709669 -1.8416674144
C -3.0613255433 0.3746336279 -1.8515811498
C 0.1107583618 0.5547467584 -0.9094407634
C -0.6465539896 -0.1169092105 0.2491896600
C 0.1609876375 -0.1247860972 1.5432939172
N 1.4350170896 -0.8243988593 1.3702304676
C 2.2315296084 -0.1441738942 0.3470813587
C 1.5041360863 -0.1021676159 -0.9930887734
C 2.1809889874 -0.9207719316 2.6225265442
C 1.5647813610 -1.9282298203 3.6059803090
C 2.4274598678 -2.1470395603 4.8059775922
C 3.1626032409 -3.2541296274 5.1378666001
C 3.9014914695 -3.1103250478 6.3434359550
C 3.7297987113 -1.8889290707 6.9293891936
S 2.6543875020 -0.8954688588 6.0013936075
C 0.2348989417 2.0645649493 -0.6697713034
O -1.0682494884 2.6303651203 -0.5646751156
C -1.0143240944 4.0410986703 -0.4366648995
H -2.4348757099 2.2691375562 -4.0294320732
H -2.3006245892 2.0456739610 -5.7815332573
H -1.0129856708 2.8860131244 -4.8933863568
H -1.7306629195 -0.0847125502 -4.5786624662
H -0.3253100795 0.5444808283 -5.4591764054
H -1.0740414208 -2.2276318046 -2.7334517751
H -3.2709376813 -3.3934854959 -2.7176746482
H -5.3323984655 -2.1350765656 -2.1480975527
H -5.1898609875 0.2766033403 -1.5889541802
H -2.9744161580 1.4252300906 -1.5969008041
H -0.8599382230 -1.1563961612 -0.0195396927
H -1.6013679472 0.3846056053 0.4263333731
H -0.4336809946 -0.6429212259 2.3023365419
H 0.3168063939 0.9085861421 1.9171355480
H 3.1707799943 -0.6947635844 0.2164243038
H 2.5086550409 0.8817545186 0.6668950859
H 2.1180118520 0.4170394922 -1.7313730766
H 1.3582616758 -1.1310730490 -1.3434228096
H 3.1975172286 -1.2593754522 2.3885933390
H 2.2819754524 0.0661129609 3.1201397550
H 0.5678909662 -1.5969663943 3.9177835830
H 1.4375853286 -2.8855648662 3.0894184712
H 3.1653935980 -4.1516090898 4.5297499949
H 4.5342221583 -3.8839764493 6.7612110317
H 4.1668586150 -1.5130990175 7.8437315876
H 0.7933420861 2.2456237852 0.2612344853
H 0.7888354033 2.5234351698 -1.4976016981
H -2.0440670917 4.4016103236 -0.3732184219
H -0.4736595101 4.3422994777 0.4745744843
H -0.5220135097 4.5033854653 -1.3058937588
