35
CONF11
C 5.2122346377 -1.1946940580 0.7246670610
O 4.0233950010 -1.6243115261 1.4038131967
C 2.8475856687 -1.0398224358 1.0444214918
C 2.7178377933 -0.0562110959 0.0632970757
C 1.4556672631 0.4702821980 -0.2195318919
C 0.3192876670 0.0341761223 0.4543045799
C 0.4700126939 -0.9547809866 1.4380521436
C 1.7112178089 -1.4874949152 1.7338223078
C -1.0656004619 0.6218616008 0.2087365272
C -1.1012101382 1.5695629896 -0.9916358143
C -2.2030155074 2.5804839979 -1.1080852028
C -0.7854990119 3.0297545167 -0.8457900896
C -2.0813750127 -0.4742581837 -0.0676209578
C -1.8079640592 -1.4934727274 -0.9781028613
N -2.6963194437 -2.4415716791 -1.2918241668
C -3.8809455895 -2.3630433112 -0.6751140421
N -4.2549214298 -1.4395147672 0.2120635892
C -3.3483485236 -0.4959084754 0.5077597513
O -1.5109181598 1.2902738355 1.4039776471
H 5.3935241377 -0.1263998138 0.8900181667
H 6.0257389344 -1.7769218227 1.1578715754
H 5.1443344693 -1.3973977262 -0.3503924391
H 3.5772234161 0.3097106049 -0.4848980583
H 1.3750209584 1.2389638659 -0.9802142461
H -0.4028681486 -1.3103012576 1.9787449137
H 1.8243022025 -2.2534975364 2.4945302585
H -0.7870289888 1.0972708618 -1.9192503379
H -2.6244011895 2.7564015964 -2.0919094322
H -2.8988425014 2.6483401640 -0.2781425860
H -0.5621319358 3.4073864726 0.1470196386
H -0.2367346296 3.5051471718 -1.6522759576
H -0.8351905937 -1.5487953011 -1.4661131882
H -4.6123049528 -3.1322961317 -0.9215011030
H -3.6429606431 0.2594003812 1.2304237458
H -0.7588008155 1.7916772554 1.7449729394
