53
CONF410
C 1.6229570159 3.4436549400 0.2047206728
C 2.3859280406 2.2095128689 -0.2914416368
C 3.8937228002 2.4747988404 -0.1396392050
C 2.0851220408 1.9963039330 -1.7842396233
O 0.7078283496 1.6589496998 -1.9184899465
C 0.3728429367 1.0766193994 -3.1721069787
C -0.9371806887 0.3477459853 -3.0321707997
C -1.2012614724 -0.3830690818 -1.8726249447
C -2.3944899093 -1.0872266026 -1.7684056155
C -3.3283256767 -1.0953575706 -2.7981242724
C -3.0535628034 -0.3724136063 -3.9559237885
C -1.8704656162 0.3528959589 -4.0708369546
O -2.6509734315 -1.8801204089 -0.6563571048
C -2.7432439228 -1.2889742008 0.5871272241
C -2.9629554924 0.0751724458 0.7726230424
C -3.0946712829 0.5673641205 2.0695034400
C -3.0152432625 -0.2839016499 3.1690453503
C -2.8009173237 -1.6469172955 2.9642247647
C -2.6610676260 -2.1538731233 1.6779700285
C 1.9843326918 0.9300688695 0.4445101197
C 2.6474629834 -0.2717329251 0.1605717966
C 2.2652510412 -1.4732318075 0.7459970407
C 1.2030795207 -1.4618612962 1.6365890995
C 0.5178785811 -0.3020757305 1.9450799186
C 0.9193944580 0.8900699722 1.3477015532
O 0.7266716544 -2.6778777339 2.1850437607
C 1.3947517521 -3.2262443692 3.2099242950
F 2.6861260820 -3.5089561729 2.9209648228
F 0.7805915838 -4.3725233457 3.5273181896
Br 1.4279437791 -2.0764192282 4.8594758775
H 0.5454388492 3.3496433888 0.0485111606
H 1.9685463766 4.3232224421 -0.3474500148
H 1.8091880860 3.6173809715 1.2694377097
H 4.1719201666 3.3787113273 -0.6918456296
H 4.4987918801 1.6466165624 -0.5183969155
H 4.1426723082 2.6274337365 0.9149846348
H 2.3197053931 2.9141029039 -2.3484197183
H 2.7100882914 1.1816622067 -2.1810325061
H 1.1584220915 0.3616704952 -3.4703639854
H 0.3041214794 1.8416023874 -3.9607589160
H -0.4865645041 -0.3963495983 -1.0551044434
H -4.2490682353 -1.6575063370 -2.6842220271
H -3.7751513572 -0.3648423770 -4.7666915507
H -1.6701202609 0.9268342570 -4.9709266628
H -3.0312188750 0.7432739585 -0.0785341241
H -3.2653382776 1.6297366009 2.2149834304
H -3.1186924213 0.1093521860 4.1748912077
H -2.7332381617 -2.3221103573 3.8118413177
H -2.4881734257 -3.2108727020 1.5047378009
H 3.4689477843 -0.2870981725 -0.5478948263
H 2.7719587144 -2.4001373081 0.5026846107
H -0.3254153134 -0.3324497352 2.6257911543
H 0.3656523175 1.7899863698 1.5857488710
