37
CONF20
C -1.7722797111 -3.2149504877 -4.4244192600
C -1.5901242570 -2.0851512722 -3.4602000372
C -2.3934231130 -0.9230491188 -3.6004761201
C -2.2124063081 0.1008716957 -2.7093309013
C -2.9702929327 1.3819787603 -2.7148893532
N -1.2729783336 -0.0593641162 -1.7453697157
C -0.4967177872 -1.2036301916 -1.6241705567
N -0.6798320061 -2.2239433246 -2.5127050447
N 0.4150543069 -1.3449896578 -0.6763367568
N 0.4852449360 -0.2310535135 0.1313140163
C 1.3311247213 -0.2982990077 1.1102042300
C 2.2180155527 -1.4851852099 1.3627050513
C 1.4528639748 0.9147914130 1.9522795245
C 1.6102118433 2.1578550750 1.3215367721
C 1.7470182025 3.3288217861 2.0573344494
C 1.7200013199 3.2711192923 3.4484721147
C 1.5443677793 2.0450093028 4.0831217565
C 1.4107516191 0.8547177771 3.3616706845
C 1.1653412865 -0.4316166052 4.1056834873
H -1.5869913696 -2.8674703216 -5.4468290495
H -1.0972203253 -4.0391508908 -4.1924853433
H -2.8081174041 -3.5702334513 -4.3937227989
H -3.1316124308 -0.8436862734 -4.3881311500
H -3.6964464934 1.3912194302 -3.5275859493
H -2.2835328386 2.2269050597 -2.8352478103
H -3.4934881775 1.5160191132 -1.7619236650
H -1.0936191183 0.6681927298 -1.0595570554
H 2.9550088206 -1.2698005942 2.1365875357
H 2.7397408705 -1.7499909448 0.4371453392
H 1.6366915985 -2.3656118311 1.6592184256
H 1.6413246665 2.1892101622 0.2370466949
H 1.8789241016 4.2784417846 1.5478824144
H 1.8252954760 4.1766844393 4.0381582771
H 1.4927942439 2.0058362186 5.1681995614
H 0.7569242938 -0.2209108198 5.0971414704
H 2.0901915853 -1.0022956601 4.2457149167
H 0.4621904020 -1.0772898426 3.5719643377
