45
CONF116
C 5.3717080902 0.6446466360 -2.0423668402
C 4.3293374164 1.3064690701 -1.1435557109
C 2.9577366369 0.6446659218 -1.2642101760
C 1.9252752929 1.3076598523 -0.3628047628
N 0.6340334989 0.6476712002 -0.5045382983
C -0.4497215161 0.9507858094 0.2527260082
C -1.6315733797 0.1757138943 0.1548380529
C -2.7629621722 0.5101679183 0.8877699981
C -2.7843440568 1.5965642495 1.7544049353
C -1.6128205814 2.3457523026 1.8829381063
C -0.4685946624 2.0318420804 1.1505308367
C -1.5416498978 3.5131870142 2.7973325653
O -0.5525689822 4.2050290782 2.9513712866
O -2.6988358494 3.7358408878 3.4527012240
S -4.2382864723 -0.5150798651 0.7407725725
O -3.8659447690 -1.9092236166 1.0256051541
O -5.2944428683 0.1351437586 1.5303415873
N -4.7532012823 -0.4775394310 -0.8549311322
O -1.6938642071 -0.8564964079 -0.7554135865
C -0.9808882360 -2.0253395010 -0.4888398030
C -0.8675162692 -2.9146248985 -1.5524444021
C -0.1826425567 -4.1097620071 -1.3598576520
C 0.3860334126 -4.4074596723 -0.1220134732
C 0.2602097545 -3.5016559977 0.9281333887
C -0.4284241452 -2.3025721087 0.7560626072
H 5.0715524230 0.7001861464 -3.0944530522
H 6.3468701714 1.1311679033 -1.9436764846
H 5.4943329755 -0.4129251953 -1.7843086728
H 4.2410497633 2.3700520364 -1.3997039154
H 4.6604197031 1.2626879357 -0.0980814079
H 3.0376481434 -0.4188426040 -1.0005114219
H 2.6152710905 0.6941367101 -2.3064840755
H 1.8339751401 2.3728106665 -0.6230937833
H 2.2596865762 1.2563246610 0.6847548749
H 0.5876499678 -0.1582944458 -1.1073970874
H -3.6789738514 1.8350227224 2.3119923154
H 0.4100099249 2.6532453491 1.2700658982
H -2.5731915022 4.5099918031 4.0269165467
H -4.0410318822 -0.8587864493 -1.4763691066
H -4.9996591601 0.4707117954 -1.1348117730
H -1.3125017237 -2.6638464007 -2.5097476241
H -0.0915426683 -4.8089513221 -2.1850782260
H 0.9226331845 -5.3391411905 0.0224636979
H 0.6962501546 -3.7252950108 1.8966799405
H -0.5365003533 -1.6016410934 1.5771518549
