52
CONF9
C 3.8085722236 -0.3759940376 0.2414662099
C 2.8256095218 0.2487121582 -0.7216699000
C 3.4803891849 0.6988853070 -2.0321154083
C 2.4966280789 1.4870872292 -2.9029604265
C 1.8742725483 2.6339453619 -2.1044338241
C 1.3361817928 2.1414245613 -0.7515391889
O 2.2364780675 1.3816484588 -0.0260727735
O 0.1123309110 1.3914101649 -1.0767880604
C -0.6425518626 1.0099653558 0.0080962043
C -0.8518993857 -0.3174674096 0.2685172809
O -1.5774390501 -0.7266085641 1.3456878965
C -2.1185397934 0.1801545249 2.2139407036
C -2.8088662518 -0.3337920828 3.2970241887
C -3.3854981332 0.5774910841 4.1800929425
C -3.2835755049 1.9591003533 3.9933203207
C -2.5869495475 2.4530127925 2.8982103903
C -1.9800128833 1.5547467770 1.9776253660
C -1.2379159351 2.0376983641 0.8410728652
O -1.1018105202 3.2614062803 0.5959695862
O -2.4846525755 3.7726169986 2.7165957089
O -4.0580419991 0.0506204482 5.2370856195
C -0.3186823614 -1.4331893383 -0.5040505763
C -0.2686821456 -1.3660789158 -1.9025611204
C 0.4239837409 -2.3224806503 -2.6216131199
C 0.9915503184 -3.4262180951 -1.9647898044
C 0.8677088279 -3.5401049461 -0.5825779105
C 0.2310955568 -2.5454232793 0.1453504462
O 1.6653555842 -4.3715002674 -2.6608546659
O 0.6057105077 -2.2670902496 -3.9826684418
O 2.9195033118 3.5756389850 -1.8909059704
O 1.4713073200 0.6185594826 -3.4185318407
O 3.9810738221 -0.4267296336 -2.7434474835
H 3.2917560086 -0.7093625361 1.1453881978
H 4.2893399581 -1.2349014295 -0.2317524657
H 4.5761532322 0.3511756150 0.5235528836
H 2.0304091112 -0.4732036118 -0.9569483373
H 4.3375522895 1.3425673350 -1.8039273144
H 3.0251532610 1.8928394004 -3.7714166877
H 1.0422067121 3.0696593293 -2.6774282376
H 1.0582772510 2.9837747920 -0.1110617707
H -2.9054376107 -1.4004247690 3.4506437566
H -3.7372072815 2.6596195991 4.6874313436
H -4.4148510050 0.7658997724 5.7765814272
H -0.7821973570 -0.5672223063 -2.4274756931
H 1.3155157518 -4.3961561204 -0.0901880167
H 0.1880920175 -2.6103747028 1.2262992771
H 1.6737411291 -4.1026802670 -3.5915287294
H 0.7263016051 -1.3405322290 -4.2426321207
H 2.5635950285 4.3239737030 -1.3981623083
H 3.2140371729 -0.8483205226 -3.1565186619
H -1.9493054109 3.8918876116 1.8804253757
H 0.8133548418 0.5396381980 -2.7097305460
