27
CONF304
C 2.6264177177 -0.9909106600 0.0903682090
C 4.0299676098 -1.1842835322 0.6754465269
C 5.1298629421 -0.4439413369 -0.0672632974
O 5.0606879037 -0.8195003708 -1.4457968443
C 2.2037690895 0.4780582897 0.0701770242
C 0.8365388993 0.7493483599 -0.5180063812
C -0.3562540063 0.0636625275 0.2204950754
C -1.7573133484 0.7027362385 -0.0500454368
C -2.9642648493 -0.2168654265 0.3283632124
F -3.0943875990 -1.2250024158 -0.5410769411
F -4.0897580349 0.5119502527 0.3035622284
F -2.8056932678 -0.7198578348 1.5620699686
F -1.8772091924 1.0021510367 -1.3636119416
F -1.8710580991 1.8367000844 0.6763982195
F -0.1250681803 0.1223767812 1.5594105426
F -0.4058836373 -1.2443499982 -0.1440361825
F 0.7880913068 0.3592219303 -1.8252618381
F 0.6001494133 2.1030368905 -0.4876383058
H 2.5986681520 -1.3913120157 -0.9268401683
H 1.9242740055 -1.5764343684 0.6914681544
H 4.0489760442 -0.8594964788 1.7239724066
H 4.2631953707 -2.2549842983 0.6677380313
H 6.1045329338 -0.7141100444 0.3670322147
H 5.0101442200 0.6457865665 0.0458368777
H 2.8857494934 1.0632566202 -0.5568557115
H 2.2241866489 0.9094678929 1.0764324820
H 5.7640160347 -0.3662166228 -1.9212962851
