51
CONF54
C 0.0617762752 0.6698296345 2.9929977835
C -0.5852719661 1.7001182932 2.1103352351
C -1.2481527970 1.3249081705 1.0056172040
C -1.9223809481 2.2176472226 0.0525562606
C -2.0488201030 1.8510532680 -1.4482278031
C -3.2726825652 1.9168592511 -0.5461589900
C -4.0218848288 0.6650560682 -0.1529460405
C -4.1798755802 3.1036850897 -0.7957371580
C -1.4875046719 0.5873543065 -1.9612291418
O -1.5390555259 -0.5084663277 -1.4390112917
O -0.8655260447 0.8143757281 -3.1493904462
C -0.2020393928 -0.3425237956 -3.7460051843
C 1.1527509351 -0.5586243251 -3.1740183354
C 1.4985408567 -1.1941472967 -1.9334880610
C 2.8528051770 -1.1447468951 -1.8365611998
O 3.3793383688 -0.5194170166 -2.9413556041
C 2.3284607971 -0.1701845619 -3.7377715563
C 3.8347393978 -1.6051605531 -0.8154669428
C 3.1655202897 -2.3871122677 0.2867082709
C 2.9028506497 -3.7486043715 0.1252464476
C 2.2631929119 -4.4711048596 1.1263263917
C 1.8782132281 -3.8390610870 2.3057260680
C 2.1321901060 -2.4816031442 2.4737097677
C 2.7685578145 -1.7602911005 1.4675447374
C -0.4176417923 3.1137944399 2.5877463668
H 1.1373227941 0.8673775202 3.0960123923
H -0.0646490678 -0.3392871926 2.5940059175
H -0.3589593903 0.7009021692 4.0066946216
H -1.2893684375 0.2641282145 0.7784836789
H -1.7224664541 3.2768345452 0.1840237686
H -1.9181401693 2.6847713513 -2.1297209996
H -4.7476007027 0.4041576443 -0.9311599473
H -3.3670504441 -0.1914200334 -0.0056668421
H -4.5740390805 0.8526729679 0.7746883388
H -4.7622688646 3.3297968760 0.1045425222
H -3.6114074254 3.9986156567 -1.0664121969
H -4.8825884702 2.8873096766 -1.6082844926
H -0.1400139704 -0.0933509381 -4.8072806020
H -0.8376103942 -1.2209813205 -3.6062782217
H 0.8154520405 -1.6196605855 -1.2156197550
H 2.5768399588 0.3337831850 -4.6591190655
H 4.3601052511 -0.7374940804 -0.3954825483
H 4.5988125153 -2.2227383506 -1.3052507273
H 3.1999276561 -4.2426740818 -0.7959113424
H 2.0676562909 -5.5296801064 0.9874489109
H 1.3833440708 -4.4025429031 3.0900954249
H 1.8363553313 -1.9818200747 3.3907217108
H 2.9577814948 -0.6982907767 1.5980836573
H -0.8941424227 3.8536802458 1.9435270495
H 0.6473111858 3.3664638662 2.6674116176
H -0.8387038819 3.2258123848 3.5950055727
