24
CONF26
O 4.3967887698 1.1180970205 -1.1122450245
S 3.5601875353 0.0098084645 -0.2859672128
O 3.7388946521 -1.3137880925 -0.8696934677
O 3.7974015490 0.2979604113 1.1203877716
C 1.7770029953 0.5974130551 -0.6899291963
F 1.7597064376 1.9354024892 -0.6382950789
F 1.4940772159 0.1868180944 -1.9379126190
C 0.7480131687 0.0068787654 0.3274744083
F 1.0803066078 -1.2815068810 0.5687828653
F 0.8345474642 0.7104313234 1.4753459046
C -0.7303836467 0.0543636600 -0.2018430635
F -0.8914218787 -0.9417118758 -1.0984611740
F -0.9291412271 1.2445219706 -0.8176922656
C -1.7977979529 -0.0925777029 0.9322419035
F -1.8629160998 1.0662851224 1.6203207125
F -1.3962298553 -1.0796151006 1.7701022575
C -3.2566484432 -0.4746274084 0.4851571442
F -3.2577094485 -1.7394247164 0.0143346674
F -4.0093894159 -0.4292768423 1.6097348088
C -3.9503067762 0.4354453194 -0.5748612751
F -3.3715176111 0.2872444275 -1.7735348539
F -3.8832306418 1.7219414986 -0.2104291044
F -5.2360258641 0.0774207330 -0.6729841102
H 4.5208771232 0.8333336864 -2.0399111695
