45
CONF11
C -3.3453581666 1.5240925977 -0.4438834138
C -3.0387051285 0.3827212418 0.4781590492
N -3.7912584863 -0.6522343265 0.6129694846
O -4.9149955584 -0.5798677672 -0.2184020460
C -5.7007275299 -1.7692667499 -0.0462409202
C -1.8632581788 0.4179593402 1.3813431792
C -0.5819350680 0.7744354917 0.9163197923
C 0.4683805659 0.8556076242 1.8387011393
C 0.2779011470 0.5880588909 3.1854957237
C -0.9894991144 0.2360435842 3.6345759925
C -2.0509672134 0.1557959109 2.7424336759
O 1.7427098671 1.2658232391 1.4665984631
C 2.4509116550 0.5346746168 0.5585050450
N 1.9757366011 -0.6474018931 0.2001448294
C 2.7159632880 -1.3047564070 -0.7041322113
C 3.9066674175 -0.8016762271 -1.2148365686
C 4.2894695446 0.4437471851 -0.7212327298
N 3.5666633743 1.1355274328 0.1684381141
O 5.4380719139 0.9584575965 -1.1776924451
C 5.8412904065 2.2547269310 -0.6757916679
O 2.3042137178 -2.5009423384 -1.1414114320
C 1.0604886614 -3.0177250153 -0.6079839725
C -0.3057660687 1.0159211271 -0.5275919163
O 0.3522010929 1.9412972652 -0.9617067358
O -0.8653002055 0.0680990998 -1.2931929523
C -0.6493077844 0.2084180077 -2.7207824273
H -4.3011180335 1.9725609364 -0.1501871639
H -3.4554892332 1.1767425766 -1.4754464757
H -2.5748254870 2.2946165568 -0.3979799862
H -6.0410185581 -1.8630553819 0.9905932468
H -6.5585990948 -1.6474913055 -0.7103459651
H -5.1287062213 -2.6575825037 -0.3347949751
H 1.1227432453 0.6575961192 3.8617545317
H -1.1502352909 0.0341333017 4.6883520137
H -3.0464971329 -0.0871339837 3.0954078943
H 4.4978945706 -1.3402941025 -1.9429672546
H 6.7858996932 2.4656613448 -1.1760035488
H 5.9816648966 2.2197537102 0.4072041773
H 5.0963919382 3.0125653224 -0.9301630921
H 1.1394315663 -3.1625318485 0.4723735663
H 0.9174699698 -3.9734042974 -1.1110950592
H 0.2358282963 -2.3370425659 -0.8327679151
H 0.4207140122 0.1632578467 -2.9392481441
H -1.0625807837 1.1575143521 -3.0702805515
H -1.1725600934 -0.6325421500 -3.1732082424
