36
CONF4
C 5.5123731875 0.1377512378 2.1010967346
O 4.9115310571 0.7280680618 0.9401148947
C 3.7216210050 0.2165173623 0.5199613254
C 3.1658542004 0.8154643158 -0.6157864327
C 1.9558469886 0.3700765880 -1.1235485104
C 1.2650196801 -0.6894618320 -0.5204547987
C 1.8383190322 -1.2787099804 0.6068318524
C 3.0495491197 -0.8401973804 1.1369103067
C -0.0843498267 -1.2204578679 -0.9765946341
C -1.2591540650 -0.3382411860 -0.5885393200
C -1.2636120869 1.0477681794 -0.7900576381
C -2.3480546759 1.8210154697 -0.4124603114
C -3.4632306229 1.2253899981 0.1900495123
O -4.4764717193 2.0703516850 0.5241835112
C -5.6388826773 1.5005928631 1.1422960141
C -3.4708314270 -0.1523097930 0.4177150054
C -2.3709936023 -0.9129585451 0.0265183232
C -0.1334142992 -1.6648626215 -2.4646183329
Cl 1.3038654315 -2.6924761227 -2.8508504808
Cl -1.6161806199 -2.6713061252 -2.7505238248
Cl -0.1900381381 -0.3012067548 -3.6433885644
H 5.7339812982 -0.9223921607 1.9318286682
H 6.4407878206 0.6857524407 2.2628090692
H 4.8622601623 0.2462293190 2.9770694119
H 3.6966105101 1.6325180721 -1.0937873392
H 1.5672009131 0.8563977958 -2.0093519469
H 1.3292089627 -2.1059919229 1.0941772578
H 3.4513728998 -1.3312115344 2.0145081267
H -0.2226039437 -2.1723240504 -0.4511479960
H -0.4085205112 1.5398385734 -1.2378855671
H -2.3460432724 2.8945585224 -0.5710971174
H -6.1155190618 0.7688743881 0.4797740429
H -6.3178346842 2.3354294381 1.3169781270
H -5.3831073867 1.0267580078 2.0971281663
H -4.3101938672 -0.6421392442 0.8953870301
H -2.3863650933 -1.9831046147 0.2116787319
