47
CONF73
C -3.3334294257 0.6928437443 1.1533721971
C -2.4360956872 0.7132697321 -0.0636161122
C -3.0217884539 0.3703291249 -1.3960227284
C -2.1640401117 -0.6689781130 -0.6806404160
C -0.8508855255 -0.9896824001 -1.2539319997
O -0.2163816573 -0.3196526703 -2.0387553271
O -0.3997954048 -2.1804301776 -0.7405953340
C 0.9073187327 -2.6033394170 -1.1959858675
C 0.7904034744 -4.0051403455 -1.5880685847
N 0.7189089039 -5.1108275601 -1.9119328924
C 1.9549732859 -2.3637228111 -0.1232874928
C 1.9546905277 -1.1255900428 0.5186530751
C 2.9340063502 -0.8516993619 1.4665623694
C 3.9075466475 -1.7982810332 1.7823026986
C 3.8896755521 -3.0271030171 1.1401392367
C 2.9193324803 -3.3188639361 0.1837844410
O 2.9678815552 0.3167493767 2.1933647181
C 2.4265950974 1.4805554096 1.6769508144
C 2.6555266145 1.8883505142 0.3649797641
C 2.1482289905 3.1115317647 -0.0591103138
C 1.4339175912 3.9262080464 0.8159394368
C 1.2245341570 3.5095258721 2.1272002864
C 1.7140097869 2.2823134578 2.5625465668
C -4.4665866807 0.1175483807 -1.5797527541
C -4.9496544438 -0.7665276996 -2.4524359502
Cl -6.6522333947 -1.0251678629 -2.6870024438
Cl -3.9248434641 -1.7538576597 -3.4445026189
C -1.3295910399 1.7386920749 0.0052197779
H -3.8372538426 1.6595688939 1.2677299599
H -2.7394465175 0.5155792432 2.0555034045
H -4.0978807779 -0.0863204216 1.0899553435
H -2.5064132593 0.8044578172 -2.2524323399
H -2.6758472821 -1.4995982409 -0.2076875492
H 1.1598744982 -2.0144254485 -2.0894404335
H 1.2036175364 -0.3807513508 0.2848744625
H 4.6533678804 -1.5575249559 2.5313958663
H 4.6400039391 -3.7707460097 1.3870345743
H 2.9120933205 -4.2842903050 -0.3100806823
H 3.2234986229 1.2579600664 -0.3102196916
H 2.3223998575 3.4317915689 -1.0812830042
H 1.0458495378 4.8808063783 0.4773984939
H 0.6721787362 4.1388645488 2.8176535286
H 1.5631693262 1.9386080942 3.5800338765
H -5.1853456339 0.6926623751 -1.0030475503
H -0.7081353850 1.7407821327 -0.8912782325
H -0.6839425626 1.5562612460 0.8714589716
H -1.7640109653 2.7372616547 0.1241031658
