48
CONF5
C -2.6359830954 2.2590035599 0.0123289906
C -3.7041605794 1.2494454336 -0.4321384839
C -3.7794257577 1.2391261761 -1.9663168531
C -5.0627422703 1.6872419085 0.1354644303
C -3.3989200253 -0.1672931858 0.1262147012
C -1.9474846876 -0.6413414248 -0.1552725700
N -1.8413249735 -2.1015746349 -0.1345113904
C -1.8646550760 -2.9298770050 0.9282789339
N -1.8416129698 -4.1931385003 0.5184778159
C -1.8197976326 -4.0695598271 -0.8389749074
N -1.8205397336 -2.8188847400 -1.2832290906
O -1.1439964191 -0.1078984547 0.8742934769
C 0.2191446263 -0.0278432796 0.6821657784
C 0.9165992995 0.6393502235 1.6899780095
C 2.2913772731 0.7843118266 1.5975166232
C 3.0050976819 0.2692169539 0.5040053071
C 2.2825392681 -0.3997660214 -0.4895734830
C 0.9008798548 -0.5570049351 -0.4123614172
C 4.4707235864 0.4285421222 0.4068776521
C 5.2713323427 -0.5886282180 -0.1333816548
C 6.6507853789 -0.4355701926 -0.2280377560
C 7.2605037304 0.7357254239 0.2175216618
C 6.4766540362 1.7532971996 0.7582146224
C 5.0968117630 1.6024804641 0.8512495555
O -4.3400777486 -1.1362744649 -0.3204071313
H -1.6621128345 2.0592253082 -0.4459964291
H -2.5109518645 2.2545314653 1.0997305785
H -2.9475814158 3.2630098146 -0.2939528188
H -3.9634059728 2.2575688869 -2.3227374191
H -2.8479336916 0.8940498756 -2.4279613036
H -4.6033709914 0.6177693568 -2.3338762558
H -5.3216461874 2.6801732501 -0.2462119405
H -5.8546285302 0.9902410974 -0.1526722109
H -5.0268382083 1.7399627714 1.2292504315
H -3.5044500258 -0.1427899454 1.2184526072
H -1.6066658167 -0.3261455306 -1.1480263387
H -1.8866511241 -2.5775856195 1.9509913837
H -1.7950376300 -4.9142339657 -1.5160003230
H 0.3690376412 1.0331158024 2.5400989142
H 2.8217824266 1.2893857261 2.3985944758
H 2.8002130613 -0.7954083360 -1.3577565675
H 0.3875626305 -1.0855911711 -1.2064769849
H 4.8114185093 -1.5158489041 -0.4613555983
H 7.2527534740 -1.2386105735 -0.6425030900
H 8.3369437446 0.8544614295 0.1442897579
H 6.9403534100 2.6734803020 1.1007081419
H 4.4954531743 2.4129913846 1.2517365082
H -4.3259696402 -1.1647415234 -1.2867087366
