26
CONF145
C -3.0406892010 -0.1026717509 0.2440025299
C -1.7125980662 0.5423011108 0.6048825434
C -0.5047683051 -0.3494537051 0.2532614823
C 0.8015991190 0.2156091344 0.8240537539
C 2.0128499577 -0.7140110975 0.6357808346
C 2.2372360431 -1.1547539034 -0.8022024514
O 2.3652568150 0.0178905462 -1.6319217720
O 3.1805768852 -0.0910141043 1.1826598303
O 1.0739498648 1.5176097385 0.2650804562
O -0.6575012779 -1.6544848788 0.8218987145
O -1.6610174782 1.7787325133 -0.1197890898
O -3.0901256267 -0.5121470600 -1.1272353834
H -3.2083877268 -0.9976150900 0.8490287821
H -3.8426513293 0.6156324882 0.4690729749
H -1.7091733648 0.7265047776 1.6934361553
H -0.4254333145 -0.4058245037 -0.8430120012
H 0.6745252489 0.3803504358 1.9016552138
H 1.8437375826 -1.6181019716 1.2281867998
H 1.3933192370 -1.7744149239 -1.1332682888
H 3.1546623433 -1.7562463001 -0.8491856443
H 3.2139299119 0.8087798884 0.8283101480
H 1.3781515840 1.3564676516 -0.6475509582
H -1.3025374122 -2.1347473885 0.2880822033
H -0.7401190505 2.0874665451 -0.0648774011
H 2.3701074877 -0.2582628683 -2.5557367494
H -2.8853123588 0.2702289529 -1.6569233129
