57
CONF2
C -3.5471660491 2.4767498813 -2.0019393801
C -4.0436977912 2.3558989392 -0.5622627243
C -2.9243286451 1.8424287229 0.3381514665
N -2.4444766574 0.5278954013 -0.1265079485
C -1.8729399061 0.6667408148 -1.4743451822
C -2.9433218281 1.1488050970 -2.4534753437
C -1.5893686165 -0.1426498189 0.8900317063
C -0.3517001565 0.6760795588 1.3035998497
C 0.6567010403 -0.0793093933 2.1723657601
N 1.0139153855 -1.3843159158 1.6065893364
C -0.1808241461 -2.1981626067 1.3765996661
C -1.0894222538 -1.5045111998 0.3696036198
C 2.0131599295 -2.0793382824 2.4197015178
C 2.8258914733 -3.0608479605 1.5801630501
C 3.4467886458 -2.3369029404 0.3811407331
C 2.3995024946 -1.9109363258 -0.6290399778
O 1.6855869647 -2.7680710962 -1.1517581360
C 2.3435188895 -0.4991635192 -1.1171107169
C 1.6567059022 -0.2394347404 -2.3103206371
C 1.5418410632 1.0510888602 -2.8075099035
C 2.1178392246 2.0815573022 -2.0820854927
C 2.8090687218 1.8735658762 -0.8993022319
C 2.9242627621 0.5720765163 -0.4263998212
F 2.0006670877 3.3483669613 -2.5507187492
C -2.5166305001 -0.4107248370 2.1090352091
O -2.1920687107 -0.1566797719 3.2710272269
N -3.6927486455 -0.9962601532 1.7945033222
H -4.3598999757 2.7814446049 -2.6709991661
H -2.7758472438 3.2582458470 -2.0498276584
H -4.3914897350 3.3253471886 -0.1869508557
H -4.8912717896 1.6594642037 -0.5146719817
H -3.2859273018 1.7492410284 1.3691147996
H -2.1057397613 2.5867708082 0.3452718048
H -1.4912797453 -0.2969772303 -1.8172776394
H -1.0258517997 1.3795495171 -1.4889187098
H -2.4933812528 1.2446684181 -3.4487021792
H -3.7319413966 0.3878944539 -2.5200060985
H 0.1511117737 0.9839664140 0.3786213895
H -0.6498151696 1.5822024651 1.8392078553
H 1.5729298544 0.5209615907 2.2440101648
H 0.2545104617 -0.1933731489 3.1925871119
H 0.1246547331 -3.1643401765 0.9631766499
H -0.7139374002 -2.4008116468 2.3268057083
H -0.4874759992 -1.3443221757 -0.5284993932
H -1.9339385558 -2.1490028547 0.1044946771
H 2.6966377642 -1.3247411553 2.8292408532
H 1.5494434977 -2.5979080668 3.2796700944
H 3.6162041797 -3.4948092342 2.2021252284
H 2.2052245263 -3.8909052456 1.2257464086
H 4.0581650370 -1.5006512818 0.7268440153
H 1.0130529867 1.2628978192 -3.7305879366
H 3.2397167297 2.7130433678 -0.3644091555
H 3.4458331511 0.4076540890 0.5088728386
H -3.9897502667 -0.9949367952 0.8292953573
H 1.2070852791 -1.0673608791 -2.8473735837
H 4.1125498669 -3.0227136519 -0.1587949310
H -4.3835396933 -1.1239943899 2.5182460893
