51
CONF120
C -2.8000171838 -0.4115366236 2.5044018685
N -2.2301014273 -1.5345116551 1.7552114865
C -2.9851375005 -2.7510658482 2.1054075982
C -2.4886531410 -3.9727898087 1.3466757081
C -1.0079539420 -4.1965354099 1.6361391794
C -0.2324162039 -2.9242658048 1.3084145178
C -0.7923144538 -1.7053972140 2.0523673829
C 0.0205071531 -0.4394362217 1.7314959342
C -0.1891449992 0.0775199370 0.3054888278
N 0.8460008797 1.0481240714 -0.0751616694
C 0.9776103516 2.2432121321 0.6623039371
C -0.0690766120 2.7670822892 1.4296554169
C 0.1123729756 3.9265949177 2.1785218863
C 1.3259539901 4.6073639014 2.1475748705
C 2.3606099706 4.1259630527 1.3489077694
C 2.1927494542 2.9475355700 0.6280973540
S 3.5339981889 2.2670936590 -0.3253034280
C 2.5678598582 1.6372110573 -1.6801778200
C 1.3174960581 1.0548292779 -1.4009345036
C 0.5827130394 0.5102735382 -2.4558448189
C 1.1037208571 0.4931476527 -3.7568723426
C 2.3483710288 1.0658475695 -4.0213924705
C 3.0597832092 1.6556893731 -2.9779722058
S 0.0784724212 -0.2710622751 -4.9931371415
C 1.0110838506 -0.0116277923 -6.5387753596
H -2.6391706377 -0.5078023956 3.5955908299
H -3.8786226291 -0.3686412700 2.3224870353
H -2.3731433962 0.5412304422 2.1814422180
H -4.0419181781 -2.5662892084 1.8787320664
H -2.9156741846 -2.9496292815 3.1959093276
H -3.0845492904 -4.8445372704 1.6401842434
H -2.6372318186 -3.8177848540 0.2700159386
H -0.6176253132 -5.0418233182 1.0582217748
H -0.8784235657 -4.4426974709 2.6993045359
H 0.8247817936 -3.0341860998 1.5763299281
H -0.2783892028 -2.7507924465 0.2258187318
H -0.6647703095 -1.8976987061 3.1401456118
H 1.0806294487 -0.6918029672 1.8520049673
H -0.1930845694 0.3420260844 2.4656414308
H -0.0872172113 -0.7621363638 -0.3831297061
H -1.2033299597 0.4780108812 0.1657993152
H -1.0310638746 2.2691311399 1.4440577997
H -0.7097154601 4.3027504345 2.7790814808
H 1.4664839839 5.5131900407 2.7276755014
H 3.3080713788 4.6533438661 1.2954385834
H -0.4057381406 0.1024313733 -2.2750103136
H 2.7719704648 1.0721211625 -5.0173956851
H 4.0243375530 2.1123568721 -3.1780491510
H 1.1532453544 1.0537731387 -6.7359255754
H 1.9730115318 -0.5290991123 -6.5112466843
H 0.3926472244 -0.4447040166 -7.3282157859
