43
CONF2
C 0.9338605083 0.2009632510 2.2005117212
C 2.4214112141 0.4480668479 2.3259518680
O 3.1044511409 0.0208386030 1.1021603882
C 3.4394606590 -1.2675976168 1.0115702517
O 3.3188949977 -2.0926914910 1.8945879702
C 4.0732136864 -1.6015612520 -0.3399314338
C 5.5785262375 -1.3961472227 -0.2656990416
O 3.5897784070 -0.7634586709 -1.3946911465
C 2.2484243555 -0.7914550272 -1.6717191206
C 1.7931828696 0.2053390244 -2.5393701161
C 0.4480835499 0.2756099382 -2.8737603730
C -0.4314525805 -0.6534953241 -2.3358453066
C 0.0051489595 -1.6554088935 -1.4871772738
C 1.3546948456 -1.7299913314 -1.1493546856
O -1.7818888888 -0.6082393307 -2.7209205463
C -2.6640483611 -0.0265701718 -1.8705369816
C -4.0264388483 -0.0658433111 -2.3011983278
N -4.9833862917 0.4558470637 -1.5816302305
C -4.6245472557 1.0420369273 -0.3977912525
C -5.6245002692 1.6147899186 0.4130332713
C -5.2529266763 2.2014783722 1.5989711594
C -3.9129041569 2.2496416198 2.0260637956
C -2.9303350641 1.6923532551 1.2394710839
C -3.2617107757 1.0767035811 0.0154215529
N -2.2787086944 0.5243043514 -0.7545516307
Cl -6.4825601246 2.9210583617 2.6277473095
H 0.7156463049 -0.8675996775 2.1200978267
H 0.5309475793 0.7118762279 1.3209342955
H 0.4281131997 0.5915896717 3.0890974316
H 2.8595571567 -0.0795400825 3.1762218127
H 2.6502183891 1.5128103550 2.3968885562
H 3.8488986944 -2.6544664412 -0.5510309364
H 5.9970011209 -2.0220087547 0.5262337669
H 6.0316826411 -1.6829673309 -1.2177179572
H 5.8104053089 -0.3483885923 -0.0563637378
H 2.5017536413 0.9235157542 -2.9381725026
H 0.0800751354 1.0496848028 -3.5388647672
H -0.7016732284 -2.3730489476 -1.0839747153
H 1.6808747315 -2.5208417375 -0.4848574581
H -4.2756244491 -0.5407304674 -3.2483825176
H -6.6577541659 1.5808224791 0.0867345091
H -3.6628339008 2.7238638166 2.9682769941
H -1.8910112114 1.7188573567 1.5497822932
