51
CONF81
C 0.1199682792 -0.7904373196 2.0801045105
C -0.7024542918 0.3729902357 1.6063707279
C -1.8325153410 0.1803807630 0.9049824076
C -2.7181561039 1.2446778432 0.3986736055
C -2.8258044232 1.5466316528 -1.1370555482
C -3.9895613782 0.9700761227 -0.3469549098
C -4.4671388384 -0.4453286016 -0.5814129248
C -5.1261501990 1.9469849116 -0.1182560030
C -1.9500442475 0.7757162972 -2.0251714628
O -1.7637391283 -0.4267652035 -2.0254288543
O -1.2764844804 1.6221384163 -2.8618764819
C -0.1627279788 1.0258574721 -3.5728179800
C 0.9843493431 0.8088685065 -2.6407931255
C 2.0336897422 -0.1601084831 -2.7665976397
C 2.8389039326 -0.0131430961 -1.6778338968
O 2.3519242663 0.9879003613 -0.8774061611
C 1.2244510297 1.4803800544 -1.4830309472
C 4.0510037079 -0.7237153051 -1.1908794022
C 3.7929269817 -1.4711677989 0.1033099770
C 4.2143634637 -0.9496653843 1.3275393676
C 3.9527762910 -1.6298187668 2.5160736388
C 3.2660965276 -2.8409413960 2.4917765782
C 2.8396715207 -3.3671600376 1.2730299620
C 3.0992483416 -2.6846729409 0.0881612889
C -0.1431132838 1.7189234568 1.9652082782
H -0.3390629395 -1.7485339989 1.8220165220
H 0.2640838211 -0.7518949602 3.1677614562
H 1.1235854681 -0.7562822477 1.6351004234
H -2.1198840573 -0.8445422908 0.6875367220
H -2.7171608122 2.1677867714 0.9717550754
H -2.8885298931 2.6012746102 -1.3835014782
H -5.1661832789 -0.4607918391 -1.4247303082
H -3.6571988807 -1.1379513029 -0.8027082495
H -5.0045399835 -0.7974772962 0.3063786884
H -5.7930183452 1.9686524203 -0.9873172515
H -5.7134028859 1.6397808721 0.7543885129
H -4.7548166125 2.9607955800 0.0577605466
H 0.0784305502 1.7479765114 -4.3576874712
H -0.4688221232 0.0850786462 -4.0391803768
H 2.1641837070 -0.8802014516 -3.5618154261
H 0.7093492378 2.2711668380 -0.9606713978
H 4.8689469729 -0.0082621514 -1.0446320808
H 4.3576284103 -1.4227403780 -1.9746774676
H 4.7537247897 -0.0064414956 1.3497654467
H 4.2877526163 -1.2124290468 3.4609738803
H 3.0629439029 -3.3723478471 3.4164026017
H 2.3041029045 -4.3114690389 1.2458197396
H 2.7636928221 -3.0961642560 -0.8606327321
H -0.6794335517 2.5480272992 1.5005050777
H 0.9091591296 1.7778127545 1.6597001303
H -0.1570147124 1.8605752521 3.0536796222
