82
CONF345
C -5.1495025607 -1.0877899947 -2.2955819114
C -5.1379318408 0.2991596746 -1.7067152462
C -6.2811895858 0.9691134713 -1.5294859327
C -3.7451234028 0.8228170562 -1.4164262230
C -3.5930390785 2.3196187889 -1.0340770866
C -2.7314772205 2.3687284031 0.2426887523
C -2.9505907855 1.0036318440 0.9152942188
C -3.0139537004 0.0235448186 -0.2821588193
C -1.6453961931 -0.5437335286 -0.7479317942
C -0.7588988385 0.4134098432 -1.5473949812
C 0.3999967546 -0.3471673553 -2.1816374539
C 1.3501961753 -1.0065005498 -1.1638928895
C 2.5995093195 -0.0870816331 -0.8029693805
C 2.2450841123 1.3832695743 -0.5072443596
C 3.4542323999 2.2379495213 -0.1210180277
C 4.1797052113 1.6884788591 1.0978885433
C 4.5905455281 0.2051773791 0.9192766422
C 3.3994696549 -0.6838713139 0.4027711042
C 2.4367504269 -1.0862955772 1.5260401494
C 1.4672512535 -2.1732337272 1.0793952408
C 0.5243145061 -1.8129874489 -0.0836860821
C -0.8435297678 -1.1549091832 0.4338544754
C -0.6143971129 -0.0321375802 1.4660195668
C -1.8972978478 0.6366238611 1.9773152623
C -1.7114757011 -2.2409053974 1.1073040363
C 0.1642171299 -3.1603538021 -0.7672975027
C 5.7987532194 0.1616869199 -0.0423651046
C 5.1421801197 -0.3313247662 2.2544948601
O 3.2927467345 1.9086703272 2.2163406769
C 3.4557656380 -0.1352583417 -2.0972325163
C -4.3322888814 0.9949414857 1.5991876472
O -4.4443222758 1.9311211587 2.6820284090
H -4.6550732010 -1.8079681192 -1.6330715899
H -4.5901482308 -1.1015760918 -3.2396815777
H -6.1672623361 -1.4365149906 -2.4864536277
H -6.3196222538 1.9766792003 -1.1293704576
H -7.2324352173 0.5116125862 -1.7871793456
H -3.2024509895 0.6368392124 -2.3504460324
H -3.1413991140 2.8876990971 -1.8534632906
H -4.5651181991 2.7781902739 -0.8397178753
H -1.6732625766 2.5066025906 0.0022314373
H -3.0193671755 3.1881489765 0.9098938149
H -3.6239349547 -0.8404732110 0.0028348939
H -1.9058775128 -1.3605992803 -1.4392458106
H -1.3300996558 0.8978493438 -2.3459456212
H -0.3765048297 1.2177497111 -0.9168558304
H 0.9517155880 0.3237719205 -2.8468638246
H -0.0222037738 -1.1276682292 -2.8292900785
H 1.8575033922 -1.8138163765 -1.7075563836
H 1.5254837334 1.4397846651 0.3117312295
H 1.7618482487 1.8279252844 -1.3845890139
H 4.1609392689 2.3210123910 -0.9517662298
H 3.1261884761 3.2594819597 0.1043686906
H 5.1025495316 2.2695477679 1.2643967342
H 3.8600363936 -1.6189305048 0.0434048711
H 3.0026511679 -1.4958068036 2.3663653160
H 1.9190447666 -0.2043709476 1.9039775565
H 0.8846353539 -2.5293294685 1.9373314586
H 2.0771424989 -3.0313120255 0.7599694542
H -0.0887492481 -0.4374649034 2.3361887979
H 0.0366590529 0.7325654891 1.0410459572
H -2.3631196649 -0.0272311243 2.7177123668
H -1.6143663993 1.5432484408 2.5284569082
H -2.1477583586 -2.9219738737 0.3715033244
H -2.5410339546 -1.7945821184 1.6578297903
H -1.1362142402 -2.8341798224 1.8244323382
H -0.2005380050 -3.8877929426 -0.0378674580
H 1.0598419066 -3.5883403033 -1.2277310734
H -0.5964919219 -3.0560150025 -1.5467173023
H 6.6614163789 0.6441975474 0.4299797314
H 5.6242232589 0.6626573323 -0.9919432540
H 6.0704228266 -0.8776216004 -0.2554628087
H 6.0305149715 0.2436620447 2.5410073114
H 5.4432858013 -1.3798354044 2.1461132330
H 4.4296099748 -0.2811963579 3.0804650189
H 3.7608244608 1.6600779378 3.0218644803
H 4.0575501037 -1.0496273521 -2.1309471296
H 4.1284469779 0.7153547725 -2.1980418747
H 2.8189305977 -0.1282132555 -2.9853773335
H -5.1180376450 1.2716808346 0.8923752257
H -4.5429985512 -0.0264453541 1.9546930474
H -3.8277018793 1.6581535826 3.3726283667
