24
CONF161
C -4.3084088537 -0.2452923844 -0.9057356328
C -2.9606634899 -0.1435395751 -0.2116950954
C -2.1821393848 1.0712883575 -0.7513257102
C -0.7732983619 1.3582525440 -0.1297635849
C 0.1953709801 0.1327934585 -0.0909991926
C 1.6955960075 0.5081183070 0.1503709294
C 2.5862844683 -0.6891787923 0.6199800070
F 3.8712984309 -0.3171674556 0.5663626716
F 2.4070324363 -1.7486376097 -0.1822310184
F 2.2956766871 -1.0381065508 1.8783275527
F 2.2125965799 0.9732715836 -1.0058275853
F 1.7793485879 1.4703074796 1.0962189366
F 0.1132541563 -0.5518862587 -1.2521952923
F -0.2125830388 -0.6937578353 0.9184999105
F -0.9378078128 1.7986251515 1.1422093375
F -0.1826476877 2.3414162079 -0.8514989506
F -1.9955500437 0.9170127406 -2.0976248468
F -2.8949965331 2.2155934160 -0.5641902805
O -3.2087423507 -0.0171052496 1.1788218060
H -4.8191585220 -1.1372032638 -0.5375550837
H -4.1911885945 -0.3227223662 -1.9882250637
H -4.9181482681 0.6293862823 -0.6690244101
H -2.3591610202 -1.0363514259 -0.4379306575
H -2.3962661987 -0.1846146716 1.6698573919
