20
CONF1
C 3.0265428274 0.4880365154 0.1989706657
C 1.9473619461 -0.2873994953 0.2558777154
C 0.5506047612 0.1472564503 -0.0582145769
C -0.3821584646 -0.0423632279 1.1494882488
C -1.7743284900 0.5195427626 0.8563400142
C -2.2740032267 0.1032031073 -0.4966504804
C -1.4889327311 -0.4308657748 -1.4327918892
C -0.0112071358 -0.6320590033 -1.2601401649
H 4.0138349778 0.1091333615 0.4423475297
H 2.9553004346 1.5323470698 -0.0950343174
H 2.0566089753 -1.3322666277 0.5539431338
H 0.5617052131 1.2156786379 -0.3170039793
H 0.0484253554 0.4381477747 2.0344175854
H -0.4585503578 -1.1162514451 1.3683452026
H -1.7586894980 1.6180210907 0.9197863317
H -2.4829484069 0.1910997545 1.6272936696
H -3.3325788364 0.2461238053 -0.7033964266
H -1.9205178854 -0.7341108496 -2.3845798783
H 0.5176880340 -0.3283406305 -2.1721966121
H 0.2058423080 -1.7049329757 -1.1377085714
