37
CONF9
C 4.5127932928 -0.8232077311 -0.4885106822
C 3.6777549485 0.4122085288 -0.8258968224
C 2.3447288182 0.4843859764 -0.0742735803
C 1.3884688296 -0.6423280680 -0.4549294703
C 0.0075477202 -0.5572471946 0.2573952278
C -0.8573200236 -1.7554205259 -0.2506499658
N -2.1625998606 -1.8302081296 0.3764669987
C -2.5149986632 -2.4803031110 1.5063950797
N -3.7922930446 -2.2561987536 1.7848286252
C -4.1820001495 -1.4373556107 0.7662333873
N -3.2309607632 -1.1491610922 -0.1117766315
C 0.2393786517 -0.7580397974 1.6883693003
N 0.4425319378 -0.9624973706 2.8076382200
C -0.7070959059 0.7692468990 0.0027792127
C -0.8686584894 1.2100486970 -1.3132942945
C -1.5470688465 2.3890645833 -1.5930482415
C -2.0687894155 3.1297457692 -0.5384070342
Cl -2.9308576999 4.6241942898 -0.8844187649
C -1.9244156853 2.7181412468 0.7779648711
C -1.2399061697 1.5335976291 1.0384522354
H 5.4905566538 -0.7782049377 -0.9781353333
H 4.0249554931 -1.7473273377 -0.8140577437
H 4.6799941160 -0.8947418345 0.5923392545
H 4.2551587596 1.3127838360 -0.5859600239
H 3.4839738978 0.4464092053 -1.9061452943
H 1.8651706709 1.4475698298 -0.2846024724
H 2.5367685678 0.4542602147 1.0069907896
H 1.8219171724 -1.6184503605 -0.2142024367
H 1.2052154089 -0.6324377770 -1.5351638666
H -0.9987405887 -1.6456103753 -1.3280085642
H -0.3290480578 -2.6919258544 -0.0533787704
H -1.8242866200 -3.0980518563 2.0658960146
H -5.1877845733 -1.0499126883 0.6626831227
H -0.4719530727 0.6350996351 -2.1436062345
H -1.6679764930 2.7238059637 -2.6169392124
H -2.3364425683 3.3047074712 1.5910346218
H -1.1337190261 1.2133613351 2.0699377695
