44
CONF59
C -4.0753702871 -2.8156069773 -0.3307845658
S -2.7991760531 -2.8877043158 -1.5970662357
O -3.3394393964 -2.3608303095 -2.8680765535
O -2.2374287986 -4.2556729599 -1.5966962244
C -1.4671221289 -1.7858015707 -0.9857264794
C -1.4567340293 -0.3927333142 -1.1916822577
C -0.3339155787 0.2849806505 -0.6986761604
C 0.7075518075 -0.3629396276 -0.0333753672
C 0.6335311313 -1.7349971868 0.1787593001
C -0.4492360236 -2.4498882309 -0.3118707502
C 1.9176025155 0.3594084201 0.4851100085
O 2.1621054053 0.3747209107 1.6740907125
C 2.8626520975 0.9157862825 -0.5804583231
C 4.0673198912 -0.0604541189 -0.6434359893
O 4.1422619470 -0.8509519239 -1.5583809303
C 5.0748671527 0.0821287079 0.4582828763
C 5.5098937073 1.5461980799 0.6262580460
C 4.3082581913 2.4760892720 0.8689055217
C 3.3352839518 2.3455230271 -0.2631685532
O 2.9632467622 3.2636164639 -0.9632840995
Cl -0.2027583578 2.0322724597 -0.8358351753
C -2.5937242503 0.3441120244 -1.8680288373
O -3.7795860613 0.3572094996 -1.0584232756
C -3.6553608774 1.1917078217 0.0798050467
C -5.0136880757 1.2584912653 0.7420223005
F -5.4485797406 0.0418344947 1.1495240167
F -5.9607401449 1.7616113585 -0.0798503852
F -4.9563105445 2.0539676267 1.8346885429
H -4.8393639483 -3.5340808388 -0.6419713149
H -3.6266218180 -3.1086929766 0.6210547126
H -4.4705478558 -1.8003394833 -0.2986061286
H 1.4329261345 -2.2415083315 0.7093154261
H -0.4976604507 -3.5235344038 -0.1777091505
H 2.3713230480 0.9066068217 -1.5542341587
H 4.5997568895 -0.2549669730 1.3896955654
H 5.9228528591 -0.5712397339 0.2426737995
H 6.0553152561 1.8737471356 -0.2657521694
H 6.1934008822 1.6181713358 1.4756783238
H 4.6175542257 3.5198523804 0.9526894036
H 3.8042928864 2.1699278308 1.7945020194
H -2.2969513183 1.3685284672 -2.1080714755
H -2.8745322039 -0.1680922536 -2.7859909573
H -2.9406190856 0.7974845379 0.8170607408
H -3.3665286231 2.2160591632 -0.1944835434
