33
CONF16
C -2.8571343227 -1.4658137281 -0.9735423608
C -2.5233335825 -0.0220063030 -1.4098104407
C -2.9680631064 0.9308297830 -0.3129628702
O -4.3075376955 1.0924582538 -0.3322023759
O -2.2516342601 1.4669925529 0.5058191304
C -1.0647291645 0.1558752472 -1.7566967297
C -0.6991176146 0.6352577538 -3.0151022759
C 0.6444573790 0.7774469322 -3.3646046594
C 1.6378623924 0.4401249488 -2.4581081551
C 1.2877953551 -0.0190971986 -1.1815331444
C -0.0604593291 -0.1603159399 -0.8405796326
C 2.3711541236 -0.4148605358 -0.2394978468
O 3.4341655799 -0.8611152157 -0.6681157373
C 2.1550764570 -0.2656912643 1.2264650333
C 2.8059718115 -1.1505436000 2.0958061707
C 2.6615244074 -1.0137977764 3.4697899510
C 1.8887477638 0.0252574823 3.9901638936
C 1.2570141962 0.9229710311 3.1323124370
C 1.3782593607 0.7733001400 1.7547189756
H -2.5477193464 -2.1584675036 -1.7601080295
H -3.9312937611 -1.5777833892 -0.8083541361
H -2.3326618223 -1.7288920035 -0.0509153606
H -3.1256640499 0.2094992338 -2.2943374933
H -4.5562366070 1.6684767971 0.4112692486
H -1.4723092247 0.8968696496 -3.7322668560
H 0.9091199255 1.1518801448 -4.3483300623
H 2.6865468601 0.5392232786 -2.7178438910
H -0.3252338217 -0.5403040023 0.1396411575
H 3.4111529701 -1.9495133613 1.6798916314
H 3.1512801674 -1.7143490951 4.1387098865
H 1.7825236312 0.1360976658 5.0648112136
H 0.6681110328 1.7402566556 3.5362395877
H 0.8923644802 1.4797334669 1.0899952391
