56
CONF3466
C -3.4188719366 0.3014103692 -0.7253910195
N -3.1419775364 -0.3490852406 0.5552614441
C -4.2447564094 -1.1021354559 1.1586019297
C -5.1410457434 -0.2740973808 2.0944721122
C -4.3989044122 0.2886417792 3.2996056620
O -3.8365646741 -0.7540414829 4.1030677933
O -6.2254978458 -1.1087931377 2.5166838644
C -1.9255216646 -0.3972867492 1.1215515228
O -1.6872644816 -0.9114189398 2.2255555441
C -0.7604435182 0.1527125648 0.3340911382
C -0.2691521606 1.4404641895 0.5453925450
C 0.8844567319 1.9035612675 -0.0988748047
C 1.5387761044 1.0345239805 -0.9807619584
C 1.0664363163 -0.2533371410 -1.2306693494
C -0.0785348953 -0.6767704502 -0.5580945638
I -0.8108253129 -2.6408078944 -0.9041190336
C 1.7445064441 -1.1395418599 -2.2516256342
O 1.4014463023 -1.0926628114 -3.4334116415
N 2.7159395086 -1.9210172630 -1.7569547617
C 3.4695144462 -2.8536636914 -2.5845257646
C 2.8059396085 -4.2335642236 -2.6403082586
C 3.5478528544 -5.1889054444 -3.5701968765
O 4.8303691345 -5.5519605278 -3.0347364101
O 2.6968991123 -4.7971889366 -1.3285993011
I 3.2980351745 1.7097297027 -1.9467087648
N 1.3822877954 3.1984275258 0.1377525399
C 2.0893996990 3.5139236419 1.2610010338
O 2.2754113969 2.7409902419 2.1936197821
C 2.6843888675 4.9175375200 1.2600414046
O 2.2179721228 5.7515006210 0.2149739971
C 0.9857098995 6.4097631820 0.5495086015
I -1.3457284203 2.7561071423 1.8001668646
H -2.5909520034 0.9491030717 -1.0135830439
H -3.5791131133 -0.4514980198 -1.5059140731
H -4.3208121894 0.9127009414 -0.6300747961
H -4.8612909958 -1.4939402330 0.3435536447
H -3.8280536502 -1.9516635901 1.7098174458
H -5.5874247198 0.5594884494 1.5386417508
H -5.1143137411 0.8288095464 3.9285288373
H -3.6271683695 0.9969424247 2.9698755680
H -3.0336571584 -1.0413261196 3.6320875106
H -5.8613891720 -1.7079834629 3.1853766382
H 2.8803427286 -1.9136981932 -0.7606968694
H 3.5421466907 -2.4375750345 -3.5944941963
H 4.4780675087 -2.9350014431 -2.1649374628
H 1.7799179501 -4.1166937204 -3.0108882636
H 2.9749151513 -6.1180275018 -3.6478540623
H 3.6423383238 -4.7505780127 -4.5722692676
H 5.4662185132 -4.8658988349 -3.2712644533
H 3.5835793102 -5.1102885931 -1.0946059154
H 1.4109912923 3.8663197538 -0.6256698600
H 3.7669676879 4.7950381885 1.1307872659
H 2.5089064365 5.3584235936 2.2512426278
H 0.6919786127 6.9915237298 -0.3259579261
H 1.1311905507 7.0790572887 1.4070513826
H 0.1963611548 5.6837487838 0.7865363760
