55
CONF52
C -0.2996427901 -6.6759150273 3.9112360242
C 0.2196349006 -5.3157980937 3.5086979951
O -0.8302968418 -4.6708613154 2.7407636658
C -0.5268295703 -3.4188289405 2.3066165033
O 0.5239193853 -2.8500538152 2.5166313765
N -1.5994565935 -2.9270091002 1.6033000581
C -1.6882999257 -1.6947742131 0.9401830839
C -0.8129543293 -0.6377661628 1.1933418048
C -0.9348168304 0.5453494713 0.4687903484
C -1.9941661369 0.7281478435 -0.4249859269
C -2.8925241020 -0.3157092433 -0.6389568931
C -2.7248377049 -1.5265856356 0.0126847170
S -2.1822892374 2.2826463744 -1.2591427063
C -1.5928083248 3.3402605734 0.0460070435
C -2.1433979863 4.6092475023 0.2187377382
C -1.6550204819 5.4407580140 1.2189637520
C -0.6458753341 4.9939399167 2.0680785577
C -0.1094390780 3.7215810305 1.9120909340
C -0.5651971315 2.8990012717 0.8851082859
N -0.0054302892 1.6034722426 0.6628936361
C 1.3795879855 1.4800096274 0.4641358478
O 2.1261773997 2.4219070753 0.6681982323
C 1.9172709526 0.1585510047 -0.0435797073
C 2.8660955247 0.3498725812 -1.2531231461
N 2.2442432514 0.6498876005 -2.5357060197
C 1.6266849576 1.9740363189 -2.6133791005
C 1.1852364365 2.2401482973 -4.0445462241
O 0.2724571649 1.2410444831 -4.5010044381
C 0.8734194134 -0.0479523407 -4.4196169848
C 1.3002884155 -0.3657408532 -2.9934771362
H -1.2003940682 -6.5845686967 4.5240048818
H 0.4632426144 -7.1986662434 4.4952315799
H -0.5348822119 -7.2809271795 3.0315543149
H 1.1180623195 -5.3848315527 2.8867065190
H 0.4547128188 -4.6905611795 4.3760983126
H -2.3662687974 -3.5688304653 1.4761160674
H -0.0205611625 -0.7445365829 1.9205404887
H -3.7204156523 -0.1800790331 -1.3266902354
H -3.4162597970 -2.3410310244 -0.1828352452
H -2.9508256635 4.9360183685 -0.4283327518
H -2.0771682834 6.4321181074 1.3453665503
H -0.2732453451 5.6372986860 2.8578218755
H 0.6811574920 3.3679389949 2.5610968034
H 2.5026424438 -0.2741155105 0.7769724949
H 1.1366323242 -0.5602526986 -0.2878143814
H 3.5764830061 1.1493152882 -1.0160764439
H 3.4355566651 -0.5809402779 -1.3708929950
H 0.7386810265 2.0662098962 -1.9600791059
H 2.3551442922 2.7311522959 -2.2995830583
H 0.6538351306 3.1943769816 -4.1088777481
H 2.0664437393 2.2709677140 -4.7074489625
H 0.1202865460 -0.7633392797 -4.7646241057
H 1.7508517640 -0.0980015344 -5.0866670465
H 1.7869294687 -1.3501027166 -2.9664969084
H 0.3876268019 -0.4174797339 -2.3640307295
