53
CONF2
C 0.3890615781 -1.1607021996 -0.5700758072
C -0.4491524624 -0.6382584976 -1.7447290373
C -1.6203915952 0.2313585288 -1.3534067214
C -2.0334579463 0.3727411609 -0.0184461094
C -3.1385434930 1.1793660702 0.2641788657
C -3.8348444326 1.8278790021 -0.7479990654
O -4.9087808489 2.5957151771 -0.3777063277
C -3.4335882752 1.6861592518 -2.0748297239
C -2.3325086339 0.8908806887 -2.3569251844
C -1.2231606170 -0.2478409857 1.1180072306
C -2.0739612578 -0.6233139463 2.3423244522
C -3.0853563235 -1.7286425808 2.0338505340
C -2.3750770836 -2.9772026938 1.5040861030
C -1.5100606168 -2.6343232726 0.2889364058
C -0.4986246580 -1.5381761790 0.6225654770
O 0.3451727790 -2.0620158344 1.6543811646
C -0.1409355140 0.7773698952 1.5277115195
C 0.8777386419 1.0249463629 0.4205453274
N 1.4351983002 -0.2475860546 -0.0612284711
C 2.5432687386 -0.0569071719 -0.9954794165
C 3.8336805651 0.4118353563 -0.3407468399
C 4.0936564856 1.9158980228 -0.0360914984
C 5.5565150772 1.7147985894 -0.5004560536
C 5.0896073276 0.4439235631 -1.2513014460
H 0.9111099917 -2.0725948313 -0.8913661902
H 0.1969994277 -0.0964501251 -2.4472644657
H -0.8264106817 -1.5050278868 -2.3043027791
H -3.4827695956 1.3211401749 1.2817048013
H -5.2982120063 2.9889074370 -1.1663755263
H -3.9706179715 2.1905494519 -2.8743950258
H -2.0123863116 0.7788609630 -3.3900663869
H -1.3824889489 -0.9791638996 3.1145191451
H -2.5686140081 0.2629841671 2.7547976537
H -3.6557126130 -1.9727812573 2.9375056672
H -3.8076529133 -1.3738296203 1.2864990462
H -3.1083016938 -3.7442928589 1.2293418219
H -1.7399012731 -3.4010484368 2.2900432120
H -2.1603387318 -2.2974094492 -0.5269381137
H -0.9611964986 -3.5176082166 -0.0598206915
H 1.1823449425 -1.5776521493 1.5503178152
H 0.3721560745 0.3999145187 2.4199645184
H -0.6249062365 1.7228542154 1.7992758957
H 1.6980028523 1.6306293081 0.8160439585
H 0.4210361745 1.6030104547 -0.4051567186
H 2.7459925493 -1.0261598774 -1.4724282547
H 2.2871112815 0.6506702851 -1.8109248995
H 4.0273759591 -0.1938955283 0.5526136291
H 3.9285244713 2.2750158344 0.9837499055
H 3.5385979190 2.5537365949 -0.7335394608
H 6.0229169896 2.5123044921 -1.0845025314
H 6.2096206735 1.4630106974 0.3401492480
H 4.8088841092 0.6791916257 -2.2844972898
H 5.7433805922 -0.4327683261 -1.2521129542
