46
CONF12
C 3.3939272715 2.3227197657 -4.1896669121
C 4.4956021865 1.7274227712 -3.3369485126
O 4.2319081711 0.3317497150 -3.0365917006
C 3.4070420305 0.0394533974 -2.0281442118
N 3.1971116600 -1.2627537780 -1.8629480519
C 2.3790271763 -1.5550493607 -0.8373346175
N 1.8067000490 -0.6504625833 -0.0126106477
C 2.0995130601 0.6138608849 -0.3036447692
N 2.8908621322 1.0385152377 -1.2978245752
N 1.5518493717 1.6220788327 0.4662138152
C 0.6636820234 1.5866515764 1.5540068938
O 0.2351649955 2.6232176091 2.0238626483
N 0.3617678931 0.3224747875 2.0109447756
S -0.8555878309 0.0501976768 3.1685629653
O -1.0242731360 -1.4062643360 3.1592247695
O -0.5152816366 0.7697670775 4.3901039513
C -2.3421442991 0.8075108084 2.4826456281
C -2.7370219121 2.0276773806 3.0158242475
C -3.9359535032 2.5975994058 2.6014000738
C -4.7398245542 1.9347812942 1.6810892287
C -4.3430916962 0.7079496751 1.1602583739
C -3.1285249867 0.1358324860 1.5401471537
C -2.6843615532 -1.1141602254 0.8521622123
O -1.6360246484 -1.2351871095 0.2583269851
O -3.6371009155 -2.0607301351 0.9113757437
C -3.3017741158 -3.2977895372 0.2438464106
N 2.1071320182 -2.8517222764 -0.6090313412
C 1.2502256738 -3.3144858978 0.4723282500
H 2.4515937950 2.3578634884 -3.6381083991
H 3.6648045800 3.3440770916 -4.4757561763
H 3.2530704400 1.7348131658 -5.1007684893
H 5.4430477433 1.6954303094 -3.8806249334
H 4.6312822300 2.2815613314 -2.4047380355
H 1.7858296077 2.5603398029 0.1750572138
H 0.6193760838 -0.4680023741 1.4005250246
H -2.1032197119 2.5123565964 3.7481465263
H -4.2425217704 3.5549969760 3.0084428634
H -5.6822207028 2.3710398854 1.3669543865
H -4.9676563218 0.1875234806 0.4426312669
H -3.1002772596 -3.1170389395 -0.8150819570
H -4.1724325781 -3.9399066996 0.3712680830
H -2.4208136845 -3.7442808820 0.7122304996
H 2.5660913280 -3.5093262426 -1.2162429444
H 1.6761092407 -3.0763218399 1.4541180111
H 0.2574125677 -2.8574783311 0.4073466625
H 1.1499731863 -4.3985023642 0.3899642914
