40
CONF52
C 3.8861935635 -2.1084599741 -0.7627170851
O 4.0355279566 -0.6674892130 -0.6446603388
C 3.4102935968 0.0562953230 -1.5744392436
O 2.7115265522 -0.4059004041 -2.4536229945
C 3.7060323877 1.5422005153 -1.4876550259
S 4.2011159231 2.2350344586 0.1226752445
C 2.6978576545 2.1450089369 1.0666413795
C 1.4859184090 1.6621150447 0.5689621097
C 0.3212085103 1.6324147600 1.3503412422
C 0.4112365066 2.1273486093 2.6552328413
C 1.5904644553 2.6094281220 3.1865343350
C 2.7260429612 2.6106530292 2.3880551276
Cl 4.2217957665 3.2317901915 3.0618243246
F -0.6939345271 2.1190250320 3.4337306452
N -0.9074289753 1.2064520802 0.8577897113
C -1.0170887531 0.0446604515 0.3267673293
N -2.1549476696 -0.3718192702 -0.3190995235
N -2.2115333329 -1.7675536999 -0.4997808118
C -1.0395194744 -2.4313419262 -0.3137162929
O -0.8151359509 -3.5980462438 -0.5758317541
S 0.1859618646 -1.2827352924 0.3723653859
C -3.2117385574 -2.2418908257 -1.4721152891
C -4.5788787708 -1.6792683401 -1.1126832475
C -4.5016861104 -0.1585657967 -1.0093946706
C -3.4535896599 0.2529951761 0.0141738353
H 4.3277030702 -2.4483510035 -1.7022577137
H 2.8300319656 -2.3823571633 -0.7257048032
H 4.4231203302 -2.5214877377 0.0895857101
H 2.8677702521 2.0933194858 -1.9210457051
H 4.5766881891 1.7245373613 -2.1309005880
H 1.3990285168 1.3329801443 -0.4599305598
H 1.6198900493 2.9713579326 4.2077752809
H -2.9073118217 -1.9168243389 -2.4768497660
H -3.1908883982 -3.3317194459 -1.4278579575
H -5.2914266893 -1.9813414369 -1.8857482182
H -4.9133720424 -2.1068273102 -0.1599932715
H -4.2475718245 0.2708220256 -1.9859331732
H -5.4637454568 0.2602655464 -0.6998431405
H -3.7471744190 -0.0573214246 1.0276229437
H -3.2884372383 1.3305965207 0.0084087479
