39
CONF81
C 4.8901645292 1.9874560591 -1.6038159236
C 3.9108131038 1.3990605623 -0.5908342604
C 3.6710013919 -0.0944506735 -0.8136444495
C 2.7298752463 -0.7318240286 0.2059117417
N 1.3760934892 -0.1897594309 0.1197770440
C 0.2871731228 -0.9865154322 0.0108436431
O 0.3181105847 -2.2120045997 -0.0086759926
N -0.9426748159 -0.2832379589 -0.0756331897
C -1.1765530513 1.0590672828 -0.4218017722
C -0.4041446781 2.0236340983 -1.0571703410
C -1.0004942612 3.2643531191 -1.2850283977
C -2.3242458923 3.5163850052 -0.9131403789
C -3.1061803749 2.5312084462 -0.3189728918
C -2.5261706775 1.2896979456 -0.0792192648
N -3.1162292500 0.1480120129 0.4394337962
C -2.1817466999 -0.7547099935 0.4290134465
N -2.2678976406 -2.0604005108 0.8361118488
C -3.3161323503 -2.6126629719 1.5588822855
O -4.2904397101 -2.0481869584 1.9821741760
O -3.0418786392 -3.9370634412 1.7191091941
C -4.0433546336 -4.6489258779 2.4704132412
H 4.5166408081 1.8640737821 -2.6257443715
H 5.8625350844 1.4876093344 -1.5429339520
H 5.0503950761 3.0554623160 -1.4314411302
H 2.9612422892 1.9477614174 -0.6547522093
H 4.2905706121 1.5560821407 0.4277311394
H 3.2747078523 -0.2646230299 -1.8229337549
H 4.6316550171 -0.6228748938 -0.7586585961
H 3.1176579332 -0.5805558420 1.2233324016
H 2.6473581490 -1.8083250777 0.0411733802
H 1.2310747988 0.7860436214 0.3286245735
H 0.6033806322 1.8307296350 -1.4080512402
H -0.4238768318 4.0413453417 -1.7752802401
H -2.7531501180 4.4935262120 -1.1087491772
H -4.1431650184 2.7046362593 -0.0543868150
H -1.4721705945 -2.6481184795 0.6028435357
H -4.1425909621 -4.2253435049 3.4733282253
H -3.6875656544 -5.6778783492 2.5201887998
H -5.0097860667 -4.5986850292 1.9619762887
