14
CONF1
C 3.2516485927 -0.3637514268 -0.7339127535
C 2.0811132043 -0.2325748779 -0.4698802591
C 0.7036434516 -0.0785036900 -0.1591249508
C 0.1477690284 1.2021258578 -0.0098647870
C -1.1988922357 1.3468511837 0.2942826111
C -2.0081894778 0.2244700148 0.4535134216
C -1.4638262639 -1.0490874566 0.3068731919
C -0.1184234720 -1.2051858906 0.0027926820
H 4.2823807785 -0.4792664185 -0.9664053610
H 0.7831189822 2.0719133215 -0.1349658328
H -1.6198745367 2.3405647762 0.4079231360
H -3.0603453304 0.3420641458 0.6912480647
H -2.0915684387 -1.9256244858 0.4302100376
H 0.3114455175 -2.1939951536 -0.1126893006
