47
CONF159
C -4.9998073316 -2.0308817277 -1.6885455167
O -5.1698749311 -0.5848839447 -1.8287086471
P -5.7245416451 0.2853603093 -0.6138675620
S -5.8343339773 2.1718606370 -1.0496600832
O -7.0623336117 -0.4958897163 -0.2251760873
C -7.8944021491 -0.0098877972 0.8666897978
O -4.8062367288 -0.0824086131 0.6820681573
C -3.6190394748 0.6032466547 0.9576991085
C -3.5852373061 1.4282736767 2.0735611488
C -2.3995269566 2.0714790496 2.4056747987
C -1.2607534501 1.9003876610 1.6104266251
C -1.3141857818 1.0737567556 0.4866361781
C -2.4963872459 0.4148353403 0.1632972841
S 0.2000350966 2.8196008787 2.0838667839
C 1.5024828639 1.9946404898 1.1772216793
C 2.1362309481 2.6580164606 0.1258842817
C 3.1874659897 2.0467142332 -0.5492814102
C 3.5777118735 0.7676313855 -0.1764192839
C 2.9494137916 0.0856241627 0.8619100524
C 1.9168885040 0.7129095370 1.5476243736
O 4.5964961120 0.1861104444 -0.9252304518
P 5.8747969285 -0.5793283167 -0.2823153509
S 6.7046751549 0.2321013409 1.2690343893
O 6.8630218121 -0.6437300302 -1.5317703384
C 6.4271738797 -1.2448583753 -2.7920155408
O 5.2460285864 -2.0451598578 -0.1034957570
C 6.0526535633 -3.0997076471 0.4977138244
H -4.4552694593 -2.3457874157 -2.5778776647
H -5.9777252026 -2.5143699328 -1.6475220509
H -4.4191008668 -2.2577525827 -0.7908343124
H -7.3264430670 -0.0113604825 1.8006905030
H -8.2559968804 0.9961089386 0.6385868520
H -8.7294061493 -0.7064652953 0.9317058584
H -4.4763897849 1.5548914946 2.6790426964
H -2.3628639041 2.7070850330 3.2851136192
H -0.4400598448 0.9356045772 -0.1397735788
H -2.5414661668 -0.2369601976 -0.7030876066
H 1.8125310943 3.6514701205 -0.1651137918
H 3.6975318934 2.5489565268 -1.3639181078
H 3.2616906243 -0.9160224076 1.1350833729
H 1.4255446647 0.1979345690 2.3665811238
H 5.6578737560 -0.6207673585 -3.2519124778
H 7.3164293626 -1.2757776948 -3.4203087398
H 6.0509199433 -2.2556818252 -2.6179631366
H 6.9620030659 -3.2604262585 -0.0880381739
H 6.3030722507 -2.8339955679 1.5277747030
H 5.4287090717 -3.9924970568 0.4759944342
