39
CONF7
C -2.0563106651 1.5454240590 2.0689627671
C -2.0433323643 0.1122310799 1.5299394088
C -3.3157316215 -0.6193079841 1.9568366342
C -1.8319568243 0.0641269848 -0.0174716543
C -1.8727272477 -1.3738748615 -0.5629475643
C -2.8962137522 0.8597526709 -0.6566962430
N -3.7855652162 1.4635019333 -1.0792418739
N -0.5268075230 0.6714256243 -0.2994569839
C -0.0445488147 0.8891471045 -1.5497294484
O -0.6686014812 0.6953018403 -2.5808873626
C 1.3727942192 1.4801218463 -1.5874656132
C 1.3118646257 2.9970636309 -1.5826403212
O 2.1497529030 1.0921319002 -0.4395842145
C 2.4787951187 -0.2238913082 -0.3080237832
C 3.1157573940 -0.5972114821 0.8856328394
C 3.4998716564 -1.9087908211 1.1197854220
C 3.2317021076 -2.8701005001 0.1517359939
C 2.5896178235 -2.5344457775 -1.0306010259
C 2.2131336518 -1.2139085710 -1.2559012396
Cl 3.7078444525 -4.5291147985 0.4445427868
Cl 3.4186733064 0.6116488299 2.1073126301
H -1.1710454385 2.1214774600 1.7850927698
H -2.1026386826 1.5265366156 3.1612734811
H -2.9361709208 2.0829714057 1.7012568109
H -1.1773526823 -0.4252703021 1.9455079782
H -4.1940684096 -0.1906839883 1.4619439459
H -3.4541897269 -0.5089152939 3.0357613854
H -3.2767974237 -1.6878959492 1.7356587393
H -2.8746531526 -1.7959818077 -0.4717767642
H -1.1643891934 -1.9875831582 0.0023793537
H -1.5935391389 -1.3721781777 -1.6171328294
H 0.0930620118 0.8338127887 0.4806175687
H 1.8478741507 1.1232437258 -2.5088655284
H 0.8532617889 3.3587797915 -0.6582926903
H 2.3186720668 3.4129843792 -1.6661520949
H 0.7111667532 3.3349635281 -2.4303570849
H 3.9944951804 -2.1725800921 2.0461159976
H 2.3781210602 -3.2934839204 -1.7739872213
H 1.7001797017 -0.9714285002 -2.1788834824
