21
CONF10
C -1.7745717478 0.8483330449 0.1950769071
C -2.4578200769 -0.5146251131 0.3482211072
O -3.7550392705 -0.3604833040 0.9185397443
C -0.5206068792 0.8538245484 -0.6531345417
C 0.6319629734 -0.0536161636 -0.1237814066
C 2.0434205994 0.2385828596 -0.7281741710
C 3.0806664238 -0.9130852491 -0.5220884514
F 3.1130509479 -1.2893052386 0.7655285431
F 2.7816400191 -1.9737171599 -1.2799475456
F 4.2959658496 -0.4696359700 -0.8724250604
F 1.9337171753 0.4489104463 -2.0595301034
F 2.5491163943 1.3469847118 -0.1439715898
F 0.7128304610 0.1015272031 1.2244084254
F 0.3095839222 -1.3493299236 -0.3817050281
F -0.0300754626 2.1318474976 -0.7260105931
F -0.8104742947 0.4534742410 -1.9265471381
H -1.5259414893 1.2731619569 1.1726729596
H -2.4680417419 1.5337102763 -0.3044903038
H -2.6121753002 -0.9685448793 -0.6345824668
H -1.8433588347 -1.2018450168 0.9442020592
H -3.6538494670 -0.1361685723 1.8499284600
