55
CONF21
C 1.1141812516 1.5436099662 0.3178901138
C 2.2326288788 0.5198578367 0.2068092275
N 3.0147690994 0.4672532276 1.4455064301
C 2.1197410555 0.1405713951 2.5627017369
C 1.0099355867 1.1734572248 2.6725689821
N 0.2233987195 1.2167248727 1.4368226529
C -0.8800990831 2.1712056444 1.5613021480
C -1.9094912007 2.0465205255 0.4238629545
C -2.5511124054 0.6980782677 0.4347870143
C -2.3618342391 -0.3238606397 -0.4214971564
C -2.9328345777 -1.6560941523 -0.1402732559
C -4.2555091107 -1.8244535892 0.2855154326
C -4.7478615809 -3.0820862711 0.6145025305
C -3.9265289776 -4.2030849618 0.5038533332
C -2.6184951065 -4.0656560583 0.0524375101
C -2.1285840772 -2.7991402744 -0.2691470289
S -0.4261409914 -2.6595275285 -0.7756317928
C -0.5216781798 -1.2400284711 -1.8335614410
C -1.4886393650 -0.2446345059 -1.6083971990
C -1.5790401550 0.8033722136 -2.5267694891
C -0.6642108122 0.9145623512 -3.5696138299
C 0.3468639730 -0.0323146747 -3.7307530270
C 0.3998711609 -1.1235280663 -2.8759414048
C -0.7482231931 2.0988589925 -4.4807319336
F -0.1197219989 1.8946199986 -5.6611441272
F -0.1772356773 3.2069249491 -3.9247952416
F -2.0305121129 2.4382848010 -4.7654086360
C 4.1265224774 -0.4844187356 1.3350308184
C 5.1788692465 -0.2073016007 2.4004937694
O 5.5975000168 1.1612711625 2.3521073298
H 0.5486473684 1.5356555122 -0.6198733979
H 1.5529153130 2.5547691829 0.4410993031
H 1.7951584386 -0.4702604876 -0.0303373716
H 2.8953256861 0.8001374881 -0.6202036922
H 1.6726159367 -0.8638561771 2.4255372398
H 2.6881765379 0.1311614162 3.4985268227
H 0.3486979080 0.9022661812 3.5038809298
H 1.4559580828 2.1621145680 2.9042949892
H -1.3834445307 1.9772102828 2.5171165042
H -0.5120132161 3.2155666430 1.5919966022
H -1.4364229987 2.2757671279 -0.5318054364
H -2.6719811848 2.8180998584 0.5904192218
H -3.1574441107 0.4893868451 1.3164366073
H -4.8962887562 -0.9507759345 0.3565656267
H -5.7747667037 -3.1891160832 0.9484984052
H -4.3067656310 -5.1888469113 0.7513952319
H -1.9796663124 -4.9371022260 -0.0526796584
H -2.3709114713 1.5361645141 -2.4158543859
H 1.0660533872 0.0575268968 -4.5366283244
H 1.1508007862 -1.8926777785 -3.0246548684
H 4.5863324179 -0.3489468780 0.3483607072
H 3.7869295196 -1.5353780749 1.4063230661
H 4.8008369890 -0.4564976076 3.4035054057
H 6.0596563921 -0.8304347014 2.2141900969
H 4.7850711288 1.6590224176 2.1626587258
