50
CONF174
C -2.0170596502 0.6074185767 -1.3045520618
C -2.1909784788 -0.8596619358 -1.6156391210
C -1.2325785515 -1.5758544779 -2.5241566019
C -1.2295525303 -1.8919607600 -1.0170598397
C -0.0886239688 -1.4720773534 -0.1951976953
O 0.7214202146 -0.6047403378 -0.4479052625
O -0.0490299905 -2.2132287039 0.9566529244
C 0.9974395678 -1.8264738487 1.8946304477
C 1.3034320680 -3.0335187765 2.6589830949
N 1.5656666902 -3.9713723169 3.2789283681
C 0.5352124792 -0.6871686852 2.7743607445
C 1.0111657129 0.5935517012 2.5080960108
C 0.5280667363 1.6628825917 3.2579774386
C -0.3929591946 1.4605970459 4.2817732698
C -0.8449292102 0.1712757281 4.5470157740
C -0.3938756185 -0.9065279832 3.7926956150
O 0.9825996614 2.9504665114 3.0657523687
C 1.2881503040 3.3613377899 1.7747226514
C 2.4335006379 4.1312044598 1.6085043013
C 2.7402180838 4.6230288303 0.3419534391
C 1.9155474078 4.3396634795 -0.7444487624
C 0.7689527034 3.5687101818 -0.5578804431
C 0.4434043338 3.0796721336 0.7033932061
C -0.1076826428 -0.8638473647 -3.1561151191
C 0.8307836890 -1.3826925928 -3.9513522228
C 1.0426233597 -2.8279026667 -4.3032958974
F 0.7469537195 -3.0804777973 -5.6039689438
F 0.2814373393 -3.6492024821 -3.5527423020
F 2.3299815692 -3.2043294945 -4.1183246631
Cl 2.0100858465 -0.3411969456 -4.7318369109
C -3.6366062671 -1.3022767662 -1.6776029835
H -0.9738767411 0.9023063359 -1.1891897858
H -2.4633933658 1.2054366382 -2.1065465727
H -2.5401196490 0.8469775178 -0.3729057471
H -1.6580032396 -2.3871702383 -3.1045587569
H -1.6719606251 -2.8397062811 -0.7305570408
H 1.8936537984 -1.5367656411 1.3344980117
H 1.7346092989 0.7572647687 1.7177923683
H -0.7456964224 2.3104176995 4.8563913650
H -1.5628086200 0.0106041953 5.3445567167
H -0.7597713190 -1.9086089947 3.9938725958
H 3.0682016608 4.3363577928 2.4641330756
H 3.6337085191 5.2242026245 0.2061172174
H 2.1622042923 4.7193542856 -1.7303667640
H 0.1152699476 3.3511065464 -1.3970803628
H -0.4517830609 2.4859836655 0.8563462562
H -0.0547385316 0.2094849152 -3.0029159779
H -3.7218268841 -2.3661964750 -1.9148791639
H -4.1319588583 -1.1192896857 -0.7184244653
H -4.1644762952 -0.7320570054 -2.4496437884
