73
CONF1416
C 0.4256933416 2.3730501666 -2.4201816809
C -0.6873411742 2.5378510778 -1.4089287560
O -1.9306311241 2.4173697388 -2.1378488321
C -3.0924036285 2.5012387652 -1.3417026340
O -3.1795814242 1.4471863609 -0.3922646082
C -3.5311717069 0.1741181563 -0.9387487944
C -5.0059556788 -0.1131515989 -0.6810985263
O -5.7724988773 0.8186357633 -1.4392875669
C -5.3642152858 -1.5532564967 -1.0423173204
O -6.7390103914 -1.8122661778 -0.7503098806
C -4.4291720151 -2.5210267101 -0.3147442808
C -4.6226493403 -3.9740556649 -0.7115837719
O -4.4570482443 -4.1873485092 -2.1126275776
O -3.0703318215 -2.1858330668 -0.6567995092
C -2.6935570518 -0.8888474129 -0.2329028664
O -1.3502415175 -0.7026006477 -0.6165447087
C -0.3661724552 -1.2648318943 0.1451750861
C -0.6167907787 -2.1572983198 1.1879512337
C 0.4662375401 -2.6513801690 1.9065935056
O 0.2351418203 -3.5308150432 2.8926654823
C 1.7984785230 -2.2661259602 1.5949141494
C 2.9204973968 -2.8779664613 2.2539456227
O 2.7900400018 -3.7170710084 3.1676627471
C 4.2812542257 -2.4850891278 1.7439389782
C 4.2646496252 -1.0621928629 1.2006637610
O 3.2345293511 -0.9396311950 0.1682075519
C 1.9955822562 -1.3542212778 0.5275922724
C 0.9279437974 -0.8589432645 -0.1981704895
C 5.5675204714 -0.6372239562 0.5940233543
C 6.0523635654 -1.2507412123 -0.5659087225
C 7.2726566965 -0.8800911066 -1.1104744664
C 8.0357272564 0.1110700511 -0.4868797586
O 9.2314112990 0.4322184379 -1.0600620556
C 7.5666680582 0.7317130904 0.6712464165
C 6.3341956253 0.3580443548 1.1980988520
C -3.1543322831 3.7999416584 -0.5373472062
O -3.3779512973 4.8544220971 -1.4705756042
C -1.8474764243 4.0125397260 0.2295149483
O -1.8065767029 5.3358525884 0.7912276434
C -0.6490088812 3.8894927118 -0.6979021453
O 0.5734563481 3.9535592876 0.0413151532
H 1.3967065819 2.4185533409 -1.9215975822
H 0.3772846527 3.1677769327 -3.1716944044
H -0.6371693523 1.7431173362 -0.6519021744
H -3.9262396528 2.4572197733 -2.0509295381
H -3.3128244218 0.1344350913 -2.0146576979
H -5.1945316068 0.0299269437 0.3989442723
H -5.2555640236 -1.6956557460 -2.1231492890
H -6.8662829539 -1.7276320459 0.2057980275
H -4.5734844528 -2.4299233813 0.7769004948
H -5.6435175312 -4.2763129971 -0.4629077742
H -3.9232732717 -4.5926215146 -0.1312214110
H -3.5490469093 -3.9447226865 -2.3358739630
H -2.7981402972 -0.7878318258 0.8611338240
H -1.6102341712 -2.5085763711 1.4322390543
H 1.1333675443 -3.7951377308 3.2410148912
H 4.5648462768 -3.1900928202 0.9498143000
H 3.9888851953 -0.3703894748 2.0086962698
H 5.4651170560 -2.0218790339 -1.0557516240
H 7.6476781310 -1.3498425489 -2.0139445108
H 9.6638367651 1.1227485009 -0.5399628039
H 8.1584425888 1.5065139357 1.1510945101
H 5.9685802592 0.8499378523 2.0952496140
H -3.9928343791 3.7289942602 0.1726533707
H -3.1518555622 5.6759959329 -1.0104739789
H -1.7595550445 3.2556311873 1.0213012186
H -2.3448455874 5.3418944741 1.5932135050
H -0.6870995893 4.6926119423 -1.4504983757
H 0.5281211027 4.7521028222 0.5839814287
H 0.3353158871 1.4059709873 -2.9233444024
H 5.0164148063 -2.5749192693 2.5483772391
H -6.7011642223 0.5694517433 -1.3324595199
H 1.0869211143 -0.1501884776 -1.0013523139
