47
CONF1
C -7.0800659831 -2.1461719236 1.3284288812
O -6.1482703138 -2.7372795536 0.3798490045
P -4.6459877752 -2.1987985274 0.2918903824
S -3.6995103640 -1.9031350046 1.9612118144
O -4.0051192992 -3.2224477320 -0.7544171384
C -3.5304922362 -4.5228721343 -0.3026985631
O -4.8472136165 -0.8924201849 -0.6506916981
C -3.8708199993 0.1008514056 -0.7515542029
C -4.1814156971 1.3634530157 -0.2710913291
C -3.2387908692 2.3810580800 -0.3859294293
C -2.0076234165 2.1271310077 -0.9915539873
C -1.7197967423 0.8524334693 -1.4884388428
C -2.6496049934 -0.1703887078 -1.3601286866
S -0.8505473598 3.4765148847 -1.1885592595
C 0.6595083493 2.7991285632 -0.5090901327
C 1.8694386147 3.2416183541 -1.0498636443
C 3.0763197512 2.8018717475 -0.5156683685
C 3.0559606228 1.9028126214 0.5412714164
C 1.8629026072 1.4485418823 1.0872076192
C 0.6594998267 1.9092360148 0.5686413728
O 4.2551053504 1.4703126340 1.1189568284
P 5.1979958657 0.3732641927 0.3855700218
S 4.2768207857 -1.0833698102 -0.5095599537
O 6.1934780436 -0.0053035547 1.5777805381
C 5.7837022631 -0.9655317777 2.5914189825
O 6.1202140237 1.3231166650 -0.5097589714
C 7.0431620436 0.7459254580 -1.4764083754
H -6.7053056194 -2.2711616856 2.3473147764
H -8.0149336715 -2.6900180103 1.1971958530
H -7.2248054184 -1.0862000658 1.1018423302
H -4.3618251280 -5.1066507574 0.1012213779
H -3.1247284154 -5.0086338038 -1.1894278917
H -2.7503783064 -4.3938839697 0.4516950441
H -5.1402940886 1.5393205503 0.2041309745
H -3.4592524338 3.3677707705 0.0073209725
H -0.7683562684 0.6572558361 -1.9720848660
H -2.4378742779 -1.1638482408 -1.7405679889
H 1.8733680414 3.9281598095 -1.8904111859
H 4.0210469357 3.1423018910 -0.9251009616
H 1.8813546316 0.7489447251 1.9159590666
H -0.2752890199 1.5688505703 1.0008589980
H 4.9079890092 -0.5926065031 3.1297311632
H 5.5638830075 -1.9294600610 2.1258296012
H 6.6319954557 -1.0548881984 3.2692635971
H 6.4939781101 0.1399034034 -2.2011989384
H 7.5154575188 1.5943917118 -1.9703917918
H 7.7951193922 0.1409011650 -0.9629483809
