42
CONF1
C -2.0675131636 -0.3976945251 1.9467237189
C -2.5865581992 1.0268512078 1.9525835929
O -1.8771514259 1.9147185893 1.0947181556
C -2.2025880413 1.7818266441 -0.2894971629
C -1.4525776088 2.8359000184 -1.0800330629
O -0.0875859712 2.5209518995 -1.3358206725
C 0.7799403120 2.7100230560 -0.2169387601
C 2.2109889938 2.4505667122 -0.6457380151
O 2.5641450724 1.0729555143 -0.7167946352
C 2.0676598482 0.3976522581 -1.8730512184
C 2.5866306684 -1.0269367736 -1.8788279632
O 1.8772087532 -1.9147966499 -1.0210022799
C 2.2022672266 -1.7815668498 0.3632827262
C 1.4525832908 -2.8358704048 1.1538276712
O 0.0875182513 -2.5213021414 1.4096735078
C -0.7798889232 -2.7102548756 0.2906876958
C -2.2109496155 -2.4505871420 0.7193164641
O -2.5639121895 -1.0729204838 0.7903812444
H -2.4204039085 -0.9144134488 2.8569849491
H -0.9696563785 -0.3940180177 1.9639110537
H -2.4596432857 1.4351431100 2.9616157450
H -3.6618934006 1.0303584633 1.7084383946
H -1.9468705030 0.7818883753 -0.6641790060
H -3.2881162780 1.9298422919 -0.4302767291
H -1.5342180412 3.8095480532 -0.5689176834
H -1.9200399908 2.9228451349 -2.0674042785
H 0.5122399635 2.0404001197 0.6110529792
H 0.6943915744 3.7497691426 0.1456496724
H 2.4049394909 2.9490681060 -1.6100457127
H 2.8795401117 2.8825441510 0.1075175532
H 0.9697952754 0.3940553400 -1.8901971414
H 2.4205602730 0.9142510021 -2.7833779777
H 3.6619646658 -1.0304629047 -1.6346459281
H 2.4598328639 -1.4352211679 -2.8878773180
H 3.2878361800 -1.9289934508 0.5043008448
H 1.9459759282 -0.7817032228 0.7377589720
H 1.5344830930 -3.8094828102 0.6426833810
H 1.9200824017 -2.9226997721 2.1411854702
H -0.5119854897 -2.0406823214 -0.5372922309
H -0.6944478477 -3.7500270998 -0.0718719945
H -2.4051058621 -2.9490874350 1.6835833524
H -2.8794784000 -2.8824378775 -0.0340353641
