28
CONF6
C 3.5581687117 -0.6513477353 -1.0063382354
C 3.8700845415 -0.7001071606 0.4387661310
C 2.4114141253 -0.8412354502 -0.0130389620
C 1.5193587573 0.2819564814 0.2235927927
C 0.1422849921 0.1826766016 0.5728272093
C -0.6073669486 1.4088875651 0.6338686724
O -0.0530925916 2.5360956988 0.4843017477
C -2.0886070013 1.3961731449 0.8845697580
C -2.7333127417 0.0742452016 0.4552116389
C -2.0110323621 -1.0704520276 1.1443045130
C -0.5117063868 -1.0883735948 0.9041903272
O 0.0915308685 -2.1516336550 1.0571586186
C -2.7102449074 -0.0966758123 -1.0522487717
O -2.2043814949 -1.0287488795 -1.6425426935
O -3.3384360270 0.9179604223 -1.6773330136
O 2.0463217124 1.4648207693 0.0608614599
H 3.6086326371 0.3089808312 -1.5061738501
H 3.7773290513 -1.5219451784 -1.6144523809
H 4.1240084798 0.2298409013 0.9350981508
H 4.3107483006 -1.6005983915 0.8517669316
H 1.9719118990 -1.8221142620 0.0629415914
H -2.5281497294 2.2635120065 0.3876270518
H -2.2433177347 1.5263271971 1.9643955257
H -3.7893680790 0.0920333210 0.7495930983
H -2.4025240251 -2.0457427215 0.8472544711
H -2.1580602960 -0.9761000823 2.2288309605
H -3.3021275518 0.7582506575 -2.6362848803
H 1.2499333193 2.1533141672 0.2388383312
