21
CONF77
F 0.1417513548 -0.4657259206 1.9594621850
C -0.0845290564 0.0631974295 0.7303105569
F -0.9634950720 1.0913022671 0.8652103273
C 1.2651245527 0.6376104447 0.1921831820
F 1.6755824678 1.5215606531 1.1621301669
F 0.9681170517 1.3967410304 -0.9128091889
C 2.3466305320 -0.3721610256 -0.0973704342
C 3.6982877080 0.2598377211 -0.4469123030
O 3.7353388337 0.8421641426 -1.7511291214
C -0.7522460393 -1.0393303334 -0.1490851994
F -0.0690580472 -2.1972048887 0.0177823923
F -0.6965772420 -0.6850148421 -1.4545049915
C -2.2509587477 -1.3263800737 0.1902793674
F -3.0325162700 -0.3113316953 -0.1947575860
F -2.4076443480 -1.5263202933 1.5061933026
F -2.6364818609 -2.4317766203 -0.4636640159
H 2.4669189713 -0.9951388889 0.7960190404
H 2.0215953971 -1.0172564757 -0.9190497065
H 4.4400202168 -0.5431231623 -0.4516245847
H 3.9932272835 0.9859256448 0.3206284442
H 3.2711329523 1.6872552602 -1.7223130544
