47
CONF30
C -1.7602559997 -1.1736324648 2.5091648213
C -2.1914184671 -0.5816376749 1.1862821017
C -3.3263802759 0.4116620322 1.1332343202
C -1.8807173281 0.9045922372 0.9992260969
C -1.4497784130 1.4423580469 -0.2979825768
O -1.9631318631 1.2649889493 -1.3812544025
O -0.3280674306 2.2134368826 -0.1287871301
C 0.2099947063 2.7686443053 -1.3511823659
C 1.0432779595 3.8963031850 -0.9293300766
N 1.7192910648 4.7852514829 -0.6360202199
C 1.0251459865 1.7623260371 -2.1367388142
C 1.9077517502 0.9193653721 -1.4641865886
C 2.6751594363 0.0112154180 -2.1844194428
C 2.5556535902 -0.0166634380 -3.5753950956
C 1.6892129149 0.8206649421 -4.2510329287
C 0.9094985840 1.7148765567 -3.5232963321
F 3.3095812761 -0.8954806384 -4.2669829758
O 3.5982859786 -0.8229518545 -1.6107789920
C 3.2877787434 -1.3799959658 -0.3715754105
C 4.2540993132 -1.3130118035 0.6228368230
C 4.0018451754 -1.9286308563 1.8472178941
C 2.7984892604 -2.5946131939 2.0672670310
C 1.8431842720 -2.6527768158 1.0530838510
C 2.0819892032 -2.0464872802 -0.1760551102
C -4.0887708156 0.8063399769 2.3189354517
C -5.3915761263 1.0903149981 2.3360249048
Cl -6.4216993922 1.0413553827 0.9320533300
Cl -6.2238432627 1.5493924006 3.7991700150
C -2.0540311113 -1.5338058301 0.0213321939
H -0.7281198302 -1.5309152428 2.4309571352
H -2.3979791424 -2.0282703899 2.7604775632
H -1.8052609870 -0.4547803841 3.3294803610
H -3.8681182949 0.4151226572 0.1924817188
H -1.4446519041 1.3939651170 1.8632923642
H -0.6040877672 3.1555798377 -1.9755487195
H 2.0020250687 0.9596237275 -0.3836736051
H 1.6191252276 0.7547773418 -5.3312608464
H 0.2125731846 2.3683033305 -4.0375343579
H 5.1838030689 -0.7872322031 0.4332449579
H 4.7505008296 -1.8814744873 2.6315667353
H 2.6065237282 -3.0713852200 3.0227582903
H 0.9095582012 -3.1830028727 1.2132442017
H 1.3520218932 -2.0941108012 -0.9778020390
H -3.5669521714 0.8832063023 3.2679078816
H -2.3971081930 -1.0935610519 -0.9158782023
H -2.6464132979 -2.4327839880 0.2214194941
H -1.0080080415 -1.8364619570 -0.0963132030
