19
CONF3
C -1.4084858164 -0.5819957339 0.4997207669
N -0.4790956657 -1.1563762773 -0.4887530368
C 0.2964912144 -0.2288173699 -1.2938758454
N 1.0844744981 0.6580013519 -0.4263420496
C 0.4094417414 1.0806424250 0.8351873753
N -0.9975452314 0.8011186875 0.6890165312
N -1.7950981683 1.8688745648 0.4216569939
O -2.9536711718 1.6094018255 0.1757248533
N 2.4449735254 0.3842059128 -0.2830021158
O 2.9820837435 0.8786495455 0.7020807364
O 2.9974402165 -0.2566760534 -1.1645342018
N -0.0762484916 -2.4335769364 -0.4423919092
O -0.6800622899 -3.1351641583 0.3527605055
H -2.4463435593 -0.5918111484 0.1490556900
H -1.3256184573 -1.1624351283 1.4270287018
H 0.9663071235 -0.7905604008 -1.9452931409
H -0.3796889169 0.3887723569 -1.8932260229
H 0.5410772443 2.1518105129 1.0040022353
H 0.8195678581 0.5159363148 1.6811840280
