58
CONF2
C 3.3075683493 -2.4692247382 -0.7740607145
C 4.0346261817 -1.8227152940 0.4073525633
C 5.2571666698 -2.6578880835 0.7952659922
C 4.4518433057 -0.3761117394 0.1079690303
C 3.2914279519 0.5994769427 -0.0848425915
C 3.7622936105 2.0403140902 -0.3007704794
C 2.6262781238 3.0691157745 -0.3132373310
C 1.6701028001 2.9151131840 -1.4977151925
C 0.5312391695 3.9390050638 -1.5169619331
C -0.4381016102 3.8312648501 -0.3587429405
O -1.1338698892 2.5311629933 -0.4059380448
P -0.8870666604 1.3864983016 0.6582308377
O -0.0815246762 1.7412584776 1.8478865350
O -0.3229814349 0.2220782618 -0.3081853540
C -0.2922584327 -1.1273055237 0.0640945836
C -0.6554615689 -2.0396387644 -0.9189665177
C -0.6281180984 -3.3969739774 -0.6183721203
C -0.2431738548 -3.8297150401 0.6501756340
C 0.1268937258 -2.8978169372 1.6160810761
C 0.1112125322 -1.5335144177 1.3296710538
O -2.3454048768 0.8670640149 1.1096350103
C -3.1785280704 0.0556955785 0.3270463825
C -3.4743548310 0.3681161459 -0.9932658271
C -4.3167246165 -0.4839016070 -1.7053588712
C -4.8573227752 -1.6156928175 -1.1000795420
C -4.5594147152 -1.8978312574 0.2321832846
C -3.7143835297 -1.0616661800 0.9548142691
H 3.9530150155 -2.4726829175 -1.6615798365
H 3.0430293884 -3.5078212665 -0.5462330722
H 2.3832612607 -1.9414104852 -1.0274851214
H 3.3443092474 -1.8014693196 1.2645363517
H 5.7703932893 -2.2313548035 1.6638725987
H 5.9722877626 -2.6929132297 -0.0360112783
H 4.9730870950 -3.6876225625 1.0376715787
H 5.0779684895 -0.0152675720 0.9363152248
H 5.0913431081 -0.3712030594 -0.7879417045
H 2.6396952410 0.5627652485 0.8009195837
H 2.6734628747 0.2817205935 -0.9325133936
H 4.4662514347 2.3033130193 0.5000956672
H 4.3256181650 2.1030501143 -1.2427535766
H 2.0734958962 2.9836985351 0.6312922176
H 3.0520452305 4.0813416943 -0.3360043218
H 1.2421332437 1.9064748586 -1.5122212515
H 2.2414189013 3.0163457971 -2.4293443181
H 0.9418543805 4.9576357881 -1.4850008713
H -0.0320115343 3.8537207981 -2.4537086736
H -1.2314674857 4.5781088153 -0.4344444192
H 0.0530124243 3.9286511469 0.6124949403
H -0.9636090896 -1.6798955407 -1.8948339905
H -0.9138666364 -4.1172520744 -1.3783213010
H -0.2267506459 -4.8894841940 0.8821363358
H 0.4377314787 -3.2276591925 2.6022809234
H 0.4075940108 -0.8036332281 2.0747454890
H -3.0550584901 1.2523896935 -1.4596783747
H -4.5503351666 -0.2543462705 -2.7401307710
H -5.5114248618 -2.2734985052 -1.6627837917
H -4.9789710261 -2.7760640692 0.7124091565
H -3.4565523334 -1.2707209513 1.9876276782
