39
CONF97
C 4.8671433550 1.0571234250 1.6683230722
C 4.2857330687 -0.1825107208 0.9884492616
C 3.4825016369 -1.0856673974 1.9280876634
C 2.2769098170 -0.4070916711 2.5830721799
N 1.3323834061 0.1475205451 1.6099713459
C 0.4379541288 -0.6345674290 0.9873634504
O 0.2946884418 -1.8399623192 1.1926248216
N -0.3858770872 0.0383249955 0.0364442024
C -0.7170577808 1.4013420659 -0.0483364287
C -0.5574015176 2.4731155228 0.8220317135
C -1.0693692513 3.7035695277 0.4079869132
C -1.7292053225 3.8490036446 -0.8177921681
C -1.9140981811 2.7635456750 -1.6692202683
C -1.4063539349 1.5295638457 -1.2724257042
N -1.5118408156 0.3034882360 -1.9168463587
C -0.9143862668 -0.5482658061 -1.1289660813
N -0.7596864574 -1.8977988668 -1.3184551031
C -1.0028628035 -2.5884818968 -2.4910673103
O -1.3612991979 -2.1201885741 -3.5489040471
O -0.7641567994 -3.8985294700 -2.2600695574
C -0.9555662966 -4.7590531889 -3.4082237606
H 5.4744960079 0.7786722399 2.5370544403
H 4.0819875607 1.7377133553 2.0148274550
H 5.5040104513 1.6181633314 0.9776987916
H 5.1002398497 -0.7768851561 0.5583595714
H 3.6544165217 0.1215186980 0.1431979682
H 3.1331769075 -1.9684873876 1.3805474181
H 4.1312484712 -1.4460031865 2.7371406792
H 2.5921727871 0.4197475407 3.2259184987
H 1.7354954820 -1.1245056576 3.2056673374
H -0.0824709753 2.3798810166 1.7915721865
H -0.9572509384 4.5627153157 1.0609712652
H -2.1137160361 4.8231485537 -1.1021253475
H -2.4453328189 2.8624168960 -2.6100842622
H -1.9910682312 -4.7058824915 -3.7522044507
H -0.7207596096 -5.7616727697 -3.0534515078
H -0.2786070817 -4.4685471114 -4.2149844987
H 1.5245495143 1.0644162423 1.2339773678
H -0.4179941234 -2.4151148046 -0.5118145460
