40
CONF47
C 3.3570509571 1.1426554137 -2.2474997015
O 4.1903910148 1.0513537503 -1.0627097096
C 4.3147282223 -0.1739976675 -0.5295114154
O 3.8100329037 -1.1757288855 -0.9939946942
C 5.1252345360 -0.1190271231 0.7395453722
S 3.9950597416 -0.2754707449 2.1993542216
C 2.6975541873 0.8710878815 1.7665619295
C 1.4416425858 0.3462859322 1.4487500644
C 0.3473075802 1.1626311727 1.1322385396
C 0.5775440971 2.5458886583 1.1494769916
C 1.8022784918 3.1055301729 1.4522862734
C 2.8603741066 2.2615054924 1.7725034409
Cl 4.3967226567 2.9911366126 2.1778242318
F -0.4448013062 3.3715692919 0.8470635365
N -0.9337720446 0.6968421417 0.8855065244
C -1.1570743791 -0.2908394695 0.0986088036
N -2.4028221659 -0.8569705605 -0.0244172228
N -2.5457825508 -1.6419706343 -1.1839533631
C -1.3879023492 -1.9784847636 -1.8114267362
O -1.2591285389 -2.7717198541 -2.7245804981
S -0.0159647391 -1.0721099699 -1.0430924521
C -3.7153754275 -2.5379198142 -1.2084129885
C -4.9780769134 -1.7365807708 -0.9302589321
C -4.8242936644 -0.9685374614 0.3792305024
C -3.6018501842 -0.0644938880 0.3270515432
H 2.3405006218 0.8196663555 -2.0108335556
H 3.7701005235 0.5225524738 -3.0461737165
H 3.3717000696 2.1946738278 -2.5282083551
H 5.7092125378 0.7994802351 0.8060560303
H 5.7774443177 -0.9939563166 0.7976606239
H 1.3056455164 -0.7293196965 1.4829692346
H 1.9207613036 4.1828251134 1.4420536733
H -3.7294915469 -2.9973783533 -2.1977706750
H -3.5740211175 -3.3210047363 -0.4503187107
H -5.1614992301 -1.0407224285 -1.7575856813
H -5.8232769177 -2.4291501531 -0.8791148489
H -5.7015198188 -0.3430419419 0.5690540180
H -4.7261957509 -1.6701424159 1.2163086266
H -3.3981768749 0.3903856272 1.2963159920
H -3.7302616259 0.7324974067 -0.4198519134
