45
CONF51
C 3.2591738606 2.5201522705 -3.4421604793
C 3.4671094547 1.4449472418 -2.3783325217
C 2.2422473738 1.2537079418 -1.4847132176
C 2.4374429297 0.1576659717 -0.4383052693
C 1.2705629051 0.0154728697 0.5423713476
C -0.0780646772 -0.3444982192 -0.1098275272
C -1.1881615855 -0.5539512348 0.9383784223
C -1.5266607494 0.6866665075 1.7642969989
C -2.7268651274 0.4676618716 2.6850819658
C -3.0766212038 1.6975659312 3.5215607023
C -4.2733232345 1.4649499930 4.4413869406
C 0.0369068095 -1.5608381580 -1.0034394562
C 0.4727728652 -2.7890436648 -0.4956393574
C 0.5713619137 -3.9076936462 -1.3150117233
C 0.2352977392 -3.8208811841 -2.6638284155
C -0.2019743737 -2.6069032756 -3.1820505409
C -0.2991942311 -1.4898235078 -2.3562976575
H 2.4208165546 2.2631447360 -4.0987494602
H 4.1479547587 2.6449731821 -4.0681517651
H 3.0344645826 3.4886562291 -2.9821537709
H 3.7095676851 0.4890050041 -2.8608411892
H 4.3335178849 1.7025942210 -1.7549158604
H 2.0022580118 2.2032142700 -0.9840232534
H 1.3795764721 1.0117781758 -2.1191829504
H 2.6067569177 -0.7997789482 -0.9477640903
H 3.3502099190 0.3699473311 0.1341464050
H 1.1535628854 0.9561714674 1.0940695051
H 1.5169449707 -0.7511228344 1.2895528193
H -0.3862282589 0.4980879935 -0.7438462723
H -2.0924198303 -0.8926907902 0.4156026828
H -0.8994345943 -1.3745511566 1.6096826305
H -0.6644141796 0.9860776995 2.3729978454
H -1.7346628434 1.5282161172 1.0879207036
H -2.5211605158 -0.3799237494 3.3538996895
H -3.5998561651 0.1766418875 2.0842213203
H -3.2839087934 2.5422015591 2.8513613352
H -2.2027626597 1.9887206813 4.1192403660
H -5.1659151220 1.2011285489 3.8639614865
H -4.5072469528 2.3568014356 5.0305651782
H -4.0762319573 0.6441707837 5.1393957025
H 0.7422379206 -2.8719854291 0.5534108253
H 0.9126107719 -4.8513443659 -0.9004399639
H 0.3136883980 -4.6934829066 -3.3042232030
H -0.4680458149 -2.5272808451 -4.2316230116
H -0.6438897035 -0.5445268998 -2.7677091128
