50
CONF39
C 4.9345002439 -1.1986241244 1.1031901244
C 3.5026613408 -1.5861891530 1.5172905660
C 3.3522890731 -1.3372105086 3.0225605581
C 3.2802512854 -3.0877974782 1.2547163159
C 2.4954472984 -0.7818752032 0.6925436040
C 2.5035516338 -0.8824302389 -0.7047128898
C 1.5890449420 -0.2022498306 -1.4980807093
C 0.6357171116 0.5929930100 -0.8777412301
C 0.6100061393 0.7430482345 0.4968567763
C 1.5382641963 0.0543068630 1.2718073725
O -0.3229908964 1.2939238133 -1.6293555347
P -1.4000506390 0.5023212602 -2.5383639558
O -0.8627209710 -0.4760887734 -3.4953222570
O -2.1933324816 1.7062857672 -3.2209651108
C -2.7949162492 2.7354561002 -2.4792400998
C -2.0589657836 3.8747115812 -2.1894415265
C -2.6820187201 4.9159236969 -1.5085228486
C -4.0177043569 4.8104946818 -1.1303696808
C -4.7370427777 3.6584647772 -1.4365955604
C -4.1277964453 2.6086141984 -2.1168139785
O -2.5078819255 -0.0441194426 -1.4919630445
C -2.1820417200 -0.9236294870 -0.4548165393
C -2.6928837641 -0.6182912759 0.7994310777
C -2.3980498346 -1.4575238485 1.8683873311
C -1.5982136649 -2.5814299798 1.6798692309
C -1.1087938032 -2.8755649810 0.4104016543
C -1.4059897244 -2.0553831438 -0.6735941077
H 5.1188135117 -1.4047087421 0.0453032107
H 5.6646740488 -1.7681109443 1.6885195702
H 5.1102323968 -0.1319292370 1.2744343725
H 4.0919927346 -1.9336506847 3.5654647931
H 3.5201337371 -0.2859260919 3.2784613837
H 2.3605168322 -1.6297848190 3.3829134748
H 2.2623071960 -3.3793992512 1.5335917913
H 3.9855015391 -3.6841598022 1.8440849384
H 3.4252783457 -3.3395123949 0.2002592153
H 3.2366000711 -1.5126361455 -1.1978544962
H 1.5895381811 -0.3046002475 -2.5768649391
H -0.1473779323 1.3711768993 0.9525591217
H 1.4908123505 0.1722238428 2.3473256245
H -1.0206723557 3.9340334380 -2.4941859769
H -2.1188649743 5.8138481240 -1.2762809591
H -4.4985410750 5.6267025178 -0.6018840422
H -5.7799827029 3.5742516661 -1.1490740794
H -4.6669733912 1.7025182831 -2.3677235278
H -3.2982805211 0.2732824204 0.9223552749
H -2.7900809076 -1.2254741241 2.8533918414
H -1.3632789603 -3.2292599624 2.5176493342
H -0.4918209768 -3.7544591057 0.2539003950
H -1.0308682527 -2.2725624717 -1.6675031706
