43
CONF24
C -0.9897560005 3.1364486164 -4.3399594284
C 0.0404273006 2.1461607246 -3.9327498220
N -0.2013810330 0.8939979492 -3.6723909551
N 0.9076805823 0.1677021939 -3.3360182377
C 1.9992702005 0.8842280589 -3.3368686215
S 1.7427104115 2.5681344581 -3.7587668792
S 3.6090199839 0.2936068904 -2.9754845532
C 3.1781634961 -1.3630260533 -2.2384835561
C 2.5772111340 -1.2376172085 -0.8778607205
C 1.3263277723 -1.6681305612 -0.5898583829
N 0.7837683268 -1.4916139589 0.6812526438
C 1.3802565129 -0.7517227389 1.7940206858
C 0.4922872919 -1.5884031515 2.7628633290
C -0.0714678442 -2.2475060170 1.4784707748
O -0.8637978418 -3.1226330522 1.2359131265
N -0.4065790738 -0.9326362139 3.6645767905
C -1.4380323691 -0.1805337938 3.2152608435
O -1.6469553763 0.0356839410 2.0284521402
C -2.3587314735 0.3475518995 4.3228730010
N -3.1931708518 1.4167509755 3.8220143746
C -4.3174919754 1.3610217435 3.0865945787
N -4.6788529248 2.5908952320 2.7717928871
N -3.7345386598 3.4003237647 3.3241124811
N -2.8365948955 2.7115141670 3.9473665218
S 3.1798798803 -1.0633664806 1.8801120688
C 3.4461108172 -0.5379728956 0.1364993261
C 0.4189075034 -2.3140452134 -1.5880213418
O 0.7598878486 -3.1585878475 -2.3890804932
O -0.8315351637 -1.8401108909 -1.4778099057
H -0.7646853185 3.5475362766 -5.3287897648
H -1.0329674652 3.9695078362 -3.6319059439
H -1.9620335632 2.6414379775 -4.3705409814
H 4.1530821666 -1.8595012095 -2.1803224818
H 2.5494325023 -1.8966690586 -2.9467246933
H 1.1638625168 0.3199305373 1.7590971402
H 1.0849199551 -2.3198476851 3.3205852412
H -0.2751031677 -1.0682642423 4.6563009899
H -2.9981543053 -0.4711656254 4.6694604790
H -1.7853356759 0.7247796760 5.1734407687
H -4.8243846015 0.4437541046 2.8223470836
H 4.4994594530 -0.7399501946 -0.0825585270
H 3.3064709145 0.5476558718 0.0758460580
H -1.3875884983 -2.2953182832 -2.1335312444
