37
CONF15
C -3.9418994443 -2.2080304230 -1.1772985065
C -3.6512366306 -0.9783787005 -0.3467067657
O -2.4388667019 -0.3890016326 -0.8468677061
C -2.1136700541 0.8203616659 -0.2516475436
C -0.8423884430 1.4200820253 -0.9132929988
C 0.2162784198 0.9113169173 0.0381791926
C 1.5930095918 0.8745243097 -0.0709437991
C 2.3149538319 0.4046746261 1.0276718625
C 1.6905717910 0.0031512000 2.2038232301
C 0.2997886163 0.0484832378 2.3135969002
C -0.4086029197 0.4984014072 1.2122854480
O -1.7697112360 0.6188009507 1.1561212304
O 3.7174706637 0.3931476979 0.9992352680
S 4.4639382421 -0.7760041758 0.0622583091
O 3.8065504875 -0.8481718963 -1.2413091826
O 5.8804096529 -0.4685011917 0.1963318870
C 4.0703045179 -2.2750562026 0.9851670563
C -0.6389930338 0.9741790169 -2.3588169899
C -0.9135699834 2.9542639882 -0.8203906395
H -4.8603779516 -2.6877371668 -0.8267414319
H -3.1224312129 -2.9271073225 -1.0955226877
H -4.0666902163 -1.9428402032 -2.2306835918
H -4.4680676944 -0.2432463684 -0.4261283738
H -3.5247188254 -1.2346565262 0.7128299983
H -2.9743548583 1.5056508043 -0.2434300229
H 2.1139430399 1.1899461779 -0.9675036649
H 2.3004418499 -0.3322047542 3.0359417308
H -0.2063543385 -0.2558549082 3.2223597650
H 4.5194562297 -3.1041873091 0.4340386069
H 4.5037471346 -2.1876598972 1.9826644651
H 2.9841103159 -2.3820588361 1.0231923622
H -1.4873276987 1.2759591569 -2.9805653570
H 0.2616067657 1.4462706353 -2.7638115630
H -0.5266656245 -0.1085493157 -2.4282845249
H -1.7132165978 3.3406046528 -1.4618787430
H -1.1011969498 3.2768237587 0.2085489072
H 0.0337595501 3.3926049769 -1.1466950128
