53
CONF9
C -4.3450768256 -2.2758582556 -0.3397180962
C -3.5663576143 -1.3556531200 0.6074475526
C -4.0874890490 -1.5628085529 2.0411911498
C -3.8420848334 0.1022337950 0.2115870635
O -3.2490790515 0.3494191070 -1.0574569003
C -3.5423371587 1.6368328813 -1.5734306598
C -2.9214321569 2.7786742863 -0.7964266857
C -1.7170819225 2.5924212638 -0.1176430647
C -1.1471059936 3.6638885057 0.5656488173
C -1.7556410624 4.9172599191 0.5708865629
C -2.9554919923 5.0910730431 -0.1054299302
C -3.5432326784 4.0267846830 -0.7822350163
O -0.0169330947 3.5508109273 1.3486917708
C 1.0204179143 2.7054524521 1.0135084008
C 1.7955751900 2.2513210608 2.0787530016
C 2.9082606950 1.4568593709 1.8258359562
C 3.2410067653 1.1038972626 0.5208328633
C 2.4625784388 1.5724690103 -0.5330951770
C 1.3553835022 2.3817837374 -0.2989856409
C -2.0592410433 -1.6109804137 0.5696543621
C -1.1927791180 -0.7960030136 1.3090040564
C 0.1792667211 -0.9877153165 1.2896794014
C 0.7048443541 -2.0273122593 0.5354351803
C -0.1146898574 -2.8697740796 -0.1968314884
C -1.4898176403 -2.6398988508 -0.1784163638
O 2.0990955409 -2.1563084545 0.6273606717
C 2.8311608598 -2.7630726418 -0.3166112917
F 2.5873093673 -4.0930157106 -0.4089850050
F 4.1176340806 -2.6118054259 0.0196013357
Br 2.5880564886 -1.9992970952 -2.1571366194
H -4.0289421638 -2.1412115511 -1.3772615737
H -5.4121535882 -2.0399170497 -0.2778296467
H -4.2245429014 -3.3277488362 -0.0630867785
H -5.1615137753 -1.3521777146 2.0947725489
H -3.5751263430 -0.9123756306 2.7557917674
H -3.9254749405 -2.5988631720 2.3524469175
H -4.9327266166 0.2651868827 0.1587854507
H -3.4414785457 0.7951908329 0.9670090775
H -4.6327978424 1.7903271164 -1.6356733457
H -3.1490041294 1.6333320642 -2.5974010298
H -1.2460674353 1.6146748167 -0.1189630384
H -1.2863953276 5.7279875592 1.1167381135
H -3.4383093798 6.0630547303 -0.0974140527
H -4.4874722029 4.1654255665 -1.3009336507
H 1.5195879426 2.5369582225 3.0881790887
H 3.5120464917 1.1044496984 2.6562228081
H 4.0981881794 0.4690299965 0.3254325857
H 2.7199992996 1.3100872870 -1.5535560106
H 0.7642027140 2.7599531923 -1.1247566027
H -1.5862528241 0.0232803936 1.9028944611
H 0.8488256876 -0.3367382864 1.8399162564
H 0.2854484628 -3.6870887298 -0.7815159736
H -2.1152546240 -3.2940528377 -0.7726464216
