78
CONF769
C -0.7492860842 0.1028087300 -0.8466771030
C 0.2171198238 0.7093967392 -1.8532936287
O -0.2571987229 0.1874624952 -3.1431995902
C -0.9718587298 -0.9539842050 -2.9588311062
O -1.3932737466 -1.5914521769 -3.8952811771
C -1.0499146568 -1.2461869067 -1.4799681857
C -2.3087222055 -1.8814538004 -0.8843440531
C -3.5996275879 -1.1898637407 -1.3099770702
C -4.2345767774 -1.6029455111 -2.4830609757
C -5.3951809448 -0.9572013797 -2.9024161910
O -6.1103731493 -1.2639643969 -4.0283453022
C -5.5928943296 -2.2970982495 -4.8770118298
C -5.9388848314 0.0975142099 -2.1596250723
O -7.0800337877 0.7341473878 -2.5580151831
C -5.3081747707 0.4986020501 -0.9774217462
O -5.9132683998 1.5248464653 -0.3109750997
C -5.2979679419 1.9616572439 0.9062021007
C -4.1442958841 -0.1477691020 -0.5563736548
C -2.1455564928 -1.8895418672 0.6302204040
C -2.9757871216 -2.7729120181 1.3520393250
C -2.8929668059 -2.7607613276 2.7214393923
C -2.0289416360 -1.9035072208 3.3956366647
O -2.1503648731 -2.0823761553 4.7482880564
C -3.1308286204 -3.1278754450 4.9291853132
O -3.5961029572 -3.5183420915 3.6176556633
C -1.2157303603 -1.0292262365 2.7219333465
C -1.2748950933 -1.0257464781 1.3093998744
C -0.3165190063 -0.0912443387 0.5930029566
O 1.0125357083 -0.6903316282 0.6259904887
C 1.9757966209 0.0519953462 1.2918444168
O 2.3115627451 1.1838510325 0.4704879929
C 3.3065955143 1.9857898192 1.0995673035
C 3.5791303746 3.2188171986 0.2578300752
O 4.6616321123 3.9448279867 0.8726705590
C 5.8471824682 3.1767734763 1.0321736456
O 5.6266723425 1.9831958561 1.7721107308
C 4.5901776327 1.1742343816 1.1906935180
C 4.3811858194 -0.0494033776 2.0612067214
O 5.5236721406 -0.9015705163 2.0647968851
C 3.1967567182 -0.8555360292 1.5195163316
O 2.8643259131 -1.9436321572 2.3723603195
C 6.5280072935 2.8903086270 -0.2831758519
C 7.3143280391 1.8208847683 -0.6199296554
C 7.8857230378 1.9340058969 -1.9166591605
C 7.5383131389 3.0947321162 -2.5513757911
S 6.4972906316 4.0681843564 -1.5655116139
H -1.6710652682 0.6985881809 -0.8389965975
H 1.2430553111 0.3637677868 -1.7071349774
H 0.1870685150 1.7977707365 -1.9158672236
H -0.2005604292 -1.9205102257 -1.2804520560
H -2.3669513224 -2.9210274847 -1.2266583286
H -3.8114833302 -2.4135222198 -3.0616984545
H -6.2833669816 -2.3628001279 -5.7180177751
H -5.5612721996 -3.2563178054 -4.3478977745
H -4.5907122538 -2.0382981491 -5.2373216960
H -7.3665664681 0.3243435456 -3.3878616045
H -5.9212472137 2.7767440986 1.2751891601
H -5.2711694169 1.1536029666 1.6472080331
H -4.2806039251 2.3287714979 0.7243073665
H -3.6695816640 0.1423992168 0.3722054235
H -3.6634560451 -3.4327388346 0.8328616706
H -3.9735738112 -2.7375071949 5.5089747012
H -2.6572910031 -3.9878674672 5.4151795052
H -0.5499430367 -0.3572892446 3.2533409677
H -0.2766473448 0.8710516921 1.1172578900
H 1.6001182342 0.4275161785 2.2638186809
H 2.9826131278 2.2902727313 2.1087153661
H 2.7260471126 3.9006883970 0.2396716442
H 3.8318315978 2.9221958908 -0.7703611511
H 6.4902341345 3.7921020828 1.6704544572
H 4.8790665681 0.8555033465 0.1775366978
H 4.1458294551 0.2841823831 3.0876871274
H 6.2558847539 -0.4005703803 2.4474940832
H 3.4758113012 -1.2958152990 0.5544654073
H 2.6940183425 -1.5940580519 3.2581691305
H 7.4725840297 0.9796940291 0.0449013112
H 8.5267974608 1.1824627505 -2.3624156142
H 7.8197494078 3.4340271291 -3.5395384723
