32
CONF40
C -1.2915269929 0.3673283409 3.7026331121
C -2.3763348923 -0.3632851239 2.9471863062
O -2.4165339412 0.0329286497 1.5308957609
P -1.3231729911 -0.4477606619 0.4780873071
S -0.5564204706 -2.2153011347 0.7234093738
O -2.0157588873 -0.1122213894 -0.9158461432
C -2.9743206408 -1.0482174998 -1.5313054718
C -2.4211200895 -1.5070372344 -2.8573711931
O -0.2611883029 0.7945890482 0.5657338409
C 0.9921277462 0.7905179636 -0.0058059294
C 1.2304102284 0.2650035978 -1.2760406037
C 2.5101651662 0.3323802032 -1.8026848048
C 3.5207591996 0.9269234412 -1.0519206522
C 3.2856047083 1.4595027003 0.2135641557
C 2.0078870113 1.3863425924 0.7406198837
N 4.8699948908 0.9980450630 -1.6112263655
O 5.7487682366 1.5346928683 -0.9390964482
O 5.0617381568 0.5175635780 -2.7266959653
H -1.4027919944 1.4500653484 3.5971256575
H -1.3718578388 0.1113698052 4.7638618550
H -0.2958108382 0.0751225067 3.3560449063
H -2.2493394010 -1.4492064963 2.9929107312
H -3.3712152465 -0.1019696914 3.3121114712
H -3.1485346012 -1.8888826994 -0.8526636038
H -3.9015251607 -0.4809883941 -1.6422065696
H -3.1549802068 -2.1551230853 -3.3465831484
H -1.4956719031 -2.0724548831 -2.7159909813
H -2.2225860205 -0.6530294111 -3.5109477851
H 0.4270712537 -0.1807002984 -1.8506105471
H 2.7208496333 -0.0657516529 -2.7869262515
H 4.0903805831 1.9156280860 0.7755521716
H 1.7849342032 1.7839258527 1.7241864495
