39
CONF12
C -2.3327284147 -4.0098591190 -0.1744164698
O -2.9439814175 -2.7128298019 -0.1241044135
C -2.1572637518 -1.6396757313 -0.4081335123
C -0.8037773268 -1.7190356326 -0.7562095247
C -0.0872973063 -0.5519783841 -1.0208661713
C -0.7076008745 0.6947021156 -0.9381109640
C -2.0583566168 0.7757591839 -0.5917163618
C -2.7915546576 -0.3925159538 -0.3312610362
O -4.1300512389 -0.3152597346 -0.0242393066
C -4.3743910836 -0.2269599363 1.3957354162
O -2.7571512228 1.9378981254 -0.4794283995
C -2.0455715497 3.1588198989 -0.7272274724
C 1.3801558061 -0.6379617879 -1.4060003605
C 2.2589693384 0.3398899398 -0.6784086035
C 2.9571413279 1.3396986880 -1.3249800265
N 3.7620718441 2.2292852315 -0.7195313865
C 3.8553959419 2.0898709276 0.6155287283
N 3.2285584005 1.1695279213 1.3686010648
C 2.4329029424 0.2993508888 0.7290626424
N 1.8326660914 -0.6610906526 1.4821680428
N 4.6257218160 3.0058596309 1.2835040079
H -3.1214381008 -4.7155281740 0.0874144034
H -1.9600623131 -4.2297397733 -1.1813418005
H -1.5132648042 -4.0860433343 0.5494164843
H -0.3016534817 -2.6772682425 -0.8206629441
H -0.1276530245 1.5883247838 -1.1350972410
H -5.4578559840 -0.1831631224 1.5223584402
H -3.9765134387 -1.1099391058 1.9089784637
H -3.9161931160 0.6796637937 1.8080747415
H -1.6633131127 3.1889706127 -1.7539091960
H -2.7739854779 3.9569801912 -0.5823294637
H -1.2172624426 3.2812126908 -0.0197676264
H 1.4804695957 -0.4546030652 -2.4830806199
H 1.7274969488 -1.6644430823 -1.2313741831
H 2.8681449929 1.4325262064 -2.4081606671
H 1.8447669940 -0.5349839884 2.4830892120
H 1.0301686773 -1.1425265533 1.1046242490
H 4.9227157509 2.7525440236 2.2130112722
H 5.3003452710 3.5102652533 0.7296528940
