44
CONF5
C -6.7417365798 -0.4594494986 -0.5947522732
N -5.5415479649 -0.0998525194 0.1606527973
C -4.5454999710 -1.1730536340 0.0789061841
C -3.3091773579 -0.8066081725 0.8825076493
N -2.7581621198 0.4684164013 0.4010833451
C -3.7385196577 1.5557803438 0.4462689628
C -4.9631461791 1.1415097688 -0.3617421751
C -1.4056716929 0.7056405081 0.4531157746
C -0.8094929549 1.8234611835 1.0822128876
C 0.5341728836 2.0657142343 1.0581240686
C 1.4024410862 1.1568705157 0.4397536898
C 0.8838264517 -0.0114957945 -0.1763998843
C -0.5091413473 -0.1642952620 -0.1901473811
F -1.0756081370 -1.1717224995 -0.8919488303
N 1.7726404238 -0.9166098569 -0.7712833101
C 3.0902335797 -0.6509924774 -0.7725142655
C 3.6555872836 0.4730124711 -0.2214895327
C 2.8271155869 1.4362939915 0.4423710902
O 3.2967796398 2.4732463116 0.9895288381
C 5.1242545415 0.6394489962 -0.3150317043
O 5.6055710895 1.7405206674 0.2690793842
O 5.8611260943 -0.1561966136 -0.8779487389
C 1.3635048602 -2.2642381945 -1.2389291229
C 1.0105035516 -3.1749768601 -0.0854127151
F 2.1658776717 -3.3899360508 0.6939301114
F -1.6062657028 2.6708826137 1.7692349324
H -7.1724253924 -1.3796437674 -0.1860805659
H -7.4848829346 0.3402485327 -0.5089928141
H -6.5307645137 -0.6229111331 -1.6684841735
H -4.9795465598 -2.0927597351 0.4881734153
H -4.2515122491 -1.3712709598 -0.9715151567
H -2.5617276574 -1.5966140410 0.8032379675
H -3.5794168530 -0.6992417668 1.9459740900
H -4.0392288236 1.7818100239 1.4806213617
H -3.3061411491 2.4539647066 -0.0001603661
H -5.7129337121 1.9383467899 -0.2933658981
H -4.6763036175 1.0340789746 -1.4272305312
H 0.9429937210 2.9368685849 1.5564458735
H 3.7252298114 -1.3933900908 -1.2430058808
H 0.5321612821 -2.1953292155 -1.9384397329
H 2.2163524565 -2.6822452479 -1.7766883788
H 0.6770909060 -4.1422472982 -0.4740078053
H 0.2479062887 -2.7546020476 0.5763628204
H 4.8082498716 2.2372672335 0.6632661716
