47
CONF14
C 4.9394935611 -1.2396567999 2.7207720167
C 4.6541196339 -0.6303021771 1.4076940250
C 3.5121249736 -0.4564038586 0.6664155655
C 3.9650090539 0.2084433838 -0.5150854886
N 5.2612644662 0.4160327586 -0.4908285062
O 5.6968054560 -0.1068215151 0.7381519363
C 3.1883751400 0.6407056080 -1.6895599274
C 3.0344987435 1.9972329696 -1.9826344921
C 2.2932248960 2.4636923811 -3.0530385185
C 1.6732007370 1.5325879818 -3.8782986841
C 1.7951635385 0.1671982809 -3.6369070780
C 2.5477396838 -0.2600785078 -2.5523201293
Cl 2.7091119299 -1.9775547465 -2.2590539563
F 3.6175374137 2.8932296941 -1.1612707891
C 2.1672589589 -0.9132217389 1.0569572864
O 2.0008593776 -1.8311526470 1.8609343729
N 1.1289307481 -0.2545849261 0.4633099302
C -0.2287252523 -0.6487594474 0.6474890851
C -1.2357039360 0.3129566214 1.3708797390
N -2.0162330034 0.3501016930 0.1269297041
C -1.1811241996 -0.5170857811 -0.5641343809
O -1.2331814502 -0.9709935950 -1.6832289504
C -3.4564784329 0.3348406903 0.2319287242
C -3.7882319855 -0.6137896552 1.4443825613
S -2.3864373735 -0.3206577266 2.6612984110
C -3.7725544838 -2.0644535920 0.9625753721
C -5.1094568028 -0.2940753083 2.1359446524
C -3.9803276032 1.7481967575 0.4333423590
O -3.3695346613 2.6351447003 0.9851774005
O -5.2190504621 1.8810439706 -0.0699112457
H 5.2069529904 -2.2946878412 2.5926111285
H 5.7757070213 -0.7266919768 3.2014004486
H 4.0520974229 -1.1931225540 3.3524717217
H 2.2068423773 3.5304663407 -3.2238754771
H 1.0852422762 1.8728256655 -4.7237181764
H 1.3139283127 -0.5573572348 -4.2824693475
H 1.3197247503 0.5483912674 -0.1189992849
H -0.2647147118 -1.6585717775 1.0666353885
H -0.8159944841 1.2728121261 1.6810877045
H -3.8896851363 -0.0859542436 -0.6810338727
H -4.6047856954 -2.2312993250 0.2690145430
H -3.8870573941 -2.7393397803 1.8146080901
H -2.8384558717 -2.3179158265 0.4537973772
H -5.2599613149 -0.9782798423 2.9755316187
H -5.1383722058 0.7298700732 2.5174531529
H -5.9357895809 -0.4359844766 1.4320826494
H -5.5333579186 2.7830234347 0.1182905369
