49
CONF7
C -4.4881735556 1.4999854837 -1.2958009457
C -3.2827198069 0.5878091490 -1.2249189483
C -2.6202570753 0.3025550045 0.0908228795
C -1.9677027891 1.2808554640 -0.8774444769
C -0.6546574450 0.8956939722 -1.4251570427
O -0.2386272054 -0.2282414691 -1.5933940217
O 0.0754586026 2.0207306946 -1.6902918654
C 1.4856770265 1.7777813890 -1.9736629478
C 1.9421870583 2.9280087156 -2.7476605180
N 2.3303141445 3.8300591373 -3.3545203448
C 2.2326835848 1.6114630671 -0.6699863282
C 2.6127440814 0.3342935999 -0.2729051530
C 3.1903152764 0.1583897761 0.9833970089
C 3.4095199135 1.2464974493 1.8231726257
C 3.0399111379 2.5203115241 1.4039653771
C 2.4441242817 2.7117793204 0.1625325223
O 3.6186093286 -1.0672220112 1.4312031561
C 2.9186178548 -2.2070626301 1.0635202554
C 3.6705454270 -3.3490585966 0.8140719690
C 3.0155403927 -4.5387384594 0.5129464417
C 1.6254877307 -4.5829581444 0.4520874498
C 0.8886895652 -3.4289570164 0.7063209124
C 1.5276265255 -2.2352355677 1.0209243246
C -3.1140262620 0.8088562857 1.4087739484
C -2.1152746930 0.6471885996 2.5673858940
Br -1.6824193730 -1.2324634670 2.9271667038
Br -2.8112498258 1.4860935599 4.2003618383
Br -0.4387984060 1.5857246447 2.0725397297
Br -4.8233280111 -0.1192696038 1.8538772928
C -3.3052950532 -0.5323474081 -2.2394275775
H -4.4582366557 2.3005796825 -0.5526863828
H -5.4059014950 0.9263169440 -1.1376982234
H -4.5387869673 1.9638118257 -2.2861239108
H -2.1245661966 -0.6642295137 0.1378260463
H -2.0551386396 2.3348444450 -0.6366198289
H 1.5771274280 0.8734356835 -2.5855595007
H 2.4306557431 -0.5187829076 -0.9161725152
H 3.8627757047 1.0788296405 2.7937483773
H 3.2128077611 3.3690566449 2.0574076942
H 2.1464033872 3.7039893767 -0.1609876867
H 4.7523356606 -3.2921900930 0.8633905291
H 3.5981040103 -5.4334285785 0.3186181432
H 1.1192687181 -5.5108651196 0.2091242465
H -0.1958109626 -3.4522291043 0.6651718144
H 0.9546959125 -1.3379114268 1.2267862805
H -3.3871372934 1.8651546441 1.3714902124
H -4.1835567638 -1.1614253709 -2.0611251057
H -3.3799584353 -0.1237491529 -3.2527764449
H -2.4106042306 -1.1540683986 -2.1837135022
