44
CONF59
C -4.7034632228 0.2129471093 1.8728334917
C -3.3099456124 -0.2743114484 1.5676350543
C -3.0054174487 -1.7059732703 1.9746074444
O -1.9805167478 -2.1108067276 1.0426582036
C -2.0359845647 -1.2244030879 -0.0822170307
O -3.1360447104 -0.3651066244 0.1304237622
C -2.3497615964 -2.0589928272 -1.3387595592
N -2.3821682044 -1.2365265669 -2.5348444319
C -3.3889659610 -0.4719322171 -3.0034625878
N -2.9907398572 0.2060926391 -4.0736224380
C -1.6930201855 -0.1879854585 -4.2118170184
N -1.2766697721 -1.0596664778 -3.3022876428
C -0.7356515075 -0.4287772334 -0.2046191133
C -0.8022496344 0.9584005753 -0.3659031206
C 0.3306508954 1.7450390635 -0.5078214340
C 1.5806653079 1.1361813228 -0.5024097453
C 1.6965043274 -0.2443158063 -0.3673628416
C 0.5399209040 -1.0004033925 -0.2227288059
Cl 0.7745824603 -2.7435667345 -0.0954580576
O 2.6706827698 1.9505494510 -0.7085561048
C 3.9026133259 1.5816341444 -0.1909294759
C 4.0478592355 1.2243593774 1.1469901934
C 5.3145330432 0.9390417656 1.6432653878
C 6.4106077273 1.0272340602 0.7914654658
C 6.2723251657 1.3930600741 -0.5416452882
C 5.0013506260 1.6687626580 -1.0367634836
Cl 8.0155322184 0.6695844380 1.4218185149
H -4.8518247468 0.2388824324 2.9564465978
H -5.4471313152 -0.4567970001 1.4308721273
H -4.8522068632 1.2230955753 1.4824572235
H -2.5506094281 0.4087454865 1.9766549243
H -2.6063180410 -1.7950987305 2.9880109756
H -3.8919092145 -2.3436127322 1.8568240030
H -1.5953452744 -2.8340760068 -1.4759995948
H -3.3297338130 -2.5219216450 -1.1967853947
H -4.3700778609 -0.4525158667 -2.5478765926
H -1.0413491350 0.1662938028 -5.0006561947
H -1.7786091318 1.4289591194 -0.3703829126
H 0.2550572962 2.8204242008 -0.6243033035
H 2.6663147391 -0.7268992198 -0.3848050565
H 3.1822252238 1.1712085498 1.7987735363
H 5.4439733505 0.6618165817 2.6831959154
H 7.1382651625 1.4579126069 -1.1904139723
H 4.8620490755 1.9534642195 -2.0740240221
