37
CONF10
C -3.1133124832 -1.4239619578 0.4755233799
C -1.6133057895 -1.1456253342 0.6198986904
C -0.8419606962 -2.4647859615 0.7082520562
C -1.0762287306 -0.2543014218 -0.5390324790
C 0.4330435718 -0.0588298135 -0.4002886388
C 1.3212048160 -0.5678629116 -1.3477245585
C 2.6959095840 -0.4027921944 -1.1930334228
C 3.1640902884 0.2710579019 -0.0792967280
C 2.3086775265 0.8007894852 0.8746345302
C 0.9403832558 0.6314798955 0.7045034412
O 4.5576707165 0.4954327075 0.0500092694
C 5.2442556207 -0.4384739433 0.7412543490
F 4.8311002431 -0.5551571340 2.0255560218
F 6.5339020097 -0.0789140706 0.7489723028
F 5.1526007425 -1.6737705704 0.1954308074
C -1.7225648183 1.1336716981 -0.5789532682
C -1.7327526277 1.8558377764 -1.7736582305
N -2.2498676275 3.0840984005 -1.8771580087
C -2.7694580035 3.5993982588 -0.7582073186
N -2.8137323796 3.0118103682 0.4385769358
C -2.2849150995 1.7830334875 0.5181062927
O -1.2946462143 -0.9010219081 -1.7966281119
H -3.7026371809 -0.5139836891 0.3273033241
H -3.4817999815 -1.9182528909 1.3790843482
H -3.3079769548 -2.1015923875 -0.3638014391
H -1.4458392877 -0.5975510541 1.5546484633
H -0.9153692002 -3.0161354947 -0.2343749758
H 0.2160154689 -2.3050383079 0.9332855475
H -1.2692360355 -3.0867815300 1.5003839104
H 0.9451448048 -1.0997983326 -2.2119798656
H 3.3923702799 -0.7913280239 -1.9280260550
H 2.7060913060 1.3404140598 1.7270713452
H 0.2689187618 1.0502845165 1.4474338397
H -1.3067817822 1.4225139660 -2.6758794872
H -3.1982639273 4.5983531717 -0.8310516245
H -2.3221278430 1.3125199220 1.4980244701
H -2.2486013224 -0.9947367999 -1.9192537137
