59
CONF24
C 7.8527565365 -1.0625956346 -0.7604144521
C 6.4564609995 -0.8618268834 -0.1737064628
C 5.6646777570 -2.1687736011 -0.1000371306
C 4.3040126664 -2.0461901497 0.5917461828
C 3.3260069460 -1.1291999449 -0.1426984350
C 1.9410120500 -1.0759081476 0.4956838366
C 1.0428285871 -0.0944365620 -0.1928802038
C 0.4041393541 0.8903399619 0.4409320786
C -0.4233537732 1.9511429601 -0.2016035278
C 0.2658290879 3.3470749718 -0.0982543839
C -0.8922100277 4.3374353220 -0.0267627728
C -1.8505689352 3.6153586215 0.9170066270
C -1.8433284558 2.1379134415 0.4216902179
C -2.9623258573 1.8623296547 -0.5976697996
C -2.9886311052 0.4452023350 -1.0822226966
C -4.0446134576 -0.3674150507 -0.9985725735
C -4.0705919046 -1.7784407133 -1.4988645833
C -4.3590663374 -2.8109911020 -0.3934026911
C -3.4357956506 -2.6860603363 0.8159615112
C -1.9714058990 -2.8282249343 0.4877463390
O -1.5308984639 -3.4002530604 -0.4963665462
O -1.1844610646 -2.2727980465 1.4183193032
O -3.1374208769 4.2149438174 1.0499094314
O 1.2204593539 3.5827232132 -1.1289733652
O 1.3378518986 -2.4089727892 0.5156244316
H 8.4054571897 -0.1192786950 -0.8138261793
H 7.7935712364 -1.4753210534 -1.7738673491
H 8.4361562543 -1.7613411059 -0.1504296184
H 5.9118390899 -0.1281222568 -0.7802286040
H 6.5355153633 -0.4334534571 0.8348455471
H 6.2671155887 -2.9135201477 0.4372650238
H 5.5218544910 -2.5628031420 -1.1164653745
H 4.4480917952 -1.6709235539 1.6146826157
H 3.8575254691 -3.0426998954 0.6825655532
H 3.2189027091 -1.4507903718 -1.1896552832
H 3.7097639763 -0.1024547555 -0.1695781360
H 2.0291828759 -0.8115221492 1.5559411575
H 0.9417700573 -0.2056511237 -1.2746193761
H 0.5191306053 0.9782854178 1.5241723854
H -0.5233057912 1.7306944671 -1.2726946826
H 0.8404989095 3.3992944516 0.8347076564
H -0.5931881288 5.3245177450 0.3359966554
H -1.3512327681 4.4485732832 -1.0200014085
H -1.4301008017 3.6382229675 1.9296879694
H -1.9843546713 1.4587842161 1.2708851119
H -2.8239223149 2.5364127079 -1.4578880787
H -3.9323134665 2.1019765455 -0.1478985121
H -2.0770697884 0.0646474577 -1.5472926201
H -4.9597217518 0.0010984925 -0.5285072586
H -4.8500196907 -1.8817044795 -2.2661141832
H -3.1140230730 -2.0105952652 -1.9779238306
H -5.3904931291 -2.6910103162 -0.0417001391
H -4.2811118992 -3.8166917563 -0.8196767939
H -3.6677086663 -3.4670336140 1.5529342956
H -3.5790426941 -1.7298348437 1.3287846174
H -0.2328710460 -2.3616473413 1.1160558646
H -3.5032044798 4.3401618419 0.1648798551
H 0.7523681658 3.5571170272 -1.9742844761
H 1.2364811240 -2.7075309852 -0.4011288408
