27
CONF3
C -3.8996474685 3.1792094385 -1.8269098560
C -3.1027882132 3.6838989035 -0.8006333113
C -2.1620109126 2.8745451694 -0.1786521750
C -1.9982365434 1.5398102498 -0.5779991382
C -2.7904250866 1.0299491692 -1.6144355406
C -3.7327331620 1.8553911426 -2.2233039929
N -1.0033881473 0.8016560127 0.0871968658
C -0.8089030610 -0.5599454651 0.0622048605
O -1.5120282085 -1.3513715477 -0.5532927623
N 0.2939432366 -0.9485310097 0.8243926098
C 0.7518271857 -2.2350622943 1.0529713563
C 0.1373664695 -3.3975451647 0.5683626493
C 0.7384168558 -4.6028603218 0.9031570081
N 1.8241074980 -4.7765260939 1.6274780279
C 2.3996572591 -3.6477054139 2.0859905748
C 1.9143585501 -2.3818204511 1.8329553148
Cl -0.0291202490 -6.0825919827 0.2948790704
H -4.6373527365 3.8102287545 -2.3112605345
H -3.2138002401 4.7140665757 -0.4768734955
H -1.5459627905 3.2739787243 0.6224612668
H -2.6717195185 0.0068475642 -1.9389999485
H -4.3410365981 1.4486815607 -3.0254476514
H -0.4277209041 1.3457580970 0.7138626077
H 0.8531162407 -0.2211502958 1.2476504285
H -0.7553095883 -3.3607741008 -0.0344945105
H 3.2966550548 -3.7770594783 2.6866160161
H 2.4255541339 -1.5125565311 2.2338581612
