39
CONF151
C 3.2978577585 1.5861041713 -0.9189106996
C 2.6900261133 0.6012875754 -1.9170937684
C 2.3108101886 -0.7518791337 -1.3044488356
C 1.3429795152 -0.6480018040 -0.1481215575
C 0.7667697106 -1.9568660713 0.3618019696
O -0.4986110869 -1.5568301978 0.9261963463
C -0.8659615940 -0.3050610864 0.3468729573
C -2.2085337655 -0.4692234530 -0.3909797161
N -2.1171367532 -1.4833719165 -1.4230574221
C -1.6205452735 -1.3580868674 -2.6704111653
N -1.6137365185 -2.5356512547 -3.2833262112
C -2.1235814631 -3.3695569334 -2.3321420017
N -2.4419490383 -2.7802299259 -1.1871476080
O 0.1369798207 0.0226360916 -0.5890143918
C -0.9875520056 0.7503836130 1.4514491520
C -1.0840860546 2.1247272553 1.2033889662
Cl -1.0806588675 2.7884434838 -0.4273751023
C -1.1884250874 3.0566348601 2.2316153422
C -1.2106106974 2.5975277255 3.5405860833
Cl -1.3428741284 3.7663311948 4.8430231496
C -1.1327288183 1.2447445426 3.8380198870
C -1.0233241697 0.3428128173 2.7876584672
H 3.6434218374 2.4906089629 -1.4287593470
H 2.5689925102 1.8938159817 -0.1618317240
H 4.1550132277 1.1424005495 -0.3996495170
H 3.4025482902 0.4170883181 -2.7294312627
H 1.8008200560 1.0467842993 -2.3785527134
H 3.2116020159 -1.2570486137 -0.9318743604
H 1.8694410916 -1.3975830870 -2.0740316050
H 1.7778158154 -0.0806309470 0.6882730483
H 1.3655892639 -2.4220415294 1.1484954252
H 0.5995603597 -2.6644708570 -0.4624699718
H -2.9743421824 -0.7684720172 0.3275123153
H -2.4997598051 0.4765843121 -0.8529743675
H -1.2947183485 -0.4102570513 -3.0774323822
H -2.2728981999 -4.4310145123 -2.4860995427
H -1.2517025821 4.1148842886 2.0101444982
H -1.1537040377 0.8980767013 4.8643947746
H -0.9527868909 -0.7155986702 3.0057028009
