33
CONF21
O -2.2877233263 -1.6018084936 3.7624790506
C -2.1910096430 -1.0804710858 2.5170773240
C -2.8721570698 0.0845300391 2.1563857127
C -2.7325039890 0.5640056053 0.8614447116
O -3.4013897214 1.6715656034 0.5015195111
C -1.9098562438 -0.1083441308 -0.0851005265
C -1.8391725796 0.3284113284 -1.4514817324
O -2.4489448692 1.3344991514 -1.8714180364
C -1.0288097574 -0.5363624956 -2.3806030473
C 0.1120477021 -1.2115173044 -1.6392890047
O -0.4361077757 -1.9772274772 -0.5141665517
C -1.2265189160 -1.2776971405 0.3365775945
C -1.3617328911 -1.7672542470 1.6225445578
C 1.1953017825 -0.2854048623 -1.1259054499
C 1.2417421047 1.0742107365 -1.4276812462
C 2.2683372665 1.8754148343 -0.9247870191
C 3.2498479119 1.3245776140 -0.1148312072
O 4.2902922483 2.0267122098 0.4262498351
C 3.2125622088 -0.0466428309 0.1925380464
O 4.1705368959 -0.6140400071 0.9819631608
C 2.1941602733 -0.8372949539 -0.3143044412
H -2.8733444568 -1.0550600138 4.3056551031
H -3.5075684830 0.6068441842 2.8643609297
H -3.1936975520 1.8144022972 -0.4649263058
H -1.6993791133 -1.3120748452 -2.7744535094
H -0.6707693520 0.0472776868 -3.2317061664
H 0.5574481434 -1.9875614019 -2.2680433463
H -0.8272304436 -2.6556727509 1.9369482753
H 0.4916531995 1.5354394088 -2.0592932985
H 2.3043720108 2.9354854530 -1.1613956484
H 4.2355575193 2.9544017033 0.1604935742
H 4.8019891210 0.0705186724 1.2475848517
H 2.1820687105 -1.8938631800 -0.0644358654
