30
CONF21
C 4.6148459972 -0.3195504240 -0.8275475685
C 3.4048677965 0.4537125145 -0.3074391623
C 2.1373866502 -0.3982053508 -0.2568551691
C 0.9195978585 0.3590698261 0.2716642287
C -0.3414345083 -0.5030712402 0.3131144438
C -1.5658163474 0.1939477718 0.9198698425
C -2.7759534102 -0.7514713198 1.0038275936
C -3.3696070438 -0.7579723187 -0.4216764630
C -2.9417205107 0.5951137350 -1.0550792382
C -2.1230837013 1.3217092933 0.0336349112
H 4.8315651767 -1.1828560470 -0.1891041659
H 4.4333399525 -0.6948505174 -1.8405532098
H 5.5111039232 0.3074974285 -0.8582755911
H 3.2257955030 1.3306502321 -0.9433852195
H 3.6185273452 0.8424212277 0.6969893560
H 1.9181334901 -0.7827185791 -1.2631096312
H 2.3187367757 -1.2803928104 0.3732543703
H 0.7511092612 1.2445381030 -0.3547336405
H 1.1350908047 0.7342849299 1.2822036999
H -0.1297638222 -1.4065327823 0.9018831161
H -0.5761278456 -0.8518073944 -0.7024179831
H -1.2909995324 0.5718166965 1.9133731836
H -3.5061984948 -0.3391452029 1.7101834611
H -2.5086560466 -1.7531986808 1.3563965435
H -4.4562386938 -0.8798891727 -0.4039632431
H -2.9691372303 -1.5964724162 -0.9997264204
H -3.8009827087 1.1912562894 -1.3751480258
H -2.3304610890 0.4257392521 -1.9470704364
H -1.3494202329 1.9730638667 -0.3830854292
H -2.7845000259 1.9533130903 0.6384341768
