52
CONF11
C -1.4219583369 -0.3839279213 -3.3389303484
O -2.4303975115 0.1845158491 -2.4926410890
C -2.0817297296 0.4537504474 -1.2039773496
C -0.8077462557 0.2401719653 -0.6722668397
C -0.5515684040 0.5425574658 0.6655201206
C -1.5578181256 1.0786417839 1.4699039049
C -2.8326037612 1.2933153671 0.9399598190
C -3.1001311805 0.9868615619 -0.4023776776
O -4.3392712182 1.2470685927 -0.9378948754
C -5.2400180619 0.1241668324 -0.8356852019
O -3.8819645403 1.8032134417 1.6415567702
C -3.6617717321 2.1040231428 3.0265111275
C 0.8201359117 0.2818928967 1.2782848381
C 0.9468272951 -1.1021968582 1.9202718387
C 0.9689317601 -2.2056512720 0.8770048953
C 0.6777229819 -3.4355705491 1.7235228929
O -0.2224449559 -2.9350031440 2.7713574663
C -0.0809728506 -1.5903615641 2.9136011420
O -0.6866176083 -0.9789294706 3.7623689719
C 2.2761018419 -2.1497402039 0.1146544102
C 2.5862182282 -0.7123100983 -0.3036272416
C 3.5983690649 -0.5408167456 -1.2741324300
C 3.9147583491 0.7393550785 -1.6499581657
C 3.2692060055 1.8445416929 -1.1038793659
C 2.2829572462 1.7076393957 -0.1603341205
C 1.9399287949 0.4028200352 0.2524832198
O 3.7421856155 2.9937978289 -1.6848424682
C 4.9099056337 2.5827547026 -2.4283024537
O 4.8200549728 1.1524822199 -2.5968283330
O 2.2892993642 -3.0534858083 -0.9970621848
H -0.5739928190 0.3009420295 -3.4566955318
H -1.0697932120 -1.3432637889 -2.9412287126
H -1.9034174341 -0.5405956595 -4.3045179745
H -0.0093454972 -0.1415154516 -1.2957598942
H -1.3399300748 1.3121518853 2.5036563362
H -4.8405168103 -0.7392213232 -1.3803679521
H -6.1827398263 0.4407362386 -1.2861656103
H -5.4025978633 -0.1425833914 0.2151445123
H -2.8956002132 2.8790542844 3.1442296496
H -3.3682521837 1.2056994726 3.5819582988
H -4.6168024358 2.4728466326 3.4015698026
H 0.9811006555 1.0395356945 2.0539492406
H 1.9018105293 -1.1249336957 2.4742720987
H 0.1373553619 -2.0489795076 0.1764790530
H 1.5781189920 -3.8255258435 2.2123563821
H 0.1510124081 -4.2365942884 1.2047894226
H 3.0851297190 -2.5071404702 0.7679919339
H 4.0972477398 -1.3994288815 -1.7086561969
H 1.7712203614 2.5699593247 0.2550435574
H 4.9051284297 3.0653799452 -3.4072401686
H 5.8101405924 2.8221117000 -1.8460878825
H 1.6391351787 -2.7342123702 -1.6389820390
