33
CONF24
C 3.5068169004 -2.9679411034 0.6870562440
C 4.6957306470 -2.2129366779 0.0763455015
C 4.2539011140 -1.0938790603 -0.8263533926
C 4.3652614145 -1.1356383522 -2.1589215349
C 3.6774660944 0.0943655866 -0.1367618554
O 3.7575003740 0.2756388663 1.0641417833
O 3.0616647681 0.9481038367 -0.9862007972
C 2.4403157935 2.1322194911 -0.4307965638
C 0.9241158235 2.0261176279 -0.5224518697
C 0.3205752474 1.0626832657 0.4744028831
C -1.2392910640 1.0656764903 0.4555417726
C -1.9199619425 -0.1071787595 1.2359653338
C -3.4275047795 0.1332775318 1.5742385732
F -3.9548209567 -1.0115088272 2.0327600165
F -3.5666771942 1.0711440616 2.5181801533
F -4.1020989658 0.5099682934 0.4784517363
F -1.8502767921 -1.2296312781 0.4841078173
F -1.2763449235 -0.3239675092 2.4064513356
F -1.6679182214 2.2448550038 0.9768416126
F -1.6579323017 0.9952157599 -0.8339589786
F 0.7141481951 1.3741434635 1.7473657699
F 0.7226209551 -0.2291216159 0.2331420283
H 2.8934315310 -3.4188396922 -0.0993625433
H 2.8733720957 -2.2958779848 1.2731548809
H 3.8594989192 -3.7655939322 1.3475449612
H 5.3175558210 -1.8042396647 0.8803463112
H 5.3147726518 -2.9041120612 -0.5033024851
H 4.0280773835 -0.3213112766 -2.7894184907
H 4.8125794286 -1.9983752810 -2.6440678491
H 2.7696598919 2.9628989808 -1.0582402331
H 2.7821247762 2.2893476414 0.5935305293
H 0.5004910902 3.0172720472 -0.3266643491
H 0.6258890966 1.7267125605 -1.5304234588
