43
CONF45
C 5.4560539058 1.9952210605 -0.5752641626
C 5.2653647865 1.1702768029 0.6731231338
O 4.4306014295 0.0234084443 0.3054778059
C 4.1026994848 -0.8072878879 1.2939415761
O 4.4619874382 -0.6957946254 2.4493192344
C 3.2578470054 -1.9871892793 0.8148086789
C 4.1686537094 -3.1742474369 0.5341831920
O 2.5492585596 -1.7150586478 -0.3964754593
C 1.5429192086 -0.7877854996 -0.3658782214
C 0.9251344693 -0.5392191983 -1.5964499737
C -0.1115976877 0.3770456418 -1.6823392100
C -0.5237399170 1.0408254090 -0.5338749195
C 0.0787877075 0.8111228875 0.6890296536
C 1.1229564216 -0.1095402806 0.7803378799
O -1.5262053854 2.0214811068 -0.6277262551
C -2.8177555946 1.6119282170 -0.5702175768
C -3.7857357839 2.6550152315 -0.7063511473
N -5.0669667854 2.4036526898 -0.6712110343
C -5.4419548105 1.0985975938 -0.4980704036
C -6.8138698481 0.7798440728 -0.4569112558
C -7.1783469416 -0.5337160881 -0.2823971648
C -6.2305065812 -1.5646993019 -0.1433798394
C -4.8884737041 -1.2612613213 -0.1823746227
C -4.4648615429 0.0712914268 -0.3607619999
N -3.1307279743 0.3588698523 -0.4005060153
Cl -8.8834868185 -0.9556639761 -0.2294522246
H 6.0766593090 2.8640356726 -0.3377974225
H 4.4954357947 2.3511878701 -0.9580797557
H 5.9574579652 1.4152078154 -1.3549105220
H 4.7501845291 1.7254818386 1.4625861096
H 6.2114579348 0.7882678088 1.0679912814
H 2.5563015174 -2.2327885595 1.6218653745
H 4.7304298591 -3.4293777700 1.4356328137
H 3.5632289839 -4.0343781918 0.2389571430
H 4.8693037050 -2.9325357637 -0.2697782529
H 1.2700600962 -1.0709528660 -2.4769420091
H -0.5994396921 0.5778192127 -2.6304685964
H -0.2602811517 1.3449984744 1.5705375186
H 1.5825129318 -0.2784769990 1.7467631395
H -3.4517880539 3.6820188171 -0.8425204254
H -7.5473497614 1.5710045371 -0.5631822684
H -6.5613852901 -2.5880348142 -0.0071811242
H -4.1408230206 -2.0405940664 -0.0778368787
