38
CONF14
C 0.9837504557 4.9861529021 2.4684781900
C 1.9865149181 4.0721186973 1.7932626304
C 3.1678910305 4.8011206061 1.1919365987
O 1.3184254690 3.3978796095 0.6574826704
C 0.6077720773 2.2998903201 0.9191546938
O 0.4731749118 1.7925051743 2.0110145637
C 0.0200640858 1.7153067593 -0.3933737653
C -1.2521520821 0.9476735193 -0.0606869167
C -2.4963260801 1.5691611048 -0.1604917293
C -3.6613387765 0.8848499882 0.1772674433
C -3.5609820092 -0.4243673744 0.6261297688
C -2.3345705738 -1.0652425531 0.7446191823
C -1.1826118590 -0.3686377802 0.3956775138
Br -5.1612120650 -1.3765669788 1.0924136770
C 1.0663567791 0.8088230339 -1.0483998301
C 2.2515392583 0.4310486199 -0.4214837510
C 3.1690276837 -0.3957656790 -1.0688057630
C 2.8796239293 -0.8362162088 -2.3510192394
C 1.7038313572 -0.4768852918 -3.0016747588
C 0.8018267041 0.3461894807 -2.3404303874
Br 4.1339256253 -1.9705297042 -3.2551779775
O -0.3412952475 2.7661235267 -1.2866624364
H 1.4662302798 5.4924115848 3.3098237559
H 0.6272834247 5.7447993249 1.7647504415
H 0.1299585309 4.4203681820 2.8496457228
H 2.3180624085 3.2859756443 2.4780323585
H 3.8429304159 4.1030537396 0.6895829393
H 3.7207710957 5.3063767018 1.9888992336
H 2.8314898371 5.5537104147 0.4722003105
H -2.5659697870 2.5929861987 -0.5072548522
H -4.6265384677 1.3702920774 0.0913731564
H -2.2727979009 -2.0881267974 1.0971411589
H -0.2218725500 -0.8655520917 0.4815857098
H 2.4831270588 0.7661401687 0.5849170556
H 4.0895728312 -0.6841317625 -0.5751412578
H 1.4927246839 -0.8327472470 -4.0034110146
H 0.4489579055 3.3031548650 -1.4373629965
H -0.1200509035 0.6341009155 -2.8352711704
