41
CONF15
C -3.5027224073 1.0008258241 0.3110976117
C -3.0369892057 -0.2715809218 0.9384381215
C -3.6777478737 -0.8554008462 2.0245793691
C -3.1536954730 -2.0417035050 2.5407239907
N -2.0557435667 -2.6051478741 2.0147226567
C -1.5099568805 -1.9687454886 0.9727649428
N -1.9439801117 -0.8425335661 0.4040432669
N -0.3647961427 -2.5768889594 0.4637303950
C 0.4886494164 -2.2035512842 -0.5666724340
O 1.5108139636 -2.8360343764 -0.7926018678
N 0.0784986397 -1.1043243592 -1.2973122893
S 1.1034796615 -0.3379415316 -2.4075238541
O 0.3732982322 0.8832728280 -2.7754552654
O 1.4859013407 -1.3015847682 -3.4416193644
C 2.5868593933 0.1294123947 -1.5029129769
C 3.7367779115 -0.6199523727 -1.7207279212
C 4.9296669810 -0.2271727425 -1.1212145787
C 4.9683851601 0.9184656198 -0.3342030751
C 3.8159302754 1.6730015045 -0.1349107887
C 2.6047753961 1.2801568447 -0.7048596575
C 1.3728180564 2.0541342886 -0.3568692648
O 0.4000894513 1.5702893705 0.1846648388
O 1.5142387036 3.3490154798 -0.6556596589
C 0.3884998454 4.1956618601 -0.2961443096
C -3.7899496986 -2.7505436822 3.6925893873
H -2.7197622909 1.7621184301 0.3975077733
H -3.6848918516 0.8462214348 -0.7572498555
H -4.4139270264 1.3676648504 0.7853857719
H -4.5606423142 -0.4014587168 2.4586035677
H -0.0657457646 -3.4079954763 0.9569279232
H -0.6976858631 -0.5479281532 -0.8901952559
H 3.6965502926 -1.4932583195 -2.3599481390
H 5.8276983238 -0.8134653361 -1.2825787190
H 5.8995586633 1.2326609919 0.1252421295
H 3.8453890534 2.5664745524 0.4794504505
H 0.2270280500 4.1616025329 0.7835004597
H -0.5087289786 3.8585662010 -0.8200623835
H 0.6712027072 5.1972017984 -0.6156130549
H -3.0378759838 -2.9924813782 4.4489837072
H -4.2191580885 -3.6979415972 3.3475375861
H -4.5821099123 -2.1491120540 4.1409992737
