44
CONF87
C -4.1290760227 -1.6780574205 1.3958865518
C -2.8627422422 -1.6926824734 0.5757256356
C -2.9511867844 -2.4208410403 -0.7601478110
O -2.0062602575 -1.7249467531 -1.5887169057
C -1.6977845455 -0.4740703709 -0.9554858892
O -2.5695014795 -0.3533335698 0.1412076590
C -1.9855134070 0.6498295207 -1.9670393227
N -3.3769093431 0.6660437987 -2.3634404735
C -4.0331846100 -0.1783327207 -3.1941182571
N -5.3254509013 0.1024091051 -3.2090445193
C -5.4070873626 1.1513283630 -2.3412800414
N -4.2572695565 1.5281627100 -1.7996725033
C -0.2254062530 -0.4689071641 -0.5365410560
C 0.6297629001 -1.4776678191 -0.9910169956
C 1.9736846633 -1.5181687554 -0.6551208492
C 2.4961499315 -0.5253836156 0.1664405231
C 1.6817521899 0.4961626007 0.6453525959
C 0.3397444343 0.5164830340 0.2823244047
Cl -0.6104256713 1.8472589533 0.9224987650
O 3.8186195447 -0.6473460390 0.5213374425
C 4.5390841768 0.4858450121 0.8570963530
C 5.3108576021 0.4345308277 2.0107498308
C 6.1178295256 1.5156363946 2.3476621628
C 6.1310765889 2.6357582273 1.5254599897
C 5.3606626158 2.6901292814 0.3683170641
C 4.5630077824 1.6047093097 0.0291764871
Cl 7.1377065109 4.0051404027 1.9515915299
H -4.3971273584 -2.6968825082 1.6920835681
H -4.9482316953 -1.2485481231 0.8120656319
H -3.9911475901 -1.0805808156 2.2999712324
H -2.0121366194 -2.0775468554 1.1617058317
H -2.6608313719 -3.4745113326 -0.7021916819
H -3.9585038445 -2.3302175748 -1.1913537356
H -1.7467189199 1.6220156280 -1.5343009852
H -1.3538682464 0.4770495135 -2.8439739402
H -3.5309616773 -0.9582301721 -3.7497024169
H -6.3345467385 1.6566993928 -2.1064726576
H 0.2120883050 -2.2484032681 -1.6270553042
H 2.6223832895 -2.3079841882 -1.0158698061
H 2.0788220647 1.2653021238 1.2961740627
H 5.2783607763 -0.4521502446 2.6338356599
H 6.7259253671 1.4899100891 3.2441549820
H 5.3915423015 3.5683250306 -0.2657732040
H 3.9628109173 1.6260636963 -0.8740220310
