29
CONF9
C -3.5932647932 -2.0724689363 -0.6662131187
C -3.4028078576 -0.8491123192 -1.5600547542
N -3.2065592902 0.3821383786 -0.8054824614
C -2.0369204671 0.7456609032 -0.2435709081
N -0.9467850649 0.0027554545 -0.4786253825
C 0.1662659042 0.4693279610 0.1050981654
N 0.2600893785 1.5709062469 0.8725491396
C -0.9015500002 2.1922244079 1.0158311620
N -2.0732275419 1.8748792305 0.5184123198
Cl -0.8575114133 3.6336517007 2.0168589442
N 1.2972312912 -0.2667641572 -0.0949235815
C 2.6608433238 0.1819165926 0.2102588621
C 3.6203019401 -0.8378429917 -0.4260133046
C 2.9152673184 0.2668730709 1.7235158729
C 2.9244116613 1.4950685965 -0.4162752025
N 3.1861538747 2.4908807342 -0.9397649565
H -3.7410605045 -2.9681007371 -1.2775790909
H -2.7105923981 -2.2240566507 -0.0395598159
H -4.4656338531 -1.9526154277 -0.0168043604
H -4.2780866395 -0.7005232923 -2.2010537444
H -2.5357884248 -0.9890436288 -2.2119240596
H -4.0026796434 0.9366099325 -0.5341119229
H 1.2047290215 -0.9626047749 -0.8195944966
H 4.6529059838 -0.5448330173 -0.2303149199
H 3.4778332205 -0.8901925480 -1.5093570864
H 3.4420965692 -1.8224335875 0.0165724075
H 2.7393082497 -0.7189385213 2.1628490555
H 2.2519786549 0.9966645553 2.1856720969
H 3.9530523149 0.5599727032 1.9019050289
