22
CONF249
C 2.3980149802 -1.1135494720 0.0912439301
C 1.1714419712 -0.4707382594 -0.5383183493
C 0.0953947801 -0.1731895309 0.5241515881
C -0.9691650645 0.7943008400 0.0062174397
C -2.0480355333 1.0754625170 1.0414124517
O -3.0672762569 1.9255749272 0.4922515380
O -1.5603903263 0.2375493033 -1.1799189850
O -0.4717507176 -1.3909381659 1.0114462947
O 0.6660459537 -1.3799072056 -1.5256187701
O 3.4529780303 -1.3412212449 -0.8471800017
H 2.1297368263 -2.0959410817 0.4924603956
H 2.7401572546 -0.4801707768 0.9223193436
H 1.4694188867 0.4812053397 -1.0087312723
H 0.5765689292 0.3159949832 1.3812133690
H -0.4612215458 1.7421139492 -0.2437421581
H -2.5464982352 0.1430399391 1.3190126381
H -1.5971477483 1.5206329382 1.9391427593
H -2.6889927705 2.8079590003 0.3824753287
H -2.3347183715 0.7798924906 -1.3875636997
H -0.6096641607 -1.9519390348 0.2330588699
H -0.0970407339 -0.9450125791 -1.9372198994
H 3.7521446511 -0.4811186863 -1.1681128217
