110
CONF130
C -3.3205734463 1.2912436533 -1.5838377077
N -4.2338401100 1.4166520649 -2.7343489441
C -3.9878203282 0.2500959042 -3.6003945429
C -3.4344232107 -0.8347545881 -2.6517276322
C -3.4576829522 -0.2026933432 -1.2346716361
C -2.3707502930 -0.7310449462 -0.3365720655
C -0.9980239234 -0.6560358588 -0.4707189634
C -0.1481591882 -1.2395251377 0.4741615353
C -0.7478742520 -1.9202331824 1.5563672848
O 0.1323058918 -2.4465475450 2.4482330587
C -0.3696678716 -3.1363461081 3.5876861094
C -2.1335495731 -2.0314557291 1.6999735316
C -2.9371160165 -1.4158399357 0.7380132789
N -4.3058103731 -1.3672126218 0.6937625324
C -5.1300774038 -2.3411288542 1.3817204191
C -4.7778839343 -0.5660124460 -0.4393763571
C -5.5975498751 0.7026862709 -0.0116030046
O -6.3535108925 1.1713288879 -1.1124295410
C -4.6054609241 1.7199638325 0.5803034274
O -5.2411672439 2.7976437195 1.2543459877
C -3.6303428563 2.3148160900 -0.4715683593
C -2.3306325848 2.6736075987 0.3137007547
C -1.2551306920 3.4428899657 -0.4472890682
C -4.1607676732 3.5905624740 -1.0790454517
C -4.3293652464 3.7984868015 -2.3821001852
C -4.1588480974 2.7106776356 -3.3972959915
C -6.6087415081 0.3269431503 1.0863153358
N -7.8212805972 -0.0596077195 0.6162971928
O -6.3182388890 0.3407330165 2.2789945271
C 1.3752058352 -1.1070327847 0.4149871673
C 1.8495822677 -0.6346854805 -1.0015170748
C 3.3761450540 -0.5795933952 -1.0359482727
C 3.9723279670 0.8301503846 -0.9281608565
N 5.3404766474 0.7353394899 -0.4575684103
C 6.1620920449 -0.0922616325 -1.3371705066
C 5.5852857310 -1.4567823916 -1.8043874089
O 5.7383379503 -2.4645170189 -0.7847334572
C 6.3660561313 -1.9947440268 -3.0073409526
C 7.8592587413 -2.2051633988 -2.7610425334
C 4.0910544374 -1.3090604075 -2.1683371619
C 5.4765155190 0.6537338955 0.9976373674
C 4.5091421702 -0.2215691531 1.8643519261
C 3.0954215153 0.2866408847 1.9927697647
C 1.8679713754 -0.0928419790 1.4527943531
N 0.9041361474 0.8093757171 1.8848446991
C 1.4524956999 1.7455679994 2.7158484134
C 0.8616640172 2.8098036803 3.3933025799
C 1.6883140562 3.6004431845 4.1781403081
C 3.0632810351 3.3275807201 4.2861299484
C 3.6416339407 2.2641260746 3.6098776957
C 2.8335492140 1.4490027501 2.8034461933
C 2.0052887278 -2.4993460339 0.6238205879
O 2.8905573183 -2.7927351513 1.3909376726
O 1.4775585903 -3.3764632267 -0.2577670499
C 2.0751219570 -4.6894810180 -0.2228845166
H -2.2797056625 1.4517871654 -1.9217630803
H -3.2496166035 0.4919699456 -4.3825742183
H -4.9173229030 -0.0448468262 -4.1010446132
H -2.3997562968 -1.0767646915 -2.9102801645
H -4.0032858126 -1.7670887127 -2.6834840147
H -0.5778752473 -0.1292643013 -1.3203756540
H -0.9609171972 -4.0129000140 3.2932144631
H 0.5109005565 -3.4580530636 4.1447741367
H -0.9781578255 -2.4723898803 4.2143054096
H -2.5734032810 -2.5513592352 2.5405465791
H -4.7365896791 -3.3579528643 1.2321427846
H -5.1905820199 -2.1327015199 2.4562468327
H -6.1468404393 -2.3028949325 0.9845500290
H -5.4551659442 -1.1587984973 -1.0717144173
H -5.7014712941 1.3167763498 -1.8563646840
H -4.0026123779 1.1422461001 1.2984737989
H -5.6287605466 2.4160234927 2.0536877822
H -2.6452442546 3.2558675542 1.1878230811
H -1.9125143393 1.7323393255 0.6897859636
H -0.3945836088 3.6205278904 0.2056113364
H -1.6234899297 4.4112366762 -0.7966745107
H -0.8894547839 2.8929041914 -1.3205780836
H -4.3400309494 4.3975585796 -0.3755532199
H -4.6347829188 4.7750847657 -2.7469297971
H -3.1996455819 2.8275922673 -3.9442729825
H -4.9560671710 2.7679869426 -4.1510130275
H -8.5627931925 -0.1728070188 1.2889653117
H -8.0460246377 0.1896364440 -0.3356719714
H 1.4316945679 0.3608800013 -1.1912300101
H 1.4464504789 -1.3214758318 -1.7527304216
H 3.7003626152 -1.0840146164 -0.1286370782
H 3.3964486577 1.4579383671 -0.2401031031
H 3.9539695803 1.3144751539 -1.9197326294
H 6.3516609383 0.4957579557 -2.2522723970
H 7.1304864142 -0.2697106847 -0.8585765982
H 5.2747134558 -2.1824193025 0.0124265181
H 5.9034015472 -2.9489139958 -3.2894250433
H 6.2162854392 -1.3085499740 -3.8497176161
H 8.0197118275 -2.8325659677 -1.8808746609
H 8.3838458068 -1.2573259324 -2.6064321125
H 8.3220771904 -2.6974752338 -3.6216756364
H 3.6777917809 -2.3132571712 -2.3295682523
H 3.9884542066 -0.7487786649 -3.1085897400
H 6.4999477635 0.3235800195 1.2116797141
H 5.3846216615 1.6781919985 1.3892627714
H 4.9439939610 -0.1838565510 2.8734871892
H 4.5324345173 -1.2778378540 1.5980837709
H -0.0763395359 0.6944498381 1.6885262345
H -0.2023249686 3.0117573858 3.3107910788
H 1.2667058816 4.4406889936 4.7200063608
H 3.6809082370 3.9629860120 4.9125608005
H 4.7047704565 2.0689628302 3.7111868688
H 3.1447871964 -4.6232687444 -0.4420165085
H 1.9368913968 -5.1429142545 0.7622240605
H 1.5555532428 -5.2643996309 -0.9894122235
