40
CONF7
C 5.3773791871 1.8035386136 1.2524799960
C 4.0219379231 1.1370097883 1.1344465545
C 3.6842441172 0.2747627019 2.3378938353
O 4.1098705551 0.3021629967 -0.0661491996
C 2.9869624794 -0.1170115669 -0.6745093435
C 1.6861598822 0.2346226306 -0.3062291220
C 0.5898867676 -0.2348873792 -1.0254173241
C 0.7727110183 -1.0678384161 -2.1282883392
C 2.0559812170 -1.4517469797 -2.4977263039
C 3.1403573543 -0.9807522265 -1.7767401293
Cl 4.7480838487 -1.4641798977 -2.2588185039
Cl -0.5898242083 -1.6143768384 -3.0728734197
N -0.7053576091 0.1611540583 -0.6214224996
C -1.2128439037 1.4281606412 -0.6730329888
O -0.7308187962 2.4689888187 -1.0545183863
O -2.5034283665 1.2972051016 -0.1679781278
C -2.6656677138 -0.0313556531 0.1466975552
N -1.6234120289 -0.7463635796 -0.1037292542
C -3.9771380278 -0.4727518589 0.7071180106
C -3.9111624341 -1.9674981244 1.0355002014
C -5.0703900837 -0.2094200027 -0.3476685195
C -4.2732436320 0.3396008457 1.9819250576
H 5.5933697624 2.4058997813 0.3662983575
H 6.1623227267 1.0507118007 1.3741011936
H 5.3832531461 2.4568804946 2.1292352614
H 3.2534834047 1.9006954126 0.9638864638
H 4.4800085376 -0.4574628845 2.5065156788
H 3.6003922142 0.9092223996 3.2250996278
H 2.7384780310 -0.2584581385 2.2105339811
H 1.4963212347 0.8722211134 0.5476375779
H 2.2105025053 -2.1024634841 -3.3499145840
H -3.1386626863 -2.1752223496 1.7813072358
H -3.7031037296 -2.5615964353 0.1412627743
H -4.8779618547 -2.2783164504 1.4414472131
H -4.8697173735 -0.7725012946 -1.2642734517
H -5.1362841698 0.8541634638 -0.5930389261
H -6.0349581511 -0.5318234472 0.0558828491
H -5.2301187706 0.0081880468 2.3959808452
H -4.3429949077 1.4086395602 1.7634894878
H -3.4946171587 0.1821988490 2.7346345826
