54
CONF484
C 4.0332923271 -2.2166071522 2.3286117194
C 4.0615050201 -0.7326176919 1.9718146844
C 3.1508666772 0.0493077874 2.8815185478
C 2.1691562107 -0.6027158844 3.6423912904
C 1.3319958408 0.1165474268 4.4995528863
C 1.4521647837 1.4961933178 4.6077613810
C 2.4182397604 2.1277753331 3.8417308519
C 3.2615499041 1.4380810869 2.9927377191
F 2.5458161178 3.4834604996 3.9337429024
O 1.9851830175 -1.9626383992 3.6260260590
C 2.6011758085 -2.6874864684 2.5335089200
C 1.7149533309 -2.5445174730 1.2949204139
C 0.3092991066 -3.1049880083 1.5244171211
N -0.4041996742 -3.1587226273 0.2413743834
C -0.9787000687 -1.8692025133 -0.1512451814
C -1.7237523096 -2.0022154268 -1.4723733553
C -2.2978576810 -0.6661032467 -1.9496963307
C -2.9840414042 -0.7494691160 -3.3013065274
C -3.5492318238 0.6218011185 -3.6630955771
C -2.5165325811 1.6959003208 -3.4419208667
C -1.3959310001 1.4482035611 -2.6371115032
O -1.1776752616 0.2482257643 -2.0109232143
C -0.4159669025 2.4259882502 -2.4488790206
C -0.5409141152 3.6712178070 -3.0518894259
C -1.6597432098 3.9067637690 -3.8340578998
C -2.6366415815 2.9525414101 -4.0416602452
F -1.7995339635 5.1271992675 -4.4282718538
O -2.7743781962 -2.9723655159 -1.3737459013
O 2.3450414153 -3.2570441472 0.2280922523
H 4.5808642141 -2.3900535549 3.2621918938
H 4.5065207369 -2.8176056016 1.5486433897
H 5.0805956824 -0.3396527925 2.0459478231
H 3.7499996504 -0.5874127264 0.9289856359
H 0.5859117032 -0.4185375583 5.0781917845
H 0.8095541611 2.0689264847 5.2673751336
H 4.0132163080 1.9734042488 2.4200269868
H 2.5883948057 -3.7337242675 2.8583630341
H 1.6399333922 -1.4750478751 1.0359951250
H 0.3995763185 -4.1285172626 1.9093410311
H -0.2132654305 -2.4972771369 2.2805987549
H -0.1738451815 -1.1375633458 -0.2734553264
H -1.6724706101 -1.4688136884 0.6138611745
H -1.0406603860 -2.3899588735 -2.2387189576
H -2.2483266106 -1.0742085522 -4.0479400108
H -3.7779594284 -1.4986856380 -3.2605916052
H -3.8848232186 0.6428157592 -4.7049091707
H -4.4315750422 0.8304184932 -3.0436618736
H 0.4424167053 2.1991540340 -1.8247983835
H 0.2091641735 4.4424952668 -2.9156333160
H -3.4896811709 3.1769997236 -4.6751889162
H 1.6069883602 -3.4842159710 -0.3677874898
H -3.0058044566 -0.2863437177 -1.1929622026
H -3.3865477860 -2.6784772918 -0.6838480612
H -1.1509177815 -3.8425052364 0.2980131957
