33
CONF1
C -4.3396966926 0.3145935398 1.8892011678
C -3.0547445340 0.3196569067 1.1542374445
N -2.3753970754 -0.7423624859 0.8520435364
N -1.2568945839 -0.2853210008 0.1745116589
C -1.2155324871 1.0932440060 0.0578151226
O -0.3850570425 1.8145136168 -0.4611517400
N -2.4130306888 1.4690717645 0.7001337503
C -2.8105388466 2.8252856239 0.8234039729
F -4.0310464325 3.0209798514 0.2384719052
F -2.9575122722 3.1645919611 2.1397334008
C -0.2426661105 -1.1443425393 -0.2890482551
C -0.5002446017 -2.1979722312 -1.1709110618
C 0.5554349136 -2.9725923032 -1.6344289111
C 1.8556235970 -2.6562174327 -1.2718265567
C 2.1425409427 -1.5868159530 -0.4074293730
C 1.0605472464 -0.8701950705 0.1062019350
N 3.4580596733 -1.2765586504 -0.0557201219
S 3.9838281364 0.3411330689 0.2159962750
O 5.4399761971 0.2517156077 0.1067530670
O 3.3277572451 0.8290955740 1.4280993476
C 3.3284810349 1.2819924711 -1.1826704137
Cl 3.1660313803 -3.6164831825 -1.9258611726
Cl -2.1062031215 -2.5276803880 -1.7496123805
H -4.5980112562 -0.7190136184 2.1211170535
H -4.2627560607 0.8875477266 2.8180086507
H -5.1359428311 0.7604157905 1.2854198883
H -2.0606587374 3.4694488220 0.3518233373
H 0.3677207597 -3.7952088858 -2.3129516919
H 1.2363651835 -0.0722791442 0.8174739234
H 4.1751476791 -1.8028033526 -0.5447863528
H 3.7239258356 0.8557710653 -2.1066791275
H 3.6887767789 2.3041102150 -1.0423996878
H 2.2357180729 1.2626793205 -1.1542473944
