47
CONF68
C -1.8881645685 1.7676829283 -3.5029378947
C -2.2821664070 0.3144113929 -3.3753046267
C -3.2382130131 -0.1497865985 -4.4524282958
C -1.3074761822 -0.6986815610 -2.8502897211
C 0.0769107516 -0.3409022065 -2.5007761194
C 0.9634384350 -1.1801190224 -1.9701832499
Br 2.7603320833 -0.6549989444 -1.6238339419
Br 0.5382440353 -2.9644793626 -1.4699178069
C -2.5227144994 -0.2978944405 -1.9900173191
C -2.4535255953 0.4744520879 -0.7412901043
O -3.3752240541 0.5890382422 0.0411408838
O -1.2346414957 1.0513318955 -0.5302010734
C -1.0901840519 1.8077340751 0.7018385159
C -1.7230267456 3.1190501307 0.5331626842
N -2.2186426150 4.1530890852 0.3974200081
C 0.3866755888 1.8978989545 0.9949298573
C 1.1908691855 2.8501101035 0.3717339630
C 2.5584161575 2.8589300723 0.6329857863
C 3.1216129667 1.9243157655 1.4928393629
C 2.3054700044 0.9716431303 2.1014331689
O 2.9215669584 0.1130217904 2.9816904022
C 2.3208694476 -1.1069825479 3.2730786482
C 1.9830242465 -1.9991258747 2.2592395003
C 1.4519503377 -3.2381553861 2.6030269978
C 1.2719279601 -3.5833674685 3.9421254168
C 1.6259802692 -2.6812750252 4.9425183165
C 2.1499839814 -1.4329837371 4.6126087898
C 0.9330812721 0.9552047894 1.8643345221
H -1.3658481909 1.9196652663 -4.4537363577
H -1.2422237425 2.1169302150 -2.6967293195
H -2.7880440189 2.3912664577 -3.5091880669
H -2.7800904307 -0.0110318697 -5.4378056785
H -4.1627532186 0.4361538888 -4.4198717568
H -3.4915882370 -1.2068521512 -4.3350834955
H -1.4191801044 -1.7072687468 -3.2417489149
H 0.4272255731 0.6655125754 -2.7095559406
H -3.3238263784 -1.0286892442 -1.9498645350
H -1.6160580874 1.2849268600 1.5080010849
H 0.7569077786 3.5778661203 -0.3065136835
H 3.1946467202 3.5978505650 0.1571101992
H 4.1861459303 1.9210696627 1.7018019032
H 2.1356902755 -1.7245186142 1.2203841968
H 1.1864977509 -3.9390514399 1.8176445140
H 0.8608209514 -4.5528920887 4.2033260068
H 1.4909791527 -2.9441076958 5.9869431830
H 2.4280812856 -0.7157903504 5.3777102116
H 0.2962422141 0.2225976131 2.3482488737
