45
CONF58
C -3.6667052277 2.8169092442 0.4694756058
O -3.6773608638 1.7244195176 -0.4836866171
C -2.4798085775 1.1526248702 -0.6874986314
O -1.4364147776 1.4865503814 -0.1452916890
N -2.5546293934 0.0829206518 -1.5498781969
C -1.3780623159 -0.5162067640 -2.1003022384
C -0.9907560729 -0.1893899597 -3.3982319255
C 0.1266288747 -0.7973775824 -3.9572767179
C 0.8521842887 -1.7236183792 -3.2111742523
C 0.4567835243 -2.0476752090 -1.9167056921
C -0.6682199512 -1.4550888736 -1.3434028792
C -1.1574432319 -1.8285593756 0.0345278702
O -0.2545399025 -2.7108563864 0.7258761430
C 0.8203686355 -2.1282679152 1.2956928219
N 1.0641587530 -0.8258462865 1.2278775091
N 2.2256084004 -0.6659556227 1.9262562446
C 2.6881952296 -1.8531104681 2.4172635222
C 1.8046857488 -2.8312300424 2.0264497516
C 2.7794831328 0.6212960483 2.0767239192
C 1.9913774457 1.7475605798 1.8239395767
C 2.5300859101 3.0193213747 1.9722410477
C 3.8512346258 3.1555826279 2.3799467948
C 4.6471326348 2.0449834645 2.6330938208
C 4.1110259983 0.7737626986 2.4725299430
Cl 4.5337434495 4.7664078781 2.5736772574
O -3.6974481322 -0.0093791745 -2.3659242444
C -4.4507010917 -1.1864087272 -2.0038301389
H -4.6971124715 3.1678259297 0.5066434038
H -3.3469491194 2.4593357041 1.4509204246
H -3.0025385162 3.6130490634 0.1259537633
H -1.5695331741 0.5379387826 -3.9579380836
H 0.4331975908 -0.5434569338 -4.9666840640
H 1.7282365814 -2.2004123332 -3.6391295460
H 1.0212819669 -2.7785243160 -1.3478166212
H -2.0936348359 -2.3901137617 -0.0438344469
H -1.3335798544 -0.9366098488 0.6436025788
H 3.5820231090 -1.9183549998 3.0185002515
H 1.8473909252 -3.8872869577 2.2413087880
H 0.9602408144 1.6297824335 1.5157082939
H 1.9190031603 3.8932992400 1.7775204871
H 5.6804011770 2.1628138669 2.9385947451
H 4.7452540342 -0.0876989394 2.6442534459
H -5.3019295220 -1.1981754272 -2.6876240242
H -3.8460701785 -2.0898249028 -2.1453013157
H -4.7962886842 -1.1160943714 -0.9670470770
