27
CONF4
C 2.4513816146 1.4642485220 2.9246964194
C 1.3291635771 0.8432433546 3.4673908543
C 0.7326986626 -0.2251960154 2.8012395721
C 1.2618598706 -0.6871264775 1.5959357340
C 2.3926126524 -0.0649033241 1.0585467813
C 2.9808908570 1.0097686576 1.7171296183
C 0.6354657746 -1.8508868635 0.8830211574
O 0.2632375890 -1.4880864590 -0.4888660304
C -0.8533097497 -0.7526983008 -0.6237283407
O -1.5988967858 -0.4359408572 0.2781359544
C -1.0499147037 -0.3746210137 -2.0334039968
C -2.1136058611 0.2646342587 -2.6332027125
N -2.0023126910 0.5031737159 -3.9695099698
C -0.8624975961 0.0543674600 -4.4067061508
S 0.1692089894 -0.7003837406 -3.2335374394
Cl -0.3741092376 0.1845155923 -6.0473341396
C -3.3857875562 0.7098284166 -1.9456835970
F -3.1514673108 1.6723572346 -1.0267547223
F -4.2623413388 1.2144754756 -2.8341545384
F -3.9999969229 -0.3165472930 -1.3176482110
H 2.9132003562 2.3004155920 3.4404472450
H 0.9116806604 1.1949926440 4.4057482342
H -0.1507938515 -0.7022723940 3.2159571312
H 2.8099143466 -0.4236770417 0.1215834213
H 3.8573294909 1.4897761191 1.2928504310
H -0.2496909806 -2.2162578801 1.4077839156
H 1.3460802555 -2.6671995676 0.7394395760
