63
CONF252
C 7.5452888525 -2.9321418624 -3.3331094832
C 6.4376269786 -2.0027750053 -3.8226513616
N 5.5187508607 -1.6270594282 -2.7423341521
C 5.9540690013 -0.6342596902 -1.7595649125
C 4.7622379493 0.1355456525 -1.2467372787
N 3.7859311539 -0.7968354929 -0.6488250629
C 3.5871468899 -2.0213831816 -1.2391134035
O 2.7944040480 -2.8677208104 -0.8434890335
C 4.4106041733 -2.3574685272 -2.5143692217
O 4.0135640418 -3.2780783353 -3.2233924321
C 2.9754688018 -0.2506603435 0.4035134922
O 3.0897439765 0.9330398887 0.7025983243
N 2.1426606144 -1.1055175283 1.0310764894
C 1.1877531840 -0.5735612878 1.9832930759
C 0.3413735965 -1.6862010568 2.5664333115
C 0.2834167606 -1.8705113114 3.9479731491
C -0.5145946142 -2.8760764684 4.4883731376
C -1.2569911234 -3.7041140651 3.6506661312
C -1.2029144945 -3.5216346264 2.2697943333
C -0.4115298002 -2.5137798838 1.7280790057
C 0.2544748827 0.4485822741 1.2946481190
O -0.0305038614 0.3855073359 0.1041622441
N -0.2640910969 1.3825926633 2.1280864446
C -1.2071448287 2.3545076944 1.6703822067
C -2.5835100405 1.9190769759 1.0728369019
N -2.2562035367 2.7022987231 -0.1282147912
C -0.9909485536 3.0605328425 0.3081793522
O -0.1206679949 3.7300885115 -0.1957726541
C -3.3017386877 3.4762793481 -0.7731970306
C -4.6400316609 3.0427347692 -0.0642058132
S -4.1405324539 2.6497635205 1.7020466388
C -5.1712683100 1.7828212561 -0.7512567327
C -5.7024198143 4.1345840414 -0.0549965941
C -3.0739696000 4.9824380786 -0.7052481529
O -2.6100903996 5.3954688585 0.4838159316
O -3.3398949773 5.7243021212 -1.6253046935
H 8.2077285372 -3.1854265859 -4.1657776393
H 7.1209607123 -3.8577481031 -2.9332485782
H 8.1453365306 -2.4552183888 -2.5523968166
H 6.8595357052 -1.0780613416 -4.2302438943
H 5.8469290453 -2.4850015861 -4.6041498065
H 6.6354891330 0.0620358989 -2.2557172178
H 6.4953417758 -1.1118779590 -0.9310040954
H 5.0763058885 0.8330244151 -0.4707396554
H 4.2853879669 0.7039384377 -2.0543982748
H 2.0225260044 -2.0335215245 0.6360320185
H 1.7247528601 -0.0659154925 2.7927332098
H 0.8677417900 -1.2286736113 4.6011963141
H -0.5508901825 -3.0147995334 5.5643229885
H -1.8761774010 -4.4899909012 4.0715055200
H -1.7819374731 -4.1627693115 1.6126986176
H -0.3835640939 -2.3663830209 0.6518940445
H -1.3458667199 3.1195165927 2.4396474297
H -2.6781612984 0.8447892962 0.8908238420
H -3.3946529634 3.2345337503 -1.8374694674
H -5.4682742180 2.0266280567 -1.7775620257
H -6.0455649964 1.4076594349 -0.2141115400
H -4.4180190537 0.9910683173 -0.7915850543
H -6.6134924878 3.7571504767 0.4170091975
H -5.9457931294 4.4158909966 -1.0848873881
H -5.3745087173 5.0258206922 0.4868300092
H 0.0125714635 1.3941040327 3.0985520254
H -2.5120111362 6.3634117358 0.4531705338
