28
CONF27
C -3.1899008853 0.2111877611 0.6823048229
N -1.9051175841 0.7261446011 0.2246708102
C -1.8189093724 2.2023576813 0.1761477315
O -0.6018787221 2.6307333235 -0.3773236915
C 0.4641523192 1.8709741496 0.1851949613
N 0.3298932443 0.4981995823 -0.2736708373
C -0.8941997913 -0.0640404123 -0.1650395793
N -0.9618125646 -1.4119935169 -0.2966848579
N -1.9862787304 -1.9020371242 -1.0329601221
O -2.6334513238 -1.1758700087 -1.8123550871
O -2.1924630244 -3.1197208527 -0.9341997285
C 1.4496482388 -0.1939532773 -0.9176461137
C 2.3935368794 -0.8042859255 0.0674841910
C 3.6905552976 -0.4569493692 0.3124011089
N 4.3531455640 -1.1806285582 1.2782764211
C 3.5598814391 -2.0752796459 1.7717714265
S 1.9427688364 -2.1304440761 1.1148158885
Cl 4.0257836461 -3.1776015438 3.0192687307
H -3.9235017775 0.2023280863 -0.1302573863
H -3.0686976130 -0.7994719948 1.0758698986
H -3.5476847293 0.8590174609 1.4886363800
H -2.6181688314 2.5832221514 -0.4694137022
H -1.9544754389 2.5781317497 1.2030779646
H 0.4221517572 1.9192801999 1.2835093759
H 1.4044060589 2.2855230123 -0.1799306685
H 1.0429541121 -0.9504017134 -1.5929566182
H 2.0055451119 0.5359657126 -1.5160859041
H 4.2121184920 0.3396125416 -0.2073196131
