51
CONF14
C 3.4223942358 -2.5651142134 3.0816434198
C 3.2284299706 -2.1971889346 1.6029733658
C 2.7307885306 -0.7894938098 1.4161427932
N 3.5325955387 0.2291213306 1.4948238922
O 4.8587106866 -0.0944328387 1.7716804189
C 5.6776223081 1.0929371569 1.6582839771
C 5.9102665294 1.4940927591 0.2151911966
C 1.3414203144 -0.4714839359 1.0420814011
C 1.0230205910 0.7601519584 0.4807787162
C -0.3188941532 1.0966416796 -0.0799347988
C -1.1195041642 -0.1652670918 -0.4127036440
C -1.1385340099 -1.0734989812 0.8156081021
C 0.2538594219 -1.4081809539 1.3228504746
O 0.4044442179 -2.4176419375 2.0162895952
C -2.4588842695 0.1315196881 -1.0671018827
C -3.5795342024 0.6250831517 -0.3634678320
C -4.7669338475 0.8824666877 -1.0552104549
C -4.8941786486 0.6722967304 -2.4257026122
C -3.7766835257 0.2067317880 -3.1127683498
C -2.5693422913 -0.0607559809 -2.4631835640
C -1.4111222312 -0.5436003737 -3.3038997239
C -6.1982381404 0.9288862350 -3.1302081401
C -3.5955491654 0.8906722772 1.1234584197
O 1.8966901089 1.7453441541 0.3830555701
H 4.1374048025 -1.8927555232 3.5622695668
H 2.4702238762 -2.5092779553 3.6135327410
H 3.8040470649 -3.5871593563 3.1624048754
H 4.1901344545 -2.2703120470 1.0834649063
H 2.5304629460 -2.8913939619 1.1373665185
H 5.2144698561 1.9019134450 2.2362757524
H 6.6140135630 0.8047319549 2.1443771031
H 4.9733977327 1.7735767879 -0.2755191372
H 6.5827437042 2.3571509549 0.1806912153
H 6.3703427165 0.6737590912 -0.3435437404
H -0.8454969428 1.7310610839 0.6451074445
H -0.1624054582 1.7132776128 -0.9721751452
H -0.5195307075 -0.7042408577 -1.1510125726
H -1.6486346604 -2.0192079109 0.6076615663
H -1.6574388065 -0.6110535079 1.6616116524
H -5.6193582163 1.2657712028 -0.4982639454
H -3.8405936060 0.0516409432 -4.1872508034
H -1.1037993207 -1.5596161839 -3.0308675134
H -1.6938847159 -0.5551485723 -4.3588723006
H -0.5319706276 0.1013924353 -3.1994259741
H -6.6780202852 1.8376414437 -2.7545125457
H -6.0528318328 1.0307603722 -4.2087863899
H -6.8973177963 0.1004761235 -2.9648050114
H -2.6764965135 1.3514877725 1.4889264108
H -3.7469784492 -0.0345793190 1.6908960581
H -4.4234766854 1.5602196186 1.3694037784
H 2.7581482193 1.4105972888 0.8327142327
