51
CONF37
O 3.3849844831 1.0891288091 1.4439765881
C 2.7528207970 0.2171665755 0.4940109274
C 2.3788486266 0.9617254726 -0.7910012431
C 1.4960490429 2.1963738627 -0.5744929436
C 0.2206423121 1.8737775626 0.1852501998
C -0.8070924255 0.9050260978 -0.4951651723
N -1.8008449644 2.0007383956 -0.3634658356
C -0.9050554451 2.9081417636 0.1600317348
O -1.0156457970 4.0834719546 0.4542266255
C -3.1386648749 2.0598243292 -0.7544165719
C -3.6936094228 0.9895098771 -1.4656296939
C -5.0276414922 1.0277794648 -1.8557827481
C -5.7816219621 2.1415526717 -1.5304709562
F -7.0857608647 2.1825654489 -1.9119746900
C -5.2582495375 3.2156673110 -0.8296175386
C -3.9268931653 3.1739731305 -0.4341420266
C -1.1317883584 -0.3754142946 0.2110631815
C -1.7261393847 -0.3758522343 1.4772111903
C -1.9730994236 -1.5637550252 2.1496884140
C -1.6189177064 -2.7800193664 1.5594755946
O -1.8819405942 -3.9189637421 2.2643775192
C -1.0274879418 -2.7981308596 0.2960133108
C -0.7937438219 -1.5982616019 -0.3687189595
C 3.5892239736 -1.0070161950 0.1829164470
C 3.0022312027 -2.2733311485 0.1994905840
C 3.7353042720 -3.4123730087 -0.1263718608
C 5.0683849210 -3.2539274259 -0.4609726002
F 5.7984215552 -4.3568019355 -0.7757197824
C 5.6928136069 -2.0174007389 -0.4841041406
C 4.9385850407 -0.8933301659 -0.1619705369
H 4.0326875758 1.6314544641 0.9750660729
H 1.8386092750 -0.1273889864 0.9920922767
H 3.3033083071 1.2582495604 -1.3054354089
H 1.8704848845 0.2502906751 -1.4540843112
H 2.0477392116 2.9664432363 -0.0243513730
H 1.2396657049 2.6218046941 -1.5525355066
H 0.4302810100 1.5666142151 1.2158803744
H -0.5599260941 0.7154942122 -1.5470042781
H -3.0868618238 0.1252132535 -1.7119697193
H -5.4742680933 0.2067401926 -2.4057020139
H -5.8843048786 4.0692311089 -0.5936051007
H -3.4968706458 3.9995945123 0.1190312584
H -2.0054930800 0.5657952879 1.9427811119
H -2.4387298158 -1.5648557363 3.1299291894
H -1.5931362925 -4.6875100166 1.7539843284
H -0.7567144043 -3.7444474277 -0.1649977464
H -0.3355547462 -1.6167345587 -1.3543816252
H 1.9548959649 -2.3754805859 0.4721923217
H 3.2889583030 -4.4008767535 -0.1127979653
H 6.7420269044 -1.9423107445 -0.7487436669
H 5.4190898751 0.0808341108 -0.1773571460
