47
CONF191
C -1.8136905793 4.1483580564 2.3649320776
C -2.5715410612 3.6234337308 1.1668340048
C -3.6719789036 2.6389254461 1.3818968054
C -2.3221693744 2.1367857936 0.8559370028
C -2.2778661035 1.6205629254 -0.5145021626
O -3.0434521635 1.8653453169 -1.4246929920
O -1.2170694107 0.7623435215 -0.6616569549
C -1.0721288198 0.1782455418 -1.9823448393
C -2.1647757908 -0.7748860683 -2.2150332874
N -3.0040191873 -1.5465122536 -2.3999659065
C 0.2751186375 -0.4980189922 -2.0406444882
C 1.2770427635 0.0404536691 -2.8447832318
C 2.5289857421 -0.5699474172 -2.8737693506
C 2.7863805689 -1.7025245301 -2.1105512477
C 1.7732627833 -2.2229372806 -1.3033066696
C 0.5163469169 -1.6309777561 -1.2654284743
O 1.9288055613 -3.3788498573 -0.5697641881
C 3.1760952450 -3.6771501301 -0.0359066182
C 3.9066055480 -2.7265618629 0.6727186739
C 5.1157946045 -3.1018968789 1.2504104299
C 5.5825739468 -4.4103914534 1.1305701701
C 4.8319399185 -5.3495370154 0.4268905452
C 3.6241186851 -4.9865932114 -0.1645643860
C -4.1201343645 2.2178065271 2.7244825022
C -4.6877523949 1.0356716238 2.9560798610
Cl -5.2622071481 0.5455773142 4.5251031167
Cl -4.9092556412 -0.1578378875 1.7082911889
C -2.7046485041 4.6176465632 0.0373063904
H -2.3507271255 4.9980633460 2.8011770258
H -0.8222081446 4.4944512384 2.0565091513
H -1.6849384633 3.3869877072 3.1388067900
H -4.4404976205 2.6291611560 0.6101709819
H -1.6813588900 1.6209659123 1.5624897206
H -1.1433888739 0.9631196391 -2.7428453687
H 1.0807285278 0.9242250018 -3.4427174888
H 3.3126325904 -0.1645104069 -3.5053173996
H 3.7585710136 -2.1818511156 -2.1443873065
H -0.2563311895 -2.0581784312 -0.6336299475
H 3.5328485379 -1.7124561837 0.7705007947
H 5.6906813063 -2.3670219167 1.8052836127
H 6.5248600594 -4.6960747264 1.5863437029
H 5.1870825122 -6.3707339113 0.3304217696
H 3.0283031814 -5.7037132835 -0.7195238418
H -4.0089440973 2.8965981625 3.5654425169
H -3.2876899596 4.2189751242 -0.7939712533
H -1.7156916618 4.9077191857 -0.3333169690
H -3.2043125690 5.5177403849 0.4110713376
