73
CONF2451
C -0.8752008356 3.0133503726 -0.7758081489
C -1.7146715439 2.2685901216 0.2397026279
O -2.9639716046 1.9450578172 -0.4186939801
C -3.8807391760 1.2244472433 0.3745779038
O -3.3993135124 -0.0626596224 0.7365589770
C -3.4187724841 -1.0283403576 -0.3187584604
C -4.5808722248 -1.9971931024 -0.0966165880
O -5.8428970806 -1.3411012991 -0.2473394713
C -4.5353272715 -3.1375890852 -1.1038691081
O -5.5325695999 -4.1149407426 -0.8162159716
C -3.1745907926 -3.8265347019 -1.0277147975
C -2.9784657370 -4.9109700538 -2.0719971047
O -3.1552436627 -4.4330734164 -3.4057928639
O -2.1473231826 -2.8455203367 -1.2645851466
C -2.1178503643 -1.8230717701 -0.2843726392
O -1.0607281938 -0.9535650769 -0.6229993886
C 0.2165180865 -1.3205152809 -0.3088165851
C 0.5569186858 -2.5837938805 0.1766782102
C 1.8909978336 -2.8358278913 0.4768162567
O 2.2302357462 -4.0575759317 0.9162584510
C 2.8915541541 -1.8419324994 0.2980222622
C 4.2840881241 -2.1471887167 0.4859961851
O 4.6825483077 -3.2632620046 0.8765884770
C 5.2545819090 -1.0515875819 0.1340943857
C 4.6308745298 0.3188021774 0.3627163677
O 3.3810094196 0.4254659274 -0.3931400695
C 2.4894026656 -0.5747496490 -0.1938843720
C 1.1672092434 -0.3125725312 -0.5018581436
C 5.5102560278 1.4576880577 -0.0577238824
C 5.8462588750 1.6460127823 -1.4010916148
C 6.6817731343 2.6860129787 -1.7869531650
C 7.2045660486 3.5489032907 -0.8189971746
O 8.0356149327 4.5839603336 -1.1345009031
C 6.8796403662 3.3717602026 0.5261567725
C 6.0314174104 2.3344950286 0.8949951887
C -4.2135014253 1.9399231036 1.6839373839
O -4.9775755080 3.0939950924 1.3363062515
C -2.9327901774 2.3208380625 2.4168213048
O -3.3174438142 3.0964268757 3.5563111662
C -2.0024230892 3.0951643560 1.4974805661
O -0.8020112160 3.3328093494 2.2467150252
H -1.3654496044 3.9492963651 -1.0636444916
H 0.1099799726 3.2432490643 -0.3601357751
H -0.7336541188 2.4006412755 -1.6707595186
H -1.2155680444 1.3371134899 0.5416121987
H -4.7826728266 1.1420864756 -0.2436306938
H -3.5051633122 -0.5376577852 -1.2972444640
H -4.4946119989 -2.4189494379 0.9167751225
H -6.0752209423 -0.9352126903 0.5971595831
H -4.6717904283 -2.7282573006 -2.1170048337
H -6.3717434632 -3.6408729358 -0.7346622477
H -3.0464408536 -4.2740580946 -0.0276420266
H -3.7238868335 -5.6945678842 -1.9139161721
H -1.9785477274 -5.3475760595 -1.9378855837
H -2.4816364213 -3.7586554768 -3.5630035031
H -1.9579327277 -2.2479833876 0.7210328086
H -0.1646245473 -3.3814885034 0.2927035045
H 3.2234748141 -4.0459573526 1.0210345205
H 6.1635050772 -1.1565861137 0.7327845854
H 5.5321866356 -1.1699676973 -0.9228068295
H 4.3702490093 0.4254253384 1.4247766106
H 0.8678780282 0.6633280122 -0.8627996500
H 5.4456439032 0.9797730134 -2.1595521360
H 6.9328922341 2.8312701505 -2.8344208460
H 8.1823227982 4.6022358869 -2.0902242623
H 7.2869539936 4.0510472245 1.2678753437
H 5.7735453287 2.2051079061 1.9425291659
H -4.8077253479 1.2603335569 2.3124304106
H -4.9864353757 3.6636722285 2.1186150485
H -2.4191421060 1.4001023920 2.7356983956
H -2.5132401088 3.5129585682 3.8962699956
H -2.4728276304 4.0467700758 1.2120252580
H -0.3614992473 4.1094153494 1.8810073876
