46
CONF148
C -6.7065315338 2.7386564714 -2.0369131904
C -5.2603908177 2.8641183456 -1.5616693328
C -4.5979637080 1.4980391823 -1.3725952390
C -3.1602306605 1.6447071864 -0.9140580997
O -2.5291434351 0.3315560674 -0.7678104905
C -2.7215567684 -0.3001089006 0.3912743154
O -3.3475065695 0.1347898689 1.3371354646
C -2.1194158289 -1.7044698683 0.3981895846
C -3.1961431610 -2.7043574914 -0.0010404887
O -1.0434611580 -1.8649317629 -0.5293603208
C 0.1281079030 -1.2023935889 -0.2873589844
C 1.1322647195 -1.4016470231 -1.2410647289
C 2.3666099654 -0.7878437797 -1.0919725943
C 2.5865059803 0.0262308770 0.0119657821
C 1.6029219179 0.2394001205 0.9614535549
C 0.3606803979 -0.3767071824 0.8156536754
O 3.8154960883 0.6922324677 0.1343526486
C 4.7992375032 0.0750593242 0.8362983358
C 6.0062629351 0.7783447430 0.9599121511
C 7.0857131022 0.2703039958 1.6407342262
C 6.9667789989 -0.9993538551 2.2309119122
C 5.7708484791 -1.7196951377 2.1208115715
C 4.6953328345 -1.1844288546 1.4278723023
C 8.0667346347 -1.5507132665 2.9382406891
N 8.9635116573 -2.0047564659 3.5162095841
F 6.0959579738 1.9940501766 0.3843598801
H -7.3071300375 2.1775287326 -1.3128096132
H -7.1673408054 3.7223915390 -2.1681553888
H -6.7568016243 2.2104261895 -2.9951502741
H -4.6819240339 3.4512659326 -2.2865444494
H -5.2281488444 3.4160636137 -0.6136794283
H -5.1582961949 0.9147722282 -0.6318941780
H -4.6193077932 0.9398029162 -2.3166890712
H -2.5495118831 2.1520703874 -1.6641741146
H -3.0899539834 2.1767792781 0.0387082413
H -1.7766918757 -1.9076858565 1.4203590090
H -2.7886226941 -3.7167236851 0.0497343251
H -4.0423101909 -2.6280387547 0.6855682310
H -3.5407071321 -2.5041514558 -1.0194612460
H 0.9308528486 -2.0414550036 -2.0936722238
H 3.1546081627 -0.9369904159 -1.8228654819
H 1.8005907608 0.8817699171 1.8133595399
H -0.3972104412 -0.1988244452 1.5691546124
H 8.0007910159 0.8469458590 1.7125481847
H 5.6857049777 -2.6987424725 2.5778296876
H 3.7707886143 -1.7432862439 1.3433241431
