39
CONF2
C 0.3536753781 -1.7605293334 -2.8903726452
C 0.0183392760 -0.8083785738 -1.7384857242
C -1.5108302961 -0.6738643994 -1.6385537578
C -2.0558823880 -0.0977897928 -0.3318677625
C -1.3594673189 1.1980691351 0.1261172866
C -0.0257901504 0.9262733979 0.7913716557
C 0.7916314029 -0.1143949897 0.6042843600
C 0.6472885136 -1.2489977196 -0.4045284438
C 2.0831138240 -1.8031003595 -0.5007304882
C 2.6159147513 -1.6546567647 0.9251990916
C 2.1161612673 -0.2613449480 1.3531639966
C 3.1134015326 0.8424345888 0.9751522913
C -2.2464940484 1.9872041115 1.0727383194
C -2.6229906733 3.2379549982 0.7912720405
C -2.6674981661 1.2906310535 2.3347171304
H 1.4245656664 -1.7823794082 -3.1100601459
H -0.1705810672 -1.4519302689 -3.8016978879
H 0.0329920225 -2.7812203146 -2.6492902141
H 0.4426884090 0.1782954710 -1.9747554020
H -1.8582153368 -0.0600188110 -2.4801408210
H -1.9541773689 -1.6698682240 -1.7791793919
H -1.9716203606 -0.8408245969 0.4697741606
H -3.1270784783 0.0999779975 -0.4630939611
H -1.1971355984 1.8327484959 -0.7590745119
H 0.2855461161 1.6818527156 1.5153532897
H 0.0217520381 -2.0458697107 0.0315003739
H 2.1138948881 -2.8319319044 -0.8698323015
H 2.6726862405 -1.1842141272 -1.1894582767
H 3.7042770951 -1.7498472516 0.9957907323
H 2.1672221094 -2.4258628804 1.5635217937
H 1.9481645784 -0.2152102524 2.4359523124
H 4.0571669591 0.7096262701 1.5157069758
H 3.3262898516 0.8245335745 -0.0992460718
H 2.7122187251 1.8304575704 1.2206369920
H -2.3099058390 3.7261137881 -0.1280985437
H -3.2537428151 3.8046912062 1.4713266990
H -3.2303962480 1.9588143721 2.9908406154
H -3.2938845429 0.4193610708 2.1093592792
H -1.7933005416 0.9131957081 2.8789474390
