51
CONF6
C 5.7232587746 0.3117480028 2.1503356817
C 5.0345956267 -1.0152854312 2.3128436097
C 5.6332137706 -2.0870364899 2.8920886899
C 7.0350247115 -2.1288288556 3.4145342143
O 8.0257285138 -2.2241210084 2.3571699384
C 3.6826615654 -1.1568335818 1.8177236279
C 2.9562016831 -0.1873007892 1.1974482382
C 1.6224279407 -0.4004783051 0.7315691240
C 0.8085437924 0.4940847559 0.0873904456
C 1.2206264471 1.9024088365 -0.2345620578
C -0.5111502603 0.0557237702 -0.3021906435
C -1.4398529506 0.8181004309 -0.9303158536
C -2.7818278852 0.3928653617 -1.3202884974
C -3.0449268915 -0.8324349999 -1.8441103636
C -1.9955973027 -1.8294121321 -2.2529111392
C -4.4448246057 -1.3162928590 -2.1197391714
C -5.5216195746 -0.4673492483 -1.4608926357
C -5.2148169789 0.9979660863 -1.7279443908
C -3.8842554348 1.4449648588 -1.0970621091
C -3.5007855420 2.7871234806 -1.7513489372
C -4.0657375539 1.6771043566 0.4145470601
H 6.7124058991 0.3180698625 2.6079766222
H 5.8425342508 0.5514869541 1.0874702920
H 5.1275471931 1.1160847619 2.5953269188
H 5.0655108492 -3.0150949838 2.9483758393
H 7.2927197980 -1.2166063033 3.9607419001
H 7.1493637939 -2.9751969785 4.1039223798
H 7.7838573148 -2.9838273020 1.8116356136
H 3.2208388689 -2.1343314958 1.9602680114
H 3.4083696651 0.7887160466 1.0459443200
H 1.2137689461 -1.3958081311 0.9106871588
H 0.5391387135 2.6197419487 0.2377124787
H 2.2324697004 2.1292407819 0.0994429971
H 1.1702971804 2.0816667613 -1.3146297001
H -0.7635325162 -0.9705182201 -0.0413152121
H -1.1937923192 1.8619990178 -1.1078469353
H -2.2947075949 -2.2967771180 -3.1995188220
H -1.9088581612 -2.6431360135 -1.5208114968
H -1.0080557389 -1.3809191430 -2.3745622087
H -4.5999810283 -1.3440083333 -3.2102296151
H -4.5152914653 -2.3630342790 -1.7913079539
H -6.5097358392 -0.7348912347 -1.8511157760
H -5.5398716715 -0.6610505547 -0.3813804502
H -6.0144653171 1.6493590413 -1.3546122366
H -5.1581152146 1.1491377834 -2.8153467520
H -2.6820849982 3.2909312072 -1.2300093950
H -3.2133652284 2.6449213466 -2.7989524241
H -4.3666644640 3.4582931533 -1.7241426848
H -3.1214736922 1.9922767285 0.8710838190
H -4.8111236835 2.4613374834 0.5911606655
H -4.3945930969 0.7652199617 0.9228551160
