22
CONF288
C 2.6545591065 -0.0053905233 0.4115493988
C 1.2882599181 0.6498442271 0.2167213588
C 0.1456493549 -0.3658789407 0.0964565095
C -1.2341722183 0.3045063226 0.1451571695
C -2.3652935328 -0.7103825777 0.2237790769
O -3.6403625826 -0.0726477491 0.3430258928
O -1.4391432163 1.1857501424 -0.9807336418
O 0.2887483253 -1.1542079417 -1.0913671268
O 1.4077296490 1.4227746226 -0.9876974931
O 2.7464475184 -0.6921427197 1.6614845256
H 3.4123958203 0.7844789378 0.4233620383
H 2.8707210296 -0.6752694609 -0.4311985000
H 1.0826381496 1.2987156068 1.0821328310
H 0.2024206588 -1.0524260860 0.9524256976
H -1.2765311443 0.9529825034 1.0289051366
H -2.3361378181 -1.3672842446 -0.6589841826
H -2.2376315808 -1.3288457714 1.1180781862
H -3.7197639989 0.5356120601 -0.4042033824
H -1.4551179248 0.6345387236 -1.7783091621
H 0.6897527252 -0.5771593055 -1.7597024062
H 0.5337963306 1.8098989010 -1.1598966799
H 2.3810362296 -1.5774665151 1.5490147587
