17
CONF6
C -1.8473903037 1.1067081248 0.3383380364
C -1.1227066915 -0.2410948228 0.1997525773
C -0.7706510786 -0.5550642231 -1.2610502661
C 0.0985015484 -0.2786949845 1.0816233355
O 0.3116569063 -0.9619999093 2.0417008689
O 1.0334642292 0.6602345548 0.6000808171
O 2.1689774823 0.7338790272 1.4247749373
N 3.1538222032 -0.3976640936 1.0372684453
O 4.1230111943 -0.3207023018 1.7210767790
O 2.8069176207 -1.1220034773 0.1655246677
H -2.7887045758 1.0576119269 -0.2159377687
H -2.0738747778 1.3324901526 1.3842538308
H -1.2443404319 1.9190564412 -0.0761001769
H -1.7617029006 -1.0357839548 0.5976161541
H -1.6979397903 -0.6540582540 -1.8319685776
H -0.1767445007 0.2489508694 -1.7034256294
H -0.2122966362 -1.4918651816 -1.3438540289
