40
CONF33
C -5.4803341445 -2.8235438410 0.3850778977
N -5.0424709102 -2.0994202373 1.5858194893
C -3.6470544758 -1.6449067692 1.4932078116
C -3.5146779259 -0.4180860826 0.5924573129
C -2.0917236958 0.1284285635 0.5449391339
O -1.2933960155 -0.9018780977 -0.0876427551
C 0.0596334774 -0.8117204113 -0.0391441225
C 0.7493551347 -1.8464381946 -0.6888976745
C 2.1308254907 -1.8639848647 -0.6919552862
C 2.8459506185 -0.8469883777 -0.0492836805
C 2.1633946084 0.1799493678 0.5933061636
C 0.7716466655 0.2069329586 0.6013095333
C 4.3359362672 -0.9058886806 -0.0587276404
F 4.9136603943 0.1756509559 0.5120521394
F 4.8401813921 -1.0008795269 -1.3220006514
F 4.8120391413 -1.9989317776 0.6076967236
C -2.0205258027 1.4304958131 -0.2191002634
C -1.9259750389 1.4405087228 -1.6116815891
C -1.9093938961 2.6485687834 -2.3042921786
C -1.9931285436 3.8553730546 -1.6123774027
C -2.0906949775 3.8492403571 -0.2222520550
C -2.1004670352 2.6414457196 0.4704124525
H -6.4615270254 -3.2716304357 0.5695984150
H -4.7827594867 -3.6246174792 0.0821395179
H -5.5862971652 -2.1344131889 -0.4592486348
H -2.9784684438 -2.4440575520 1.1267059212
H -3.3114426517 -1.3745484196 2.5024945373
H -3.8302168419 -0.6388894579 -0.4343032627
H -4.1655120792 0.3796532441 0.9683870262
H -1.7274469811 0.2776909207 1.5713451995
H 0.1811689443 -2.6275004546 -1.1827401492
H 2.6572179475 -2.6692738957 -1.1949397878
H 2.7081213304 0.9731545456 1.0926215063
H 0.2649092874 1.0238692103 1.0981482432
H -1.8577683889 0.5014815997 -2.1525569992
H -1.8302665618 2.6474186200 -3.3871937245
H -1.9780385256 4.7962471664 -2.1536763220
H -2.1506788059 4.7855450738 0.3241222054
H -2.1654908231 2.6370058526 1.5557890764
H -5.1045060128 -2.7381337674 2.3717000273
