52
CONF149
C 1.0668412400 -2.8887065174 0.7881723612
N 2.2298542681 -1.9929207061 0.8101755298
C 2.9875792876 -2.2564041378 2.0490074115
C 4.2514128308 -1.4138738746 2.1387209990
C 3.8934383994 0.0668604753 2.0786134485
C 3.0551505833 0.3364347551 0.8334950996
C 1.8230290546 -0.5730941745 0.7508506232
C 1.0377064204 -0.2596825468 -0.5284791536
C 0.4458358503 1.1656519427 -0.4959020077
N -0.8150966427 1.3352104042 -1.2311784013
C -0.7579241713 1.5450980211 -2.6235860613
C 0.4301897393 1.3683001875 -3.3469758802
C 0.4804956995 1.6147116020 -4.7168982091
C -0.6568686039 2.0106612460 -5.4099355477
C -1.8501056044 2.1755801316 -4.7113340984
C -1.8936267815 1.9713412829 -3.3357474599
S -3.3847165164 2.3797862026 -2.4598428988
C -3.2597881573 1.2110860971 -1.1327022949
C -1.9895651378 0.8669028852 -0.6233203809
C -1.9541611976 0.0671415304 0.5276991261
C -3.1386686725 -0.3431428406 1.1308209680
C -4.3833245965 -0.0412675564 0.6083659964
C -4.4286665367 0.7403396985 -0.5445389438
S -3.0301452769 -1.4000785298 2.6109580820
O -4.4631849756 -1.8009669144 2.9696565853
C -2.5580275197 -0.0735578046 3.7899117749
H 0.3151316784 -2.6187267715 1.5561385483
H 0.5774137014 -2.8879638611 -0.1885753312
H 1.4012690042 -3.9115747135 0.9866995258
H 3.2418629350 -3.3224277263 2.0658863772
H 2.3541645808 -2.0574030001 2.9390826055
H 4.9184048546 -1.6701048252 1.3051371084
H 4.7789406090 -1.6549373039 3.0686994725
H 4.7949465884 0.6898935290 2.0736956517
H 3.3163188323 0.3384119908 2.9733729551
H 2.7298346690 1.3824427009 0.8177465421
H 3.6625325281 0.1709202460 -0.0672633727
H 1.1695855621 -0.3489019363 1.6252363281
H 1.7057118855 -0.3911736986 -1.3864543346
H 0.2152357262 -0.9645393588 -0.6658233242
H 0.2450421537 1.4588663659 0.5412088171
H 1.1516407771 1.9011910809 -0.8900034852
H 1.3322511607 1.0414748132 -2.8483408010
H 1.4219501574 1.4798954606 -5.2396012343
H -0.6234521630 2.1917476221 -6.4787993942
H -2.7509059928 2.4928982727 -5.2280440597
H -1.0135937149 -0.2343962646 0.9706831787
H -5.2883741458 -0.3993821148 1.0856689041
H -5.3864991117 1.0153797521 -0.9757162135
H -2.4806431800 -0.5417485715 4.7741510104
H -1.5902283538 0.3349870681 3.4860601122
H -3.3362047351 0.6937613056 3.7731483598
