35
CONF29
C -2.2018154547 -2.4220323201 0.6933953031
C -2.9556042889 -2.1261115510 -0.4382500819
C -2.5699541268 -1.0814580400 -1.2745737691
C -1.4351973701 -0.3622694874 -0.9489815508
C -0.6579234350 -0.6175396998 0.1780643015
C -1.0649416092 -1.6750099344 0.9926482820
C 0.6183349672 0.1747230697 0.4618010459
C 1.6908799960 -0.2102303768 -0.5877753295
N 1.8241634336 -1.6476870062 -0.7560680364
C 1.2247884823 -2.4352543059 -1.6725867083
N 1.5406139480 -3.7075555862 -1.4647873299
C 2.3558845363 -3.6368422719 -0.3745034212
N 2.5580984131 -2.4112316895 0.0916741634
C 0.3566498774 1.6821108377 0.4711060911
C 1.3018199021 2.6067963104 0.0203746261
C 1.0656104598 3.9757826593 0.1162936033
C -0.1236690018 4.4001640119 0.6811524178
C -1.0816275965 3.5192867070 1.1523190885
C -0.8301514134 2.1564578991 1.0389660915
F -0.3609170416 5.7333900347 0.7763803819
O 1.1825206194 -0.1976597122 1.7257293874
F -1.0565725684 0.6378601140 -1.7921439973
H -2.4947010397 -3.2376769945 1.3459452654
H -3.8416800190 -2.7048008116 -0.6773086726
H -3.1292241912 -0.8258134081 -2.1681176571
H -0.4744649991 -1.9131565677 1.8702657789
H 2.6620329960 0.1811107205 -0.2782785269
H 1.4232307328 0.2107587396 -1.5591985812
H 0.5935869588 -2.0438350861 -2.4600907672
H 2.8187254802 -4.5023947517 0.0828694307
H 2.2394524435 2.2838073246 -0.4167063581
H 1.7905605937 4.6994378313 -0.2398770385
H -2.0012041337 3.8920406433 1.5900741385
H -1.5763803083 1.4535520740 1.3973853661
H 0.6090757626 0.1512797190 2.4228030682
