42
CONF136
C -6.9724220221 1.2629197223 1.2591911605
C -5.7797869044 1.9532690006 1.9153451720
C -4.4659508350 1.2316623898 1.7228180966
O -4.5318515894 -0.1032203737 2.1938776479
C -3.4259833660 -0.7501390326 1.5538731197
C -3.3825166864 -0.0872283868 0.1623052117
O -4.1431953513 1.1207709711 0.3264088567
C -1.9791516279 0.2657466325 -0.2942866861
O -1.2753278551 -0.9795656149 -0.3978972633
C 0.0295389372 -0.9435913407 -0.8028602881
C 0.7195348856 0.2281679901 -1.1262276578
C 2.0487352972 0.1505233717 -1.5376362132
C 2.6805374074 -1.0829700496 -1.6117331184
C 2.0003698444 -2.2516249003 -1.2867404617
C 0.6730665093 -2.1822383869 -0.8870110581
O 3.9840602871 -1.1868154284 -2.0906468600
C 5.0025182753 -0.6043705797 -1.3641862799
C 6.2047375638 -0.4111400964 -2.0450436507
C 7.2922739451 0.1319381685 -1.3703266829
C 7.1872039374 0.4872418857 -0.0254781595
C 5.9809073128 0.2867170192 0.6410111775
C 4.8815557836 -0.2602270545 -0.0183712994
H -7.1410432912 0.2716134958 1.6880440005
H -6.8165699713 1.1476468826 0.1829928643
H -7.8793042620 1.8555721798 1.4091430208
H -5.9372302063 2.0592403974 2.9949079917
H -5.6514476342 2.9663756417 1.5175089786
H -3.6403972284 1.7592571423 2.2351282862
H -2.4941828682 -0.5569236324 2.1068320291
H -3.6211077061 -1.8228915599 1.5199813982
H -3.8782719587 -0.7088670174 -0.5934105097
H -1.4970728683 0.9207558168 0.4455924542
H -2.0078448149 0.7737145398 -1.2668540115
H 0.2407965019 1.1981753007 -1.0723060629
H 2.5917943198 1.0537321680 -1.7975162521
H 2.5104744458 -3.2070782805 -1.3523010461
H 0.1227127704 -3.0822677786 -0.6329584771
H 6.2725723121 -0.6890570395 -3.0918644119
H 8.2264247905 0.2826393591 -1.9027021532
H 8.0369244356 0.9146638706 0.4963543137
H 5.8873045021 0.5533693132 1.6894156143
H 3.9466161947 -0.4174448133 0.5076273205
