57
CONF6
C -2.4396101751 4.6796954033 0.5548559975
C -2.2285078907 3.2315256423 0.2091982414
C -2.0273504568 2.8400071217 -1.1163908213
C -1.7821837933 1.5113540104 -1.4599724097
C -1.7268447276 0.5479704482 -0.4360446473
C -1.9698339707 0.9088530396 0.9008180202
C -2.2108797847 2.2509765804 1.2008887446
C -2.0277426664 -0.1308295601 1.9882695152
C -1.4139703948 -0.8528768737 -0.7557819194
C -0.2881306460 -1.5412405133 -0.5199824743
C -0.3798413036 -2.9634646979 -0.9525384044
C -0.1920693179 -4.0237616475 0.1654520785
C 0.7372647949 -5.1039589518 -0.4313417438
C 0.6563580770 -4.8898523350 -1.9478146016
C 0.6046213073 -3.3647943135 -2.0615867473
O -1.7424114107 -3.0324163895 -1.4752284622
C -2.3480781734 -1.8102688144 -1.3682714963
O -3.4914538440 -1.6376166763 -1.7366335585
O 0.8531145077 -1.1119095504 0.0935284060
C 1.6393773641 -0.1623228834 -0.5659086026
O 1.3878268612 0.1956029771 -1.6868092521
C 2.7826067478 0.2900939283 0.2825756616
C 2.4602626547 1.5186762686 1.1904379744
C 1.7921816378 2.6323138327 0.3769618626
C 3.8007918234 2.0155513837 1.7462199824
C 1.5501896998 1.1073971574 2.3509141584
C -1.5952652191 1.1180226622 -2.8986851721
H -2.8670816029 4.7909724653 1.5544348422
H -3.1020588360 5.1663102603 -0.1672860417
H -1.4861379323 5.2211412574 0.5360065799
H -2.0583632282 3.5896516415 -1.9038087599
H -2.3924560226 2.5342769397 2.2348664380
H -1.1243907961 -0.7474613739 2.0228474987
H -2.8701275905 -0.8130567007 1.8223546741
H -2.1575805765 0.3408114630 2.9649692370
H 0.2249974660 -3.5671378743 1.0664798538
H -1.1771040807 -4.4223168722 0.4204944462
H 1.7660193906 -4.9334572737 -0.0957301556
H 0.4464462040 -6.1115328131 -0.1233767316
H 1.5027628311 -5.3227982894 -2.4878399422
H -0.2652121478 -5.3266943597 -2.3500958627
H 0.2905207274 -2.9729729648 -3.0321945964
H 1.5874900988 -2.9444340499 -1.8145894283
H 3.1274923853 -0.5363007144 0.9109614412
H 3.5799313047 0.5715169965 -0.4110770765
H 1.6611552436 3.5199759830 1.0050522919
H 0.8025893546 2.3274342384 0.0174814357
H 2.4020074600 2.9121673389 -0.4891784763
H 4.4639029934 2.3415576244 0.9377845275
H 3.6338404992 2.8645548153 2.4174494798
H 4.3071903246 1.2257457695 2.3118291179
H 1.3880111071 1.9630081028 3.0153606171
H 0.5740853170 0.7750542317 1.9904752141
H 1.9999721590 0.2973227775 2.9351159610
H -0.7126671302 0.4845025439 -3.0205626404
H -1.4858605973 2.0015470220 -3.5318001620
H -2.4597958302 0.5478841745 -3.2584582067
