22
CONF2
C 2.6881364012 0.8677628933 0.3421062004
C 2.7962016734 -0.5057562637 0.1466691586
C 1.6680227026 -1.2503422971 -0.1898638822
C 0.4314971856 -0.6286241690 -0.3412723051
C 0.3224689519 0.7567322052 -0.1440238575
C 1.4519504975 1.4941688023 0.2007205314
C -1.0468473583 1.3509678378 -0.3021278862
C -2.0805807170 0.5493186193 0.5144989562
C -1.9585941502 -0.9825072744 0.2989717972
C -0.8338085144 -1.3586166938 -0.6865613685
H 3.5641282076 1.4504781473 0.6089649427
H 3.7567915743 -0.9980901090 0.2606578895
H 1.7497554408 -2.3242437658 -0.3368680851
H 1.3644700541 2.5660704835 0.3586297310
H -1.3325410232 1.3257626496 -1.3635748342
H -1.0535946952 2.4027889380 0.0003575708
H -1.9303923973 0.7825715298 1.5734670299
H -3.0872000051 0.8948373179 0.2574936453
H -1.7468761182 -1.4703339165 1.2558056667
H -2.9057631943 -1.3967006297 -0.0615232141
H -1.1443165765 -1.0850096007 -1.7052840240
H -0.6729076480 -2.4412345086 -0.6872436628
