50
CONF109
C 1.7730345673 -1.0148962609 -0.4003870025
C 1.5379548616 -0.6904987634 -1.8559081919
C 0.6769922337 0.3614422697 -2.1856876693
C 0.5127587186 0.7441211913 -3.5304053872
C 1.2202908826 0.1458350093 -4.5423795109
C 2.1066056386 -0.9126157892 -4.2557242015
C 2.2156052875 -1.3785250819 -2.9072120223
C 3.0260994774 -2.5740363049 -2.7731655260
N 3.7586418818 -3.0393582551 -3.7806943818
C 3.6598437552 -2.4164983503 -4.9785291460
N 2.8263300298 -1.4329881433 -5.2900577113
N 4.5189074611 -2.8612309680 -5.9468491084
N 3.0883860096 -3.3020243958 -1.6314399711
C -0.1033786213 1.1094084308 -1.1350458295
N -1.1477806886 0.2552129490 -0.5615784243
C -1.7124302253 0.5490258595 0.6695625278
C -2.3745867844 -0.4720334450 1.3742764365
C -2.9888949300 -0.1836697368 2.5905877365
C -2.9591266687 1.1166588928 3.1212067649
C -2.2859876642 2.1208499589 2.4152695710
C -1.6658759636 1.8505156215 1.1915344817
O -2.2929109720 3.3497456111 3.0055832130
C -1.6070088436 4.4134437546 2.3330704575
O -3.6006423297 1.4028979104 4.3093514857
C -2.7442464937 1.2388073998 5.4572813457
O -3.6480029346 -1.1036558004 3.3504372118
C -3.7131239560 -2.4463024153 2.8533417117
H 1.1612981260 -1.8592142949 -0.0558773086
H 2.8217361256 -1.2504687620 -0.2089082193
H 1.5051984999 -0.1680685908 0.2323604710
H -0.1721376715 1.5556689805 -3.7607931697
H 1.1254037701 0.4757500376 -5.5717287339
H 4.2948257277 -2.6126506439 -6.8977914854
H 4.9230765526 -3.7746525237 -5.8112008832
H 3.5433330973 -4.1997152035 -1.7076512101
H 0.5672684009 1.4817750231 -0.3435637781
H -0.5582658134 1.9950119962 -1.5959886365
H -1.0154288659 -0.7306708475 -0.7342357453
H -2.3926112233 -1.4724939078 0.9590066272
H -1.1688088227 2.6386979793 0.6442505577
H -0.5422703239 4.1821355096 2.2123505447
H -1.7217310696 5.2878105126 2.9744799486
H -2.0551199315 4.6152562333 1.3531743170
H -1.8842373551 1.9163370139 5.3954761575
H -3.3451395188 1.4861111665 6.3352929447
H -2.3926820074 0.2026386138 5.5301460438
H -2.7103895598 -2.8765344934 2.7474584193
H -4.2763489920 -3.0084335013 3.5988962331
H -4.2355987394 -2.4848924348 1.8903937185
H 2.3674666462 -3.2285814083 -0.9360603491
