39
CONF124
C 8.4488555312 2.1219861465 0.2368343036
C 7.7858586311 1.4959375379 1.4640306701
C 6.3043474759 1.1626588744 1.2645538117
C 6.0529594107 0.0635808177 0.2302727534
C 4.5676954217 -0.2844035390 0.0401528233
C 4.3681525459 -1.6782900320 -0.5736455384
C 4.5772051924 -2.8141923815 0.4250724298
C 3.9114458474 0.7813065247 -0.8297866096
O 2.4556017584 0.6775793473 -0.7827941911
C 1.8637129856 1.3181955671 0.2352023818
O 2.4189385694 2.0199519751 1.0478405513
C 0.3734187300 1.1413343889 0.2024312567
C -0.3790355642 2.2967546493 0.0313117373
C -1.7625302006 2.2352606339 -0.0204039621
C -2.4245990549 1.0108671624 0.1205960319
C -1.6689318810 -0.1555974035 0.3327506400
C -0.2700546041 -0.0844099529 0.3695847754
Br 0.7739094486 -1.6261969659 0.7413466126
Br -2.5410277106 -1.8175121860 0.5722694586
Br -4.3110334043 0.9394059069 0.0445915853
Br -2.6993867939 3.8638194089 -0.2871332417
H 7.8967557895 3.0095071858 -0.0925924827
H 9.4750849620 2.4304651733 0.4578304804
H 8.4926509376 1.4245861900 -0.6052065128
H 8.3271280070 0.5843946669 1.7511178455
H 7.8773078979 2.1866688083 2.3107908371
H 5.8746084586 0.8403296611 2.2214846862
H 5.7669035673 2.0789094857 0.9873954413
H 6.5952903039 -0.8383258797 0.5403373077
H 6.4738220136 0.3464991586 -0.7451145897
H 4.0751835312 -0.2571654777 1.0229376652
H 5.0568810415 -1.7901415958 -1.4229971995
H 3.3533434215 -1.7458105737 -0.9817310169
H 4.4288621340 -3.7889802129 -0.0488397595
H 5.5849106140 -2.8056577437 0.8523763933
H 3.8664698807 -2.7317404574 1.2549966607
H 4.1576975554 0.6292858340 -1.8850851785
H 4.1953285191 1.7911048177 -0.5246630375
H 0.1269171837 3.2498284884 -0.0635968448
