34
CONF1
C 6.6956511120 0.7023028741 -0.1434487513
N 6.0268234340 1.5726828313 0.8349951236
S 4.5621134525 2.2716820740 0.4631833257
O 4.6411401370 2.7924019378 -0.8959459523
O 4.1501180817 3.0492046758 1.6272490622
C 3.3597861948 0.7718378552 0.3903905214
C 1.8634960320 1.1929269988 0.5017380740
C 0.8696453465 0.0796916151 0.0152759857
C -0.6017659573 0.3026853785 0.5150586802
C -1.6587789338 -0.5166087297 -0.3076804163
C -3.0357241753 -0.6601144792 0.4327666665
C -4.2098925516 -1.0555664820 -0.5258586715
C -5.4705800566 -1.6157236190 0.2108730857
F -5.8244608934 -0.8017987367 1.2153224045
F -6.4821244549 -1.6903423219 -0.6640207357
F -5.2379683083 -2.8388326356 0.6982863863
F -4.5925218456 0.0354733829 -1.2214007220
F -3.7846859073 -2.0078662130 -1.3886118395
F -2.9161361003 -1.6103631976 1.3873229966
F -3.3451299218 0.5180583939 1.0193443218
F -1.8650612535 0.1065545473 -1.4887216524
F -1.1659232995 -1.7549242858 -0.5366132873
F -0.9009910880 1.6159083635 0.4122377057
F -0.6775902283 -0.0731504041 1.8116477787
F 0.8729489930 0.0582291590 -1.3360588386
F 1.3065377377 -1.1148428083 0.4792986028
F 1.5956263671 1.4805638229 1.7935478132
F 1.6800760134 2.2970394368 -0.2544265536
F 3.5780286529 0.1240214559 -0.7740410401
F 3.6863533759 -0.0495065434 1.4144164961
H 6.2989156280 -0.3197005983 -0.1502852702
H 7.7604270347 0.6760523444 0.1031328447
H 6.5839240863 1.1420316995 -1.1361465085
H 6.0462938440 1.2557496221 1.7989284685
