51
CONF35
O 3.4639320943 0.8139867771 1.5437735985
C 2.8104343413 0.2372522744 0.4049899157
C 2.2599783131 1.3136886704 -0.5359265928
C 1.3151305554 2.3188102730 0.1313925152
C 0.1267624512 1.6489626869 0.8007539127
C -0.8947545316 0.8951906888 -0.1183505034
N -1.9333166304 1.8040537586 0.4336509440
C -1.0523299609 2.5367301527 1.1969944410
O -1.2039663294 3.5258074860 1.8911524161
C -3.2984251091 1.8902104649 0.1593944460
C -3.8440323320 1.1007284188 -0.8598393166
C -5.2041258095 1.1670799335 -1.1413681450
C -5.9928738221 2.0281729497 -0.3987517828
F -7.3232813317 2.0965332644 -0.6727394571
C -5.4802473865 2.8222628752 0.6138500313
C -4.1221305327 2.7502702914 0.8991577903
C -1.1035802579 -0.5682682209 0.1228386838
C -1.5853732914 -1.0393829614 1.3484877971
C -1.7279173701 -2.3989647189 1.5849253382
C -1.3795521900 -3.3149594497 0.5883605587
O -1.5369582206 -4.6406502094 0.8734131371
C -0.8990419115 -2.8623007198 -0.6409107423
C -0.7707254710 -1.4950281119 -0.8654052972
C 3.7001899741 -0.7249950942 -0.3565542443
C 5.0466671911 -0.4412473631 -0.5931492389
C 5.8403999252 -1.3089624037 -1.3391220089
C 5.2575661218 -2.4586286682 -1.8449719758
F 6.0264008086 -3.3108605387 -2.5758237588
C 3.9275256022 -2.7787107490 -1.6345704586
C 3.1548349458 -1.8989221955 -0.8807459085
H 4.0091190280 1.5523134278 1.2413135657
H 1.9769334775 -0.3436917978 0.8184391239
H 3.1084962715 1.8501923358 -0.9825487636
H 1.7442261874 0.8054990039 -1.3604004500
H 1.8552540146 2.9077513211 0.8809881830
H 0.9556720902 3.0214443002 -0.6303874376
H 0.4364759237 1.0251704234 1.6466145047
H -0.7149023518 1.0923604125 -1.1820610187
H -3.2088622224 0.4342351283 -1.4326820903
H -5.6435868914 0.5620220210 -1.9267815065
H -6.1341307205 3.4826065314 1.1730929933
H -3.6991391640 3.3563543550 1.6904686474
H -1.8582731602 -0.3329016605 2.1281472935
H -2.1068329775 -2.7643821140 2.5340479607
H -1.2684537690 -5.1700936169 0.1099660147
H -0.6329092890 -3.5758673527 -1.4163686101
H -0.4013619078 -1.1458596058 -1.8262388782
H 5.4943274704 0.4630790893 -0.1916998525
H 6.8885447833 -1.1013614441 -1.5262057381
H 3.5134372637 -3.6944267463 -2.0428840662
H 2.1087758958 -2.1323039010 -0.6980198597
