33
CONF281
C 4.4211947113 0.3981740411 0.5911589088
C 5.8687396277 0.6527531021 0.9845966662
O 5.9073260270 1.6344688615 2.0259547596
C 3.7494942750 1.5720603913 -0.0837747247
C 2.4008777974 1.2451331863 -0.8078180665
C 1.3167033148 0.5462740029 0.0779853016
C -0.1327832061 0.6266896910 -0.5189740261
C -1.1146657666 -0.4283861436 0.1076547132
C -2.6263032984 -0.0662995546 -0.1102417278
C -3.5870488266 -1.2875033855 0.0963683352
C -5.0821712250 -0.8879164346 0.3265853177
F -5.4867111837 -0.0286753668 -0.6188672325
F -5.8370355762 -1.9927983833 0.2610583442
F -5.2494122038 -0.3291307968 1.5295874089
F -3.1855762963 -2.0017519243 1.1731685349
F -3.5372129205 -2.0735345271 -0.9998357155
F -2.9674126126 0.9077437968 0.7629918773
F -2.7922881235 0.3955306996 -1.3705973942
F -0.8840543181 -0.5084251303 1.4371972386
F -0.8727540332 -1.6326601236 -0.4575943093
F -0.6244468243 1.8656149136 -0.2895110213
F -0.0730489296 0.4142982840 -1.8524939595
F 1.3019176061 1.1216866771 1.3018097453
F 1.6556251155 -0.7600965004 0.2148592665
F 1.8813259403 2.4072448780 -1.2838131232
F 2.6734368220 0.4355305500 -1.8611963522
F 3.4984245908 2.5985423679 0.7841013495
F 4.5521818967 2.0909810962 -1.0723934717
H 4.3991389901 -0.4472064121 -0.1042284492
H 3.8350335426 0.1225899775 1.4736126745
H 6.4471955687 0.9821800867 0.1118173701
H 6.2870417551 -0.3014225801 1.3319251026
H 6.8336691480 1.7725619101 2.2585940975
