39
CONF5
C 6.2057288241 0.8186603186 -1.5724490856
C 4.8189113175 1.4020249139 -1.3092026733
C 3.8588388091 0.3607068824 -0.7342088404
C 2.4795275647 0.9300587235 -0.4513861737
C 2.3969198621 1.8194568572 0.8031678070
O 1.8526655677 0.9418554319 1.8055173219
C 0.9448441741 0.1227323322 1.0986651518
C 0.8034152246 -1.1939653025 1.8775146923
N -0.1314188617 -2.0922651525 1.2267217048
C 0.0817864923 -2.9149873199 0.1793668815
N -1.0536405888 -3.4982336909 -0.1838620429
C -1.9542379082 -2.9730071397 0.6946994570
N -1.4452460427 -2.1128999478 1.5668695413
O 1.5792971355 -0.1682314703 -0.1349824403
C -0.3994422009 0.8204036771 0.8522056943
C -1.1584419140 1.4271176998 1.8584596767
Cl -0.6270224108 1.4583384900 3.5342547777
C -2.3853469420 2.0285369630 1.5990781610
C -2.8674440882 2.0123667514 0.2976731181
Cl -4.4163178878 2.7652649921 -0.0374040997
C -2.1571452124 1.4158883342 -0.7337351499
C -0.9333061573 0.8291544780 -0.4384306876
H 6.8802521714 1.5714190901 -1.9914967943
H 6.6527065830 0.4428215291 -0.6457285347
H 6.1496078788 -0.0161466002 -2.2794726371
H 4.4002099847 1.8003982408 -2.2424723984
H 4.9054661244 2.2519040134 -0.6197985783
H 4.2631182573 -0.0611180465 0.1961502353
H 3.7507622568 -0.4675489490 -1.4456438738
H 2.0913541910 1.4577817354 -1.3325554334
H 1.7321974317 2.6795666448 0.6525232222
H 3.3722153266 2.1598373439 1.1556672851
H 1.7882516298 -1.6659231905 1.9161631529
H 0.4470127415 -1.0010438232 2.8898889985
H -3.0055531282 -3.2318691265 0.6984798392
H -2.9504314816 2.4930129191 2.3977037240
H -2.5466603302 1.4064415940 -1.7447199423
H -0.3679635501 0.3536839427 -1.2312104062
H 1.0580654796 -3.0565613041 -0.2646161973
