51
CONF254
C -2.8488414085 4.8845976088 2.2758854842
C -3.4966620959 3.5398849106 2.0958664557
C -2.7536591465 2.4201206972 2.0743393680
C -3.2668316840 1.0459165226 1.9546077946
C -2.7690767763 0.0584026764 0.8635389585
C -2.4720332138 -0.1656873989 2.3468954844
C -1.0621613504 -0.0333136605 2.8741533899
C -3.2394667435 -1.3093105837 2.9769559566
C -1.7319689725 0.4520540345 -0.0996160174
O -0.8171360751 1.2366761059 0.0783657907
O -1.9322701065 -0.1961734982 -1.2795536560
C -0.9553818862 0.0617240762 -2.3388174165
C 0.2149488287 -0.8480813771 -2.2278554137
C 0.4538942536 -1.9328877406 -3.0143205833
O 1.6119643032 -2.5501013885 -2.6352359478
C 2.1207283424 -1.8402639035 -1.5723216166
C 1.3036256455 -0.7902241033 -1.2913313217
C 3.4074025349 -2.3246838129 -1.0082605441
C 4.5450578568 -2.2372575732 -2.0072831116
C 5.0218408811 -0.9897205432 -2.4201427125
C 6.0539919693 -0.8979585218 -3.3483748366
C 6.6212023630 -2.0554303550 -3.8814197864
C 6.1498265798 -3.3014786143 -3.4776437130
C 5.1166662465 -3.3904108129 -2.5454686461
C -4.9900988556 3.5900453237 1.9466211417
H -3.2499379034 5.3915729028 3.1630322605
H -3.0674560360 5.5361988441 1.4201069572
H -1.7641477821 4.8027022183 2.3830145275
H -1.6783822364 2.5331325849 2.1706145647
H -4.3368932492 0.9384943864 2.1053473074
H -3.5348712296 -0.5850032621 0.4437043755
H -0.5323834757 -0.9844700964 2.7513640247
H -0.4878749121 0.7409533002 2.3673214482
H -1.0954680324 0.1974642528 3.9448948640
H -2.7334918822 -2.2625155189 2.7870298195
H -3.2981928482 -1.1658393065 4.0619332783
H -4.2581930899 -1.3740794749 2.5840436623
H -1.5035152726 -0.1277558207 -3.2632792387
H -0.6581489341 1.1122390140 -2.2932759110
H -0.0730273435 -2.3728716203 -3.8477248650
H 1.4496497699 -0.0592461257 -0.5105897116
H 3.2994194161 -3.3610842603 -0.6673084250
H 3.6298701330 -1.7113196710 -0.1291510766
H 4.5784520340 -0.0860505663 -2.0092054271
H 6.4180748991 0.0775810589 -3.6563668057
H 7.4262522321 -1.9845073228 -4.6061685258
H 6.5857475520 -4.2076194792 -3.8874434557
H 4.7512566987 -4.3647351384 -2.2322298202
H -5.2586597489 4.2450803802 1.1083080591
H -5.4475635046 4.0306938926 2.8416454182
H -5.4460757704 2.6145463736 1.7725048177
