45
CONF42
C -1.1581504996 2.2118764218 0.9872934226
O -1.7344579751 1.0395583646 0.3621168382
C -1.3844186929 0.8626043200 -0.9226743369
O -0.6549233338 1.6063272651 -1.5637174512
N -1.9891170355 -0.2374123531 -1.4783302272
C -1.5445307091 -0.8248476862 -2.7022940978
C -2.4433203581 -0.8734986183 -3.7655499865
C -2.0804477172 -1.4856841331 -4.9617855052
C -0.8123949633 -2.0410552280 -5.0953469159
C 0.0860332254 -1.9869315673 -4.0323499904
C -0.2604722213 -1.3851047367 -2.8229184787
C 0.7476483268 -1.3047917519 -1.7162433412
O 0.2080757741 -1.9652884675 -0.5401921860
C 0.5431673968 -1.4452944325 0.6537568249
N 1.4195390171 -0.4595146881 0.8092525831
N 1.4384813392 -0.2383033486 2.1577453828
C 0.5893881083 -1.0781877400 2.8196079698
C -0.0075639039 -1.8832765969 1.8803422693
C 2.2540499293 0.7777550895 2.6918672929
C 2.5370920458 0.8063886209 4.0604446183
C 3.3262798500 1.8208521109 4.5866754798
C 3.8413686237 2.7921835172 3.7367257551
C 3.5813965097 2.7685921454 2.3723595173
C 2.7825915587 1.7596851994 1.8489276083
Cl 4.8496954462 4.0725944003 4.4019494366
O -2.6645339878 -1.1324840514 -0.6192632381
C -4.0783860304 -0.8428113319 -0.6002660705
H -0.0674168885 2.1605175646 0.9520380951
H -1.5065614863 3.1189212953 0.4876505580
H -1.5086858941 2.1831611235 2.0183582317
H -3.4203918012 -0.4159366166 -3.6542926427
H -2.7846402993 -1.5182566811 -5.7866003216
H -0.5199515199 -2.5184740115 -6.0249686603
H 1.0758341304 -2.4216857562 -4.1379907901
H 0.9737750578 -0.2626021638 -1.4752487013
H 1.6766655933 -1.8068422401 -2.0044169718
H 0.4506386843 -1.0294994936 3.8886970203
H -0.7458604456 -2.6532383103 2.0390826829
H 2.1621463955 0.0370458241 4.7246866940
H 3.5464824594 1.8412708437 5.6477997185
H 3.9897640190 3.5311574446 1.7190221062
H 2.5663683786 1.7373540572 0.7883852880
H -4.4952725573 -1.5506198119 0.1197004219
H -4.2588305230 0.1833960834 -0.2644300965
H -4.5261529467 -1.0087390757 -1.5856062028
