38
CONF28
O 1.7998528493 -1.8762040010 1.2994866617
P 0.9562680861 -1.1714228997 0.3147279969
O 0.2628499856 -2.0975857936 -0.8001548461
C -0.2683639975 -3.3459698331 -0.4167173272
C -1.5782274823 -3.4091721445 0.0363366506
C -2.1102110757 -4.6558850894 0.3587663113
C -1.3367969614 -5.8067078116 0.2249597920
C -0.0240113659 -5.7148642034 -0.2336852042
C 0.5227521388 -4.4760814754 -0.5587604415
O 1.6415491092 -0.1409306910 -0.7074401651
C 2.0193178415 1.1548226684 -0.3178533734
C 2.6662063456 1.3946042963 0.8868478053
C 3.0048631010 2.7084024527 1.2064103496
C 2.7122306100 3.7487079833 0.3287212678
C 2.0804862425 3.4765595694 -0.8839136792
C 1.7269052388 2.1729142613 -1.2150429789
O -0.1995238490 -0.3488990492 1.0772495935
C -0.9300248207 0.7088597340 0.5102835332
C -1.5451231890 0.5966617576 -0.7292311064
C -2.2571810588 1.6908237266 -1.2177741942
C -2.3555773031 2.8628050925 -0.4727713992
C -1.7428808526 2.9435068137 0.7767801212
C -1.0231093991 1.8633336608 1.2764128534
H -2.1667445567 -2.5024777143 0.1299231076
H -3.1334891587 -4.7230346438 0.7137416995
H -1.7571033602 -6.7749080035 0.4763013951
H 0.5810498585 -6.6094343239 -0.3397450253
H 1.5425553889 -4.3804690538 -0.9153385957
H 2.8997695709 0.5782595654 1.5622534393
H 3.5051802860 2.9118641412 2.1476485763
H 2.9797321771 4.7681894381 0.5857996946
H 1.8526103325 4.2821326868 -1.5744653015
H 1.2174699018 1.9398059385 -2.1436478979
H -1.4677825594 -0.3179499602 -1.3053313574
H -2.7378797544 1.6188490935 -2.1881248229
H -2.9108165534 3.7096541781 -0.8621950994
H -1.8172993858 3.8526571222 1.3647819415
H -0.5241149271 1.9085349956 2.2383767582
