50
CONF16
C 3.6768589513 3.6557928877 3.2420271178
C 4.6857820195 2.7732759518 2.5354130121
O 4.0319874205 1.6895628023 1.8302814156
C 3.5347984169 2.0170055802 0.6022754477
O 3.6398898628 3.1241436149 0.1039575528
N 2.9443615976 0.9383565617 -0.0056448951
C 2.5386903037 -0.2544380580 0.7347620463
C 1.0622298124 -0.1406793597 1.1659163876
C 0.1982752415 0.1366050638 -0.0341775505
C -0.8346326351 -0.6358329962 -0.4248817085
C -1.2220190805 -1.9070350407 0.2411804663
C -2.5174550770 -2.1830196813 0.7188478044
C -3.7018442063 -1.2341284089 0.6758882544
C -3.4916588563 0.1600106976 0.0738356905
C -3.0127423321 0.1027777154 -1.3466666385
C -1.6848949321 -0.2785595840 -1.5946066843
N -1.1576224345 -0.3601173819 -2.8215898221
C -1.9509785238 -0.0661664024 -3.8580436453
C -3.2811900146 0.3123755360 -3.7221275851
C -3.8157900781 0.4010152946 -2.4412675204
C -2.7732923033 -3.4331139987 1.2947892542
C -1.7817438661 -4.3940271349 1.3855339602
C -0.5057338588 -4.1545556012 0.8923713610
C -0.2507486718 -2.9184255700 0.3218169533
Cl -2.1483823027 -5.9458561961 2.1192967056
C 0.6433452841 1.3609999191 -0.7862162286
C 2.1236564763 1.2024550932 -1.1862569045
H 4.2001032294 4.4186130649 3.8277233868
H 3.0564431495 3.0656286813 3.9230311156
H 3.0350182823 4.1601002621 2.5158581478
H 5.3424061586 2.2673903247 3.2483686081
H 5.2897394213 3.3471877924 1.8271367246
H 2.6606680177 -1.1205950754 0.0703308409
H 3.1895927834 -0.3924695557 1.5970755849
H 0.7534926029 -1.0415921831 1.7004816489
H 0.9878876766 0.7067188587 1.8631002628
H -4.0783282788 -1.1170516656 1.7001683994
H -4.5037686896 -1.7343132699 0.1161377303
H -4.4417556750 0.7021925406 0.1259597478
H -2.7656370806 0.7151669122 0.6794545054
H -1.4957535818 -0.1381984675 -4.8443079152
H -3.8803655546 0.5386138089 -4.5975974891
H -4.8475077899 0.7092524107 -2.2921155272
H -3.7654349656 -3.6520061022 1.6772824674
H 0.2601472530 -4.9193727016 0.9403808418
H 0.7283082285 -2.7235517664 -0.1032237632
H 0.0417513104 1.5345317224 -1.6797157818
H 0.5648882030 2.2459023135 -0.1383451320
H 2.2227211841 0.3550041258 -1.8757535420
H 2.4962390235 2.1044258552 -1.6731440105
