54
CONF149
C 3.7509746570 -2.0146273907 2.0653120828
C 3.7792540060 -1.0754399354 0.8590723871
C 2.6938711434 -0.0331670414 0.9526366791
C 1.6593249217 -0.1581791761 1.8909535973
C 0.6573120644 0.8104608225 1.9922599062
C 0.6593110374 1.9137269286 1.1491723930
C 1.6725478655 2.0124410573 0.2102269229
C 2.6806762973 1.0747780800 0.0995191323
F 1.6694219654 3.0768262513 -0.6445946788
O 1.5709225351 -1.2115816610 2.7660928020
C 2.3175460681 -2.4004393501 2.4040391636
C 1.5926651354 -3.1401035834 1.2643199470
C 0.1286852727 -3.4335767406 1.6030841883
N -0.6611177882 -3.7962591115 0.4141121231
C -1.4689655038 -2.6881792204 -0.1195816431
C -0.5710794044 -1.7355937653 -0.9095950879
C -1.3409890528 -0.6458879537 -1.6483984369
C -0.4253421615 0.2442171631 -2.4692189813
C -1.2117681159 1.4143914036 -3.0516452394
C -1.9594237146 2.1174761757 -1.9536770298
C -2.3136846865 1.4120557178 -0.7963331384
O -2.0184050879 0.0916725973 -0.5994681966
C -2.9888070301 2.0454166575 0.2502822040
C -3.3252117699 3.3902985226 0.1577030029
C -2.9679655658 4.0745873705 -0.9923717105
C -2.2947054340 3.4711290022 -2.0372122615
F -3.2864996459 5.3979600905 -1.0943831636
O 0.1763094898 -2.4763462835 -1.8758817234
O 2.3101593126 -4.3320958222 0.9258224836
H 4.1782939056 -1.5158217335 2.9423651459
H 4.3418947635 -2.9131473558 1.8728108093
H 4.7540176827 -0.5820620700 0.7847393546
H 3.6545135997 -1.6449266559 -0.0711617865
H -0.1286025692 0.6809727344 2.7294655576
H -0.1185859355 2.6675549527 1.2014396659
H 3.4600666123 1.1999813072 -0.6465487539
H 2.2884696872 -3.0214438460 3.3076504618
H 1.6371378146 -2.5264717688 0.3593322079
H 0.1094736037 -4.2647221634 2.3206418088
H -0.3037986771 -2.5587023366 2.1110201948
H -1.9931197744 -2.1275751248 0.6702849723
H -2.2183746667 -3.1083368539 -0.8025529367
H 0.1103538628 -1.2126029055 -0.2156958341
H 0.3816166552 0.6159633164 -1.8245977640
H 0.0265297912 -0.3565489953 -3.2617629940
H -0.5441803688 2.1192412585 -3.5569080566
H -1.9183878533 1.0465579576 -3.8078751171
H -3.2405602489 1.4737748603 1.1377762082
H -3.8479084106 3.8975348391 0.9611996221
H -2.0232575619 4.0485877297 -2.9159308097
H 2.2495416906 -4.9370191497 1.6785700438
H -2.1097686129 -1.0967392543 -2.2948949181
H 0.3044678300 -3.3501772221 -1.4638600006
H -1.2724509791 -4.5717063673 0.6323090944
