21
CONF8
C 1.4076746390 -1.7051349921 0.9112506329
C 1.3528520345 -0.2965923441 0.3132735508
C -0.0555833190 0.1145777743 -0.0319342966
C -0.1495286684 1.5358806164 -0.6544992076
C -1.5660506346 2.0491975185 -1.0541274109
F -1.4488218703 3.2880771118 -1.5640471531
F -2.3785004125 2.1062036823 0.0095142400
F -2.1222329280 1.2618128230 -1.9843644660
F 0.6122091529 1.5646511912 -1.7795684321
F 0.3577158386 2.4302155711 0.2339369493
F -0.8581882591 0.1046683169 1.0826000098
F -0.6181755967 -0.7603404517 -0.9294357429
C 2.8321389377 -2.1169558767 1.2332055749
O 3.3467361644 -1.2254121685 2.2354572732
H 0.8043558470 -1.7525079604 1.8244391686
H 0.9956370866 -2.4311889706 0.2028062577
H 1.9531824265 -0.2480025916 -0.6014924920
H 1.7549039063 0.4355927054 1.0188132304
H 3.4518778256 -2.0718188687 0.3253975540
H 2.8355244506 -3.1525058159 1.6013226467
H 4.2700937576 -1.4579564315 2.3896080336
