47
CONF160
C -1.5009335113 0.6532301622 3.1037824030
C -2.5884713174 0.4594338545 2.0501101085
C -3.2523709393 1.7798824546 1.6589413143
C -4.3383052830 1.6278597526 0.6112003543
O -3.7729561551 1.1245112337 -0.6442979248
C -3.2675458524 2.0284631272 -1.4853144071
O -3.3176586719 3.2336795016 -1.3425344165
C -2.6542517803 1.3796992487 -2.7275741845
C -3.7177835522 1.2289393200 -3.8044483301
O -2.1379343931 0.0703617928 -2.4670852576
C -1.1361071413 -0.0516193748 -1.5419946752
C -0.8350286331 -1.3612915931 -1.1548646524
C 0.1477141840 -1.5973571998 -0.2053304346
C 0.8260672697 -0.5188945659 0.3503842273
C 0.5471641826 0.7817089295 -0.0308122003
C -0.4398662588 1.0237303640 -0.9847941251
O 1.7564926512 -0.7452622133 1.3727245174
C 3.0360642114 -1.0569984350 1.0287602829
C 3.4851238763 -1.0899542099 -0.2980628362
C 4.8096047501 -1.4161615245 -0.5150458790
C 5.6311247155 -1.6981893720 0.5787086111
C 5.0847280399 -1.6313832332 1.8549980242
N 3.8067714691 -1.3167561126 2.0801163040
C 7.0692458999 -2.0327119627 0.3628442764
F 7.6624939291 -2.5180149962 1.4767651039
F 7.7949401304 -0.9466671139 -0.0258173591
F 7.2331688875 -2.9626051306 -0.6144909231
H -0.7155737852 1.3201695741 2.7309586993
H -1.9131195714 1.0961778012 4.0174096452
H -1.0318410233 -0.2992161245 3.3704684337
H -2.1543820495 -0.0070893568 1.1583222535
H -3.3564892535 -0.2289334675 2.4264985927
H -3.7181974395 2.2365520538 2.5424529121
H -2.4972387416 2.4905410556 1.2985756958
H -4.8515249805 2.5711679115 0.4111522622
H -5.0656137748 0.8642699549 0.8973221065
H -1.8553336669 2.0442598706 -3.0785278981
H -3.2651992412 0.8087332746 -4.7058304858
H -4.1395729240 2.2077051061 -4.0453669544
H -4.5172322118 0.5679134400 -3.4592003142
H -1.3906994808 -2.1829825092 -1.5941477904
H 0.3822932707 -2.6082353792 0.1123024624
H 1.0908587650 1.6062023833 0.4183955020
H -0.6476559628 2.0484587049 -1.2680735529
H 2.8222860924 -0.8669816401 -1.1244448804
H 5.2008460134 -1.4527677090 -1.5268301500
H 5.6918982684 -1.8407777428 2.7316948302
