24
CONF60
C 2.1533038397 0.6939519306 1.0457899284
C 1.3354654266 1.3365637554 -0.0724003706
C 0.3773980452 0.4160177124 -0.8516684956
C -0.7395578488 -0.2255630349 -0.0180557922
C -1.8364218371 -0.8107331907 -0.9385100864
C -2.9530830059 -1.3727305419 -0.0971759959
O -4.0968480782 -0.9755462748 -0.2201258669
O -2.3217113065 0.1630457227 -1.8349430376
O -0.2456876663 -1.3242083803 0.7446055844
O 1.1161086716 -0.5878169803 -1.5534292116
O 2.2557442746 1.9139127394 -1.0067422248
O 1.2846562023 0.3830953478 2.1554725345
H 2.6587526625 -0.2120065843 0.6799610234
H 2.9148770982 1.4170264391 1.3586352631
H 0.7513774627 2.1650095764 0.3481039541
H -0.0877524177 1.0484712569 -1.6153108745
H -1.1932044635 0.5439738782 0.6258021099
H -1.3833913116 -1.6541874739 -1.4883544858
H -2.6807484317 -2.1518798543 0.6348615272
H -3.2698249348 0.2631692962 -1.6400428340
H 0.2891031142 -0.9245792725 1.4638786547
H 1.2379250828 -1.3247337376 -0.9338946686
H 2.6019802333 1.1792936711 -1.5353025909
H 1.8315386857 0.0404536977 2.8745389509
