21
CONF9
C 0.7244357567 -1.1024676521 -0.5333369628
C -0.0836292004 0.1301100349 -0.0854358672
C 0.6215441988 1.4290537849 -0.5130179871
O 1.9310176134 1.5909651733 0.0508499035
C -1.4702268925 0.0732655252 -0.7346237493
O -1.3310383469 -0.0526840405 -2.1580625327
C -0.2658540777 0.1434532479 1.4361518711
O -0.6488191386 -1.1695081462 1.8782065141
O 1.9749469552 -1.2385987833 0.1713303406
H 0.9876968530 -1.0030913798 -1.5894617354
H 0.1213391601 -2.0102389844 -0.4127428796
H 0.6749837371 1.4521924530 -1.6104300058
H 0.0286120781 2.2923658026 -0.1844881677
H 2.3283860749 0.7050606593 0.0913919055
H -2.0200947803 -0.7857416721 -0.3256488011
H -2.0231104361 0.9907295811 -0.4808338969
H -2.2174795997 -0.1286092210 -2.5302653026
H 0.6726169250 0.4475018578 1.9164990829
H -1.0358821114 0.8843040585 1.6992867546
H -0.7355338324 -1.1389311965 2.8385408511
H 1.7660893599 -1.5091308010 1.0760906808
