43
CONF12
C 0.9191103000 0.0175365342 2.2298707846
C 2.3849048039 0.3798802097 2.3300291943
O 3.0715821851 0.0410356795 1.0807593003
C 3.4988886154 -1.2155842249 0.9436780718
O 3.4586105356 -2.0733877233 1.8025340380
C 4.1272366154 -1.4617873418 -0.4291783900
C 5.6154298347 -1.1516235246 -0.3743784482
O 3.5656934434 -0.6284912638 -1.4482867007
C 2.2233759411 -0.7384613872 -1.6985755265
C 1.6826749549 0.2569681522 -2.5181150321
C 0.3282653064 0.2518927546 -2.8180024879
C -0.4760580167 -0.7502494917 -2.2924677137
C 0.0457590285 -1.7522135924 -1.4944598007
C 1.4067039711 -1.7530728874 -1.1935407431
O -1.8405713509 -0.7775511293 -2.6279177976
C -2.7042698682 -0.1497494050 -1.7913669159
C -4.0778294340 -0.2228322816 -2.1798517550
N -5.0179055741 0.3363867940 -1.4661215072
C -4.6302941075 0.9953086878 -0.3305789802
C -5.6106412092 1.6137287226 0.4707112896
C -5.2098352471 2.2736508614 1.6075985184
C -3.8591114914 2.3513916222 1.9948503224
C -2.8955530007 1.7497827894 1.2174661507
C -3.2569898255 1.0604280964 0.0421644243
N -2.2922019660 0.4674701661 -0.7205171614
Cl -6.4145465075 3.0526857530 2.6224564085
H 0.4555122197 0.5176234247 1.3743531400
H 0.4054753527 0.3423483482 3.1401522841
H 0.7858968266 -1.0626016032 2.1240775626
H 2.8833644628 -0.1328915914 3.1558227846
H 2.5301724503 1.4572306154 2.4258292931
H 3.9735440300 -2.5208852035 -0.6699839723
H 6.0932914521 -1.7723083268 0.3874031220
H 6.0684495493 -1.3726437167 -1.3437832181
H 5.7757788679 -0.0976479111 -0.1321064814
H 2.3332831526 1.0339046596 -2.9054934879
H -0.1055883827 1.0247377202 -3.4438277653
H -0.6038832573 -2.5267305624 -1.1003450410
H 1.7990113779 -2.5453135672 -0.5673959585
H -4.3502207395 -0.7552931042 -3.0892645903
H -6.6522128478 1.5567806320 0.1755045063
H -3.5860252516 2.8830304962 2.8992549181
H -1.8482768028 1.7975169934 1.4972591604
