43
CONF11
C -4.0764267672 -1.7221386572 0.3247765111
N -2.6533856546 -1.8798901556 0.0000634178
C -1.8036453307 -1.8859502741 1.2136704688
C -1.7416393393 -0.4043075148 1.6738645166
C -1.9569831651 0.3971527864 0.3653428891
C -2.1216299348 -0.6996668448 -0.7185636363
C -0.7926448126 -1.1509219428 -1.3519192859
C 0.2268175795 -1.6477645892 -0.3176104140
C -0.4366696896 -2.4444753349 0.8056087368
O 0.8840358176 -0.4551660748 0.2247926781
C 2.1266249822 -0.6115986009 0.7141745469
O 2.7211738606 -1.6755211678 0.7289964455
C 2.6872509356 0.6626003945 1.2336675104
C 1.9782287810 1.8678704640 1.1711652712
C 2.5454568313 3.0329321762 1.6748739277
C 3.8180462520 3.0031639189 2.2426237307
C 4.5270035167 1.8040773308 2.3058589072
C 3.9650389962 0.6373457082 1.8032688718
C -0.1251241445 -0.1703464517 -2.2948163417
O 0.9836482155 -0.3362038672 -2.7650813935
O -0.9031437295 0.8830934899 -2.5825633551
C -0.3405862830 1.8466255450 -3.5106384223
H -4.4151455827 -2.6004452060 0.8838462555
H -4.3062378951 -0.8259513207 0.9246723926
H -4.6527437761 -1.6659652455 -0.6044714998
H -2.2435093814 -2.5406858949 1.9730999854
H -2.5383616940 -0.1984504468 2.3939714651
H -0.7910951930 -0.1697361800 2.1587690615
H -2.8663527222 1.0017418361 0.4199149704
H -1.1310766398 1.0726461718 0.1400091214
H -2.8134553307 -0.4073027230 -1.5126658010
H -1.0279901400 -2.0241441969 -1.9777060808
H 0.9971528244 -2.2449338938 -0.8093513197
H -0.5717946135 -3.4723477210 0.4505955520
H 0.2410836712 -2.4806245695 1.6646376686
H 0.9895513837 1.8933530763 0.7288174416
H 1.9938200727 3.9661900074 1.6245348378
H 4.2577342311 3.9144137935 2.6359841826
H 5.5178337476 1.7801984318 2.7478958313
H 4.5060133939 -0.3015265799 1.8473917068
H -0.1284074451 1.3656759475 -4.4680585937
H -1.1046059132 2.6141332466 -3.6252839395
H 0.5761407994 2.2728511185 -3.0966325219
