47
CONF156
C -3.3179515850 0.7311798580 -3.4713685849
C -1.8461688318 0.4042958962 -3.5664273222
C -1.4325698893 -0.1313020242 -4.9215270385
C -0.8299143634 1.2229365660 -2.8375558675
C -1.1975163909 2.3468430661 -1.9592668481
C -0.3594049494 2.9008877693 -1.0850688597
Br -0.8645121312 4.3625274638 0.0220880763
Br 1.4116505238 2.2672521309 -0.8131916427
C -1.1110728022 -0.2367572525 -2.3880840062
C -1.7285278141 -0.4300606101 -1.0733586841
O -2.5830443078 0.2480128795 -0.5439529942
O -1.1714614859 -1.5186015679 -0.4469442524
C -1.5544916024 -1.7027411508 0.9406336491
C -2.9887736661 -1.9791120274 1.0549641998
N -4.1006185141 -2.2711844299 1.1631252091
C -1.0678298518 -0.5713429733 1.8267887698
C -1.9286756880 0.2024251921 2.5997127233
C -1.4072754907 1.2343772884 3.3760598508
C -0.0426113180 1.4931321858 3.3894165767
C 0.8073129372 0.7059437241 2.6148388355
O 2.1408807366 1.0513121944 2.6275930685
C 3.0987836214 0.0847099338 2.3554686365
C 4.1094230563 0.4242014653 1.4633367374
C 5.1356402985 -0.4865574279 1.2227780915
C 5.1445839979 -1.7231845634 1.8634839225
C 4.1253847978 -2.0446448090 2.7593188074
C 3.0982903991 -1.1416713527 3.0156202363
C 0.3054261390 -0.3276512005 1.8297617730
H -3.5635567873 1.4944704317 -4.2177473014
H -3.6142824054 1.0924619901 -2.4875622766
H -3.9079084876 -0.1631413102 -3.6966678316
H -1.9817288805 -1.0504792278 -5.1504726415
H -0.3614231131 -0.3480427188 -4.9594975458
H -1.6630258783 0.6073831690 -5.6966530855
H 0.1466609311 1.3140246536 -3.3075819047
H -2.2007910553 2.7585280997 -2.0139532523
H -0.3370631543 -0.9543537755 -2.6357280936
H -1.0366479257 -2.6286050238 1.2156708617
H -2.9970714694 0.0167477612 2.5863199395
H -2.0731337113 1.8459635169 3.9760046598
H 0.3744689502 2.2963127515 3.9874007573
H 4.0884744342 1.3933698686 0.9758368694
H 5.9277091863 -0.2258822470 0.5279161241
H 5.9435336289 -2.4315100664 1.6707686191
H 4.1323307061 -3.0017532038 3.2714520303
H 2.3072211291 -1.3814617013 3.7186471044
H 0.9712777915 -0.9264599003 1.2176030101
