57
CONF83
C -2.9584495525 -0.1320562677 1.3718996110
Si -2.4097555879 -1.6421643884 0.4065967231
C -3.5780520208 -3.0733626059 0.7148329137
C -0.6613667531 -2.1285619267 0.8717894880
O -2.4296251787 -1.3223620676 -1.2185769998
Si -2.7512495083 -0.1156428796 -2.2852530053
C -2.4435512184 -0.8007137756 -3.9915335769
C -4.4989565183 0.5024611623 -2.0844166896
O -1.7554719289 1.1677323622 -2.0082573462
Si -0.1780906557 1.4759215103 -1.6717323740
C 0.2375782583 3.1352061341 -2.4111463061
C 0.9114500989 0.1080969681 -2.3244162389
O -0.0379848771 1.5569230626 -0.0304267180
Si 1.1118457394 1.6326416922 1.1404296945
C 2.0137431491 3.2644354832 1.0416377484
C 0.2619944248 1.4039645319 2.7839250669
O 2.1825279751 0.4211583174 0.8639860182
Si 3.3226821586 -0.6030644622 1.4786971482
C 2.7156891441 -1.3617487497 3.0820715951
C 4.8954317256 0.3702689682 1.7856166854
C 3.6053860432 -1.9362132559 0.1976870554
H -2.8239750648 -0.2878318967 2.4484732213
H -2.3716193897 0.7465507096 1.0825970877
H -4.0178655554 0.0872309706 1.2009210933
H -3.2790980460 -3.9548379522 0.1376600986
H -3.5942311050 -3.3540878756 1.7737408099
H -4.6009613190 -2.8125567821 0.4221564075
H -0.3292164211 -2.9887418605 0.2796900948
H -0.6000941748 -2.4078753093 1.9298492748
H 0.0401812357 -1.3057228646 0.6956509000
H -2.5467308181 -0.0231405261 -4.7553486919
H -3.1533895370 -1.6014715698 -4.2240424015
H -1.4347576747 -1.2198458452 -4.0648328608
H -4.6328947354 0.9840375057 -1.1106279515
H -4.7396550133 1.2423870203 -2.8550469822
H -5.2211601310 -0.3167039376 -2.1643851384
H 0.0809061167 3.1303179555 -3.4948339895
H 1.2797407581 3.4127632158 -2.2224502715
H -0.4023752373 3.9134800657 -1.9823271070
H 1.9576982913 0.2816287238 -2.0521667900
H 0.6155156007 -0.8571087104 -1.8982607556
H 0.8485306322 0.0358320323 -3.4154848057
H 2.7302439755 3.3683366300 1.8637814377
H 1.3179824168 4.1085438165 1.0910477230
H 2.5742084672 3.3434623583 0.1040498327
H -0.5531186669 2.1256484490 2.9019527157
H 0.9593725461 1.5442565894 3.6165263812
H -0.1655047572 0.3992713034 2.8646702152
H 2.5327386330 -0.6016340291 3.8488762558
H 3.4577509005 -2.0628986964 3.4805473338
H 1.7836719712 -1.9153755515 2.9267988872
H 4.7345107205 1.1566633894 2.5315734768
H 5.6997895944 -0.2762903945 2.1533269597
H 5.2450860758 0.8503217293 0.8651966093
H 4.3602329765 -2.6565473083 0.5310405480
H 2.6782100821 -2.4854289774 0.0012614008
H 3.9458753569 -1.5057943116 -0.7500376974
