50
CONF82
C 2.7246618949 0.9607707235 -2.5183927237
C 2.3693937534 0.2158862320 -1.2504053427
C 1.3120261902 -0.6902736309 -1.2866099221
C 1.0428610276 -1.5015914944 -0.1690357445
C 1.8238949425 -1.4566544436 0.9564446703
C 2.8971172017 -0.5461572845 1.0425510847
C 3.1278378363 0.3488559187 -0.0498192984
C 4.1183332228 1.3572463826 0.2381350733
N 4.8787365549 1.3143216662 1.3174882431
C 4.6528366592 0.3092711574 2.1994520497
N 3.6647089566 -0.5664380372 2.1629485557
N 5.5509782038 0.2225407051 3.2312647962
N 4.3288133820 2.4428136653 -0.5775264068
C 0.4514824711 -0.8261593397 -2.5413012734
N -0.7953097377 -1.5431267230 -2.3959019090
C -1.8262315290 -1.0836207823 -1.5819916848
C -2.9468704982 -1.9042022646 -1.3861083277
C -4.0086664273 -1.4464950790 -0.6080337245
C -3.9766813807 -0.1720228435 -0.0231853352
C -2.8415461946 0.6229595099 -0.2088261034
C -1.7698184138 0.1815601851 -0.9887658040
O -2.8638767274 1.8258317744 0.4323264738
C -1.7108991196 2.6509876826 0.3166432357
O -5.0491887582 0.2937459933 0.6965589940
C -4.9701041787 -0.0273657096 2.0911242697
O -5.1374893947 -2.1673744841 -0.3544266669
C -5.2409208244 -3.4541901591 -0.9497797621
H 2.1720486125 1.9059615588 -2.6245347971
H 3.7914481897 1.1788400415 -2.5723757845
H 2.4768060746 0.3635035435 -3.3977337626
H 0.2012620335 -2.1854797131 -0.2087830595
H 1.6439076982 -2.1099891309 1.8027726596
H 6.1005828934 1.0441858715 3.4172339889
H 4.8872263050 3.1628113480 -0.1438730409
H 0.2259387828 0.1725025858 -2.9406526289
H 1.0233694038 -1.3365714074 -3.3281702553
H -0.7443641278 -2.5430118283 -2.4992494150
H -2.9814325423 -2.8754840898 -1.8646356046
H -0.8822214976 0.7877173286 -1.0938020231
H -0.8165635831 2.1482814818 0.7092455012
H -1.9216383730 3.5387150869 0.9149972199
H -1.5359572287 2.9494119688 -0.7257985155
H -4.9531740276 -1.1148793045 2.2386948862
H -4.0768069058 0.4222856105 2.5431650692
H -5.8655473174 0.3903272548 2.5572221398
H -4.4425793627 -4.1235505608 -0.6016843440
H -6.2075587416 -3.8500709344 -0.6346942496
H -5.2138707560 -3.3908669521 -2.0456370455
H 3.5602759735 2.7725603945 -1.1346335328
H 5.2612059281 -0.3295496228 4.0211083461
