40
CONF1
C -4.0568290346 -3.0119495201 -1.8221491621
C -3.3204054214 -1.8445528352 -1.2284976272
C -3.5898645173 -0.5353808760 -1.6308856167
C -2.9167397277 0.5422111763 -1.0679927893
C -1.9501243274 0.3373617799 -0.0791267547
C -1.6835148702 -0.9734855026 0.3375522685
C -2.3561416995 -2.0419975486 -0.2340908623
C -1.2764202868 1.4858308910 0.5257051948
C -1.8227396581 2.6622126201 1.0090230434
C -0.7423951343 3.3510135876 1.5823483042
N 0.4021424978 2.6862832700 1.4694499382
N 0.0690620359 1.5529968161 0.8182208977
C 1.1064458976 0.6534074662 0.4585915521
C 1.1116128531 0.0575937899 -0.8021547905
C 2.1290593959 -0.8253923595 -1.1346710826
C 3.1344306074 -1.0810895195 -0.2093107588
C 3.1431565775 -0.4776276450 1.0435797203
C 2.1201282494 0.3969048425 1.3805182116
S 4.4436651494 -2.2345623734 -0.6361577442
O 5.0091554458 -2.7393363844 0.6202943690
O 3.9282020803 -3.1146788429 -1.6912813798
N 5.6170892893 -1.2269294710 -1.3545662035
C -0.7595588337 4.6825039745 2.2600089402
F -0.0578928178 5.6149669894 1.5765313555
F -2.0319502624 5.1339151543 2.3669511711
F -0.2388477471 4.6289443054 3.5047821208
H -4.5762759631 -2.7303004800 -2.7410126578
H -3.3736418781 -3.8353920861 -2.0503679174
H -4.8052438473 -3.3960181862 -1.1193436419
H -4.3323157489 -0.3555906607 -2.4031244107
H -3.1259379405 1.5521373160 -1.4070303064
H -0.9510224472 -1.1530515045 1.1180105676
H -2.1351721256 -3.0511866075 0.1023179768
H -2.8634921266 2.9427014486 0.9985763807
H 0.3257793896 0.2809663439 -1.5135200857
H 2.1427007656 -1.3133481917 -2.1024300389
H 3.9295694363 -0.7088255629 1.7528499294
H 2.0955055529 0.8818449988 2.3488943396
H 6.4699546344 -1.2553518613 -0.8035778711
H 5.7888667585 -1.5377492594 -2.3062093962
