33
CONF2
C -4.6688996641 0.7319822729 0.3410911888
C -3.2085815540 0.5077877899 0.4324433338
N -2.5817656933 -0.4900769819 -0.1083648415
N -1.2482427646 -0.3117902153 0.2224766608
C -1.0201834038 0.8298202304 0.9706952447
O 0.0167084289 1.2887400528 1.4109520006
N -2.3255081753 1.3440853025 1.1103635599
C -2.5889441683 2.5564298994 1.7985326624
F -3.1442574117 3.4774213575 0.9530825068
F -3.5015537199 2.3521461976 2.7953837436
C -0.2292647075 -1.1713692271 -0.2294338132
C -0.2344545895 -2.5429403156 0.0393003934
C 0.8323817586 -3.3246861082 -0.3851148409
C 1.9172488619 -2.7310438247 -1.0118902433
C 1.9569811674 -1.3511698513 -1.2713035892
C 0.8409540593 -0.5979857437 -0.9042016802
N 3.0595528001 -0.7676878385 -1.8987376176
S 3.5902890376 0.8313117783 -1.5426032555
O 2.5645727862 1.7601005898 -2.0157117683
O 4.9590979248 0.8614040807 -2.0579818400
C 3.6234717685 0.9176605877 0.2639337110
Cl 3.2726455383 -3.7382049708 -1.4766489254
Cl -1.5199252396 -3.2877733479 0.9425567519
H -5.1286284343 0.7224297682 1.3340569801
H -4.8888822864 1.6991102913 -0.1207123157
H -5.1008575110 -0.0654623144 -0.2642066908
H -1.6555041936 2.9486985066 2.2161769415
H 0.8369452473 -4.3894118634 -0.1885800653
H 0.8088764360 0.4598834885 -1.1351907764
H 3.8549793673 -1.3812460073 -2.0437406435
H 3.9873956722 1.9202036636 0.5021071588
H 4.3122221194 0.1573046209 0.6370604168
H 2.6111318556 0.7843288245 0.6549308433
