39
CONF538
C 6.5283916579 2.9340731338 0.3246471235
C 6.0843071928 2.2349140696 1.6089539872
C 5.9718739991 0.7134175424 1.4699890200
C 4.9425172464 0.2815780894 0.4224196327
C 4.5431695016 -1.1982028696 0.4972481911
C 5.7478421176 -2.1257296278 0.2685112625
C 5.4383616947 -3.6209139707 0.3613991887
C 3.4490145986 -1.5200467036 -0.5157476860
O 2.2673451461 -0.7055093704 -0.2692761041
C 2.0497603474 0.3338819693 -1.1008274549
O 2.7112823409 0.6066839505 -2.0720974319
C 0.8932641587 1.1488856824 -0.6050378301
C 0.8340744716 1.4042318498 0.7620145357
C -0.1314625688 2.2461068181 1.2878920970
C -1.0843139432 2.8375851046 0.4537559835
C -1.0519260460 2.5606428652 -0.9249752346
C -0.0606850411 1.7213943909 -1.4542218518
Br -0.0575482880 1.2937025168 -3.2995876970
Br -2.3575620097 3.3241459395 -2.0626481286
Br -2.3976156810 3.9829409369 1.1823688349
Br -0.0996165477 2.5473806611 3.1625758326
H 5.7886714904 2.8207860689 -0.4736925311
H 6.6722981766 4.0059644729 0.4897176708
H 7.4766483197 2.5208143499 -0.0375567813
H 6.7946668452 2.4650517823 2.4123625573
H 5.1145384760 2.6389997790 1.9296038803
H 6.9605673609 0.3081162815 1.2198534345
H 5.6960349130 0.2839281992 2.4432119580
H 5.3096649009 0.4982111841 -0.5886998059
H 4.0455932026 0.9009799222 0.5581203222
H 4.1403511293 -1.4009729604 1.5020916882
H 6.5090866943 -1.8795913676 1.0156460746
H 6.1921421342 -1.8947902635 -0.7097081824
H 4.8315224344 -3.9756843028 -0.4767743237
H 6.3631803849 -4.2049804594 0.3579083734
H 4.9021874848 -3.8546615238 1.2880577434
H 3.0958034850 -2.5475622320 -0.4103374547
H 3.7947312001 -1.3494901169 -1.5403842745
H 1.5624851783 0.9455122276 1.4177423714
