40
CONF1
C 0.9161164449 -1.7913917115 -0.5775221946
O 2.2893681743 -1.2430781116 -0.6104075774
C 2.1963213506 0.0675543137 -0.1949993532
C 3.2624368955 0.8690750356 0.1840748931
O 4.5692898778 0.4713465155 0.0960962956
C 2.9465652703 2.1188443753 0.7266278180
C 1.6231899848 2.5110453203 0.9272989824
C 0.5581540494 1.6899276012 0.5330326116
C 0.8974786765 0.5068031876 -0.0924204673
C -0.0400033466 -0.5745098256 -0.5463662270
C -0.6439159263 -0.2751979239 -1.9315428891
C -1.4658029470 1.0196712213 -1.8972488055
N -2.4603759761 1.0670023429 -0.8191138866
C -3.6394604495 0.2566913280 -1.1035220657
C -1.8508477975 0.7752507256 0.4891017470
C -0.8875422697 1.9201808371 0.8997627343
C -1.1680913279 -0.6230547937 0.5075565087
C -0.6026376863 -1.0301981290 1.8376582801
C 0.3362806044 -1.9749896253 1.8961872942
C 0.7654611733 -2.7136366335 0.6530871628
O 1.9288924685 -3.5047473495 0.8445483601
H 0.8244274516 -2.3821022841 -1.4929913324
H 4.5942289129 -0.3952347801 -0.3274142932
H 3.7647927705 2.7587714805 1.0403965777
H 1.4246020188 3.4576954762 1.4217183435
H 0.1609629027 -0.1837698104 -2.6713237544
H -1.2690561169 -1.1264807977 -2.2331084883
H -0.7802869091 1.8675345757 -1.7723770964
H -1.9830115961 1.1686580635 -2.8517669676
H -3.4489021934 -0.8215475757 -1.2555818680
H -4.3544824725 0.3543771422 -0.2792752459
H -4.1222137430 0.6362357664 -2.0107385229
H -2.6713724928 0.7599597914 1.2187006473
H -0.9367326749 2.0437768957 1.9890110214
H -1.2792490537 2.8498334742 0.4700086469
H -1.9223866777 -1.3642007121 0.2000066037
H -0.9557060163 -0.5337492936 2.7393127089
H 0.7761950192 -2.3026345387 2.8338897267
H -0.0337930831 -3.4267475524 0.3956682924
H 2.6811066044 -2.9029638257 0.7639754669
