30
CONF4
O -1.9828575028 2.4720049147 -2.0986679498
C -2.3900896935 1.4650233084 -1.5572180558
O -2.6336978826 0.3189034555 -2.2219677593
C -2.7451824438 1.3570744363 -0.0886928740
C -2.3528383630 0.0545238870 0.5567353404
C -0.9970628421 -0.3224574139 0.6179157999
N -0.0404804138 0.5470327017 0.0550748691
C 1.3126935731 0.2090407702 -0.0357254968
C 1.7719673077 -0.7911704787 -0.9112788016
Cl 0.6175693138 -1.6345368247 -1.9233243516
C 3.1152669296 -1.1200978912 -1.0256263200
C 4.0564067639 -0.4173974248 -0.2813613588
C 3.6549300061 0.5999459727 0.5762629768
C 2.3025432326 0.8868334327 0.6973657434
Cl 1.8076988283 2.1469339050 1.8170582123
C -0.6383239781 -1.5369478698 1.2082685705
C -1.6163535826 -2.3799927795 1.7255046519
C -2.9586270420 -2.0156833101 1.6749052848
C -3.3124838604 -0.7989542281 1.0955224189
H -2.3048151335 2.2248498451 0.4137918193
H -3.8333824509 1.4778895037 -0.0259764767
H 3.4200924679 -1.9035104566 -1.7095848016
H 4.3799479928 1.1551940597 1.1598027624
H 0.4080356853 -1.8184002757 1.2691020227
H -1.3207121770 -3.3205950024 2.1799316875
H -3.7233331953 -2.6688480914 2.0819073680
H -4.3574812456 -0.5051655188 1.0476049562
H -2.4149455445 0.4582802258 -3.1595090623
H 5.1091193980 -0.6598453621 -0.3756111004
H -0.1939761156 1.5227993383 0.2757330674
