65
CONF461
C -4.9351618074 2.5492240257 -1.0182081226
C -3.6614807900 3.3915332126 -1.0082925282
C -2.4254765340 2.6113164566 -1.4714012823
C -1.1708447790 3.4980102793 -1.4971728995
C -2.1623575811 1.4470279812 -0.5409978735
O -2.1074853810 1.5381000045 0.6718460752
O -1.9539805526 0.3001530072 -1.2168032981
C -1.6319463845 -0.8907605875 -0.4299680417
C -2.9147715064 -1.6092795211 -0.0489098862
C -2.5996156658 -2.8261823784 0.8334699219
C -1.4257675150 -3.5881060670 0.2935377605
C -0.5808434471 -3.1327726645 -0.6516673457
C -0.7421004637 -1.7673303441 -1.2955393361
C 0.6415123718 -1.1472822763 -1.5877085808
C 1.3849554039 -2.0772282180 -2.5678029231
C 1.4358787325 -3.4749270208 -2.0130731757
C 0.5392407253 -3.9328621348 -1.1227026430
C 2.7707132248 -1.5620764876 -2.9658995036
C 1.4241250894 -0.8692386316 -0.2828671769
C 1.5465048841 0.6288286825 0.0055939286
C 2.0020722397 0.9232723076 1.4222227439
C 3.3973466476 0.4370037880 1.7547384164
C 3.7898710928 0.9371800150 3.1346040895
C 3.8097509887 2.4543826306 3.1162043159
C 2.6365109965 3.1049074137 2.4245806382
O 2.3757421619 4.2845105391 2.5671080857
O 1.8842793929 2.3882703434 1.5710490575
O 5.1018666905 0.5152050109 3.5233827786
C -2.3667484227 -2.4362861201 2.3045428793
H -4.8511841404 1.6957110067 -0.3357925079
H -5.8000500126 3.1409732189 -0.7040683279
H -5.1381904679 2.1593335382 -2.0215685829
H -3.7780383804 4.2553916415 -1.6731565439
H -3.4726149095 3.7842989517 -0.0021780761
H -2.6044198639 2.2113453882 -2.4753675891
H -1.3317940739 4.3417344071 -2.1746071992
H -0.9606359697 3.8903285229 -0.4969895258
H -0.2948551231 2.9403508027 -1.8431934415
H -1.0993606373 -0.5647575148 0.4678978418
H -3.5867009754 -0.9232333514 0.4777528295
H -3.4153423027 -1.9342194276 -0.9691932339
H -3.4730807073 -3.4932655200 0.8140837236
H -1.2482922153 -4.5763732023 0.7182065568
H -1.2516555542 -1.9073699806 -2.2619684645
H 0.4762816126 -0.1937885460 -2.1053021768
H 0.7815720228 -2.1026205571 -3.4902676365
H 2.2401441713 -4.1256911214 -2.3521721490
H 0.6266366944 -4.9435503644 -0.7281367497
H 3.4668962454 -1.5653388638 -2.1214229022
H 3.1990568335 -2.1952498976 -3.7495694579
H 2.7042326292 -0.5389071169 -3.3503961363
H 0.9263803011 -1.3624258180 0.5631010644
H 2.4212337678 -1.3151191851 -0.3344220014
H 2.2429816984 1.0943682327 -0.7038730509
H 0.5743408814 1.1147020724 -0.1357288525
H 1.2811698829 0.4998346132 2.1352776487
H 4.1172170554 0.7947558589 1.0065226187
H 3.3952174688 -0.6582248896 1.7351635367
H 3.0502137547 0.5842002412 3.8700351516
H 4.6992283594 2.7826736732 2.5595217813
H 3.8849788355 2.8801717021 4.1200292427
H 5.0810936916 -0.4441860766 3.6333035784
H -2.1448966079 -3.3217163555 2.9087444927
H -3.2581876684 -1.9523386629 2.7168302994
H -1.5213670030 -1.7463916665 2.3990379800
