29
CONF50
C -4.7572055670 -1.1068656540 -0.6431294230
C -3.3559000304 -0.7846519093 -1.0958833131
O -2.8332094416 0.2502603611 -0.1881967842
P -1.4014741026 0.9031492239 -0.4275502317
S -1.0083642225 1.6950701157 -2.1486758249
O -1.2577635819 1.9058848200 0.7873555599
C -1.4640822215 1.4676400518 2.1872221075
C -2.7296534430 2.0902368027 2.7208892873
O -0.4799267570 -0.4293413118 -0.0558186611
C 0.8714993576 -0.4671273969 -0.1837644869
N 1.5738812628 0.6294006859 0.0369282998
C 2.8888265237 0.5984528332 -0.0558110639
Cl 3.7288400423 2.1002632630 0.2394138888
C 3.5912913942 -0.5662120071 -0.3688832078
Cl 5.3225757294 -0.6003210239 -0.4832055408
C 2.8619129526 -1.7289244663 -0.5968920610
C 1.4804445977 -1.6839103218 -0.5091075721
Cl 0.5271311298 -3.1057319758 -0.8001075847
H -4.7582562874 -1.4854745304 0.3825133900
H -5.3973331522 -0.2224433565 -0.7004327344
H -5.1714740779 -1.8787454394 -1.2984374036
H -2.6952125859 -1.6549495143 -1.0329712340
H -1.4965408367 0.3752201120 2.2251589035
H -0.5758230436 1.8161032850 2.7187360609
H -2.8425042026 1.8125894782 3.7737493884
H -2.6842164874 3.1805075628 2.6541309276
H -3.6042703299 1.7320944501 2.1716370677
H 3.3687922871 -2.6537825560 -0.8462916393
H -3.3364483875 -0.3836366978 -2.1141211116
