35
CONF960
C -0.7335961574 2.6246408430 0.9699005222
C 0.5404552677 2.8606522922 0.1983308432
O 1.6326840320 2.2920715918 0.9254310496
C 2.7903939127 2.0016924964 0.1354379358
C 3.0132876709 0.5099284419 0.0288386049
O 1.9474786840 -0.0728318057 -0.7176774050
C 2.0887985632 -1.4877543928 -0.8363049567
C 0.8602993030 -2.0551008050 -1.5000316055
O -0.2367818179 -1.9966263577 -0.5897283315
C -1.4655251836 -2.3660472227 -1.2113500292
C -2.5878165388 -2.2668317717 -0.2026062457
O -2.8094600506 -0.9105808135 0.1972423794
C -2.3909084068 -0.6128958357 1.5317366185
C -2.1900309940 0.8757002958 1.6617450597
O -1.0330090110 1.2339389414 0.9129765425
H -0.6138488293 2.9511430484 2.0159142684
H -1.5463419298 3.2153127531 0.5168402309
H 0.4538974862 2.3953878707 -0.7931783592
H 0.6893606427 3.9438097438 0.0641364932
H 3.6656924850 2.4486837949 0.6248783336
H 2.7001165108 2.4433605357 -0.8656160408
H 3.0551409940 0.0650819312 1.0362095656
H 3.9807422575 0.3242822210 -0.4681515702
H 2.2219120094 -1.9430368367 0.1581879956
H 2.9736659260 -1.7324685583 -1.4458195568
H 1.0575576863 -3.0988804197 -1.7934184765
H 0.6303609989 -1.4817950068 -2.4125178046
H -1.4125831497 -3.4010766707 -1.5902325376
H -1.6703636961 -1.6995645031 -2.0647723931
H -3.5068187690 -2.6402427392 -0.6726641682
H -2.3730685479 -2.8992458077 0.6690115598
H -1.4476057545 -1.1258343218 1.7635281486
H -3.1543093201 -0.9409519859 2.2550871402
H -3.0749781630 1.4170126126 1.2890144150
H -2.0547975975 1.1290658692 2.7257162516
