65
CONF478
C -1.6268971924 3.3234432041 -3.6339016745
C -1.2723946127 2.4624564568 -2.4240152631
C -2.1375470568 2.7788486270 -1.1821991769
C -3.6242284838 2.5004884157 -1.4097260740
C -1.5600465614 2.0059067834 -0.0166733002
O -0.7162066270 2.4437077070 0.7443122570
O -2.0403206851 0.7493333149 0.0417843777
C -1.5039264509 -0.1307777581 1.0792875623
C -2.2859384549 0.0562630382 2.3679581517
C -1.6844515953 -0.8150735597 3.4808517900
C -1.3768856410 -2.1912414010 2.9704192933
C -1.3463775473 -2.5409059847 1.6700647190
C -1.6330761758 -1.5517008644 0.5544297674
C -0.7337650573 -1.8489734478 -0.6668405678
C -1.0624475920 -3.2718423861 -1.1640161790
C -0.9277013974 -4.2582117223 -0.0359691662
C -1.0406546935 -3.9009905501 1.2544509956
C -0.2561148649 -3.6936164105 -2.3952811175
C 0.7584973121 -1.6323133584 -0.3292173053
C 1.3048318327 -0.3328775312 -0.9237255713
C 2.6726612525 0.0533199390 -0.3994656499
C 3.2353924607 1.3020109118 -1.0592171664
C 4.4759154547 1.8439374594 -0.3299995171
C 4.8111874020 0.9799692044 0.8960477870
C 3.5807095626 0.7412579598 1.7244568974
O 3.4892414011 0.9245075097 2.9214189896
O 2.5015213957 0.3080928466 1.0399231710
O 4.1670012145 3.1867615132 0.0752759406
C -0.4359991013 -0.1730042873 4.1132082080
H -1.5625839692 4.3886880216 -3.3864883602
H -0.9348037545 3.1251603403 -4.4578554741
H -2.6391732329 3.1184505385 -3.9936413046
H -1.3886149316 1.3992868763 -2.6712493179
H -0.2180631578 2.6171907510 -2.1630505774
H -1.9934269124 3.8358094688 -0.9300509591
H -3.7805385801 1.4869152138 -1.7903105071
H -4.1899597889 2.6091325795 -0.4795520162
H -4.0333624995 3.2079853346 -2.1353279552
H -0.4540637696 0.1331848030 1.2354772500
H -2.2727633678 1.1102124020 2.6641786842
H -3.3285212675 -0.2333741780 2.1871198939
H -2.4346062725 -0.9107324835 4.2786661306
H -1.1514882315 -2.9511693793 3.7188598508
H -2.6784479789 -1.6942469733 0.2371729667
H -1.0151915469 -1.1519494027 -1.4668358762
H -2.1209684363 -3.2548095796 -1.4721864530
H -0.7241451689 -5.2964993893 -0.2927208046
H -0.9097607917 -4.6419897397 2.0409223421
H -0.3398688341 -2.9417477089 -3.1871372248
H 0.8043890039 -3.8303195878 -2.1630164777
H -0.6322399173 -4.6444514359 -2.7867067953
H 0.8897651249 -1.6185547101 0.7588413879
H 1.3660253435 -2.4671034052 -0.6925707535
H 1.3736544821 -0.4236154070 -2.0152211859
H 0.6245063389 0.5034161497 -0.7240027200
H 3.3675476741 -0.7919402124 -0.4978010376
H 2.4636250925 2.0796822742 -1.0482650473
H 3.4626885490 1.0733853383 -2.1043170645
H 5.3472583831 1.8514140894 -0.9970044449
H 5.5755131180 1.4525761936 1.5161628445
H 5.2011457265 0.0113923789 0.5561485861
H 4.9598602011 3.5663679357 0.4761515056
H -0.0216750930 -0.8187143224 4.8940577019
H -0.6897972956 0.7922731901 4.5634343442
H 0.3461053743 -0.0100826040 3.3644764837
