23
CONF1
C -1.6392778606 -2.5541086367 -1.0879680845
N -0.6964288977 -1.5875115270 -1.6342573527
C 0.1807028150 -0.8949161118 -0.9040635165
N 1.0856825495 0.0195302537 -1.3368329132
N 1.1715268323 0.3139255948 -2.6462097389
O 2.0201919151 1.1652718642 -2.9427196664
O 0.4520555793 -0.2174658810 -3.5277369059
N 0.2186778522 -1.1083072698 0.4311582304
C 1.0092234840 -0.3011496385 1.3606744867
C 0.4618007833 1.0755102267 1.5791502694
C 1.0435902578 2.2744886260 1.2876940704
N 0.3223246090 3.4047880532 1.6009505362
C -0.8116506427 3.0718077459 2.1247469097
S -1.1090659792 1.3595929061 2.2924645637
Cl -2.0014931874 4.2134917678 2.6415143685
H -2.3258152227 -2.0827887748 -0.3739733693
H -1.1209719991 -3.3860703374 -0.5959529593
H -2.2256293766 -2.9538132021 -1.9153438672
H -0.6567171635 -1.4094720298 -2.6303799774
H -0.4729285149 -1.7181091326 0.8372187883
H 2.0338355896 -0.2042835701 0.9936825739
H 1.0408732826 -0.8562359431 2.3028283512
H 2.0194938874 2.3758248154 0.8262785981
