42
CONF100
C -6.0997730085 -0.6299284380 3.4015921934
C -6.3478089551 -0.2171834582 1.9521652040
C -5.1087460530 -0.3487306463 1.1038057739
O -5.3674065225 0.0263552007 -0.2380969611
C -4.0651329055 0.2694733566 -0.7859357418
C -3.2720058830 0.8530187291 0.4057062538
O -4.0905168706 0.5595953773 1.5500148747
C -1.9071677160 0.2128504446 0.5860421175
O -1.1658613669 0.5304551236 -0.5995306308
C 0.1175557563 0.0715499828 -0.6926991306
C 0.8032855188 0.4270671651 -1.8609238188
C 2.1105613591 0.0098546578 -2.0540104304
C 2.7357558806 -0.7602806586 -1.0757043201
C 2.0661615037 -1.1171753407 0.0828528268
C 0.7471372337 -0.7057749394 0.2808897714
O 4.0260235563 -1.2431854157 -1.2849524051
C 5.0745362175 -0.3490320855 -1.2241091481
C 6.3018791152 -0.8176119659 -1.6954092086
C 7.4163438804 0.0108747419 -1.6405175900
C 7.3152344849 1.3028213396 -1.1234177205
C 6.0846023511 1.7556355040 -0.6558701747
C 4.9565019441 0.9376569263 -0.7002600571
H -5.7366481251 -1.6615276048 3.4585117506
H -7.0246444093 -0.5655845058 3.9810266524
H -5.3575999620 0.0192413473 3.8746468047
H -6.6931433634 0.8213160807 1.8930587947
H -7.1202306076 -0.8520224590 1.5036241806
H -4.7039043025 -1.3785599771 1.1267096601
H -3.6119612956 -0.6716654074 -1.1309043184
H -4.1642084047 0.9612681590 -1.6236117645
H -3.1687119638 1.9414084607 0.3300062159
H -2.0143326348 -0.8760163297 0.6945103427
H -1.4057545950 0.6199147410 1.4734018931
H 0.2950991473 1.0258222333 -2.6097743509
H 2.6493891475 0.2790057365 -2.9570766770
H 2.5712470599 -1.7180805198 0.8321268998
H 0.2354864565 -0.9963899024 1.1900708526
H 6.3667400309 -1.8236813526 -2.0970901333
H 8.3696001417 -0.3560474644 -2.0086733032
H 8.1869049559 1.9475980987 -1.0851208089
H 5.9928257237 2.7572850369 -0.2468776113
H 4.0026887020 1.2964619373 -0.3301966782
