27
CONF17
C -3.6153497993 0.1528401395 -1.1056205865
C -5.0370590143 0.3948836458 -0.5876518775
O -5.6295813668 -0.7437439786 0.0364831890
C -2.5798178912 0.0539718831 -0.0108800085
C -1.1353340103 -0.1911335321 -0.5524703174
C 0.0159943881 0.0334808129 0.4880571887
C 1.3668476203 -0.6531399167 0.0782565430
C 2.6127671624 -0.0646775194 0.8246240706
C 3.8741274929 -0.9896971854 0.7824532184
F 4.1093162380 -1.4013163738 -0.4714671541
F 3.7139970331 -2.0561560696 1.5725353648
F 4.9340545357 -0.2930819209 1.2146479057
F 2.3053935895 0.1471965227 2.1253424753
F 2.9490111922 1.1112383191 0.2523882911
F 1.2816628582 -1.9753047182 0.3540440581
F 1.5616876171 -0.4947105165 -1.2511373963
F 0.2321470016 1.3657546942 0.6080345050
F -0.3562262021 -0.4570569735 1.6914238934
F -1.0700494626 -1.4702738211 -1.0081716351
F -0.9121494446 0.6467457339 -1.5963597138
F -2.8606600188 -0.9607337880 0.8620260726
F -2.5437123485 1.2144754034 0.7270657176
H -3.5796731462 -0.7611154236 -1.7088525280
H -3.3327217731 0.9887031497 -1.7526851296
H -5.0383862891 1.1919760805 0.1612666754
H -5.6434348156 0.7330650907 -1.4379868919
H -5.7545873264 -1.4202844195 -0.6410235881
