37
CONF496
C -3.7824575674 0.8231379034 -2.3602703528
C -3.4458009362 -0.4083942993 -1.5482305742
O -2.0140129014 -0.6853073503 -1.5897996595
P -1.0935505106 0.0022311350 -0.4854360048
O -1.1805614072 1.4702389805 -0.3120645636
O -1.3985189892 -0.8582671274 0.8258672548
C -1.3419709649 -0.2227762132 2.1455260498
C -2.7025620610 0.3185469151 2.5201365172
O 0.3214744979 -0.5399345173 -1.0611602398
P 1.7813383186 -0.2404057108 -0.3737216722
O 1.6508078806 0.0525627170 1.0715937867
O 2.6126637680 -1.5168239126 -0.8189252537
C 2.3396286877 -2.7792987096 -0.1327595270
C 3.2517442630 -2.9430569718 1.0622832485
O 2.4582177606 0.8424113856 -1.3095306319
C 2.1159080282 2.2577164476 -1.1021984469
C 3.0572081475 2.8870462094 -0.1009856104
H -4.8672398554 0.9724979198 -2.3636650613
H -3.4455422905 0.7029419747 -3.3933718489
H -3.3052812956 1.7083205719 -1.9332494482
H -3.7688108096 -0.3077217280 -0.5042120765
H -3.9106357253 -1.3069099715 -1.9624574499
H -0.5749033979 0.5541555098 2.1376306732
H -1.0202129288 -1.0228566150 2.8168589959
H -2.6669053150 0.7293089404 3.5345009613
H -2.9945633867 1.1211642627 1.8368658411
H -3.4590416353 -0.4716235734 2.4955301467
H 2.5174322685 -3.5461468112 -0.8908897048
H 1.2820340683 -2.8181858764 0.1558584564
H 3.0750954741 -3.9196807991 1.5248407827
H 4.2994620782 -2.8893000341 0.7546503930
H 3.0574803819 -2.1628011233 1.8020339377
H 2.2198287747 2.7019599653 -2.0950042647
H 1.0689501219 2.3376956025 -0.7893132055
H 4.0960785655 2.7807669310 -0.4253900130
H 2.8278992852 3.9540994329 -0.0123852262
H 2.9393204120 2.4226882328 0.8808441877
