70
CONF77
C -2.7097543255 1.1221382613 -0.1061450676
C -4.0266830997 1.2077840258 0.7014641995
C -4.3387452411 -0.1339339465 1.2816560702
C -5.4893720875 -0.7871730204 1.6522660963
N -5.1645947064 -2.0581964478 2.1180262405
C -3.8030952039 -2.2427867517 2.0407174646
C -2.9516775174 -3.3081373798 2.3468401495
C -1.5943010953 -3.1129412375 2.1014693451
C -1.0748052391 -1.9090697586 1.5714088101
C -1.9201689768 -0.8446269438 1.2778623580
C -3.2775130739 -1.0430106905 1.5205733167
C -1.5493204804 0.5231576038 0.7434818661
C -0.2383234055 0.5023566697 -0.0366098167
C 0.0849430340 1.9017861682 -0.5726869425
C -1.0885672908 2.3860256208 -1.4152387581
N -2.3041758954 2.4559533311 -0.5897117902
C -3.3740621649 3.1814324245 -1.3080678235
C -3.9658325545 2.4639828581 -2.4928512362
C -5.2702998132 2.2610210170 -2.6686794620
C 1.3661194986 1.8876655208 -1.3923041068
O 1.3661323081 2.1696375926 -2.5902626601
N 2.5292475539 1.4419095519 -0.7895025984
C 3.6828286606 1.1490102974 -1.6717148881
C 3.4797901546 -0.0534055163 -2.5991111166
C 3.0094544390 -1.3325622938 -1.9148723799
N 3.8516575286 -1.7600054707 -0.7860265067
C 3.2313992806 -2.9037073964 -0.1079748558
C 5.2161562502 -2.0935596073 -1.2055186638
C 2.6869048785 1.3933272985 0.6415574102
O 2.2071393458 2.2678127088 1.3662731357
N 3.4124179775 0.3531995431 1.0762858844
C 3.6606990405 0.1557642010 2.5004202110
C 2.4938474183 -0.5355086652 3.2032601552
H -2.8797397709 0.4306074348 -0.9580294994
H -3.8969985619 1.9628094394 1.4908311677
H -4.8451579232 1.5452153237 0.0615032570
H -6.5225132903 -0.4685322369 1.6281591173
H -5.8333186791 -2.7360212762 2.4460512695
H -3.3203180227 -4.2456088491 2.7509331769
H -0.9033259901 -3.9212182778 2.3228115186
H -0.0046878912 -1.8372597867 1.4030731798
H -1.4167138395 1.1997084831 1.6041541846
H 0.5633455055 0.1354678908 0.6111006927
H -0.3235062098 -0.1983682383 -0.8794690394
H 0.2130667653 2.5787881604 0.2760518659
H -0.8806087020 3.3871474653 -1.8064713633
H -1.2089323766 1.7112132466 -2.2812275280
H -4.1708517496 3.4505133815 -0.6066933398
H -2.9286443568 4.1255660237 -1.6500234198
H -3.2655985170 2.1092722870 -3.2485460008
H -5.9979576571 2.6031964475 -1.9347720472
H -5.6557230797 1.7568630931 -3.5503658047
H 4.5507611006 0.9980292696 -1.0272549392
H 3.8775036199 2.0373319143 -2.2817899762
H 2.7384200803 0.1967811086 -3.3633662525
H 4.4256861669 -0.2168693276 -3.1280905830
H 2.9353195791 -2.1352234909 -2.6723563420
H 1.9981493676 -1.1741982018 -1.5180939102
H 3.8360516786 -3.1911671243 0.7583096336
H 3.1343932315 -3.7795177695 -0.7736359235
H 2.2314837421 -2.6241166399 0.2429375559
H 5.7197415373 -1.2120480897 -1.6112087674
H 5.7851030462 -2.4402265021 -0.3375947331
H 5.2282868526 -2.8884849478 -1.9724801260
H 3.6467745675 -0.4195045568 0.4148687265
H 4.5697933355 -0.4480268507 2.5920652762
H 3.8578248041 1.1296021130 2.9599487917
H 1.5829517315 0.0652545437 3.1185418779
H 2.7199590264 -0.6748231839 4.2651287484
H 2.3025342054 -1.5174921778 2.7587162244
