41
CONF100
O 8.9065682489 -0.2906892866 0.1757448825
N 8.1338050059 -0.3420898239 -0.7852792032
O 8.5145961562 -0.4508034100 -1.9543195825
C 6.7069391246 -0.2712057280 -0.5279639820
C 6.2576196774 -0.1497705422 0.7878234733
C 4.8976247938 -0.0870608539 1.0217232164
C 3.9787442148 -0.1404321973 -0.0430309809
C 4.4595303940 -0.2644570593 -1.3641343029
C 5.8161846398 -0.3294175614 -1.6049306923
N 2.6309664104 -0.0751037731 0.3219497349
N 1.8195748209 -0.0703796753 -0.6672710490
C 0.4806971797 -0.0266474139 -0.3576046442
C -0.4099767888 -0.0106961551 -1.4515912945
C -1.7712972800 0.0256812166 -1.2731227852
C -2.3313745384 0.0491848464 0.0352666826
C -1.4236478298 0.0366983836 1.1393959234
C -0.0674658027 -0.0001258828 0.9473753759
N -3.6729434391 0.0830215795 0.2301874352
C -4.2691738848 -0.0001611973 1.5611439663
C -4.4084253531 1.3813786392 2.1942990422
O -5.0389138597 1.1902793450 3.4634232131
C -4.6222749738 0.1581104308 -0.8883914274
C -4.9670285406 -1.2179532521 -1.4530724910
H 6.9667050849 -0.1072795101 1.6046570598
H 4.5174391463 0.0052193574 2.0336959421
H 3.7590550052 -0.3121555074 -2.1883738364
H 6.1955924460 -0.4262953162 -2.6145779849
H 0.0048266839 -0.0359707674 -2.4548045098
H -2.4101624710 0.0191056161 -2.1460182130
H -1.7989589393 0.0729963983 2.1540218382
H 0.5946953411 -0.0035496185 1.8052903916
H -5.2617009483 -0.4511513973 1.4602793606
H -3.6838472195 -0.6592596619 2.2089877041
H -5.0153961155 2.0246777832 1.5407662947
H -3.4172455792 1.8434993970 2.3086518540
H -5.1496406130 2.0568300715 3.8726566622
H -5.5255883979 0.6442939834 -0.5078484917
H -4.2191006121 0.8143800358 -1.6644499839
H -4.0782174582 -1.7157448816 -1.8511425943
H -5.6962579404 -1.1122922618 -2.2616977806
H -5.4025254763 -1.8546651429 -0.6770742498
