20
CONF12
C 0.1946420943 -0.4940739328 -0.2151805714
O 0.6120379080 0.5736168816 -1.1024926396
C 1.6899888285 1.2298884180 -0.5400839154
O 2.2308557846 2.1820836315 -1.0511537030
C 2.0200243535 0.5856417533 0.7169060112
O 3.0372256959 1.0022567695 1.5101907374
C 1.1586108652 -0.4225786144 0.9230472748
O 1.0362640355 -1.2936856015 1.9396822523
C -1.2669453806 -0.2530322509 0.1876502800
O -1.4423384458 1.0237666827 0.7747308624
C -2.2057667374 -0.4325115282 -1.0019412168
O -2.0667600662 -1.7801107600 -1.4556825574
H 0.2638535989 -1.4438929357 -0.7597415929
H 3.4518050038 1.7541174361 1.0600510516
H 1.7044311829 -1.0909350135 2.6083271986
H -1.5214577673 -0.9929190687 0.9560036035
H -1.1207181740 1.6808029333 0.1424930355
H -1.9388685095 0.2884384109 -1.7902962422
H -3.2285783923 -0.2209943175 -0.6601066054
H -2.6083056822 -1.8958789888 -2.2424035488
