35
CONF106
C -0.4074007222 2.7526451666 1.4557003259
C -1.8450788034 2.9584744807 1.8796265876
C -2.8384858567 3.1107112363 0.7537530671
Br -2.4350050417 4.7582762113 -0.2775659530
Br -2.4791375241 1.3923704453 2.9460058371
O -0.3133981950 1.7701208394 0.4026628765
P 0.2807828874 0.3067000353 0.6858651203
O 1.0166376513 0.1475872989 1.9607924647
O 1.0794820156 0.0100803520 -0.6750348557
C 2.0266179676 0.9087943222 -1.2738591924
C 3.4587333859 0.6316149613 -0.8614444318
C 3.8016747446 0.8207868218 0.5970958381
Br 3.5668677312 2.7351561536 1.0817077721
Br 3.9189513648 -1.2629682316 -1.2886726483
O -0.9502822033 -0.6871887069 0.4661014605
C -1.0986531341 -1.8385311927 1.3405880033
C -0.0745405507 -2.8972650314 0.9649570376
C -0.0589239646 -3.3056897489 -0.4868552110
Br -1.8018661973 -3.9338044384 -1.1605068284
Br -0.3862011484 -4.4373663159 2.1670970979
H 0.2205688061 2.4667325364 2.3038299205
H -0.0360439900 3.6893070945 1.0266882733
H -1.8929132327 3.7994374670 2.5748801815
H -2.7812411394 2.2845923869 0.0469004788
H -3.8531480021 3.2376049648 1.1242737858
H 1.7800763118 1.9478065293 -1.0233706515
H 1.9236330969 0.7716167501 -2.3527096273
H 4.1192631908 1.2248353289 -1.4983360265
H 3.1439054596 0.2660558133 1.2657926336
H 4.8491099527 0.6007138397 0.7919317659
H -0.9705791201 -1.5370861825 2.3829528349
H -2.1138821829 -2.1998156257 1.1691959499
H 0.6442949325 -4.1179714333 -0.6629671830
H 0.2019070112 -2.4414868697 -1.1008292788
H 0.9324928474 -2.5496861255 1.2229875045
