73
CONF868
C 0.2965828073 1.9974930999 1.6075251056
C -0.9576629713 2.3918336062 0.8578051633
O -0.8293722547 1.8587413771 -0.4819023840
C -1.9673889361 2.0635424464 -1.3028851343
O -3.1518192380 1.5203520620 -0.7521390228
C -3.5409363032 0.2039177583 -1.1466994796
C -5.0212098299 0.0857280707 -0.7828342898
O -5.8353626895 0.9809976305 -1.5402500566
C -5.5223966589 -1.3496972670 -0.9178503328
O -6.8547853061 -1.4620524081 -0.4265721333
C -4.6374302090 -2.2798985741 -0.0958247385
C -5.0078627012 -3.7476790790 -0.2171769728
O -4.9944861088 -4.2091660097 -1.5677203493
O -3.2898893364 -2.1583116856 -0.5846152179
C -2.7385165909 -0.8676332235 -0.4009028600
O -1.4477863277 -0.9064954532 -0.9675420353
C -0.4078458577 -1.3402818429 -0.2001891760
C -0.5814825464 -2.0082245994 1.0124068072
C 0.5511328352 -2.3783878432 1.7287323622
O 0.3939634732 -3.0450713496 2.8819237614
C 1.8566565103 -2.0885630175 1.2464426063
C 3.0243795821 -2.5726892670 1.9316983095
O 2.9622928897 -3.2123762441 3.0009307087
C 4.3443276937 -2.3021545514 1.2599732400
C 4.2804712918 -1.0138758526 0.4502040054
O 3.1843920718 -1.0949432817 -0.5160997022
C 1.9735427547 -1.4116904500 0.0056388950
C 0.8562104206 -1.0496606063 -0.7220310734
C 5.5371199983 -0.7194154133 -0.3113070029
C 6.3174313215 0.3868535682 0.0209507474
C 7.5088653947 0.6502162083 -0.6476388983
C 7.9227919448 -0.1981311227 -1.6749320411
O 9.0773004734 0.0028216183 -2.3737894895
C 7.1445967050 -1.3042601044 -2.0277957968
C 5.9656472623 -1.5604778705 -1.3436004266
C -2.2073924571 3.5648623949 -1.4862736165
O -1.1373844271 4.1500446034 -2.2366941993
C -2.3497608183 4.2366040329 -0.1190729700
O -2.5083136069 5.6524345650 -0.2457360704
C -1.1538226873 3.9057401707 0.7715352613
O -1.3553889101 4.4018003626 2.0955039579
H 1.1809504009 2.4148444251 1.1143310118
H 0.3911629514 0.9080772294 1.6390960737
H -1.8423104695 1.9496900001 1.3384123778
H -1.7233259590 1.5912225281 -2.2623962171
H -3.3996341647 0.0623604120 -2.2298186955
H -5.1433574509 0.3977098857 0.2630297222
H -5.4681998223 -1.6576257562 -1.9750537727
H -7.3650927369 -0.7484864438 -0.8346175698
H -4.6849011797 -1.9905302736 0.9677566844
H -6.0252033418 -3.8883709307 0.1568097404
H -4.3205214489 -4.3347054873 0.4085421442
H -4.0892325018 -4.1228083138 -1.8934165328
H -2.6882813382 -0.6059288909 0.6695122970
H -1.5564945418 -2.2786957409 1.3963208146
H 1.3157302512 -3.2532982094 3.2059806077
H 4.5735724699 -3.1507168295 0.6002228151
H 4.0502185686 -0.1755090734 1.1227944992
H 5.9949730130 1.0543973141 0.8151606867
H 8.1117567827 1.5132955974 -0.3782857663
H 9.5285041164 0.7875098499 -2.0342213698
H 7.4759503453 -1.9520697093 -2.8328371186
H 5.3673670587 -2.4226281158 -1.6235553809
H -3.1157169376 3.7229498071 -2.0761073660
H -0.3036581807 3.8107128298 -1.8796369556
H -3.2604428860 3.8679533429 0.3674742172
H -1.8132496922 5.9533933805 -0.8502398501
H -0.2416648223 4.3532456317 0.3381995160
H -1.6299605012 5.3249478272 2.0060272992
H 0.2528995198 2.3761034814 2.6313640599
H 5.1354182209 -2.2393372966 2.0121410306
H -5.7240614333 0.7690483373 -2.4782470609
H 0.9511811058 -0.4961452091 -1.6477217569
