24
CONF324
C 2.6787512947 0.9527124441 0.5699148644
C 1.2614154859 0.5269099028 0.9189021167
C 0.5283136929 -0.0181869978 -0.3142781112
C -0.9440630563 -0.3236499381 -0.0177857886
C -1.6927536194 -0.7448193205 -1.3106547509
C -3.1520833663 -0.9406458010 -1.0030428808
O -4.0137163203 -0.3306548915 -1.6093116590
O -1.5143930918 0.2111201044 -2.3332848007
O -1.0624699833 -1.3519426673 0.9587471850
O 1.1975514719 -1.2346070496 -0.6820800484
O 0.6007232897 1.7004114568 1.4175922889
O 3.3849277417 1.4092933527 1.7256907242
H 3.2362176521 0.1040173390 0.1682707451
H 2.6339646595 1.7410696786 -0.1987860445
H 1.2949849451 -0.2504320526 1.6943291002
H 0.5836833802 0.7233248966 -1.1208176107
H -1.4250081050 0.5731644458 0.3884564421
H -1.2936396835 -1.7290315766 -1.6195442023
H -3.3978891953 -1.6550406399 -0.1984251087
H -2.4065017661 0.4996910758 -2.5942094033
H -0.4432331720 -2.0510100295 0.6962754985
H 1.1311407228 -1.3467226197 -1.6385352749
H -0.0221294016 1.4357979789 2.1047956619
H 2.8362059165 2.0992305858 2.1234740789
