32
CONF1
N 4.8645077281 0.7849846952 1.1881739546
C 3.5890337526 0.3698751727 1.1451357273
C 2.6686755239 0.8400240079 0.1863650232
N 2.7908330821 1.7476685547 -0.8489796027
C 1.5929325617 1.7816403892 -1.3863550630
N 0.6857812830 0.9433141194 -0.7700820033
C -0.6963711554 0.7519228825 -1.1654994010
O -1.5339248770 0.9941446650 -0.0490297971
C -2.6816375660 0.0886077047 -0.0813831697
C -2.7108087503 -0.7282844051 1.2001373680
O -1.6770130559 -1.7000449300 1.2788347361
C -2.5336153183 -0.7345998608 -1.3667271559
O -3.1533087667 -0.0922158483 -2.4878890447
C -1.0275288604 -0.6778508076 -1.6392748372
O -0.6482785297 -0.9316896148 -2.9726717208
C 1.3724487029 0.3268568102 0.2555503196
N 0.9279191156 -0.5660870127 1.1524694634
C 1.8884554733 -0.9398598614 2.0069604485
N 3.1613334700 -0.5343317406 2.0545050697
H 5.2073760829 1.4544978550 0.5201446814
H 5.4887083807 0.4195280654 1.8886337268
H 1.2958196293 2.3891186137 -2.2326508750
H -0.8857467236 1.4665005022 -1.9808934784
H -3.5908909258 0.7018875377 -0.1337363960
H -3.6663288543 -1.2651078500 1.2407354096
H -2.6785031536 -0.0328618281 2.0531257969
H -0.8074646882 -1.2356339230 1.2876133900
H -2.8987299735 -1.7601492862 -1.2445104930
H -4.1009958822 -0.2690882310 -2.4566575092
H -0.5143294191 -1.4018486101 -1.0014544539
H -1.3217875376 -0.5231926795 -3.5375186352
H 1.5934395371 -1.6677246842 2.7617716133
