42
CONF193
C -5.9459267479 1.8572110131 -1.1311804682
C -6.1884821786 1.1525430458 0.2020811392
C -4.9006714588 0.8378533389 0.9193724877
O -5.1528451723 0.1950518000 2.1607360745
C -3.9017083370 -0.4121700343 2.5003058850
C -3.2758028310 -0.7710198352 1.1301564460
O -4.1211641266 -0.1023401706 0.1748152712
C -1.8418440065 -0.3018404058 1.0380442048
O -1.3138839781 -0.7666661228 -0.2099547002
C -0.0212275784 -0.4455070767 -0.5133161419
C 0.8231702595 0.2967193152 0.3180163638
C 2.1266336941 0.5691792935 -0.0926189939
C 2.5822843255 0.0946152191 -1.3145756572
C 1.7479834322 -0.6456704321 -2.1454039152
C 0.4452247845 -0.9107371386 -1.7473293755
O 3.8574800401 0.4150033873 -1.7732078922
C 4.9478141716 -0.0441970126 -1.0625688965
C 6.1579299006 0.6030030884 -1.3123542956
C 7.3108408202 0.1680067654 -0.6683504221
C 7.2631639073 -0.9021951577 0.2248653625
C 6.0478067860 -1.5392619119 0.4628769645
C 4.8832173040 -1.1194183963 -0.1769790235
H -6.8961909441 2.1160141721 -1.6058190112
H -5.3862853813 1.2170480182 -1.8189146910
H -5.3773731146 2.7820406186 -0.9871121120
H -6.7365330772 0.2145811344 0.0568718348
H -6.7856439822 1.7889608109 0.8647136196
H -4.2980344490 1.7496694438 1.0959105967
H -3.2660961777 0.3003105026 3.0476074746
H -4.0948460551 -1.2861647641 3.1242725905
H -3.3302000263 -1.8442868350 0.9192834783
H -1.2652071943 -0.7211783653 1.8761795389
H -1.7994159641 0.7954469789 1.0877682824
H 0.4846266436 0.6743050606 1.2748957812
H 2.7874964686 1.1491613836 0.5439349023
H 2.1206707159 -1.0066069554 -3.0984618393
H -0.2224631121 -1.4835003090 -2.3826309873
H 6.1807241738 1.4360304888 -2.0075046143
H 8.2514692565 0.6739409429 -0.8633891037
H 8.1642762797 -1.2360205242 0.7285140614
H 5.9981761207 -2.3775080519 1.1512573960
H 3.9408580209 -1.6223544080 0.0091924801
