46
CONF64
C -0.3613387100 2.4026034486 -0.6639475115
C -1.1595161313 1.9133278023 -1.8720255044
C -2.6748513291 2.0771178505 -1.7180593240
C -3.2757585458 1.3411270583 -0.5411958380
O -2.9990912007 -0.0844653364 -0.7301543795
C -3.4972348359 -0.9102071424 0.1880770018
O -4.1680851343 -0.5729591797 1.1434233759
C -3.1953261014 -2.3753032276 -0.1236050967
C -4.3374116079 -2.9605732451 -0.9419134651
O -2.0028379756 -2.5460372887 -0.8949426411
C -0.8032202085 -2.2569583941 -0.3050362989
C 0.3203637073 -2.4339735624 -1.1194603359
C 1.5905254111 -2.1928152829 -0.6169149548
C 1.7275182220 -1.7758854717 0.7008043812
C 0.6259804908 -1.5853392629 1.5172837973
C -0.6522790071 -1.8239212230 1.0152691634
O 3.0169690127 -1.6099197274 1.2281685492
C 3.5087259369 -0.3486143473 1.3163507010
C 4.7447784999 -0.2064014907 1.9625989008
C 5.3578122319 1.0138353760 2.1119971122
C 4.7156778123 2.1528058402 1.5967478891
C 3.4811518060 2.0338999769 0.9457368274
C 2.8843255056 0.7901410525 0.8081852859
C 5.3257094443 3.4262830253 1.7387336478
N 5.8221601635 4.4679367149 1.8526584770
F 5.3384936458 -1.3142972035 2.4497566007
H 0.7099084759 2.4078108595 -0.8876417677
H -0.6502897708 3.4234175627 -0.3886644136
H -0.5136422220 1.7619009800 0.2117701462
H -0.8492371410 2.4720457811 -2.7625482318
H -0.9223203436 0.8606914260 -2.0691693610
H -2.9173197474 3.1390827095 -1.5812636519
H -3.1804860457 1.7519998388 -2.6351169938
H -2.8379667628 1.6458575133 0.4144180563
H -4.3599817427 1.4766349278 -0.4902636835
H -3.1096430761 -2.9022806141 0.8346244051
H -4.4244602546 -2.4400916271 -1.8995502306
H -4.1478531128 -4.0212039019 -1.1230319574
H -5.2753206752 -2.8582010386 -0.3910062233
H 0.1834863200 -2.7668991892 -2.1428274048
H 2.4699367688 -2.3302507995 -1.2372627424
H 0.7594724773 -1.2550424376 2.5423722003
H -1.5016926582 -1.6785697662 1.6716684436
H 6.3131361966 1.0813184064 2.6197697863
H 2.9912382238 2.9150605116 0.5473542110
H 1.9297942795 0.6953119919 0.3048557123
