56
CONF1
C -2.2982379103 -1.4101452520 -0.7047142121
C -2.4244276330 0.0463570309 -0.1875876340
C -3.1277350811 0.9060646769 -1.2582593124
C -4.5764404575 0.4806293538 -1.4864741209
C -5.3675328359 0.3959906385 -0.2027701103
O -6.5975881759 0.4917903587 -0.2010915075
C -4.6221579823 0.1596077173 1.0227215414
C -3.2806622051 0.0083305636 1.0728567852
C -2.5980819803 -0.2300834495 2.3922749044
C -1.2131454902 -0.8555981074 2.2566279304
C -0.3130240972 0.0228117661 1.3818259364
C -1.0664370222 0.6943969678 0.2094325773
C -0.1262035116 1.1064717867 -0.9503761665
C 1.2604547447 1.4708445476 -0.4201891986
C 2.0177120301 0.3616622719 0.3531945747
C 1.0278322217 -0.6368472128 1.0382741932
C 1.0793037487 -1.9287110688 0.2134896949
C 2.5666056726 -2.0025842384 -0.1285172876
C 2.9024305797 -0.5817185614 -0.6068432594
C 4.3824176840 -0.2578647534 -0.4867132299
O 5.1006514866 -0.7366828193 0.3773226011
C 4.9715217965 0.7244671284 -1.4731721761
O 6.2994003322 1.0674340879 -1.1301235385
O 2.6025616836 -0.4180726889 -1.9889327435
C 2.8657953723 1.0471393523 1.4346125564
O -0.0388182249 0.0791207718 -1.9601546346
F -1.4584227931 1.9858061299 0.7408418585
H -3.2881049611 -1.8725007082 -0.7217909063
H -1.6643837494 -2.0265394318 -0.0704410924
H -1.8854593095 -1.4215840241 -1.7133641821
H -3.1162563845 1.9527500151 -0.9393537987
H -2.5800689101 0.8389851123 -2.2033244909
H -4.6255978242 -0.5118109768 -1.9553194613
H -5.0894360090 1.1692984643 -2.1644400539
H -5.2107608150 0.0856895065 1.9352493996
H -3.2473435639 -0.8312440439 3.0365506386
H -2.4947573700 0.7473344095 2.8867484522
H -0.7548128224 -0.9484955858 3.2465791904
H -1.2943381772 -1.8710517272 1.8595637593
H -0.0393413712 0.8829303358 2.0083648677
H -0.5660600542 2.0018188820 -1.4012026562
H 1.8692539306 1.8478638961 -1.2480011878
H 1.1127075446 2.3150873999 0.2626617387
H 1.4701744559 -0.8931556529 2.0113959361
H 0.7333108850 -2.7995837119 0.7780678259
H 0.4845090861 -1.8588116575 -0.7004072634
H 3.1454832917 -2.2235375908 0.7752995666
H 2.8236993206 -2.7385495170 -0.8953502927
H 4.3322395064 1.6193865541 -1.5066580627
H 4.9246937396 0.2700826499 -2.4737135583
H 6.5324862699 0.4933499657 -0.3799760653
H 1.6305877680 -0.3339730530 -2.0862760160
H 2.2012080993 1.5407466251 2.1520020946
H 3.4782815431 0.3250793325 1.9802705384
H 3.5243950601 1.8144043711 1.0108841832
H -0.3740806444 0.4354127978 -2.7915751253
