88
CONF20
C 1.7173665681 -1.0791068292 -0.3537913642
C 0.2704001743 -0.8293025721 0.0804151975
C -0.4800334082 -0.0788019878 -1.0099515326
O -1.8330327124 0.2198115601 -0.5700470633
C -2.7837184110 -0.7214568182 -0.8011283070
O -2.5545874592 -1.7970120410 -1.3302176420
C -4.0880891774 -0.2460753432 -0.3335972741
C -5.1816044707 -1.0225243155 -0.4569539425
C -6.5427366350 -0.6952207809 -0.0681844439
C -6.8922450350 0.5641875178 0.4435707875
C -8.2129679021 0.8212786741 0.7975421638
O -8.6650982847 2.0023392521 1.2920218555
C -7.7061844910 3.0556912618 1.4606795377
C -9.1945410583 -0.1781062330 0.6558721793
O -10.4805765946 0.0655709697 1.0531713321
C -11.3103899988 0.6030245406 -0.0009661681
C -8.8427006046 -1.4330604762 0.1365356000
O -9.8623992765 -2.3233064580 0.0265074730
C -9.5482238889 -3.6235658032 -0.4924154258
C -7.5194888169 -1.6908017839 -0.2220819444
C 0.1690921827 1.2600498221 -1.3398567076
O -0.4809868683 1.8698719885 -2.4603005003
C -1.3693540432 2.9353800431 -2.1158028581
C 1.6271072710 1.0279153563 -1.7430006813
C 2.3695546156 2.3008537163 -2.0889576492
O 3.3529350139 2.3283708833 -2.8033095531
O 1.8718089473 3.3855917532 -1.4735385191
C 2.5830358414 4.6258093974 -1.7119526236
C 2.4395457906 0.2346801173 -0.6905660073
C 2.7223489665 1.0315657855 0.5858196106
C 3.4802631190 0.2011624072 1.6252291410
N 2.7705515513 -1.0674300239 1.9017011949
C 3.5219091557 -1.8576553320 2.8932605327
C 4.9086630063 -2.3358012465 2.4070992904
C 5.5768732118 -1.2347581634 1.6505249787
C 4.9129302985 -0.0941549345 1.2765332322
N 5.7752798797 0.7390038507 0.5795567279
C 7.0078212631 0.1342463935 0.4864571444
C 6.9178177548 -1.1231391766 1.1524329587
C 8.0550463984 -1.9335566941 1.1952759618
C 9.2362103218 -1.5042157186 0.5964569280
C 9.2926872597 -0.2557814394 -0.0543355420
O 10.4213059886 0.2326307350 -0.6645938761
C 11.5954445977 -0.5828102274 -0.6409516251
C 8.1773540579 0.5801557863 -0.1175646654
C 2.5327676975 -1.8521764266 0.6807171766
H 1.6920768723 -1.6936156157 -1.2647644688
H -0.2302202889 -1.7845674438 0.2708665979
H 0.2351416212 -0.2494397797 1.0088450746
H -0.5394995655 -0.6822560817 -1.9232180501
H -4.1160885609 0.7475153226 0.1006942460
H -5.0410000392 -2.0090415970 -0.8961716073
H -6.1384022684 1.3320993453 0.5506970255
H -8.2668842394 3.8998627687 1.8621946492
H -6.9224630655 2.7619165299 2.1683784502
H -7.2555621779 3.3337438844 0.5008903965
H -10.9030903864 1.5550412017 -0.3595439561
H -11.3826539054 -0.1090362808 -0.8308393056
H -12.2969173632 0.7634550618 0.4369042332
H -10.4900860460 -4.1723465499 -0.4945222991
H -8.8229681552 -4.1367349033 0.1494004609
H -9.1581883772 -3.5549909238 -1.5144563376
H -7.2293056945 -2.6540673936 -0.6230709958
H 0.1053439939 1.9198392475 -0.4644715556
H -1.7541038769 3.3362394648 -3.0567130711
H -2.2078517035 2.5812867476 -1.5041250075
H -0.8344314191 3.7294646937 -1.5775396071
H 1.6217712808 0.4318312144 -2.6646809485
H 2.0401572486 5.3822187883 -1.1467166150
H 2.5781100568 4.8626946197 -2.7783099144
H 3.6128036842 4.5424069178 -1.3559364986
H 3.4026345620 -0.0197367422 -1.1532199141
H 1.7904764920 1.3731563277 1.0471268157
H 3.2988805752 1.9358158979 0.3588238852
H 3.4675804528 0.7747127399 2.5653902392
H 2.9099463915 -2.7190624504 3.1854683817
H 3.6519688446 -1.2256402404 3.7808621996
H 4.8103549797 -3.2328273164 1.7793096590
H 5.5041874242 -2.6390193640 3.2775739351
H 5.5433492661 1.6388593095 0.1921374941
H 8.0272313913 -2.8983885808 1.6938480690
H 10.1100128352 -2.1422814750 0.6387610348
H 11.4256034342 -1.5399722245 -1.1491389641
H 12.3591723723 -0.0174686173 -1.1766888742
H 11.9318344327 -0.7675202800 0.3867372938
H 8.2413516824 1.5379653011 -0.6237813344
H 1.9967519343 -2.7642403162 0.9725242879
H 3.4758133919 -2.1642424864 0.1971597495
