29
CONF47
C 3.0008601840 0.3610062723 1.1492059353
C 2.8012880334 -0.1042508299 -0.2656936878
C 1.6729149812 0.0643782719 -0.9704088007
C 0.4003336510 0.7179410876 -0.5158826157
C -0.6528053872 -0.3338843978 -0.1300252339
C -2.0608657359 0.2197517660 0.1532198238
C -2.0499173646 1.2994391649 1.2431329166
C -2.9365529349 -0.9255830377 0.6051147701
C -3.9702451545 -1.4258552954 -0.0668052129
O -2.5245171197 0.7801122269 -1.0871077772
C 3.9935330248 -0.8013412576 -0.8624466596
H 2.1107147879 0.8202669953 1.5822222842
H 3.8248877105 1.0841118121 1.2013322520
H 3.2914988215 -0.4858525741 1.7834492688
H 1.6484867525 -0.3446384880 -1.9818337749
H 0.0011704395 1.3343083632 -1.3299524888
H 0.5862783025 1.3860540725 0.3292285540
H -0.3085516127 -0.8774315103 0.7578405255
H -0.7453956884 -1.0704940077 -0.9383410548
H -3.0731527847 1.6287978508 1.4535077806
H -1.4652866677 2.1637303159 0.9180751939
H -1.6173556582 0.9090110686 2.1698087149
H -2.6610304803 -1.3481762539 1.5716100824
H -4.2653994465 -1.0293469147 -1.0342140602
H -4.5496315417 -2.2517246988 0.3345220556
H -3.3917178241 1.1741655939 -0.9230018268
H 4.8727561472 -0.1443767231 -0.8480992893
H 3.8083661775 -1.1112050922 -1.8944289935
H 4.2593348899 -1.6889137859 -0.2739263786
