41
CONF38
C -1.4408371330 1.1330595990 -1.6693645033
C -2.1105281917 0.1961392589 -0.7190328766
C -3.3276214787 -0.4171771848 -0.9907189042
C -3.8681217471 -1.2684193465 -0.0249047640
N -3.2279426091 -1.5093259716 1.1293645364
C -2.0604851403 -0.8803090087 1.2963026626
N -1.4796592356 -0.0323021207 0.4449776891
N -1.4111546928 -1.1696171157 2.4936179428
C -0.1421776497 -0.8196965116 2.9432468711
O 0.3181736695 -1.3070816101 3.9658866463
N 0.5108471118 0.1226292657 2.1706913785
S 2.2059320047 0.2788004664 2.3020481767
O 2.8738131354 -1.0148466233 2.0894810929
O 2.5047988588 1.0325056125 3.5255285463
C 2.5180357328 1.3381147920 0.8786849164
C 2.6458282540 2.7005569583 1.1260892024
C 3.0098604883 3.5497844917 0.0856542527
C 3.2745169393 3.0288147261 -1.1767837017
C 3.1643153618 1.6617715408 -1.4100791575
C 2.7672934943 0.7984655537 -0.3894249079
C 2.6244050987 -0.6515750038 -0.7309673476
O 3.4914564075 -1.3077243644 -1.2656368148
O 1.3959927325 -1.0898891980 -0.4366314106
C 1.1520776060 -2.5032764190 -0.6530847769
C -5.1796831668 -1.9573951731 -0.2222916074
H -1.3795606586 2.1315760514 -1.2226703618
H -0.4146005498 0.8003613820 -1.8574255836
H -1.9830961666 1.1980599280 -2.6135851322
H -3.8451497665 -0.2360412019 -1.9251091814
H -1.8887201497 -1.8303068473 3.0926414045
H 0.0708278571 0.3064202285 1.2430607315
H 2.4784585176 3.0870400051 2.1248279753
H 3.1027600389 4.6142931414 0.2710614789
H 3.5733782518 3.6872956963 -1.9854039625
H 3.3722293122 1.2511393005 -2.3926031074
H 0.1212484952 -2.6645932790 -0.3391931648
H 1.8413536270 -3.0914341462 -0.0427514398
H 1.2799500073 -2.7484504248 -1.7096456196
H -5.6125616175 -1.7200245682 -1.1950648986
H -5.8781120089 -1.6564954558 0.5655155283
H -5.0475409290 -3.0408469110 -0.1391493040
