43
CONF28
C -1.4916600535 -0.8680367978 2.2198437986
Si -2.1734408543 0.7061934147 1.4917253900
C -3.8596870341 1.1264336023 2.1629104118
O -1.1207848612 1.9779419656 1.8019532581
O -2.2474768399 0.6428760202 -0.1340711371
Si -1.6260483154 -0.0218956897 -1.5095691985
C -0.9201809398 1.3527986542 -2.5468370687
C -3.0082795565 -0.9281782818 -2.3672163828
O -0.4802748854 -1.1278716229 -1.1062353858
Si 1.1318402702 -1.4362857498 -0.9875647865
C 1.3194337971 -3.2726876078 -0.7588653992
C 2.0107282478 -0.8101046780 -2.5127501198
O 1.7427509270 -0.7084702654 0.3556906890
Si 2.2724335386 0.7850283367 0.8293323945
C 2.2851957190 0.7609478417 2.6973841850
C 3.9552256089 1.1125701276 0.1002997162
O 1.2795385168 1.9688353413 0.2481902637
H -1.4545393045 -0.8186510630 3.3141706016
H -0.4786435235 -1.0558625820 1.8492807356
H -2.1148250489 -1.7264453521 1.9464074365
H -4.2303026382 2.0535872791 1.7140655910
H -4.5774871153 0.3309907829 1.9364010457
H -3.8431144081 1.2573544570 3.2504943809
H -1.0080730504 2.2495184171 2.7170301402
H -1.6958810899 2.0915899965 -2.7751417798
H -0.1124530331 1.8640432703 -2.0120722785
H -0.5245325813 0.9755625386 -3.4957546942
H -2.6684710403 -1.3647042235 -3.3121252366
H -3.8444702979 -0.2558729994 -2.5847520593
H -3.3828722194 -1.7420901617 -1.7375052905
H 2.3722420016 -3.5539886593 -0.6555066518
H 0.7935332499 -3.5967930118 0.1453781790
H 0.8998390203 -3.8220194321 -1.6076975283
H 1.9190183402 0.2774865483 -2.6024597499
H 3.0772331405 -1.0571051096 -2.4758384988
H 1.5929636060 -1.2589633583 -3.4203910781
H 2.9628502911 -0.0112138807 3.0763555805
H 2.6054351769 1.7253589703 3.1048944693
H 1.2847288828 0.5396857702 3.0850427845
H 4.6538679849 0.3042762260 0.3390134975
H 3.8948766603 1.1979168538 -0.9895191608
H 4.3718378782 2.0494854522 0.4839162860
H 0.4379257322 2.0867588454 0.7220921577
