27
CONF6
C -5.2366616599 -0.3760766867 -0.6246146902
C -3.7442688373 -0.4240513084 -0.4992742304
C -3.0434052185 0.2830346470 0.4802866966
C -1.6612792600 0.2579170001 0.6161502946
C -0.9190168008 -0.5199069904 -0.2773946925
C -1.5825670960 -1.2470139782 -1.2729842038
C -2.9632840469 -1.1917778941 -1.3706143682
N 0.4815029672 -0.6295668410 -0.2302475710
C 1.3612181393 0.0213735351 0.5841905709
O 1.0548473553 0.8720632911 1.4172384614
C 2.7810421710 -0.3683291834 0.3820135927
C 3.3649031684 -1.5800950662 0.0506549744
N 4.7344953235 -1.5158924637 0.0335166244
N 5.2417435479 -0.3755086889 0.3165237487
S 4.0170575504 0.7812360099 0.6699328724
C 2.7029913380 -2.8861686588 -0.2410623846
Cl -3.9446144973 1.2755277525 1.6258944989
H -5.7213071912 -0.7298950513 0.2915746837
H -5.5853620190 0.6478361222 -0.7963785992
H -5.5678981466 -1.0002386840 -1.4567464459
H -1.0135317355 -1.8564271925 -1.9689775175
H -3.4609735919 -1.7619788331 -2.1492267203
H 3.3996229778 -3.6982425835 -0.0253079919
H 1.8033962225 -3.0208199742 0.3638644447
H 2.4234871239 -2.9608919377 -1.2988310060
H -1.1749785169 0.8272847822 1.3932965295
H 0.8807818907 -1.2278729005 -0.9394833576
