15
CONF2
C -0.4863394423 -3.4444825311 -0.0203757595
C -0.3148270934 -1.9557932263 -0.0525111463
C -1.4182071501 -1.0909466975 0.0004911357
Br -3.1560991269 -1.8522257717 0.1931078303
C -1.2811972037 0.2997182955 -0.0590717796
Br -2.8098554024 1.4205031901 -0.0095004195
C -0.0032294728 0.8632516061 -0.1542219139
Br 0.2034129410 2.7454244957 -0.2554099976
C 1.1214727551 0.0298834951 -0.1683111260
Br 2.8583091060 0.7844280836 -0.2658277675
C 0.9528929299 -1.3577556763 -0.1078711879
Br 2.4917259080 -2.4842950744 -0.0672317252
H -0.5266380572 -3.7989399059 1.0166209252
H 0.3450441381 -3.9434951987 -0.5152737938
H -1.4143492739 -3.7370606358 -0.5103482482
