58
CONF27
C -4.6369896855 2.3687055938 -2.3882454377
C -3.5205300465 1.6462477447 -3.0528251489
C -2.1234442206 1.7888842803 -2.8200118588
C -1.5481712501 0.8856129119 -3.7079266166
N -2.5432004372 0.2760797345 -4.3843219238
N -3.7612395178 0.7491208529 -4.0077179475
C -2.4262066494 -0.6960747597 -5.4511397549
O -0.2462102742 0.5980519946 -3.9562725936
C 0.5045644444 0.0828669489 -2.8933954308
C -0.0779423138 -0.6216316920 -1.8464852240
C 0.7414085438 -1.1146023660 -0.8359994417
C 2.1163308530 -0.9044021437 -0.8719171234
C 2.6791471534 -0.2076091030 -1.9377327706
C 1.8760389409 0.2905173679 -2.9580983494
C -1.3829016630 2.6222090216 -1.9134152543
N -1.9515616959 3.2071781389 -0.9218424708
O -1.0122082735 4.0375791733 -0.2558148086
C -1.2504702981 3.9373152623 1.1570220812
C -0.7757665089 2.6035712466 1.6697182969
C -1.6809108320 1.5865601528 1.9737654647
C -1.2287584787 0.3290423419 2.3485573038
C 0.1415076348 0.0673749437 2.4171833494
C 1.0542362172 1.0836507219 2.1156316786
C 0.5939400635 2.3385689654 1.7474595421
C 0.5646296740 -1.3119420554 2.7838245370
O -0.2170183489 -2.2003874004 3.0582076269
O 1.9075408319 -1.4442700880 2.7529969282
C 2.5513685835 -2.7275925063 3.1133219164
C 2.2303094808 -3.0813306664 4.5613621017
C 4.0330744457 -2.4069346501 2.9537517003
C 2.1295674604 -3.8222065103 2.1383295553
H -5.5756091799 2.1493569056 -2.9012749441
H -4.7215614384 2.0727023251 -1.3379543064
H -4.4559130587 3.4477304510 -2.3938330703
H -3.1388984532 -1.5054626413 -5.2774969911
H -1.4084806757 -1.0903972712 -5.4529676571
H -2.6389423276 -0.2321066582 -6.4200027004
H -1.1521708206 -0.7667866602 -1.8112496301
H 0.2930833993 -1.6601517434 -0.0119652892
H 2.7404242203 -1.2707472727 -0.0644227158
H 3.7506674619 -0.0397307063 -1.9747680715
H 2.2919659491 0.8439980465 -3.7926669048
H -0.3079772354 2.7397667011 -2.0826336421
H -2.3172079077 4.0877372870 1.3648209583
H -0.6722651106 4.7594414390 1.5903372690
H -2.7462982526 1.7816102543 1.8972790127
H -1.9229429609 -0.4709616729 2.5814065190
H 2.1173286229 0.8812129397 2.1620043866
H 1.3025103864 3.1231747314 1.4974163546
H 2.4752135032 -2.2415534910 5.2187455411
H 1.1779568018 -3.3375713582 4.6857239995
H 2.8397069991 -3.9394397416 4.8617437387
H 4.2551566667 -2.1130291202 1.9237105720
H 4.6313787998 -3.2888779406 3.1983568851
H 4.3244300153 -1.5906433064 3.6205219711
H 2.3119652323 -3.5064442964 1.1062188475
H 1.0756881496 -4.0760474387 2.2538644603
H 2.7306565707 -4.7169334244 2.3286020653
