51
CONF95
C 2.1090901467 0.8505020682 -0.4417673898
C 2.1226463149 1.3028021063 0.9958586907
C 1.0312584029 2.0291699743 1.5114658368
C 0.9986824190 2.4134071033 2.8514448295
C 2.0440522470 2.0817006047 3.7060606614
C 3.1307957249 1.3776682042 3.2071450477
C 3.1931107192 0.9960452732 1.8593624090
C 4.4106582116 0.2847827886 1.3958304500
C 5.1717428526 0.7745505852 0.3267955695
C 6.3362371928 0.1256681595 -0.0718260720
C 6.7586414630 -1.0264313795 0.5892027869
C 6.0112926908 -1.5209985624 1.6558604497
C 4.8492163461 -0.8683416937 2.0582684638
C -0.1231218623 2.3930892589 0.6282669627
O -0.9727928118 1.2036779697 0.4963611099
C -1.8455959628 1.2081013829 -0.5329160406
O -1.9716187660 2.1359965170 -1.3095685428
C -2.5834405075 -0.0744068618 -0.5784357030
C -3.7785249129 -0.1857884329 -1.5218813663
C -2.5065698599 -0.9718565158 -1.8026995339
C -1.6982331204 -0.5417783069 -3.0050633161
C -2.4632936136 -2.4607373271 -1.5425651513
C -4.9942778864 -0.8311590029 -1.0457940392
C -6.2376006109 -0.5445017194 -1.4391385035
C -7.4563582033 -1.2492525399 -0.9256288491
F -7.1444780235 -2.1759503267 0.0028714334
F -8.3394466721 -0.3904614099 -0.3563728248
F -8.1296250126 -1.8864997254 -1.9181023747
Cl -6.6208244049 0.6858654418 -2.6237821555
H 2.8238643570 0.0440136962 -0.6097589633
H 1.1180561359 0.4920302372 -0.7310212600
H 2.3714687691 1.6711153842 -1.1204944393
H 0.1453966438 2.9743766966 3.2224410623
H 2.0170414386 2.3791305401 4.7494531861
H 3.9639913690 1.1328688267 3.8594091490
H 4.8539449548 1.6784111396 -0.1843260740
H 6.9177167437 0.5237601585 -0.8978761850
H 7.6656877291 -1.5338319167 0.2757814777
H 6.3321088089 -2.4188782870 2.1753483918
H 4.2662076905 -1.2600911980 2.8868504494
H 0.1969173419 2.7036483630 -0.3689701220
H -0.7266286876 3.1897666381 1.0719979092
H -2.6482582839 -0.5962564058 0.3708101462
H -3.9112320222 0.6800148475 -2.1627268151
H -1.7748084489 0.5304399997 -3.1923571739
H -0.6429224331 -0.7977144947 -2.8568677537
H -2.0548186943 -1.0763739137 -3.8916518131
H -1.4205797461 -2.7836512441 -1.4567949523
H -2.9174733948 -3.0008016378 -2.3805135799
H -2.9801074374 -2.7447015861 -0.6238792803
H -4.8971951337 -1.6186334822 -0.3041068123
