37
CONF1
C 3.7351055425 -2.6648026422 1.7295535203
C 3.9550961568 -1.2514764882 1.2349206087
C 3.9112068509 -0.2111893985 2.3380633764
O 2.8493804359 -0.9849717875 0.2930786038
C 3.0545635313 -0.0549804691 -0.6490030858
O 4.1051688502 0.5263631061 -0.8360336743
C 1.8024590489 0.2039313438 -1.4186565669
C 1.7888103927 0.4847560889 -2.7912737912
C 0.6042197895 0.7856184626 -3.4498841594
C -0.5679787898 0.8237894479 -2.7167420145
C -0.6196751228 0.5488240116 -1.3499369923
C 0.5876460240 0.2282373130 -0.7299659654
C -1.8714809043 0.5963371517 -0.5922820020
N -2.9729301302 -0.0384546758 -1.0206610593
N -3.9215249800 0.1990607312 -0.1137795714
C -3.4683818407 0.9704516521 0.9117733665
C -2.1379761770 1.2497887708 0.6283326465
Br -0.9449794733 2.3525697577 1.5750803384
C -4.3580640758 1.3788625570 2.0348544165
F -3.6774453499 1.9987440281 3.0119388633
F -4.9855809213 0.3111180444 2.5898725456
F -5.3366483652 2.2265991354 1.6213567101
C -5.2374713642 -0.4181246957 -0.2677607726
F -1.6971376524 1.1573250853 -3.3664179512
Cl 3.2394157321 0.4031072039 -3.7624470000
H 2.7793653535 -2.7435796273 2.2570519532
H 3.7448581654 -3.3759918969 0.8993493092
H 4.5370124484 -2.9305751654 2.4240986563
H 4.8879201233 -1.1773595499 0.6684759634
H 4.7238632485 -0.4003272709 3.0457056635
H 2.9600129683 -0.2714700319 2.8763567098
H 4.0327036769 0.7976659284 1.9352354312
H 0.5840391297 0.9935478006 -4.5130346928
H 0.5880478988 -0.0067829305 0.3276472787
H -6.0164988248 0.2980587660 -0.0011790264
H -5.3151455297 -1.3058916059 0.3654434322
H -5.3419762947 -0.6987785426 -1.3154360766
