47
CONF20
C 3.2388405393 -4.1569929934 -1.7739276532
C 3.5921586852 -2.8093048785 -1.2848207300
C 2.8670983002 -1.6739716450 -1.0190688796
C 3.8442263452 -0.7298759453 -0.5634963776
N 5.0507243716 -1.2554455003 -0.5631789777
O 4.8866630165 -2.5814969882 -1.0078185304
C 3.6805997435 0.6757844494 -0.1609285634
C 4.3055601848 1.1477328181 0.9990103576
C 4.1684431102 2.4811958716 1.3699704310
C 3.4097352578 3.3506529194 0.5894087923
C 2.7893250913 2.8851255508 -0.5684461305
C 2.9222699478 1.5536198765 -0.9452334933
C 1.4012303780 -1.5872156766 -1.1464283884
O 0.7787487105 -2.2887355951 -1.9456940362
N 0.7850100547 -0.7019051480 -0.3083320895
C -0.6141080650 -0.4379278665 -0.3752899801
C -1.5294213002 -0.7318372844 0.8633851353
N -1.8605338921 0.7001692054 0.8984762694
C -1.0880330209 1.0252131577 -0.2107554977
O -0.9103695381 2.0694507917 -0.7923178690
C -3.2279846204 1.0771228051 1.1789844352
C -4.1281192672 -0.0253723399 0.5046328365
S -3.1343160393 -1.6120329400 0.6633412062
C -5.4759369524 -0.2180693629 1.1909780543
C -4.3225401384 0.3271583417 -0.9704321702
C -3.5070564585 1.2421156198 2.6647647862
O -4.3223568031 2.0232364572 3.1022333529
O -2.7732622998 0.4128833906 3.4238709914
H 3.9815803190 -4.8854262948 -1.4422827054
H 3.2064458808 -4.1615586224 -2.8689433607
H 2.2477326112 -4.4375929474 -1.4140210170
H 4.8855855622 0.4634251293 1.6091871752
H 4.6511611680 2.8403352719 2.2732554584
H 3.3009917997 4.3899149307 0.8828574990
H 2.2023152895 3.5604664046 -1.1823298935
H 2.4478492994 1.1948747949 -1.8533924124
H 1.3392952724 -0.1939919064 0.3665049422
H -1.0245189350 -0.8766184573 -1.2897415728
H -1.0054879853 -1.1053363247 1.7466527938
H -3.4421438543 2.0423466510 0.7099570367
H -6.0476599322 0.7142345408 1.1398156911
H -5.3672754126 -0.5094589587 2.2388376636
H -6.0466354008 -0.9948748854 0.6746957818
H -4.8460116150 -0.4852344306 -1.4807295011
H -4.9245554638 1.2393206924 -1.0535835059
H -3.3699823415 0.4901276920 -1.4823420491
H -3.0152823067 0.5537698352 4.3561398577
