55
CONF33
C 3.6271086589 -4.3729030165 -2.2305680446
O 4.2979767423 -3.2923744078 -1.5664548649
C 3.5268568916 -2.3670422561 -0.9312224109
C 2.1300141756 -2.4021762917 -0.8778785489
C 1.4419380453 -1.4027030469 -0.1943384765
C 2.1198250867 -0.3597513258 0.4389681862
C 3.5187001727 -0.3451970356 0.3828598358
C 4.2193032360 -1.3308436812 -0.2939589765
C 1.4078679808 0.7563731916 1.1586038702
S 0.1672580687 0.0153178912 2.3361550269
C -1.0636678428 1.2933185638 2.5080452442
C -1.3032586697 1.8230335044 3.7798904681
C -2.3210816272 2.7467266255 3.9842563293
C -3.0871770589 3.1790461839 2.9047611430
C -2.8450498776 2.6760999353 1.6325724562
C -1.8490857471 1.7194863222 1.4203515940
N -1.6685615141 1.1971272256 0.1063937992
C -2.8413420657 0.6036237064 -0.5629972172
C -3.1859055025 -0.7732120730 0.0004217309
N -2.1667438465 -1.7840207615 -0.2789274621
C -2.3235331490 -2.9359145889 0.6088343601
C -2.2049510324 -2.2190151983 -1.6752839789
C -0.4667335346 1.2029658434 -0.5403081436
O -0.3121257526 0.7946104291 -1.6880672203
C 0.7107330301 1.7837928426 0.2508021175
O 1.7263886412 2.2432733523 -0.6563790419
C 1.3948135054 3.3264665318 -1.4041997420
C 2.4881605384 3.6743663838 -2.3633864695
O 0.3318117114 3.9014044346 -1.2954961400
H 3.0478400045 -4.9719447253 -1.5184555243
H 4.4160600912 -4.9848015825 -2.6683714449
H 2.9680319992 -3.9985112267 -3.0223246545
H 1.5687127161 -3.1960142441 -1.3555971503
H 0.3559279610 -1.4471413092 -0.1592274505
H 4.0664560906 0.4537607888 0.8750611205
H 5.3037731300 -1.3167309409 -0.3345077460
H 2.1392877583 1.3142573514 1.7519614105
H -0.6853513633 1.4961985059 4.6096065153
H -2.5016427540 3.1395200186 4.9793895881
H -3.8662273976 3.9207525535 3.0470722849
H -3.4280325407 3.0346748081 0.7910954776
H -2.6219051755 0.5610188751 -1.6303189328
H -3.7007874690 1.2644328295 -0.4241229006
H -3.2951357160 -0.6840378595 1.0889391609
H -4.1777155681 -1.0645427642 -0.3997368227
H -1.5270434478 -3.6614381412 0.4102487731
H -3.2953305590 -3.4496870351 0.4759138431
H -2.2441807261 -2.6146756736 1.6529143961
H -1.4019340531 -2.9425199163 -1.8531633424
H -3.1679801848 -2.6971684189 -1.9396626388
H -2.0441092598 -1.3701458534 -2.3454145286
H 0.3746643016 2.6301907727 0.8566940966
H 2.3707496568 4.7049455699 -2.6972389247
H 3.4707998814 3.5190411585 -1.9141888316
H 2.4055315606 3.0086884605 -3.2300156102
