39
CONF88
C 7.1023445861 2.5615735482 2.1558794340
C 6.5846762612 1.2204055126 1.6411979357
C 6.7252922438 1.0907278359 0.1240589466
C 6.2750636177 -0.2661457125 -0.4293297305
C 4.7636215365 -0.5339883800 -0.3438163793
C 4.4270586751 -2.0257429362 -0.4873228973
C 4.7270911100 -2.8376368606 0.7703210130
C 4.0488240870 0.2817346233 -1.4146141102
O 2.6142740542 0.3564679628 -1.1507407807
C 2.2417182798 1.3030595591 -0.2783704061
O 2.9705679714 2.1245493696 0.2280890458
C 0.7567817540 1.2936913261 -0.0608493835
C 0.0717712712 2.4415254109 -0.4394111457
C -1.3035718495 2.5228380756 -0.2883873772
C -2.0213338447 1.4570225581 0.2649938332
C -1.3273485453 0.3086171760 0.6846227875
C 0.0616580377 0.2325065198 0.5180958691
Br 1.0401012244 -1.2622952769 1.1612119249
Br -2.2675687529 -1.1314964699 1.4729867010
Br -3.8968589294 1.5764111008 0.4591250216
Br -2.1508913352 4.1215676327 -0.8601563106
H 6.5449336930 3.3899936867 1.7060398718
H 6.9986117419 2.6404460525 3.2421041473
H 8.1609497109 2.6971289777 1.9084140548
H 7.1304841574 0.3989368155 2.1251255781
H 5.5326987131 1.1103760821 1.9292611932
H 6.1656982175 1.9057831380 -0.3532843064
H 7.7779150874 1.2462762639 -0.1470193393
H 6.8080661088 -1.0573609067 0.1117301709
H 6.5845216143 -0.3612678592 -1.4805595414
H 4.3945118430 -0.1897526786 0.6308746832
H 4.9854532561 -2.4331804996 -1.3421403308
H 3.3631325531 -2.1273168757 -0.7310043360
H 4.4711864869 -3.8919632803 0.6295895342
H 5.7845768003 -2.7895433665 1.0480623651
H 4.1462080309 -2.4611140503 1.6199750688
H 4.1170527787 -0.2063953520 -2.3914370157
H 4.4381906244 1.3001564984 -1.4819584101
H 0.6231852717 3.2751988247 -0.8568384039
