39
CONF108
C 4.1800059244 0.3397209059 -1.5368979691
C 3.1891591420 -0.8145467476 -1.6972317046
C 1.7200359611 -0.3797475517 -1.6608928196
C 1.2674173185 0.1548323925 -0.3102653521
C 1.0690385556 -0.9215393596 0.7618421345
O -0.3233519613 -1.2580079711 0.6265257706
C -0.9638444143 -0.0260707726 0.3618184812
C -2.2574530173 -0.2721096409 -0.4303983375
N -2.0083769811 -0.9924522668 -1.6638331648
C -1.8137982796 -2.3156869578 -1.8331212955
N -1.5507613583 -2.5824149866 -3.1067998131
C -1.5914267504 -1.3477979781 -3.6844936089
N -1.8642742157 -0.3523120027 -2.8516330301
O -0.0710758726 0.7113242321 -0.4534256958
C -1.2677915529 0.7438532349 1.6566993531
C -1.9294713815 0.1918111405 2.7598809303
Cl -2.4958896589 -1.4751031378 2.7769065093
C -2.1795774422 0.9247521841 3.9158885342
C -1.7618663557 2.2472753549 3.9633577477
Cl -2.0734314116 3.1786866706 5.4175957590
C -1.1097041170 2.8432066934 2.8939389734
C -0.8753837670 2.0810303185 1.7567845930
H 3.9946874007 1.1170592871 -2.2866352804
H 4.1110816280 0.8052136428 -0.5487809012
H 5.2088099690 -0.0114886733 -1.6629919203
H 3.3745190549 -1.5718892451 -0.9245244539
H 3.3694482783 -1.3124307518 -2.6567871721
H 1.0694624391 -1.2236482325 -1.9269924270
H 1.5545813868 0.4041109357 -2.4106749957
H 1.9241616647 0.9544708631 0.0481917456
H 1.2697472357 -0.5361440156 1.7700362659
H 1.6500425888 -1.8282206298 0.5859644794
H -2.9623969010 -0.8428402538 0.1771065190
H -2.7032128840 0.6931874714 -0.6787051082
H -1.8831592683 -3.0256576975 -1.0199910630
H -1.4247581438 -1.1762158363 -4.7405919389
H -2.6885053691 0.4696878561 4.7566705635
H -0.7889031317 3.8769948448 2.9430109518
H -0.3637841426 2.5291074743 0.9134486238
