74
CONF161
C -0.4813259370 -0.4672570786 0.8959960123
C 0.3460117314 -1.3478914515 1.8204282790
O -0.3626339837 -1.2549513811 3.1066977021
C -1.1049118277 -0.1182688087 3.1567394408
O -1.7100755170 0.1940117070 4.1564052173
C -0.9590319251 0.6177940462 1.8477398977
C -2.1400147228 1.4024443689 1.2692320881
C -3.4426761303 0.6103565572 1.2442885321
C -4.2894180105 0.6612088916 2.3534711784
C -5.4695375987 -0.0846137030 2.3774261264
O -6.3587393840 -0.1055030532 3.4124476439
C -6.0316987993 0.6761725796 4.5688366512
C -5.8114692752 -0.8845567768 1.2808986669
O -6.9721144467 -1.6055404265 1.3174428590
C -4.9656494761 -0.9181152946 0.1669209816
O -5.4128980983 -1.7242701977 -0.8442018183
C -4.6003145819 -1.8159191871 -2.0223085042
C -3.7889228683 -0.1732576724 0.1412818777
C -1.7406467512 1.8731451710 -0.1240027797
C -2.4976126905 2.9279240796 -0.6771553955
C -2.2021900317 3.3312704607 -1.9548467858
C -1.1956558424 2.7248825738 -2.7003270003
O -1.1172011621 3.3018482113 -3.9400999117
C -2.1069876698 4.3544305784 -3.9578225137
O -2.8009542105 4.3174836317 -2.6896094395
C -0.4474739078 1.6947068789 -2.1921911008
C -0.7262433172 1.2626551826 -0.8751535134
C 0.1614954279 0.1622457075 -0.3227722308
O 1.4423394496 0.7555966492 0.0456463846
C 2.5407006404 0.2383618015 -0.6284239906
O 2.8078958397 -1.0759034237 -0.1132914072
C 3.9212002492 -1.6628808282 -0.7828317766
C 4.1087027273 -3.0945417360 -0.3105573569
O 5.2944226171 -3.6161536664 -0.9279474615
C 6.4432762765 -2.8397434212 -0.6057813536
C 7.6384634638 -3.4619025919 -1.2758123336
O 6.3061764174 -1.5010924026 -1.0852160627
C 5.1875768014 -0.8686334288 -0.4594068487
C 5.0217444459 0.5505624173 -0.9647599106
O 6.1364673473 1.3985814632 -0.6855450962
C 3.7383410119 1.1495266375 -0.3691960638
O 3.4584992434 2.4159796507 -0.9552914171
H -1.3520838662 -1.0401234487 0.5522413922
H 0.3730642840 -2.4022034980 1.5432688071
H 1.3585512009 -0.9653030934 1.9671335244
H -0.1307356547 1.3266959203 2.0146318839
H -2.3067280676 2.2867172660 1.8947657163
H -4.0138966290 1.2775724435 3.1989988806
H -5.9703579912 1.7419990456 4.3195045472
H -6.8456364223 0.5111060900 5.2753434563
H -5.0848303459 0.3452494185 5.0116965370
H -7.0430800154 -2.0890005372 0.4805814324
H -5.1189223134 -2.5076183112 -2.6862834836
H -4.5052182463 -0.8373297300 -2.5066669669
H -3.6061479580 -2.2083696821 -1.7795135350
H -3.1537146206 -0.1821328620 -0.7357311712
H -3.2940005126 3.3942426837 -0.1060114692
H -1.6049193145 5.3219266922 -4.0667257208
H -2.8216384702 4.1658621549 -4.7650982260
H 0.3318081978 1.2214056218 -2.7804404342
H 0.3402866805 -0.5922560972 -1.0979886947
H 2.3510317201 0.1613443271 -1.7149366987
H 3.7621073786 -1.6567966838 -1.8738409979
H 3.2776246347 -3.7336444079 -0.6186544063
H 4.2013381619 -3.1176356550 0.7869082687
H 6.5477646608 -2.8045481263 0.4940049962
H 8.5351342834 -2.8837232419 -1.0420268925
H 7.4911075937 -3.4766605116 -2.3593972360
H 7.7724897523 -4.4846373635 -0.9165834332
H 5.3304896845 -0.8609905122 0.6366352051
H 4.9323975357 0.5353639837 -2.0587794577
H 6.2860913289 1.3926297957 0.2711770547
H 3.8598104955 1.2398079724 0.7240625914
H 4.2838965799 2.9208587210 -0.9321501504
