47
CONF71
C -6.2183170792 1.0350907565 1.0238555879
O -5.4732808399 0.1109374461 0.1983572200
P -5.4365358474 -1.4503054521 0.6043779321
S -7.1103103158 -2.2938134326 1.0386078172
O -4.5838541712 -2.0376586935 -0.6230944507
C -5.2500706536 -2.3148373221 -1.8773443713
O -4.3590127912 -1.5511882519 1.8110939447
C -3.2774287217 -0.6929344681 1.9969814763
C -2.4505245683 -0.2801414589 0.9561632737
C -1.3759292567 0.5533151576 1.2358609956
C -1.1041710468 0.9431644606 2.5495060642
C -1.9311783113 0.5033416310 3.5845385413
C -3.0284399516 -0.3029132446 3.3067444816
S 0.2300398025 2.0618820438 2.9491247352
C 1.5655604590 1.4514681055 1.9315853619
C 2.3981850727 2.3823365290 1.3079289015
C 3.4905638515 1.9545161510 0.5607562142
C 3.7223405147 0.5940397471 0.4255086867
C 2.9002747432 -0.3462420922 1.0333392651
C 1.8286938513 0.0849192588 1.8014129478
O 4.8336983521 0.1521343877 -0.2966890600
P 4.7600111979 0.0016023856 -1.9115670883
S 3.1858926013 -0.8481777120 -2.6387573143
O 6.1777890381 -0.6948055826 -2.1934277365
C 6.3082395676 -2.1277769837 -2.0581000555
O 5.0671654602 1.5120224880 -2.3570616548
C 4.9194169392 1.8895547359 -3.7452328957
H -6.1869204655 1.9926002332 0.5030944026
H -5.7437114011 1.1320434521 2.0062268706
H -7.2516587511 0.6941360943 1.1372215125
H -4.5032443852 -2.7959171473 -2.5094907986
H -6.0983729468 -2.9851784921 -1.7123023721
H -5.5896541469 -1.3829540376 -2.3398814205
H -2.6504120120 -0.5963757513 -0.0600983733
H -0.7366129213 0.8908349583 0.4270663566
H -1.7145377477 0.7875565855 4.6088938600
H -3.6813092878 -0.6552915238 4.0976866363
H 2.1878845953 3.4426123614 1.4010614222
H 4.1480117204 2.6627899330 0.0697272289
H 3.1086091053 -1.4020489694 0.9035257252
H 1.1873557886 -0.6398592012 2.2909474587
H 6.1827794082 -2.4215533092 -1.0111006770
H 5.5684907938 -2.6370582747 -2.6827400906
H 7.3183789903 -2.3668470694 -2.3919153240
H 5.6731857962 1.3838535271 -4.3565557618
H 3.9160891849 1.6390338523 -4.1014134457
H 5.0768296694 2.9680923957 -3.7773760333
