55
CONF48
C -7.6959615525 -1.8136840429 0.4970709340
C -6.3314967536 -1.4429608798 1.0255919619
O -5.4903257486 -1.1554693694 -0.1309106457
C -4.2157178588 -0.8053830778 0.1514337471
O -3.7550694587 -0.7128634111 1.2771945616
N -3.5400366809 -0.5809992030 -1.0202461293
C -2.1844392093 -0.2580774473 -1.1590000465
C -1.4403878095 0.3325510542 -0.1345250914
C -0.0863545003 0.5875052091 -0.3313102894
C 0.5053050410 0.3840627968 -1.5804411809
C -0.2546840109 -0.1584355207 -2.6163513476
C -1.5776331537 -0.5073012909 -2.3988798820
S 2.2070207957 0.8356816756 -1.8314912897
C 2.2374816199 2.2770768101 -0.7842276682
C 3.0086802970 3.3884870354 -1.1256131975
C 3.0156375541 4.4998311073 -0.2896413864
C 2.2308678876 4.5180396928 0.8630654584
C 1.4511021827 3.4157595956 1.1959943661
C 1.4743664569 2.2841463392 0.3858204061
N 0.7192533950 1.1155739512 0.7224816507
C 1.0390697014 0.4286239071 1.8883591836
O 1.8781023204 0.8770157527 2.6641601911
C 0.3562424346 -0.8902453974 2.1823711634
C 1.3805411220 -2.0289795525 2.1646448478
N 1.9381006066 -2.2570304408 0.8270623043
C 3.1387493942 -3.1008960894 0.9192756880
C 3.7136897487 -3.3496778798 -0.4637692402
O 2.7582375320 -3.9985515345 -1.3116448818
C 1.5854677918 -3.1841056132 -1.4179928616
C 0.9667197615 -2.9215226323 -0.0559393401
H -8.1320548292 -0.9892933934 -0.0739477036
H -8.3560368306 -2.0369035771 1.3401335186
H -7.6406483441 -2.6992656790 -0.1421102573
H -5.8763265678 -2.2615258959 1.5915587706
H -6.3665534696 -0.5520874885 1.6601941100
H 2.2053592084 -1.7704885155 2.8378629700
H 0.1936271815 -0.3200130028 -3.5911941046
H -2.1563693623 -0.9529688736 -3.2020785108
H 3.5918063799 3.3814370048 -2.0409792782
H 3.6195681035 5.3621633385 -0.5524954324
H 2.2221692010 5.3942250750 1.5027991459
H 0.8373252895 3.4167771694 2.0898010291
H -0.0486489696 -0.8082092283 3.1967392521
H -0.4754964702 -1.1081583187 1.5163172705
H 0.9009718446 -2.9423332670 2.5636808650
H 3.8892844605 -2.5905282670 1.5347523990
H 2.9093411254 -4.0742450482 1.3965163786
H 4.0200791511 -2.3936745816 -0.9196167838
H 4.5820601355 -4.0116572287 -0.4021631795
H 1.8461056948 -2.2287298063 -1.9011899720
H 0.8807871717 -3.7249232088 -2.0562848174
H 0.6273064035 -3.8810954553 0.3821903708
H 0.0853936767 -2.2844680233 -0.1933555253
H -1.8953111166 0.5675761576 0.8172654860
H -4.0416455718 -0.8059019995 -1.8683699617
