65
CONF7
C 2.0522466534 2.8004271460 -1.1201229177
C 0.6404725574 2.2305819013 -1.3364619447
C 0.0571039569 2.7332053510 -2.6564338760
C -0.2179627190 2.5429518821 -0.1288325585
C -1.1336407283 3.5986606848 -0.0920621569
C -1.8754029775 3.8849019080 1.0521569865
C -1.7081428581 3.1228490185 2.2039760638
C -0.8005780232 2.0669438543 2.2043416731
C -0.0887380055 1.7959375103 1.0450809611
O 0.8332607777 0.7295935624 1.0342385947
P 0.3399123598 -0.7826611094 1.2495965664
O 0.0892467959 -1.2519599024 2.6259398668
O -0.9180488242 -0.8254271769 0.2476199276
C -2.0118399203 -1.6907623365 0.4008498998
C -1.8076756705 -3.0457819919 0.6226030945
C -2.9119271466 -3.8870932595 0.7219553489
C -4.1930512937 -3.3610778919 0.5897652569
C -4.3679868666 -1.9987113070 0.3590438927
C -3.2821077715 -1.1240662788 0.2597148826
C -3.4371699112 0.3514494959 -0.0444761819
C -3.2395293425 0.5921740444 -1.5498629498
C -4.7691833483 0.9368373262 0.4252224720
O 1.5308996966 -1.6071148525 0.5657106797
C 2.0163676187 -1.2934390899 -0.7230700232
C 1.2511926602 -1.6367882664 -1.8281069501
C 1.7378625259 -1.3508323772 -3.1003793241
C 2.9802813779 -0.7408197719 -3.2385494047
C 3.7377186918 -0.4311082395 -2.1114761683
C 3.2777696747 -0.6985203400 -0.8185591798
C 4.1025235568 -0.4251870871 0.4228073491
C 4.7091630259 -1.7397930682 0.9441943216
C 5.2027876404 0.6152688772 0.2115549515
H 2.5053074529 2.4001073785 -0.2086767203
H 2.6989143386 2.5429492595 -1.9652523989
H 2.0084955407 3.8921021326 -1.0346829832
H 0.7304537946 1.1396837578 -1.4021686325
H 0.6675743947 2.3612844089 -3.4852467519
H -0.9694495601 2.3838155053 -2.8036371022
H 0.0610054376 3.8271119782 -2.7094297269
H -1.2764446127 4.2052340646 -0.9798136934
H -2.5833870667 4.7074514139 1.0418922862
H -2.2782524838 3.3425354507 3.1005965035
H -0.6493694610 1.4530969522 3.0861693860
H -0.8003020436 -3.4389064804 0.7158448462
H -2.7644190200 -4.9472932474 0.8992273867
H -5.0593635400 -4.0103223530 0.6657547049
H -5.3735020602 -1.6042638174 0.2590777766
H -2.2643485061 0.2269478805 -1.8869369528
H -4.0181069996 0.0742548686 -2.1214620236
H -3.3004693291 1.6626042322 -1.7733091919
H -4.9472765869 0.7271429283 1.4848259068
H -4.7555153322 2.0227159352 0.2887176940
H -5.6127077250 0.5432728047 -0.1516992262
H 0.2883626339 -2.1160220857 -1.6907365584
H 1.1463150770 -1.6073857292 -3.9730263391
H 3.3674546298 -0.5103991376 -4.2259749194
H 4.7066896879 0.0380716327 -2.2409449322
H 3.4205224123 -0.0433444912 1.1918663780
H 5.3966236938 -2.1567978038 0.1999138898
H 3.9361744033 -2.4837155859 1.1543223697
H 5.2710502793 -1.5562751841 1.8658366397
H 5.9879605814 0.2381815296 -0.4523415262
H 4.8087078471 1.5436063955 -0.2127309922
H 5.6700001434 0.8491736975 1.1727666641
H -2.6359435262 0.8800226199 0.4826724958
