60
CONF1
C 5.9610368508 2.2033041022 2.0501923758
C 5.8051964027 0.7422709150 2.4634154209
N 4.9596719276 -0.0184216316 1.5416627948
C 5.6029362113 -0.6223991100 0.3793450057
C 6.0050675270 -2.0832217815 0.5954019289
C 3.6001643303 0.0046881891 1.7674282314
O 3.1005329911 0.6647133430 2.6744855978
N 2.8473974729 -0.7747063903 0.8966186371
C 1.4515223257 -0.9436543590 0.9095358855
C 0.5697951845 -0.0810265915 1.5554108187
C -0.8145197876 -0.2773960874 1.4900153224
C -1.3332439482 -1.3926428353 0.7929850968
C -0.4470642144 -2.2418825334 0.1270926127
C 0.9186634002 -2.0169453351 0.1883806742
O -2.6724937703 -1.5953374645 0.8760073821
C -3.3096252145 -2.6730550997 0.1766386861
C -3.7125236058 -2.3060427697 -1.2507455956
C -4.4637117718 -0.9592140091 -1.3273586054
N -3.4886587531 0.1324781161 -1.3244439891
C -3.9037659901 1.4119582981 -1.9465332179
C -5.2216267087 1.9399895550 -1.3563398345
C -4.0331278005 1.2389027031 -3.4628810486
C -2.7783010095 2.4082653094 -1.6485832759
O -2.6015284352 -2.2789706552 -2.1320816620
C -1.6999900432 0.7480055557 2.1098835032
O -2.8073743436 1.0104633395 1.6617743552
C -1.1681976182 1.5111825053 3.3052891151
H 6.3893720129 2.2908126046 1.0461814743
H 6.6222868646 2.7284082684 2.7468311552
H 4.9860814866 2.6969497144 2.0587002077
H 5.3613433411 0.6824083587 3.4600405367
H 6.7818571844 0.2440422849 2.5016491360
H 4.9596677825 -0.5166513145 -0.5034690232
H 6.4978328627 -0.0303201301 0.1542313126
H 6.6876885219 -2.1699355665 1.4456767203
H 6.5096483244 -2.4790711466 -0.2917490210
H 5.1373819684 -2.7165706431 0.8074876108
H 3.3373938129 -1.4321822208 0.3141674637
H 0.9712958500 0.7595727116 2.1002007403
H -0.8168756870 -3.0621530702 -0.4718596900
H -2.6899116068 -3.5778083721 0.1852982475
H -4.2144129551 -2.8731400185 0.7617571810
H -4.3877881185 -3.1079267079 -1.5875945146
H -5.0126916347 -0.9455547008 -2.2742288000
H -5.2036589773 -0.8997525607 -0.5121897571
H -3.2247409006 0.3252306792 -0.3591889016
H -5.4707276927 2.9191636604 -1.7791448991
H -5.1347279881 2.0457574306 -0.2695034213
H -6.0548494501 1.2630522496 -1.5729354827
H -4.8427952984 0.5551690875 -3.7352621980
H -3.1000757548 0.8516764337 -3.8840916201
H -4.2524091296 2.2041357723 -3.9299470326
H -2.9945631482 3.3785514568 -2.1059490772
H -1.8276553483 2.0370108831 -2.0443965889
H -2.6697379084 2.5542680074 -0.5685907434
H -2.3534928052 -1.3306207255 -2.1455136709
H -0.4749408712 2.2908595173 2.9686773317
H -0.6202807104 0.8658786332 3.9966192448
H -2.0068565008 1.9946843670 3.8071983270
H 1.5825671104 -2.6930062588 -0.3458116760
