47
CONF102
C -3.6042495187 1.7734876179 1.0444238878
C -2.1209350906 1.5386863500 1.2192562912
C -1.2489557725 2.6151373306 1.8225419279
C -1.2061744403 2.3669251860 0.3135813714
C 0.0126045850 1.7806554248 -0.2612174231
O 0.8985719618 1.2011925162 0.3305909645
O 0.0187832933 1.9608256729 -1.6196020351
C 1.1285151021 1.3238813419 -2.3161160797
C 1.3411442676 2.1178893405 -3.5240776249
N 1.5283430813 2.7237201660 -4.4887851964
C 0.8064903873 -0.1204521821 -2.6247826721
C -0.1302984411 -0.4450131041 -3.6077014728
C -0.4528869697 -1.7796562413 -3.8274252210
C 0.1357335029 -2.7852863247 -3.0657295950
C 1.0629633669 -2.4436203747 -2.0860452932
C 1.4175849316 -1.1149395873 -1.8668112622
O 1.6586523901 -3.4772641498 -1.3930751740
C 1.9503869335 -3.2957516280 -0.0477341180
C 1.0502633051 -2.6776446456 0.8176429971
C 1.3716938292 -2.5827044331 2.1683225063
C 2.5695061080 -3.1082997343 2.6508123061
C 3.4511283623 -3.7341947385 1.7719518772
C 3.1485295311 -3.8276451017 0.4156248180
C -1.7898253792 3.8878918961 2.3043763725
C -1.3889623452 4.5263359819 3.4040903295
Cl -2.0913136763 6.0425565112 3.9086319085
Cl -0.1382350038 3.9476885836 4.4709623290
C -1.7668610349 0.1045878976 1.5383843118
H -4.1249980248 1.5724924553 1.9871175494
H -3.9968088559 1.0876783373 0.2867499665
H -3.8365977731 2.7928619311 0.7305726320
H -0.3782259680 2.2349566108 2.3477189127
H -1.7157605291 3.0822475487 -0.3230319302
H 2.0309355232 1.3906677226 -1.6978803246
H -0.6028747983 0.3368106096 -4.1943089214
H -1.1763355989 -2.0427688591 -4.5920463743
H -0.1159665069 -3.8291262436 -3.2205206041
H 2.1469098452 -0.8566634507 -1.1074651989
H 0.1150639867 -2.2774902545 0.4402684687
H 0.6739181303 -2.1016653565 2.8469611284
H 2.8122555568 -3.0326208727 3.7055736538
H 4.3852969420 -4.1478583733 2.1388378143
H 3.8267651156 -4.3061766440 -0.2831330924
H -2.5783996071 4.3651226838 1.7306290189
H -2.3082164442 -0.2064058071 2.4381027106
H -0.6986017350 -0.0283890901 1.7152313233
H -2.0705558954 -0.5526622127 0.7155780261
