42
CONF122
C 3.0821507412 2.6530813323 -0.9589825017
C 2.5219382238 1.2742201799 -0.6033379461
C 3.6257497017 0.3292752077 -0.1308428454
C 1.4410588962 1.4449285410 0.4561288239
O 0.7796195817 0.1810338980 0.7130378724
C 1.0123869624 -0.4209837567 1.9008608632
O 1.7947493992 -0.0312094841 2.7373790021
C 0.2326411264 -1.6857977836 2.0167314350
C 0.8373657446 -2.7480382248 2.6873880697
C 0.2064339534 -3.9833768513 2.7641492486
C -1.0361915336 -4.1652575780 2.1653703900
C -1.6522301993 -3.1082352494 1.5039858698
C -1.0318281165 -1.8616356945 1.4367618178
C -1.7950840033 -0.7033433918 0.8816878259
O -2.0212159245 0.3123296125 1.4981702846
O -2.2485301288 -0.9701918809 -0.3604281413
C -3.0124617564 0.0923320017 -0.9938662873
C -2.1207835755 1.2119868516 -1.5191067019
C -3.0027499248 2.2509067565 -2.2142404769
C -1.0399338995 0.6763859776 -2.4566103199
H 3.8359706152 2.5714216914 -1.7473584366
H 3.5602645085 3.1139975638 -0.0870217271
H 2.2964942560 3.3295503458 -1.3121588259
H 2.0469375714 0.8464220449 -1.4968649184
H 3.2283527256 -0.6615160348 0.1079372377
H 4.3871935130 0.2077380612 -0.9076003771
H 4.1111946183 0.7222350133 0.7690641983
H 0.6512802531 2.1176751376 0.1053019985
H 1.8614765093 1.8268663988 1.3916575247
H 1.8130459350 -2.5881901198 3.1334707859
H 0.6871322005 -4.8047986274 3.2848944629
H -1.5317274575 -5.1291690910 2.2183631006
H -2.6304679448 -3.2379871115 1.0536864349
H -3.7433793030 0.4797482784 -0.2766615991
H -3.5316385281 -0.4076351475 -1.8179403855
H -1.6428454204 1.6818871675 -0.6517128603
H -2.3979707894 3.0854219138 -2.5810529515
H -3.7593616793 2.6570746071 -1.5350788255
H -3.5184381955 1.8108020225 -3.0762228275
H -1.4884701945 0.2090480115 -3.3416950145
H -0.4154495463 -0.0694092816 -1.9575418836
H -0.3926785025 1.4904074914 -2.7997014835
