44
CONF8
C 5.3133099827 -1.6816258469 0.8365081309
C 3.9296626843 -1.3037969486 0.3146083215
C 3.7758907625 0.2268499903 -0.0231662697
N 2.3797184628 0.5379613649 0.1540010630
C 1.6707503108 -0.1234162766 1.2541410038
S 2.6716228143 -1.6164676972 1.6668814993
C 0.4229742556 -0.2537534427 0.3096983308
C 1.3399726947 0.3762797953 -0.7673839106
O 1.2584229397 0.6429146923 -1.9371498215
N -0.7768268416 0.4506700876 0.6228691915
C -1.9142488230 -0.1953300131 1.0114885767
O -1.9863625719 -1.3995084027 1.1938040152
C -3.1494482384 0.7151443076 1.1523833529
C -3.9542793143 0.5908265441 -0.1247511717
C -4.9768525805 -0.3520510936 -0.2155626920
C -5.6937518404 -0.5175681672 -1.3944038133
C -5.3892694858 0.2684441596 -2.5050878634
C -4.3655055772 1.2117824505 -2.4317498531
C -3.6529708522 1.3622733315 -1.2510471025
O -6.0595113883 0.1605228605 -3.6917556116
N -2.7585009800 2.1126771271 1.3913195237
C 4.6213006618 1.1098409966 0.8792142943
O 4.2764127175 1.5463198596 1.9476054739
O 5.8408898373 1.3369695778 0.3299596516
C 3.5835858037 -2.1217202594 -0.9313977541
H 6.0721383815 -1.4648566719 0.0774724097
H 5.3494371179 -2.7527703038 1.0539400113
H 5.5625690278 -1.1416196343 1.7535407452
H 4.0580686988 0.3969311022 -1.0675201106
H 1.5316775133 0.4897334814 2.1478161205
H 0.1854813910 -1.3010938290 0.0972171436
H -0.8381742307 1.4548812590 0.5118646211
H -3.7351739393 0.2704467293 1.9698380384
H -5.2095063145 -0.9741037764 0.6432706903
H -6.4893441037 -1.2567446718 -1.4482999170
H -4.1346037024 1.8091217512 -3.3067868242
H -2.8483997842 2.0891643404 -1.2071803174
H -6.7251960688 -0.5323152612 -3.6161143773
H -2.4709263942 2.2332819529 2.3564795523
H -3.5591825068 2.7161552524 1.2395690794
H 6.3398310009 1.8745180183 0.9663041306
H 3.5420547387 -3.1849069638 -0.6819846026
H 2.6141919714 -1.8362181509 -1.3475354538
H 4.3480732934 -1.9738439335 -1.7039737349
