51
CONF29
C 1.4530088521 3.7304795954 0.0747272690
C 1.7672651216 3.2455504269 -1.3295032823
C 1.3260517336 4.2154373447 -2.4072218551
O 1.0184729141 2.0152557414 -1.5923171633
C 1.4786614518 0.8636967306 -1.0802734600
N 2.6475936501 0.8408154231 -0.4500422143
C 2.9958082123 -0.3578631951 0.0401201834
C 2.2277272414 -1.4909077280 -0.0602708532
C 1.0073981301 -1.3217518661 -0.7480039970
N 0.6472839505 -0.1664045449 -1.2825090657
O 0.2192476200 -2.3954517412 -0.8177226301
C -1.1343798869 -2.2740675105 -1.3624770526
C -2.1214237067 -2.7204413107 -0.3239210299
C -2.8566877297 -3.8866755189 -0.5330910290
C -3.7580127169 -4.3455689668 0.4207823640
C -3.9152719327 -3.6429363386 1.6099643587
C -3.1843766589 -2.4811082783 1.8306938172
C -2.2975618394 -1.9976548375 0.8690029067
C -1.5324496580 -0.7544413170 1.1308430012
C -1.7201663213 0.3776196638 0.4206582770
O -2.6431486144 0.4592732568 -0.5476565756
C -2.6003607511 1.6743692807 -1.3198339624
C -0.5026123878 -0.7981495947 2.1782880652
O -0.3183534414 -1.7360436467 2.9255190143
O 0.2702086371 0.3299801137 2.2090592795
C 1.3188548446 0.3058953326 3.1955400662
C 4.3422699272 -0.3764661955 0.7359447998
F 5.3425138887 -0.1590309258 -0.1447462363
F 4.5775953267 -1.5628020031 1.3358931690
F 4.4230185448 0.5813028886 1.6841421519
H 1.7501923998 2.9877249841 0.8185485773
H 0.3808662499 3.9307251429 0.1746522267
H 1.9974712250 4.6574749390 0.2784159388
H 2.8334636192 3.0183934811 -1.4233571861
H 1.5456976276 3.8192958827 -3.4017646379
H 0.2506971260 4.4071664527 -2.3357434396
H 1.8542925630 5.1652066434 -2.2858057072
H 2.5031385154 -2.4431160467 0.3697259889
H -1.3002968928 -1.2461040082 -1.6855029406
H -1.1654913758 -2.9365647431 -2.2317090949
H -2.7110684743 -4.4469933258 -1.4525751621
H -4.3219586406 -5.2552091507 0.2422007419
H -4.6038547053 -3.9998623256 2.3689656873
H -3.2961861621 -1.9336556648 2.7605481016
H -1.1260914358 1.2695755557 0.6065035153
H -2.7705463394 2.5426082426 -0.6723401646
H -1.6345573460 1.7634039588 -1.8279244885
H -3.4077956119 1.5978074378 -2.0482107090
H 1.8753821554 1.2326125949 3.0535125937
H 0.8976771322 0.2556497531 4.2034560183
H 1.9707950541 -0.5580499825 3.0395633506
