85
CONF231
C 3.8903916384 0.8591993845 -4.3284041095
C 4.8602032037 1.4470196827 -3.3055131998
C 4.5482058859 1.0218303174 -1.8784582229
C 5.5052951455 1.5929022096 -0.8267405929
C 4.9830073229 1.2332366324 0.5685831325
C 3.5386253032 1.6877207790 0.7421487406
C 2.6580325430 1.1199825264 -0.3791248481
O 3.1955109678 1.4705758192 -1.6292390318
C 1.2336378548 1.6862866552 -0.3744104945
C 0.4176117586 1.1194863898 0.7734480929
C 0.4517061719 -0.3938343408 0.7262303348
C 1.8943194302 -0.8745784889 0.7571728962
O 2.6295872627 -0.3182312628 -0.3382192087
C 1.9831174299 -2.3983735803 0.6565893112
C 1.4515339598 -3.0282658620 1.9076331262
C 0.5270692366 -3.9856797106 2.0515752487
C -0.1599146976 -4.7138373107 0.9265253069
C -1.6609673616 -4.3535210656 0.7352798634
C -1.8311086702 -3.1534063288 -0.1394602492
C -2.4915419084 -2.0233905594 0.1625206395
C -2.6494851082 -0.9725007524 -0.8179244859
C -3.2397093687 0.2281078795 -0.7115048582
C -3.3524807849 1.2019409113 -1.8400902162
O -4.6708016308 1.7725138196 -1.7185443176
C -5.1519268191 1.5574042732 -0.3876230112
C -4.0283952738 0.8404029571 0.4186409851
C -3.1983739828 1.8889869399 1.2747865345
C -3.2168918200 3.2799165769 0.7022510140
C -4.3483087196 3.8063965519 0.2326130555
C -5.5605049692 2.9119209130 0.1828733209
O -6.0861899304 2.7390409987 1.5200489302
C -4.4780521965 5.1967226350 -0.2962896345
C -1.8095746658 1.3836458619 1.5996749561
O -1.5161438911 0.8390166659 2.6399115590
O -0.9410453670 1.6275861109 0.5938394251
O -4.5482747149 -0.1622957344 1.2754864363
C -2.4049015781 -5.5433276110 0.1052458063
C 0.1366438979 -4.4574472129 3.4275481515
C 6.9359950583 1.0895454400 -1.0139719578
H 3.8894642579 -0.2350391858 -4.2779254535
H 2.8707364431 1.2021201144 -4.1407322735
H 4.1720791071 1.1503536074 -5.3447447295
H 5.8801691176 1.1260625640 -3.5426354191
H 4.8470306904 2.5437900791 -3.3550710729
H 4.5668379251 -0.0780447890 -1.8139163248
H 5.4891564320 2.6889800516 -0.9291055152
H 5.0470306558 0.1450324946 0.7048419448
H 5.6184236120 1.6924252914 1.3352237570
H 3.4792566223 2.7810454704 0.6775149089
H 3.1526337254 1.4050876167 1.7266632045
H 0.7653082804 1.3954293570 -1.3209007514
H 1.2765682720 2.7788606762 -0.3339280926
H 0.7733205237 1.4796883686 1.7469458792
H -0.0084628691 -0.7335832372 -0.2079341053
H -0.1041137949 -0.8293268301 1.5580639163
H 2.3627768715 -0.5703005147 1.7096459255
H 1.4462432679 -2.7272061639 -0.2385348028
H 3.0423714053 -2.6588105208 0.5216091397
H 1.8828132560 -2.6223631667 2.8247416280
H -0.0998312931 -5.7888085966 1.1473376032
H 0.3611062098 -4.5666236804 -0.0253321094
H -2.1089208605 -4.1411643979 1.7132827079
H -1.4112166824 -3.2536856261 -1.1447766594
H -2.9169034983 -1.8792105625 1.1509202555
H -2.2124530764 -1.1966706830 -1.7932139829
H -2.6009228941 2.0049665854 -1.7558300507
H -3.2610627737 0.7280448603 -2.8223357935
H -6.0145787582 0.8725438520 -0.4103982475
H -3.7116012507 1.9190567099 2.2421151337
H -2.2999757091 3.8615234600 0.7355153483
H -6.3249271162 3.3584786804 -0.4685622408
H -6.9824618598 2.3921055478 1.4382429838
H -3.5402689394 5.7503164533 -0.2061801152
H -5.2592695284 5.7442462717 0.2454650446
H -4.7724212109 5.1775957041 -1.3529047987
H -5.0291014346 0.2913339723 1.9795228938
H -3.4587445509 -5.3022132799 -0.0592964054
H -1.9610559641 -5.8026066408 -0.8629744416
H -2.3435763595 -6.4247168579 0.7523273042
H 0.3866392195 -5.5181009227 3.5581910054
H -0.9437749432 -4.3675618620 3.5906032091
H 0.6422633007 -3.8856050792 4.2090301573
H 7.5646486101 1.4107532647 -0.1769847066
H 7.3923937110 1.4654804611 -1.9332955889
H 6.9604727779 -0.0063761547 -1.0453984070
