88
CONF10
C 1.8011912965 1.0599110244 0.4742591095
C 0.3186544857 0.9993605264 0.0962314506
C -0.4672228698 0.1959566967 1.1242187358
O -1.8415653494 0.0415955360 0.6891327665
C -2.6862396245 1.0755592809 0.9670248349
O -2.3459062733 2.0867647939 1.5478903545
C -4.0293645082 0.7734112382 0.4626485865
C -5.0282753576 1.6605390379 0.6219394598
C -6.4065625702 1.5313904312 0.1883647686
C -6.8772182805 0.4039468584 -0.4992451191
C -8.2061518135 0.3354733091 -0.8991111205
O -8.7408198594 -0.6969426908 -1.6113859215
C -7.8754692225 -1.7745879340 -1.9578004844
C -9.1021539446 1.3800620496 -0.5970710904
O -10.4003098247 1.3849196118 -0.9967307797
C -11.2213921874 0.2733747292 -0.5961586377
C -8.6237710123 2.5126881615 0.0854183427
O -9.5495093870 3.4779511916 0.3244666614
C -9.1091975099 4.6518934576 1.0004123286
C -7.2865583321 2.5862082383 0.4680283236
C 0.0777617450 -1.2138074926 1.3095006233
O -0.5687829778 -1.8551885300 2.4081451558
C -1.5187435494 -2.8472663013 2.0305913937
C 1.5682063577 -1.1622741158 1.6468234726
C 2.1103975492 -2.5699699244 1.7578401574
O 1.6744643500 -3.5461630736 1.1911269131
O 3.2176981643 -2.5957094982 2.5378098135
C 3.8355081469 -3.8921459398 2.6734161114
C 2.4038984571 -0.3456701638 0.6334753238
C 2.5254034500 -1.0217268725 -0.7339415667
C 3.3094098361 -0.1646962826 -1.7304743629
N 2.7223951002 1.1874487805 -1.8293259667
C 3.4906580619 1.9963145887 -2.7875318950
C 4.9506589484 2.2793248320 -2.3617210723
C 5.5380987131 1.0537869865 -1.7424588182
C 4.7789017382 -0.0461958937 -1.4408638924
N 5.5862982708 -1.0142893052 -0.8606992283
C 6.8742998348 -0.5337666342 -0.7676370867
C 6.8778740690 0.7738581190 -1.3164055737
C 8.0868795171 1.4819719766 -1.3387077320
C 9.2287782035 0.8947071403 -0.8291278901
C 9.1957113771 -0.4070890673 -0.2883119756
O 10.4006538318 -0.8617296537 0.1793699070
C 10.4341822434 -2.1692540541 0.7311888490
C 8.0166937407 -1.1457348432 -0.2482167156
C 2.6384511596 1.8568634687 -0.5250748095
H 1.8826198866 1.5730762663 1.4434451638
H -0.0947262380 2.0120441205 0.0505205287
H 0.1897132291 0.5530786361 -0.8953308265
H -0.4684928250 0.7085623243 2.0939002094
H -4.1601056093 -0.1819316318 -0.0336923103
H -4.7727033980 2.5854808048 1.1370921655
H -6.1953717365 -0.4013327312 -0.7346239775
H -7.4760954547 -2.2695164912 -1.0632188420
H -8.4909887931 -2.4792288855 -2.5184379108
H -7.0468038359 -1.4309810230 -2.5899527371
H -12.2431616522 0.6573492923 -0.5581147949
H -11.1541635527 -0.5464092630 -1.3158928353
H -10.9282329851 -0.0843545615 0.3972678073
H -8.7293934217 4.4177577839 2.0035127745
H -9.9898560682 5.2895289586 1.0859730382
H -8.3339325734 5.1759587218 0.4266645216
H -6.9101484912 3.4499012688 1.0014718840
H -0.0770184408 -1.7946020190 0.3894633264
H -2.3417054864 -2.4153496228 1.4463461549
H -1.0362420025 -3.6497504776 1.4555645596
H -1.9186123543 -3.2613751068 2.9594966954
H 1.6727759956 -0.6848324511 2.6292345945
H 3.1411742050 -4.5957216965 3.1399027306
H 4.7083012726 -3.7347504705 3.3068359567
H 4.1299677422 -4.2824798789 1.6950814670
H 3.4146406061 -0.2363071571 1.0497323775
H 1.5355475911 -1.2121646667 -1.1593330201
H 2.9996192269 -2.0064880058 -0.6412820723
H 3.1832117101 -0.6283292931 -2.7222774326
H 2.9555770890 2.9393868729 -2.9510691547
H 3.4939352099 1.4531095339 -3.7411918982
H 4.9944961012 3.1237629019 -1.6587967338
H 5.5237894912 2.5916853037 -3.2441344076
H 5.2743693246 -1.9066140379 -0.5211761055
H 8.1303024974 2.4849058952 -1.7524803539
H 10.1789770026 1.4169099443 -0.8319674052
H 9.7774004023 -2.2518554875 1.6084544591
H 10.1457655258 -2.9257403460 -0.0118510494
H 11.4672949600 -2.3405939995 1.0376150789
H 7.9743094574 -2.1469949980 0.1624347617
H 2.1811488121 2.8412496104 -0.6893558082
H 3.6349033067 2.0258819875 -0.0771523792
