45
CONF44
O -1.0713175784 0.1690757138 -2.8096375481
C -2.2541526095 -0.6195426138 -2.7365188742
C -2.7209950673 -0.8553335582 -1.3154302785
O -1.7128523362 -1.6524335330 -0.6253660173
C -1.4893139783 -1.1721976483 0.6860822987
C -1.4106843620 -2.3876348571 1.6066882048
O -1.1095111653 -2.0364810659 2.9464585875
O -0.2839208297 -0.3890125518 0.7723007270
C 0.8885046030 -0.9171992626 0.1831886644
O 1.2286862026 -0.1961471664 -0.9921641220
C 1.5062161299 1.2123585268 -0.7705722084
C 1.8273060618 1.8012056682 -2.1334788550
O 3.0034258642 1.2374164531 -2.7164831522
C 2.6562815595 1.3681722631 0.2312316575
O 2.8348312215 2.7459347407 0.5758619598
C 2.3389425365 0.6220958276 1.5171948178
O 3.4492180011 0.6164144583 2.4169192993
C 2.0350910051 -0.8287595136 1.1891473302
O 1.6646932220 -1.5781647110 2.3460904342
C -2.6294809483 -0.1691580071 0.9590121071
O -2.3625027146 0.8239541934 1.9276688365
C -2.8978591921 0.3793470579 -0.4468410685
O -4.2020041933 0.9106448081 -0.6315786246
H -0.3998319382 -0.2319926902 -2.2310922733
H -3.0389269890 -0.0782660049 -3.2763115845
H -2.1121382285 -1.5942560506 -3.2273025577
H -3.6635955200 -1.4222416205 -1.3377842226
H -0.6751133139 -3.0974749395 1.1967240842
H -2.3888990106 -2.8786941918 1.5991862732
H -0.1896942695 -1.7177311946 2.9406126868
H 0.7390453736 -1.9511662986 -0.1422357248
H 0.6080234309 1.7087510436 -0.3736723336
H 2.0135894811 2.8731006803 -2.0170946793
H 0.9594518723 1.6772817799 -2.7941852871
H 2.8323302059 0.2974700701 -2.8589278556
H 3.5757943458 0.9536906743 -0.2035847542
H 3.4686867771 3.1352442326 -0.0382430480
H 1.4619150727 1.0841122860 1.9973951147
H 3.6248708778 1.5346440132 2.6609711698
H 2.9230059605 -1.2793301557 0.7200836149
H 2.3486289578 -1.4355486954 3.0150670470
H -3.5139638198 -0.7193039047 1.3011772059
H -1.4861199058 1.1850759855 1.7302652715
H -2.1273496282 1.1261767971 -0.6916016096
H -4.2483101745 1.7459030942 -0.1492204807
