41
CONF96
C -4.1858283757 1.1094969371 2.7741549592
C -3.8733844372 -0.3227526643 2.3409274104
N -3.4946331314 -0.4250110204 0.9328332754
C -4.5770023648 -0.6692942490 -0.0103947278
C -4.7380440299 -2.1602801638 -0.3327906388
O -5.7557791451 -2.3784360381 -1.3038350019
C -2.2060469942 -0.2224404219 0.5105716259
C -1.1849988963 0.1577517572 1.4238573233
C 0.1093336707 0.3586792765 1.0067354784
C 0.4627181876 0.1954451515 -0.3462521326
C -0.5389023818 -0.1782144290 -1.2544946732
C -1.8395356627 -0.3849765371 -0.8476051413
N 1.7345270709 0.3759783091 -0.8750841903
N 2.6280247166 0.7145644040 -0.0428931997
C 3.9040705788 0.8916904140 -0.6068524395
C 4.2186943401 0.7132619413 -1.9663203050
C 5.5115927457 0.9169798043 -2.4076610725
C 6.4917054896 1.2988285411 -1.4909246886
C 6.2060259470 1.4809085128 -0.1416909468
C 4.9085864854 1.2750910310 0.2936467405
N 7.8659160534 1.5148748881 -1.9643814581
O 8.7089064599 1.8469402462 -1.1361735590
O 8.0893383975 1.3506017887 -3.1601310975
H -3.3191379191 1.7604500048 2.6318132883
H -4.4699314663 1.1349836032 3.8306636358
H -5.0139792046 1.5199971961 2.1884870714
H -4.7547871925 -0.9571797332 2.4885712714
H -3.0841067509 -0.7566112720 2.9633209813
H -4.4214417270 -0.1072836464 -0.9371698681
H -5.5071777850 -0.2878093463 0.4306898579
H -3.8109835329 -2.5474724130 -0.7664214781
H -4.9271214976 -2.7249402101 0.5933761662
H -6.6121280659 -2.2113142900 -0.8954973089
H -1.4188677134 0.3137580309 2.4692040198
H 0.8726061383 0.6549111078 1.7166791676
H -0.2630439322 -0.3090494107 -2.2959410494
H -2.5706032845 -0.6915229533 -1.5843329446
H 3.4372914425 0.4164295916 -2.6547240516
H 5.7812876867 0.7868621868 -3.4483837948
H 6.9948834010 1.7773847844 0.5376809061
H 4.6419577007 1.4058777464 1.3367420814
