18
CONF4
C -2.0962873228 -0.7777332276 0.5870281449
C -0.7236224162 -0.1268345173 0.6715256866
C 0.2028315335 -0.6044783751 -0.4496730019
C 1.5520022034 0.0924798230 -0.4352427432
O 1.4328289578 1.5158537104 -0.6879298514
N 1.2786823450 1.8545051508 -2.0783592770
O 1.1084242812 3.0294630864 -2.2427499431
O 1.3453027883 0.9591145275 -2.8851514742
O -0.1190390567 -0.3461816315 1.9553973828
H -2.7284536302 -0.4391819924 1.4119017035
H -2.5911357762 -0.5274423949 -0.3566023009
H -2.0103138156 -1.8705793111 0.6392968909
H -0.8295154528 0.9623189740 0.6047473720
H -0.2795465458 -0.4689155455 -1.4244517773
H 0.3779046088 -1.6839738812 -0.3354998742
H 1.9826032855 0.0740238757 0.5702284093
H 2.2558138012 -0.3498720800 -1.1453093659
H -0.1584798889 -1.2925663974 2.1401532329
