43
CONF57
C 3.0912459025 1.1796351223 -0.1332916009
C 3.1038504209 -0.1329458786 0.2779955449
C 2.4301323711 -1.0786457756 -0.5158753059
N 1.7955490115 -0.7769722735 -1.6439284909
C 1.7852965484 0.5050664381 -2.0296162628
C 2.4119370173 1.5144140542 -1.3137599860
C 2.4242132417 2.9186734881 -1.8156236349
F 1.4234943397 3.1631109105 -2.6946227203
F 2.3006315916 3.8236481335 -0.8086506188
F 3.5869045959 3.2270468028 -2.4566303669
O 2.4500714593 -2.3475190303 -0.0726907384
C 1.6532704926 -3.3379027080 -0.7745780800
C 1.3905425895 -4.4798484546 0.1922398247
C 0.8571230087 -4.0683220035 1.5560350245
O -0.4921588694 -3.5141165331 1.5376661781
C -0.6763069459 -2.2686195214 1.0205578149
C -0.2059388309 -1.0908265976 1.6109540557
C -0.4312902545 0.1712977093 1.0693211152
C -1.1980293702 0.2811657038 -0.0877097239
C -1.7492531256 -0.8604172434 -0.6734610032
C -1.4807597002 -2.0984934266 -0.1203570828
Cl -2.1535581270 -3.5218564860 -0.8861566667
O -1.4648724726 1.4533342620 -0.7330085424
C -0.9773014018 2.6742922047 -0.1484186235
C -1.7697755954 3.0479340616 1.0630859022
C -1.2677960631 3.5260509079 2.1973250847
Cl -2.2692285939 3.9709359045 3.5493656693
Cl 0.4344212783 3.7690803635 2.4775801917
Cl 0.6698620717 -1.1674148946 3.1267148614
H 3.5937112986 1.9435730894 0.4511365296
H 3.6020132201 -0.4451285683 1.1882029956
H 1.2538540937 0.7260511263 -2.9520606433
H 2.2116464474 -3.6839739922 -1.6512626652
H 2.3258086128 -5.0221799482 0.3816106091
H 1.5417319846 -3.3669623984 2.0370762088
H 0.7593719086 -4.9502073296 2.1927819916
H -0.0113192104 1.0317965680 1.5706464571
H -2.3594154243 -0.7685920569 -1.5640183721
H -1.1238524790 3.4227237196 -0.9339726739
H 0.0949301264 2.6001648074 0.0601797977
H -2.8487177433 2.9396097311 0.9913890297
H 0.7020760121 -5.1812001193 -0.2919038828
H 0.7306930525 -2.8728487004 -1.1217933052
