44
CONF39
C -4.1637444293 0.2818149438 -0.7551884877
C -3.5540627551 0.3689710133 0.6539403482
C -4.5700567833 -0.1568491035 1.6665927828
C -3.1353914329 1.8217666371 0.9425830238
C -1.8486853329 2.0323168283 0.1295816203
C -1.1973007493 0.6272537117 -0.0083661676
C 0.2501052624 0.6012046728 0.5168114059
C 1.1651552137 1.4446078132 -0.3328357195
C 1.5618063747 1.0004208198 -1.5988193204
C 2.3828649216 1.7713471165 -2.4144920691
C 2.8116102890 3.0092997515 -1.9493776606
Cl 3.8525393705 3.9988450316 -2.9732594018
C 2.4450516321 3.4818481351 -0.6969640978
C 1.6231888723 2.6900780458 0.1023893961
C -2.1687725734 -0.3520325810 0.7239157645
O -1.8406409739 -0.4590979686 2.1158713664
C -2.2211314330 -1.7515566086 0.0913270501
N -0.9201328308 -2.4102975332 0.0564418139
C -0.1209369534 -2.6394010363 -1.0026064455
N 1.0273967104 -3.1806260227 -0.6066249549
C 0.8742462483 -3.2543319806 0.7422611987
N -0.2912816957 -2.8002536083 1.1940695983
H -4.5472950097 -0.7213405278 -0.9674383522
H -5.0084546166 0.9752122090 -0.8200423395
H -3.4508299766 0.5496314233 -1.5410208868
H -4.8054797027 -1.2120647180 1.4884844874
H -5.5027646573 0.4100746659 1.5708904699
H -2.9314320964 1.9315744326 2.0129160587
H -3.9289125953 2.5288835034 0.6794590970
H -1.1726827724 2.7361420425 0.6235099688
H -2.0720828775 2.4485653442 -0.8574707054
H -1.1690595111 0.3385346225 -1.0663996255
H 0.6361871868 -0.4240331321 0.5320358635
H 0.2623552662 0.9688170860 1.5475756238
H 1.2288963669 0.0293847096 -1.9565088516
H 2.6867967266 1.4141457388 -3.3921102091
H 2.7942939974 4.4469152969 -0.3472290811
H 1.3392262981 3.0531394896 1.0860899272
H -4.2067276020 -0.0523953603 2.6906368120
H -2.5563849219 -1.6897890536 -0.9452693678
H -2.9131984368 -2.3871833491 0.6531652647
H -0.4141877951 -2.4077635989 -2.0184381553
H 1.6266510808 -3.6535653866 1.4105802842
H -1.0788682264 -1.0529008684 2.2035234120
