45
CONF5
C 2.5657745669 1.9602983935 -3.6522026506
C 2.7769210004 1.3858652822 -2.2601025519
C 1.4498202582 1.3732441831 -1.4976086570
O 1.0520245719 2.3745629778 -0.9056781561
N 0.7382220393 0.2239035335 -1.5708382356
C -0.5132358284 0.0672132408 -0.8992638123
C -0.6011134592 0.1635847320 0.6640512013
N -1.5828736719 1.2400381535 0.4966552057
C -1.5395879104 1.2278592471 -0.8917423451
O -2.1500103520 1.8557183405 -1.7240571604
C -2.7299337968 1.2552352482 1.3715947788
C -3.1071241418 -0.2530717840 1.6201718119
S -1.4538144012 -1.1448656564 1.6394761637
C -3.8126544051 -0.5028950068 2.9490235344
C -3.9658229299 -0.7482945120 0.4563182936
C -2.3973920803 1.9929720585 2.6594965394
O -1.2978551851 2.0358984308 3.1627673961
O -3.4898381627 2.5811918790 3.1766651561
O 3.3239531732 0.0702159556 -2.4297793429
C 3.8401271197 -0.5661019793 -1.3248535311
C 4.3968397545 -1.8244498871 -1.5701334590
C 4.9391279261 -2.5547715408 -0.5214596203
C 4.9311945606 -2.0436283911 0.7772423684
C 4.3730164077 -0.7919580891 1.0111317698
C 3.8227664554 -0.0432586093 -0.0304397219
H 2.1296565124 2.9590057595 -3.5731179883
H 3.5250586472 2.0325683487 -4.1702897122
H 1.8911727547 1.3218834339 -4.2297255986
H 3.4721473777 2.0162051968 -1.6925615611
H -1.0045607608 -0.8418671381 -1.2566322545
H 0.3272184965 0.4562857741 1.1605166316
H -3.5669259719 1.7550428567 0.8737374821
H -3.2088861161 -0.1830992832 3.8023945525
H -4.0268955513 -1.5694787759 3.0600478515
H -4.7649147977 0.0368852876 2.9639462165
H -4.9371388301 -0.2405987376 0.4759093813
H -3.4949132017 -0.5567039914 -0.5116420182
H -4.1320441273 -1.8247765068 0.5463677044
H -3.2422965599 3.0054972544 4.0171369338
H 4.3975457668 -2.2107329234 -2.5843266666
H 5.3712280864 -3.5305952816 -0.7208929731
H 5.3547651033 -2.6167377218 1.5951205396
H 4.3563098375 -0.3819084906 2.0162238680
H 3.3914859412 0.9268245540 0.1873005865
H 1.1312472308 -0.5620711476 -2.0688373378
