49
CONF1
C 1.2393838317 3.5738496763 -2.7447030823
C 0.8959161240 2.6480202289 -1.5833091355
C 2.1639942887 2.2913361182 -0.7892963084
C 1.9520141755 1.2498886263 0.2826340377
C 1.0002236910 1.4191940017 1.2894351464
C 0.7903575466 0.4590887751 2.2762423846
C 1.5653502081 -0.7024992170 2.2809482772
C 2.5218155469 -0.8940906274 1.2788208628
C 2.6982626120 0.0670397250 0.2933512787
O 1.4599465287 -1.7032292045 3.1996173304
C 0.4758366271 -1.5539945815 4.2279936474
N 0.2807833683 1.4036063815 -2.0567998342
C -1.0495812232 1.5548591495 -2.6461745908
C -1.6318771675 0.1480534591 -2.8634324836
C -1.9107001254 -0.5057456117 -1.5201782844
C -1.0550619325 -1.4576517132 -0.9877544424
C -1.2436704257 -1.9787986047 0.2962507668
C -2.3385435642 -1.5546365653 1.0706558343
C -3.2172790353 -0.6210449674 0.5111304823
C -3.0033432190 -0.0953013157 -0.7511761390
O -2.5680920782 -1.9500630956 2.3431760685
N -0.2362994355 -2.8628458372 0.7687259304
C -0.3032995863 -3.8653740771 1.6694863620
O -1.3051233988 -4.2200633150 2.2928120946
O -0.7492658904 -0.6168173852 -3.6757421799
H 1.7838867072 4.4508482158 -2.3813677539
H 0.3434083311 3.9307655230 -3.2598851830
H 1.8683057124 3.0477017291 -3.4707276876
H 0.2015743202 3.1870855288 -0.9074588444
H 2.9221822739 1.9306171764 -1.4941932117
H 2.5544158445 3.2150984354 -0.3430994004
H 0.3946891603 2.3214947472 1.3088950857
H 0.0268593497 0.6257706185 3.0256713558
H 3.1300577033 -1.7936115538 1.3014421651
H 3.4433600627 -0.0981753373 -0.4801062565
H -0.5317135042 -1.4629230265 3.8043373521
H 0.6980432901 -0.6831193946 4.8575069610
H 0.5373875730 -2.4626192248 4.8280042687
H 0.1831089067 0.7937691749 -1.2457427058
H -0.9706240238 2.0542407543 -3.6194126104
H -1.7404514453 2.1433563782 -2.0143811027
H -2.5781928799 0.2414908666 -3.4126109317
H -0.2192392076 -1.8102630062 -1.5857807704
H -4.0652402619 -0.3119791277 1.1130201568
H -3.6996447428 0.6390558577 -1.1484017575
H -2.2013571030 -2.8683512084 2.4570255214
H 0.6819959618 -2.6916123267 0.3812587053
H 0.6685909308 -4.3687742956 1.8046980561
H 0.1368493890 -0.2626472262 -3.5017446351
