45
CONF28
C -5.4314119473 -2.7448133802 -2.9202155412
C -4.3604637648 -1.7596971307 -3.2625158488
C -3.6910465300 -1.0226253610 -2.3692896917
C -2.6615256639 -0.0450926708 -2.7546151141
C -1.3350950774 0.1200168326 -1.9706591338
C -2.3941290224 1.2235233349 -1.9950407646
C -3.1860521187 1.5578963901 -0.7526827357
C -2.0132543848 2.4401824543 -2.8116688185
C -1.0539643984 -0.6794064293 -0.7716486772
O -1.8472782748 -1.0908733171 0.0523236922
O 0.2917166458 -0.9212566054 -0.6964281623
C 0.7634188411 -1.6683533890 0.4550055167
C 1.9151415870 -0.9191798469 1.0496635206
C 3.2304804377 -1.3595415014 0.9513271555
C 4.2777065810 -0.6377062762 1.5057163089
C 4.0714033543 0.5664570211 2.1696490114
C 2.7555524199 1.0080200042 2.2608864110
C 1.7065855796 0.2836215764 1.7164050562
F 0.4532687490 0.7572224464 1.8367379443
F 2.4771397741 2.1600011127 2.8989495612
C 5.2269152892 1.3066412234 2.8023729062
O 5.6594426815 0.6835339454 4.0097833108
C 4.7109335670 0.8246645288 5.0700561296
F 5.5265929747 -1.1208185910 1.3832811354
F 3.5081037808 -2.5066120554 0.3068774713
H -5.1695198895 -3.7487484069 -3.2763578956
H -6.3790741777 -2.4807481690 -3.4055259939
H -5.5980339233 -2.7936106850 -1.8402861587
H -4.1237964287 -1.6467580641 -4.3218149466
H -3.9153208782 -1.1372535320 -1.3126017949
H -2.5007941301 0.0221107779 -3.8289786491
H -0.4605929686 0.3039244265 -2.5849422781
H -2.6194816539 2.2577561709 -0.1285520253
H -3.4244450590 0.6825415284 -0.1506675200
H -4.1214679436 2.0483359351 -1.0442617648
H -1.4016958832 3.1259730334 -2.2148452731
H -2.9166827143 2.9752652020 -3.1253972920
H -1.4497455701 2.1635206164 -3.7073172747
H -0.0487926739 -1.7718324396 1.1780779797
H 1.0742181118 -2.6560591943 0.1109549721
H 4.9418627537 2.3506875844 2.9843168732
H 6.0849618408 1.2871515077 2.1264337573
H 3.7687760586 0.3068211220 4.8411195643
H 5.1598468039 0.3701653379 5.9552577887
H 4.4995980492 1.8849526202 5.2677843823
