41
CONF81
C 0.6906239109 -5.9971071561 3.7037576955
C -0.0176143919 -4.8750445512 2.9723884631
O 0.8753782629 -4.2101291601 2.0433755064
C 1.6923746631 -3.2727230395 2.5966230608
O 1.6681766548 -2.9270214301 3.7633776270
N 2.5606023835 -2.7942382183 1.6556745922
C 3.3395702224 -1.6022325594 1.9425753139
C 2.5500760690 -0.3197864552 1.7521854916
O 2.2055652339 -0.2497318618 0.3657585854
C 1.4306185668 0.7969103825 -0.0495196886
C 1.1029503037 0.8041707376 -1.4099310299
C 0.3277383942 1.8228571368 -1.9364333942
C -0.1353576259 2.8385657955 -1.1006999777
C 0.1845039284 2.8393615241 0.2465425367
C 0.9752037313 1.8213156561 0.7802697440
O -0.8509967550 3.9128199188 -1.6074209526
C -2.0254394680 3.6629977476 -2.2845739677
C -2.4562130454 4.6612723352 -3.1563020347
C -3.6577825005 4.5031283944 -3.8351087323
C -4.4273389793 3.3555515062 -3.6555983293
C -3.9854103464 2.3677344488 -2.7809263977
C -2.7868433919 2.5122642090 -2.0880258040
H 1.4931520524 -5.5996775261 4.3297379799
H 1.1110504980 -6.7164145710 2.9953038256
H -0.0206815010 -6.5229346267 4.3488504751
H -0.4199544408 -4.1354804779 3.6705740783
H -0.8241346396 -5.2550107698 2.3400334577
H 2.3331863924 -2.9855909231 0.6923283477
H 4.2186514209 -1.5937971276 1.2893886487
H 3.6794904372 -1.6572148790 2.9804777079
H 1.6436394734 -0.3411632006 2.3732601745
H 3.1615247470 0.5493186104 2.0377278501
H 1.4762904005 0.0051716164 -2.0412566286
H 0.0752885215 1.8371575123 -2.9915083460
H -0.1815310522 3.6421951104 0.8770891642
H 1.2183303568 1.8421331778 1.8349967765
H -1.8432308197 5.5465579780 -3.2850863839
H -3.9915559604 5.2814766125 -4.5139479893
H -5.3625774493 3.2341408923 -4.1909596315
H -4.5801777320 1.4729396526 -2.6264891647
H -2.4471455098 1.7452576736 -1.4013501462
