48
CONF38
C -3.8238581228 0.5562946460 -2.2068907777
C -3.6954455090 1.1232010025 -0.7853041681
C -5.0255255827 1.7791346864 -0.3818536034
C -2.5959259670 2.1944887356 -0.7638508587
C -3.4004396944 -0.0002523212 0.2386948974
C -1.9734503360 -0.5971906915 0.1032307259
N -1.9104969776 -1.9557813237 0.6344842450
C -1.6549476314 -3.1103504556 -0.0146072328
N -1.7805792023 -4.1380943880 0.8138285654
C -2.1347263375 -3.5369165447 1.9859773970
N -2.2328964793 -2.2156351156 1.9275940106
O -1.1201091759 0.2465008161 0.8495492843
C 0.2380104293 0.2178236526 0.6296417503
C 0.9787479423 1.0757473941 1.4453934849
C 2.3548508634 1.1478372912 1.3056776263
C 3.0309298968 0.3704155869 0.3522106511
C 2.2673163097 -0.4822624660 -0.4515110682
C 0.8830692621 -0.5694540712 -0.3226231736
C 4.4987758782 0.4502230407 0.2051589446
C 5.3251020936 0.6187972419 1.3260773417
C 6.7072221458 0.6954420118 1.1876234296
C 7.2937844446 0.6036792897 -0.0732198789
C 6.4841415733 0.4351960273 -1.1950130220
C 5.1017820836 0.3604806902 -1.0581816458
O -4.3797730421 -1.0193579397 0.0608900303
H -4.0470555033 1.3738168527 -2.9002595430
H -4.6315839583 -0.1767997404 -2.2719426382
H -2.8972145257 0.0823812002 -2.5480773499
H -5.8425354412 1.0528839330 -0.3890858215
H -4.9559960221 2.2147807912 0.6212722722
H -5.2707000633 2.5812165609 -1.0855965076
H -2.9011665527 3.0255352359 -1.4080840084
H -2.4352371615 2.5841302621 0.2464610805
H -1.6411949026 1.8149220098 -1.1416456701
H -3.4627446717 0.4242958676 1.2513503106
H -1.6719469396 -0.6656286395 -0.9477789943
H -1.3882672139 -3.1478236084 -1.0633128007
H -2.3220190330 -4.0813040161 2.9030769675
H 0.4588370586 1.6892916006 2.1740563561
H 2.9108745429 1.8379652656 1.9325009931
H 2.7587860323 -1.1169768639 -1.1822096445
H 0.3445065042 -1.2563495908 -0.9630273514
H 4.8827057923 0.6679638967 2.3164308771
H 7.3289790315 0.8180587150 2.0693212924
H 8.3722485772 0.6632429069 -0.1808424090
H 6.9298119524 0.3715942972 -2.1831236860
H 4.4806460252 0.2536715380 -1.9423421434
H -4.4352903817 -1.5287379606 0.8798810502
