47
CONF140
C -3.7416017265 -0.5803816006 3.7849842238
C -3.5961426220 0.6734429782 2.9492813512
C -4.5717145961 0.8634706800 1.8355421789
C -3.1267430735 0.4219448562 1.5103628052
C -2.2487865905 1.3459140926 0.7897768313
O -2.2277515610 2.5583207857 0.8432930083
O -1.4058232182 0.6392785169 -0.0356672058
C -0.4939304195 1.4490828800 -0.8200756034
C -1.2495509236 2.1905791850 -1.8381906018
N -1.8279793873 2.7638564861 -2.6572991519
C 0.5157390701 0.5219240754 -1.4507074098
C 0.1234235640 -0.3790505696 -2.4421411907
C 1.0659348057 -1.2458897060 -2.9823916002
C 2.3895312471 -1.2225880060 -2.5497502719
C 2.7621572209 -0.3206555027 -1.5550931826
C 1.8310319412 0.5557556515 -1.0007426404
O 4.0574470710 -0.1890449023 -1.1077183840
C 4.9071415858 -1.2878187487 -1.1736270003
C 4.5504442201 -2.5040879517 -0.5975062027
C 5.4640629413 -3.5533685442 -0.6237891933
C 6.7188219872 -3.3845555660 -1.2086524872
C 7.0607287493 -2.1565967797 -1.7702233396
C 6.1528406418 -1.0995659960 -1.7589464311
C -5.0658875353 2.1988180003 1.4459486945
C -5.5054618347 2.4956171141 0.2257270010
Br -6.1894782879 4.2125559675 -0.2232563661
Br -5.4526003128 1.2495615209 -1.2080848393
C -3.0808430347 1.8644487732 3.7213719287
H -4.1285734057 -1.4145944862 3.1934458770
H -4.4336028101 -0.3937472492 4.6133443643
H -2.7735128911 -0.8703898383 4.2063483456
H -5.2815506843 0.0551052768 1.6673842534
H -3.0127270363 -0.6177402092 1.2251262812
H -0.0000157362 2.1807807970 -0.1720156501
H -0.9055349268 -0.4011048475 -2.7870858221
H 0.7745971376 -1.9452485470 -3.7592131177
H 3.1223057032 -1.8930787702 -2.9846070803
H 2.1431887085 1.2508806197 -0.2280299776
H 3.5746560604 -2.6230634152 -0.1375856688
H 5.1952718897 -4.5049694396 -0.1759547010
H 7.4272528925 -4.2062548272 -1.2228428971
H 8.0362530327 -2.0171678533 -2.2253017768
H 6.3995228045 -0.1373234883 -2.1953534872
H -5.1011749791 2.9863898281 2.1940826834
H -2.9641514716 2.7536770350 3.1023981429
H -2.1091338711 1.6250690693 4.1653715441
H -3.7780794339 2.0918133590 4.5351104609
