43
CONF1
C -2.4120659481 -2.4826997339 -1.4910742731
C -3.0203409284 -2.5185782198 -0.0869500638
C -2.8112389187 -1.0826349112 0.3798327433
N -1.4889507953 -0.7498094776 -0.1598769294
C -1.1514305826 -1.6322213943 -1.3026276579
C -0.9842097986 0.5191898104 -0.0215752965
C 0.3464962748 0.8391487456 -0.3922195897
C 0.8151940870 2.1446570408 -0.2903916468
C 0.0418439489 3.1721987048 0.2279918436
C -1.2390451055 2.8500022138 0.6772239544
C -1.7387497339 1.5557735567 0.5545753456
C -2.1341701628 3.8646897252 1.2851273638
O -3.2487475904 3.6412265565 1.7052983148
O -1.5709914863 5.0992742990 1.3280735648
S 2.5282306588 2.5060171581 -0.7186610822
O 2.6867020038 3.9641521863 -0.7046012176
O 3.3858673562 1.6325347154 0.0891978696
N 2.6002543223 2.0415320819 -2.3557701635
O 1.1947657542 -0.1226475879 -0.8983878518
C 1.7126798583 -1.0655923906 -0.0190243403
C 2.4362423808 -2.0973964898 -0.6085879546
C 2.9979799585 -3.0787339691 0.1981904145
C 2.8344418801 -3.0334157680 1.5805780012
C 2.1088858693 -1.9924912069 2.1503869363
C 1.5431114120 -0.9982239322 1.3576364667
H -2.1818414884 -3.4730742949 -1.8912296921
H -3.1045866922 -1.9876230329 -2.1810850099
H -4.0734886321 -2.8087658280 -0.0769898231
H -2.4617334273 -3.2083927019 0.5552006252
H -3.5976110957 -0.4311442190 -0.0393421614
H -2.8225060899 -0.9710461371 1.4702542976
H -0.2883958505 -2.2647235178 -1.0629772251
H -0.9060006263 -1.0419992457 -2.1916701518
H 0.4400258587 4.1754355789 0.2958855009
H -2.7466571974 1.3764523889 0.9055593842
H -2.2268356790 5.6820966379 1.7399678934
H 3.1111652060 2.7577875153 -2.8645572150
H 3.0550887764 1.1367873441 -2.4364633296
H 2.5495652380 -2.1167841818 -1.6874633199
H 3.5669683889 -3.8821830136 -0.2582170187
H 3.2745583602 -3.8003180586 2.2083563710
H 1.9847465117 -1.9421463174 3.2272656819
H 0.9947829095 -0.1763116245 1.8031402451
