41
CONF54
C 6.3862568231 -0.2390508896 1.3262106154
N 5.2439694110 -0.1627962500 0.4235585799
C 3.9984479939 -0.6322826197 0.6350194467
C 3.2403157127 -0.2966409293 -0.4812648582
C 4.1542114320 0.3912485623 -1.3176150755
N 5.3656461218 0.4557808182 -0.7619445589
C 3.9982062301 0.9892863528 -2.6703827564
F 3.3938093164 0.1021647680 -3.5361523425
F 3.1911889575 2.1110112417 -2.6378197207
C 1.8099317018 -0.5590253102 -0.7157567270
O 1.1279619201 0.1278227794 -1.4750777486
N 1.3023932611 -1.6181356729 -0.0056756151
C -0.0531463496 -2.0191408446 -0.0165249150
C -0.3570510468 -3.3785675078 -0.1956329840
C -1.6706944852 -3.8309078056 -0.1440779042
C -2.7280684844 -2.9444671261 0.0900265342
C -2.4201675663 -1.6098783044 0.2852122679
C -1.0975780686 -1.1358690360 0.2293485577
C -1.1491266182 0.3529683457 0.5059788760
C -1.8355810356 1.0174708034 -0.7337886132
C -3.3029151204 0.4954923774 -0.6652463632
C -3.3037642889 -0.4196726460 0.6006829476
C -2.3270955549 0.3557510845 1.4642356818
C -2.4641020867 0.8875784466 2.6663358788
Cl -3.9423959649 0.7807284445 3.5944603384
Cl -1.1821206210 1.7584074181 3.4766131573
H 6.1016695116 -0.8367486863 2.1925150178
H 6.6695921906 0.7663805596 1.6477287360
H 7.2261780089 -0.7109640180 0.8115896010
H 3.7347508454 -1.1408273123 1.5519159009
H 4.9631573105 1.2831826382 -3.0956283089
H 0.4538271746 -4.0799976078 -0.3698363229
H -1.8718437905 -4.8887259575 -0.2812139222
H -3.7523034858 -3.2998568234 0.1429275506
H -1.7991300232 2.1055812673 -0.6315714655
H -1.3188577206 0.7344094203 -1.6506976000
H -4.0096559849 1.3177278848 -0.5241097742
H -3.5987850158 -0.0684186969 -1.5533531249
H -4.2842508307 -0.6457431339 1.0156595738
H -0.2269554060 0.8235861465 0.8378634979
H 1.9612459022 -2.2881769009 0.3657879144
