44
CONF6
C -1.1623610944 0.9648970640 3.1806101803
C -1.9267379926 -0.1284264976 2.4472030439
N -2.0149222899 0.1380864156 0.9898700971
C -3.1830314663 0.6444232255 0.5338148138
C -3.3920742545 1.1147152313 -0.7315623839
C -2.3118974267 1.1217284856 -1.6794693217
O -2.4258955068 1.5573078852 -2.8464249908
C -1.0479504862 0.5697777582 -1.1921913483
C 0.0410481268 0.5338514815 -2.0731129991
C 1.2418802655 0.0421849793 -1.6536021685
C 1.4474391219 -0.4919574600 -0.3590732401
C 0.3268229123 -0.4863073069 0.4788191403
C -0.9127349754 0.0809013486 0.1294248279
F 0.4689214403 -1.1143551228 1.6741107023
N 2.6943691831 -0.9487339766 0.0198144331
C 3.1587226317 -0.8701200822 1.4039536304
C 4.6740842943 -0.6956270219 1.3929622917
N 5.2822319242 -1.8208266526 0.6809509633
C 4.8566031897 -1.8526066683 -0.7243171758
C 3.3398341803 -2.0211110770 -0.7465285094
C 5.5405404498 -3.0019005252 -1.4484903278
F 2.3020479146 0.0846308522 -2.4869459952
C -4.7587476320 1.6250446329 -1.0573017809
O -5.6647777461 1.6168434643 -0.2502138671
O -4.9038729766 2.0919309559 -2.2997630287
H -0.1314573671 1.0423056694 2.8276545712
H -1.6508908400 1.9341591487 3.0447722398
H -1.1366756087 0.7373003503 4.2500856192
H -2.9583604629 -0.1674581148 2.8041821021
H -1.4899971302 -1.1113627292 2.6158347225
H -4.0069357682 0.6755717684 1.2401159235
H -0.0839957965 0.9396012130 -3.0703339438
H 2.9030571038 -1.7764181982 1.9746702799
H 2.6945292923 -0.0065448621 1.8882664740
H 5.0361544845 -0.6878402786 2.4274865481
H 4.9117829539 0.2828932823 0.9342256824
H 6.2932181250 -1.7487040663 0.7244814467
H 5.0857457869 -0.8995209157 -1.2409712494
H 3.0861652379 -2.9996268940 -0.3015901694
H 2.9780697257 -2.0064028514 -1.7758379426
H 6.6284482465 -2.8804925592 -1.4290264780
H 5.2286603864 -3.0406047725 -2.4965443579
H 5.2962126104 -3.9555695511 -0.9702337544
H -4.0226352646 1.9943603305 -2.7654975750
