29
CONF38
C 0.0445624836 -0.6506641731 -3.5557395296
C -0.7803949206 -0.2530827207 -2.3567287405
O -0.0810612074 0.8545843530 -1.7029390274
P -0.3895464972 1.2705044039 -0.2019820538
S 0.7267308303 2.6744420554 0.4833237591
O -1.9795718575 1.4394616749 -0.1942067398
C -2.6654161438 2.2712344877 0.7899469315
C -2.7495300117 1.5920299745 2.1379450176
O -0.3043586869 -0.1572310924 0.6625318826
C 0.8991237229 -0.7607330492 0.8694413553
N 1.5227427897 -1.2822211861 -0.1737482291
C 2.6675547962 -1.9134476352 -0.0170396224
C 3.2686348454 -2.0724380233 1.2353875943
C 2.6174021254 -1.5388889387 2.3416138291
C 1.4152217914 -0.8705599690 2.1650244551
Cl 0.5823873277 -0.1970551636 3.5285688889
Cl 4.7758204047 -2.9033988929 1.4438070601
Cl 3.4144870559 -2.5633683431 -1.4520070971
H 0.1639938976 0.1922231107 -4.2412439587
H 1.0317982421 -0.9935919681 -3.2368701242
H -0.4555299175 -1.4655764884 -4.0883002884
H -0.8747212894 -1.0816530996 -1.6474707939
H -1.7783159116 0.1008851036 -2.6358434530
H -3.6540964528 2.4291997296 0.3523042680
H -2.1423960768 3.2314681957 0.8527996841
H -3.3521365610 2.2072517410 2.8139360621
H -3.2169355031 0.6074200460 2.0511132726
H -1.7558062889 1.4724513330 2.5766872446
H 3.0493573046 -1.6392457776 3.3297908622
