42
CONF53
C -2.3691501743 -0.7018989646 0.8653254116
C -3.0666152038 -0.2917546507 -0.4373511271
C -2.2502082828 0.6291581140 -1.3533338682
C -1.9860803540 2.0075005127 -0.7433194968
C -1.2936568382 2.9902652502 -1.6921427386
C 0.1367459257 2.5827818914 -2.0630044373
C 1.0331497966 2.5238855911 -0.8531680653
O 1.0433236012 3.3365238743 0.0496722827
O 1.8549094129 1.4533005016 -0.8889637383
C 2.7597010041 1.3122693763 0.2373424125
C 3.6080035519 0.0951702463 -0.0233359055
O 2.7947626482 -1.1022864442 -0.1143010093
C 2.4412213193 -1.6895353908 1.0530575992
O 2.7805071392 -1.2724563046 2.1417148385
C 1.6085329546 -2.9207368590 0.8133341306
C 0.5313391790 -3.1287304786 1.8807788706
C -0.4809518193 -1.9830218612 1.9840359296
C -1.1705366147 -1.6301812961 0.6639070862
H -3.0982111247 -1.2119382577 1.5087177620
H -2.0493338340 0.1904831021 1.4195372805
H -4.0111317550 0.2127280132 -0.1926325281
H -3.3358900023 -1.2014545975 -0.9909300746
H -1.3030259653 0.1432943723 -1.6187504000
H -2.7988134021 0.7632775362 -2.2955070911
H -1.3839742728 1.9073675874 0.1690115334
H -2.9450281325 2.4411143736 -0.4297771248
H -1.8744104485 3.0811434762 -2.6178699635
H -1.2658928517 3.9837701139 -1.2321194149
H 0.1676822368 1.6258493549 -2.5888142439
H 0.5725700444 3.3335928608 -2.7351417554
H 3.3974116395 2.1993713729 0.3135971055
H 2.1759839361 1.2113658915 1.1567029397
H 4.3491319501 -0.0122375576 0.7733788735
H 4.1087705273 0.1684951439 -0.9908054174
H 1.1813792042 -2.8779230064 -0.1915440836
H 2.3071021897 -3.7684253763 0.8224814612
H 0.0026207676 -4.0585642422 1.6391051293
H 1.0127147991 -3.2788042760 2.8531667680
H -1.2423924314 -2.2660813919 2.7224359667
H 0.0135894190 -1.0866050557 2.3814174295
H -1.5095630552 -2.5505418665 0.1658452017
H -0.4462862657 -1.1595303935 -0.0137018310
