26
CONF3
C -3.7926877605 0.1961606741 0.8669669757
C -2.5569904402 -0.5556318721 0.3924617851
C -1.3074270141 0.3400434693 0.3448168290
C -0.1377642976 -0.3438774598 -0.3818135523
C 1.1110478335 0.5527222823 -0.4317962403
C 2.3476769959 -0.1998787414 -0.9026125327
O 2.1490416075 -0.7243121868 -2.2215570170
O 0.8679761151 1.6805282582 -1.2942921411
O 0.2525651371 -1.5537808620 0.2589561081
O -1.6964240514 1.5511186881 -0.2945641127
O -2.3145573081 -1.6868365068 1.2506451265
O -3.5934163639 0.7129160474 2.1889384440
H -4.0524199904 0.9881753032 0.1571419118
H -4.6252358201 -0.5114423324 0.9359089441
H -2.7510613100 -0.9639779780 -0.6082559930
H -0.9843054696 0.5311511419 1.3863184815
H -0.4614565428 -0.5365727906 -1.4228610170
H 1.3041510526 0.9649566551 0.5675026415
H 2.6086303285 -0.9875729488 -0.1884035020
H 3.1792404449 0.5085044866 -0.9753236814
H 0.9578581009 1.3450734288 -2.1990184849
H -0.9046526859 1.9245653133 -0.7212704520
H -3.0861856740 1.5286878950 2.1006064112
H -0.5389392546 -1.9276184015 0.6858574880
H 1.6420951637 -1.5397477530 -2.1284194833
H -2.4045880656 -1.3547393082 2.1566091798
