47
CONF14
C 3.8343230680 -2.7337569311 -3.3225509439
C 3.8768609311 -1.4461690426 -2.6002709235
C 2.9519927987 -0.7266400332 -1.8875389735
C 3.6804741616 0.4299465950 -1.4610465361
N 4.9217210292 0.4122767790 -1.8820295284
O 5.0493089015 -0.7885424324 -2.5960322369
C 3.1891242925 1.5815818958 -0.6840001726
C 2.2440326137 2.4426523318 -1.2488229500
C 1.6866680973 3.5099476328 -0.5716375118
C 2.0968609507 3.7395658154 0.7365477830
C 3.0354636942 2.9166071852 1.3486594105
C 3.5677589017 1.8451160057 0.6390656021
Cl 4.6959236900 0.7822072958 1.4408253933
F 1.8516167952 2.1942414116 -2.5097146908
C 1.5423219336 -1.1057179978 -1.6800596757
O 0.9676630541 -1.9299502794 -2.3808892462
N 0.9171238765 -0.4696874400 -0.6347767677
C -0.4895179530 -0.5723243601 -0.4212425023
C -1.0362046670 -1.2650956140 0.8771222578
N -1.5780167619 0.0347478749 1.2880774239
C -1.1920971423 0.6976086225 0.1213349414
O -1.3656158255 1.8273543186 -0.2563496517
C -2.8655896634 0.0473705660 1.9362165088
C -3.7234536043 -1.0651741916 1.2239504223
S -2.4861353020 -2.3979072401 0.7715688846
C -4.3527582377 -0.4714024082 -0.0378554747
C -4.7958642503 -1.6792765618 2.1198037093
C -2.6972563307 -0.2090619298 3.4247879551
O -1.8263141893 -0.8765619279 3.9209501303
O -3.6792004075 0.4007955699 4.1345421264
H 3.9596622430 -2.5644396388 -4.3973205320
H 4.6490644873 -3.3830041454 -2.9879753439
H 2.8701720335 -3.2122268320 -3.1543374861
H 0.9385347623 4.1219111075 -1.0597739603
H 1.6715378401 4.5675827234 1.2928743744
H 3.3484026448 3.0909204152 2.3706091627
H 1.4419884681 0.1856297452 -0.0744683484
H -0.9677325746 -0.9664250430 -1.3229439921
H -0.2818144719 -1.6828929430 1.5481368492
H -3.3402051318 1.0228338116 1.7862849697
H -5.1134581850 0.2697051989 0.2360744100
H -4.8304853336 -1.2590688829 -0.6256880392
H -3.6091197660 0.0172140618 -0.6729537304
H -5.5093879336 -0.9094671871 2.4315201878
H -5.3470973548 -2.4463638215 1.5687506578
H -4.3631513166 -2.1458970213 3.0083876274
H -3.5381253740 0.1692364177 5.0669876636
