56
CONF2
O 5.1675396234 1.5605943180 -2.8234269322
C 4.4740950465 2.4967130240 -2.0078125366
C 3.9625429222 1.8319546005 -0.7344521232
N 3.1649262152 0.6440139653 -1.0606280446
C 1.8216943878 0.9976546688 -1.5332961144
C 1.0456166991 -0.2530189576 -1.9130930106
N 0.9387638081 -1.1383133973 -0.7572375932
C 0.0692164722 -2.2849459380 -1.0001518747
C -0.4314448231 -2.9139218830 0.3052512698
C -0.8940541915 -1.8424057337 1.2973645563
N -1.8538951344 -0.9214321273 0.6841961184
C -3.0908494776 -1.4177363136 0.2397152754
C -3.6894154086 -2.5327162405 0.8383434961
C -4.9062974057 -3.0220906856 0.3753880176
C -5.5695986910 -2.3925928919 -0.6708310061
C -4.9995491673 -1.2689442776 -1.2613110167
C -3.7624441633 -0.8035756284 -0.8292477018
S -2.9712941009 0.5235297760 -1.7091615660
C -2.0875692839 1.2666912844 -0.3630570493
C -1.8156209423 2.6302447808 -0.3963040910
C -1.0119463641 3.2150174511 0.5750672442
C -0.5357923144 2.4221044459 1.6130489682
C -0.8440070168 1.0662580777 1.6815028601
C -1.5957215689 0.4539891441 0.6741680745
C 0.3746446624 3.0055083516 2.6506428616
F 1.6854560185 2.7903306484 2.3401398497
F 0.2220174277 4.3416836919 2.7792294933
F 0.1792972332 2.4564273753 3.8738080132
C 2.2722733056 -1.5110762211 -0.2962691186
C 3.0602470447 -0.2649739230 0.0819654695
H 4.6666144032 0.7349334138 -2.7317240586
H 3.6461474177 2.9641739553 -2.5660064908
H 5.1778390130 3.2938260105 -1.7438910510
H 4.8287315821 1.5018252689 -0.1482750633
H 3.3962353746 2.5583231958 -0.1201312789
H 1.9067247649 1.6465365065 -2.4115474572
H 1.2572325324 1.5485302312 -0.7544285644
H 0.0356749330 0.0331827893 -2.2297190330
H 1.5459833179 -0.7493461490 -2.7696899128
H -0.7983354476 -1.9209622103 -1.5632313429
H 0.5551418026 -3.0614409479 -1.6232120993
H -1.2410013309 -3.6120369692 0.0658256797
H 0.3522267661 -3.5043388432 0.7949976089
H -0.0215228685 -1.2514815039 1.5734827862
H -1.2880517905 -2.2969095888 2.2168657169
H -3.2025776578 -3.0253430479 1.6713611756
H -5.3403097114 -3.8957167226 0.8502491876
H -6.5233845229 -2.7664595213 -1.0259254630
H -5.5011802397 -0.7612023087 -2.0789843294
H -2.2171122933 3.2307000690 -1.2061173017
H -0.7750056812 4.2708213217 0.5302626415
H -0.4909423095 0.4877445894 2.5258433622
H 2.8279731662 -2.0767553031 -1.0722931931
H 2.1885526942 -2.1559923015 0.5867823168
H 2.5648488609 0.2269325875 0.9434505977
H 4.0706657081 -0.5545153933 0.3938617877
