36
CONF170
C 1.0852314066 3.1733234569 -2.2155487333
C 1.9934696501 2.7876325463 -1.0534336327
C 2.1113117290 1.3168539457 -0.7847664517
C 1.5270342469 0.3343541024 -1.4698485713
C 1.6732149887 -1.1222590506 -1.1513515775
C 0.3390058563 -1.7801557975 -0.7810754359
C -0.4840202508 -1.1366676029 0.3421579710
C -1.8901962789 -1.7308444708 0.1367837574
C -2.0652317634 -1.7278296185 -1.3852766586
C -0.6528283820 -1.8642736647 -1.9432853640
O -0.3586234898 -1.9993863532 -3.1080541895
C 0.1043111253 -1.3633174005 1.7382309605
C -0.8027192705 -0.8042007102 2.8045520071
O -1.5171292029 -1.4522705325 3.5336883714
O -0.7508105446 0.5507977671 2.8192240508
C -1.6326999661 1.1798662685 3.7727181605
H 1.0565091113 4.2597009649 -2.3366330116
H 0.0602195418 2.8264902305 -2.0488868335
H 1.4377823107 2.7394117981 -3.1564164829
H 1.6451063858 3.2785681373 -0.1331999016
H 3.0022716931 3.1908531072 -1.2235426637
H 2.7500286349 1.0484425795 0.0592106381
H 0.8870209557 0.5690650355 -2.3196854232
H 2.3922759726 -1.2576517175 -0.3351518676
H 2.0660864534 -1.6557964625 -2.0264646705
H 0.5293035346 -2.8322884612 -0.5032619441
H -0.5240233464 -0.0546027101 0.1565883903
H -2.6657483587 -1.1676992269 0.6631544450
H -1.9125908630 -2.7565848705 0.5256701387
H -2.4541155765 -0.7642687704 -1.7412938944
H -2.7222176588 -2.5039330295 -1.7866741881
H 0.2196473492 -2.4340766517 1.9303980908
H 1.0837610836 -0.8771849872 1.8041491233
H -1.4775929569 2.2516693181 3.6506346318
H -1.3808542062 0.8655188614 4.7888557143
H -2.6721896177 0.9127433557 3.5647586486
