46
CONF13
C -1.1796477582 0.1408925990 1.0560732483
C -1.7941505433 -0.2877895565 2.3971535818
C -3.3108584948 -0.4164014219 2.1011214863
C -3.4849755196 -0.1763470929 0.5709894784
O -4.5525942666 -1.0137029991 0.1023537262
C -3.8326542765 1.2238820407 0.3074126912
C -4.1600814935 2.3660454041 0.0949658685
C -2.0713657741 -0.5391506778 -0.0004256067
C -1.9417249625 -2.0699853199 -0.0005053349
C -1.7229447695 0.0173250181 -1.3806121485
C -0.2239285894 -0.1401065005 -1.6845479514
C 0.6598025559 0.4765171739 -0.5851797121
C 2.1534486053 0.3697614016 -0.8626910291
C 3.0824889114 0.2398937483 0.1871261612
C 2.6479083981 0.1374758271 1.6318959082
C 1.2010528884 0.5634425859 1.8557631455
C 0.3034997996 -0.0862447978 0.8068431253
C 4.4500028303 0.1828891676 -0.0921714910
C 4.9191762188 0.2569737852 -1.3987517870
O 6.2743791506 0.1950240461 -1.5931617117
C 4.0138631961 0.3946794388 -2.4496003971
C 2.6535676099 0.4503371211 -2.1681166365
H -1.3509674131 1.2247448461 0.9512351584
H -1.3788528050 -1.2485110750 2.7213567486
H -1.5935873954 0.4370465767 3.1901859315
H -3.6858496253 -1.4195893852 2.3209833024
H -3.9137095568 0.2926245446 2.6719406134
H -4.6883536752 -0.8207504377 -0.8354642955
H -4.4416539325 3.3758060526 -0.0991628109
H -0.9203897857 -2.3805785144 -0.2282604366
H -2.2173849865 -2.5107056808 0.9602909630
H -2.5995726855 -2.4963198159 -0.7628229950
H -1.9758754962 1.0845711231 -1.4115682555
H -2.3136711447 -0.4798030819 -2.1613130886
H -0.0244617053 0.3448822908 -2.6447450188
H 0.0404265247 -1.1977260840 -1.8101468522
H 0.4100070461 1.5516741828 -0.5468922226
H 2.7660197411 -0.9074336556 1.9531594249
H 3.3301146109 0.7253161045 2.2565441732
H 1.1074241949 1.6562263352 1.7818728408
H 0.8867220205 0.2790785212 2.8660206309
H 0.5126765302 -1.1674885508 0.8135187014
H 5.1654692568 0.0824561915 0.7200562358
H 6.4631671769 0.2639750275 -2.5383152762
H 4.3680906824 0.4595253749 -3.4751729988
H 1.9699478172 0.5655680129 -3.0022123546
