27
CONF190
C 3.0612853750 -1.3463092492 0.3355835415
C 4.1998465572 -1.0076165582 -0.6321751196
C 4.8730187792 0.3346596857 -0.4044672288
O 3.9626099886 1.3803904422 -0.7721287073
C 1.8154053498 -0.4731086217 0.1469518029
C 0.6523173604 -0.9773429257 0.9650164050
C -0.6160820530 -0.0665950489 0.9734259252
C -1.1664422992 0.3307722006 -0.4310865038
C -2.6222750075 0.8981142156 -0.4258124801
F -2.7545322391 1.8542692448 0.5037144585
F -3.5138456787 -0.0700169290 -0.1899485492
F -2.8822411947 1.4303164474 -1.6300816303
F -1.1576327001 -0.7462324222 -1.2532429021
F -0.3592427284 1.2833256834 -0.9586875499
F -0.3079684070 1.0781250833 1.6353760981
F -1.6032459478 -0.7023186713 1.6534039715
F 1.0067914301 -1.0978656372 2.2861106763
F 0.2594374317 -2.2229412141 0.5530607487
H 2.7819546907 -2.3956901927 0.1892016516
H 3.4186425362 -1.2558640470 1.3674804478
H 4.9728851914 -1.7797563846 -0.5364054550
H 3.8412249132 -1.0482508963 -1.6687698074
H 5.7855801635 0.3911106303 -1.0174071507
H 5.1674950269 0.4302251502 0.6535869463
H 1.5144664418 -0.4708971532 -0.9057693442
H 2.0164367451 0.5642754595 0.4231536665
H 4.4064478560 2.2257097650 -0.6490420772
