26
CONF1
C -0.2984699857 2.3204160155 0.7214776023
C 0.0355892082 1.1585476278 0.1764841707
C -0.8865186835 -0.0446759900 -0.1140658555
C 0.1812151245 -1.0596896362 -0.7082868771
C 1.1693486571 -1.6198070567 0.3560173547
C 1.9558207612 -0.3477391250 0.8262017803
C 1.4558341895 0.7460977019 -0.1645568165
C 1.2102973978 -0.0934308533 -1.4422217453
Cl 0.6076959527 0.8967602933 -2.7958154329
Cl 2.6806208987 -0.9236181805 -2.0740487685
Cl 2.6238634056 2.0714654383 -0.3325849234
Cl 1.7745252171 0.1356674738 2.5380590065
Cl 0.5449625877 -2.7182019272 1.6157598789
Cl -0.4645288642 -2.3516614276 -1.7442998033
C -2.0183833954 0.1731158362 -1.1480617169
Cl -3.1579779923 1.5167766679 -0.7114914444
C -1.5403808159 -0.4112083418 1.2336061860
Cl -2.6757134098 -1.8266699136 1.1689592604
H 0.4575662833 3.0761829769 0.9008527424
H -1.3201607330 2.5545628909 0.9869849460
H 1.8734717475 -2.2472315962 -0.1862881427
H 3.0236492788 -0.5110871861 0.6770700493
H -2.6266188654 -0.7300288493 -1.1882685881
H -1.6477013278 0.4073390590 -2.1376213808
H -0.8076794608 -0.6126277306 2.0097686475
H -2.1503274758 0.4407460330 1.5363690705
