45
CONF171
C 3.9163612389 -1.9230223209 -1.3599476179
C 2.9379495640 -2.5842593840 -0.3909861931
C 2.7963912685 -1.8410252566 0.9425606114
C 2.3557098946 -0.3858551106 0.8197426925
N 1.0691123783 -0.3022215215 0.1353586561
C 0.3971424416 0.8740842154 -0.0234190087
C -0.9375540475 0.8710550893 -0.4946346065
C -1.6078593481 2.0641331623 -0.7383412617
C -1.0074087216 3.2967248054 -0.5237694706
C 0.2977511425 3.3113193855 -0.0301262160
C 0.9883640339 2.1249134842 0.2226586511
C 0.9221450831 4.6361843665 0.2101036100
O 0.3705952093 5.7004906432 0.0053263057
O 2.1823683000 4.5460742153 0.6861072899
S -3.3150999928 2.0118502115 -1.3154458681
O -4.0936027312 1.1940423433 -0.3745183641
O -3.7157760049 3.3966594806 -1.5976507484
N -3.3476671922 1.2017421979 -2.7856062192
O -1.5424884972 -0.3220526332 -0.8243570768
C -1.8866140471 -1.1998958982 0.2036580580
C -2.1255046521 -2.5155767326 -0.1795786855
C -2.4890432739 -3.4426972809 0.7915040353
C -2.6036938357 -3.0595133431 2.1269976237
C -2.3586101553 -1.7369630262 2.4873893224
C -2.0013305287 -0.7923555168 1.5277514319
H 4.0583131907 -2.5404546538 -2.2521006407
H 3.5550612960 -0.9440282439 -1.6914483380
H 4.8958890053 -1.7782174800 -0.8900456488
H 3.2723173676 -3.6055329000 -0.1733743922
H 1.9566755382 -2.6831095742 -0.8719808711
H 3.7602114390 -1.8461653766 1.4655059021
H 2.0853998948 -2.3746654425 1.5874003101
H 3.1023168905 0.1875815745 0.2549964441
H 2.2924160219 0.0644028809 1.8228339026
H 0.5107567422 -1.1425382740 0.1554291388
H -1.5384492874 4.2187698283 -0.7197618920
H 2.0027867733 2.1691136577 0.5949002300
H 2.5156390169 5.4499904165 0.8131582676
H -2.7955495915 1.6958683754 -3.4846478730
H -3.0130402796 0.2454380519 -2.6773241743
H -2.0248253300 -2.7961949973 -1.2228246290
H -2.6786154347 -4.4709321937 0.5003169624
H -2.8837507322 -3.7870990037 2.8812668088
H -2.4509017948 -1.4278580798 3.5237387186
H -1.8242879617 0.2417960384 1.8040458120
