29
CONF17
C -0.6375460465 -1.5251856937 -3.0325339655
C -0.8017675674 -0.0337576200 -2.8702313944
O -1.0225460834 0.2996605705 -1.4573778376
P 0.1327279210 0.8320378463 -0.5084196793
S 1.9813529765 0.5490433253 -0.9958986276
O -0.3499329214 2.3317535277 -0.2498081661
C 0.4252464383 3.2082164296 0.6319714458
C -0.2519297353 4.5567071102 0.6291172667
O -0.3170992021 0.2010995146 0.9577142670
C -0.0086760112 -1.0559648892 1.3602013611
N 0.0956267111 -2.0209496407 0.4657721905
C 0.3719668755 -3.2513083439 0.8481117185
C 0.5503619030 -3.5962404305 2.1894206547
C 0.4366395654 -2.5888911337 3.1425643171
C 0.1580465921 -1.2967629185 2.7292724593
Cl 0.0225474148 -0.0079024606 3.8856197862
Cl 0.9068568374 -5.2184538797 2.6922336128
Cl 0.5033622775 -4.4543189334 -0.4083525810
H 0.2645559411 -1.8723434697 -2.5238988452
H -1.4995676773 -2.0580941565 -2.6221788631
H -0.5552403605 -1.7611382191 -4.0986058796
H -1.6945329296 0.3404820372 -3.3769796245
H 0.0732795268 0.5126838061 -3.2344509950
H 1.4492495335 3.2631699061 0.2482272370
H 0.4393250063 2.7631360300 1.6331535525
H -1.2767513472 4.4793448766 1.0014833496
H 0.3039995120 5.2385875352 1.2795173327
H -0.2717367588 4.9778319946 -0.3794988601
H 0.5721819101 -2.8124430224 4.1939572824
