44
CONF47
C -3.1521208092 2.0885328706 3.2661454902
C -2.7693286056 0.9196998388 2.3931442088
C -3.8498150417 -0.1243549595 2.1779604693
O -3.4992926625 -0.7000439272 0.9054032603
C -2.7304969502 0.2703791814 0.1835247457
O -2.5721649218 1.3834931165 1.0354166515
C -3.4880194864 0.7571733366 -1.0697293940
N -4.8377443547 1.1750475027 -0.7464105691
C -5.9319677721 0.3980820333 -0.6113914622
N -6.9658790665 1.1249706512 -0.2063392976
C -6.4275209661 2.3737212283 -0.1004588269
N -5.1410235410 2.4556281130 -0.4137438677
C -1.3808285471 -0.3309248012 -0.2100815099
C -1.2248872086 -1.5524587680 -0.8750394934
C 0.0241799729 -2.0560338065 -1.2130767440
C 1.1588786399 -1.3168040042 -0.8966461681
C 1.0495539521 -0.0882557781 -0.2525396552
C -0.2137226870 0.3824212734 0.0766868224
O 2.3592730129 -1.8403304767 -1.3206510267
C 3.5076941889 -1.5619430886 -0.5969308290
C 3.5531848041 -1.7236947065 0.7852334530
C 4.7496971274 -1.5065172900 1.4585150975
C 5.8788670804 -1.1412878224 0.7332402440
C 5.8410427642 -0.9892710611 -0.6472500780
C 4.6394501292 -1.1988037541 -1.3167172169
Cl 7.3940155030 -0.8686660187 1.5864473456
Cl -2.6057999510 -2.5512877116 -1.3239137390
H -4.0584016949 2.5665927316 2.8822795179
H -3.3405396024 1.7389116427 4.2856248471
H -2.3452652124 2.8250939229 3.2996236098
H -1.8431316651 0.4419767850 2.7469168586
H -3.8451358358 -0.9201956828 2.9265277967
H -4.8436811500 0.3437094967 2.1267224690
H -2.9487729437 1.6026359484 -1.5032298828
H -3.5424008274 -0.0474816509 -1.8049419727
H -5.9235069658 -0.6632412782 -0.8215600428
H -6.9945064052 3.2438591560 0.2058229744
H 0.1246813712 -3.0094470552 -1.7180317807
H 1.9318522097 0.4960477017 -0.0180094121
H -0.3098120845 1.3399269371 0.5751024308
H 2.6648675584 -2.0191548687 1.3333418467
H 4.8017183546 -1.6310099108 2.5340758751
H 6.7315545869 -0.7056103629 -1.1962500615
H 4.5786015390 -1.0838456410 -2.3934279144
