27
CONF2
C -1.1369589602 1.0280527665 1.1297854991
N -1.0390156242 1.0300593391 -0.3723740661
O -0.5998779292 2.2058128806 -0.8025443978
C -2.3798828898 0.6318145309 -0.9752660800
C -2.4971406882 -0.8835100667 -0.8250285708
C -1.0373071982 -1.4038253373 -0.6731025441
C -0.1486558223 -0.1832807770 -0.8600931810
C 1.2045416419 -0.1402547046 -0.2355850393
C 2.0995333645 0.8579730992 -0.6534244770
N 3.3162039622 1.0314329547 -0.1340897207
C 3.7002803240 0.1932507103 0.8333959772
C 2.9015720144 -0.8397003995 1.3120878558
C 1.6327410926 -1.0042831660 0.7705954405
H -1.4882334384 0.0655528158 1.5181732329
H -1.8296137876 1.8286156253 1.3911888669
H -0.1446678540 1.2615837084 1.5146504323
H -2.3020713976 0.9518005261 -2.0165611771
H -3.1621228644 1.2133893028 -0.4845986333
H -3.0957149874 -1.1551968153 0.0486539295
H -2.9897327757 -1.3174827280 -1.6981430471
H -0.7937040010 -2.1702268006 -1.4132195177
H -0.9021474365 -1.8580837055 0.3116308940
H -0.0596280358 0.0632301528 -1.9239794102
H 1.7927387716 1.5475378222 -1.4359636721
H 4.6981746472 0.3510920879 1.2399414750
H 3.2663431554 -1.5017831419 2.0903683968
H 0.9943469168 -1.8035705798 1.1328782342
