33
CONF684
C 5.3187184398 -3.3353106495 -1.6103730224
C 5.7301802550 -2.4708133472 -0.4108992115
C 4.8923090422 -1.2274898725 -0.2909891428
C 5.3474249311 -0.0019886656 -0.5754974928
C 3.4977789305 -1.4382328136 0.1860991780
O 3.0941664745 -2.4853284064 0.6595100066
O 2.7134560351 -0.3468205663 0.0503559495
C 1.3592948969 -0.4899334071 0.5392830795
C 0.7051862269 0.8642498667 0.3084289291
C -0.7186165302 0.8660355608 0.8084073488
C -1.4674515135 2.1993854035 0.5307071641
C -2.8578457984 2.4321673165 1.2187288739
C -3.9653128860 1.3502758317 1.0306715583
F -3.6749570050 0.2454814563 1.7278525884
F -5.1273577284 1.8424536142 1.4849751385
F -4.1093810127 1.0343907138 -0.2628192219
F -2.6711621063 2.5979775427 2.5474788755
F -3.3436800299 3.5911303513 0.7059622431
F -0.6826917450 3.2272396504 0.9501804458
F -1.6395570325 2.3169815892 -0.8092921510
F -0.7638402610 0.6345744876 2.1591176163
F -1.4447138805 -0.1314754816 0.2062473053
H 5.9370126236 -4.2364189650 -1.6612280565
H 5.4438734168 -2.7796204760 -2.5449016278
H 4.2724924659 -3.6451684692 -1.5324921607
H 5.6367088247 -3.0579299874 0.5092148195
H 6.7786062544 -2.1748438252 -0.5106494362
H 4.7208909105 0.8782256379 -0.4898347020
H 6.3757214346 0.1394940651 -0.8953570226
H 1.3833175572 -0.7535750313 1.6005721764
H 0.8575757141 -1.2866935603 -0.0167421570
H 1.2581441104 1.6442435826 0.8387124680
H 0.6984518618 1.1068242699 -0.7587855537
