64
CONF86
C 2.3900074246 0.4418291228 -2.2680976946
C 1.7419666492 0.1449651260 -3.6013489984
O 0.3778741886 -0.2801723306 -3.4691125117
C -0.5954677138 0.5680773301 -4.0776110749
C -0.9319101812 1.7812790879 -3.2390294744
O -1.5262781441 1.2883291913 -2.0274810281
C -1.6711568908 2.1454919556 -0.9821592229
C -1.4314049997 3.5147899210 -1.0253771787
C -1.5922535114 4.2917731953 0.1272894910
C -2.0007790648 3.7027094039 1.3144938472
C -2.2581733722 2.3284778309 1.3652778757
C -2.0954321053 1.5461654734 0.2279714277
O -2.3096168840 0.2028068923 0.1619073757
C -2.5660125393 -0.5016126340 1.3869304642
C -2.6010249718 -1.9763327998 1.0559627870
O -1.3281598636 -2.4324073972 0.5974380492
C -1.2676077760 -2.6859973086 -0.8077103827
C 0.1620734570 -2.9847096232 -1.1905445103
O 0.6072210514 -4.2119515058 -0.5910441613
C 1.7818635360 -4.1165120747 0.2137384189
C 1.5528557362 -3.4614239620 1.5622609384
O 1.6455277153 -2.0328737345 1.4068602826
C 1.1277775022 -1.2517375863 2.3920642152
C 0.6175373632 -1.7204390230 3.5991352832
C 0.0803644061 -0.8299121586 4.5342484350
C 0.0595582834 0.5299060308 4.2673498474
C 0.5863925862 1.0152371237 3.0662617291
C 1.1238665835 0.1394155963 2.1287850387
O 1.6658521030 0.5163015582 0.9330396932
C 1.7523375141 1.9277805968 0.6735493567
C 2.5587506031 2.1455668136 -0.5846163778
O 1.8988032776 1.6862638804 -1.7654293672
H 3.4791568475 0.5035635031 -2.4225733676
H 2.1880377097 -0.3736886253 -1.5589216973
H 2.3019636050 -0.6744815630 -4.0723946465
H 1.8145483918 1.0262312468 -4.2527857534
H -1.4918266035 -0.0480994453 -4.2077658280
H -0.2614073029 0.9043900149 -5.0700434116
H -1.6440026898 2.4234697197 -3.7771939431
H -0.0263047704 2.3516871457 -3.0059843618
H -1.1144694531 3.9842789699 -1.9491941213
H -1.3952333889 5.3579166958 0.0807941511
H -2.1248923173 4.2999235325 2.2119870944
H -2.5717706791 1.8753363958 2.2982493248
H -3.5308699753 -0.1927689720 1.8149149591
H -1.7654783527 -0.2904435127 2.1086338660
H -2.8525911420 -2.5227098343 1.9743762020
H -3.3823474394 -2.1823259597 0.3118597558
H -1.9157752327 -3.5389904034 -1.0658058850
H -1.6029356695 -1.8080424885 -1.3797533934
H 0.8060149196 -2.1519203344 -0.8915314493
H 0.2117281580 -3.0884741092 -2.2836463252
H 2.0969433545 -5.1500931310 0.3910029738
H 2.5900072126 -3.5990709146 -0.3252522900
H 0.5582994847 -3.7386892244 1.9282500197
H 2.3142583696 -3.7958607122 2.2811818958
H 0.6337939220 -2.7798877543 3.8233816504
H -0.3176531225 -1.2158351159 5.4671847556
H -0.3627933956 1.2280132854 4.9828036800
H 0.5517112638 2.0782082276 2.8630774759
H 2.2635710094 2.4328946173 1.5055025629
H 0.7432896194 2.3487016654 0.5639117545
H 3.5479066469 1.6774851856 -0.4866761969
H 2.7037681578 3.2281979028 -0.6916202017
