40
CONF197
C 3.2244388790 0.8619684329 -2.3267289331
C 3.6107333800 1.8138268319 -1.2175126171
O 3.0673750542 1.3891978715 0.0755078470
P 1.5217190258 1.5560983048 0.4356752708
S 0.5993302745 3.0973108866 -0.2866906762
O 1.5272845235 1.3565277921 2.0226694745
C 1.8996824666 2.4707642585 2.8966279348
C 1.7160949240 2.0025080210 4.3194841342
O 0.9588632674 0.0932203571 -0.0228608526
C -0.3668103130 -0.2773774620 -0.0558866020
C -1.3167322858 0.2406936047 0.8174734800
C -2.6071274984 -0.2564052244 0.6762428985
N -2.9058631623 -1.1896987960 -0.2469746286
C -1.9075847183 -1.6207506661 -1.0220808563
N -0.6343315224 -1.1939443159 -0.9648220611
C -2.2190699051 -2.6794846797 -2.0516539691
C -1.8754766885 -2.1876380926 -3.4625308192
C -1.4688632822 -3.9769122869 -1.7225514998
C -3.7304590477 0.2187764610 1.5425753079
H 3.7358095902 1.1636783739 -3.2464443224
H 2.1468626577 0.8833538443 -2.5122738546
H 3.5192464428 -0.1620428181 -2.0823933878
H 3.2654829518 2.8337785977 -1.4159028518
H 4.6900069001 1.8251711148 -1.0508220767
H 2.9416883578 2.7376108780 2.6882732446
H 1.2559993127 3.3247186527 2.6602777163
H 0.6745768980 1.7258627287 4.5041827393
H 1.9863709631 2.8132508483 5.0025379371
H 2.3544931570 1.1411080282 4.5320129032
H -1.0727642368 0.9831579228 1.5660661883
H -3.2961058740 -2.8641149931 -1.9873291679
H -0.8014939793 -1.9989864987 -3.5505728946
H -2.4086208238 -1.2619434555 -3.7008714776
H -2.1561989388 -2.9458301422 -4.2003214127
H -1.7349175389 -4.7557442569 -2.4441321560
H -0.3878375752 -3.8143342627 -1.7709650454
H -1.7200524306 -4.3367828986 -0.7198483306
H -4.1773424222 -0.6295112303 2.0702306097
H -3.3929737432 0.9596851214 2.2694798276
H -4.5154342514 0.6592331523 0.9195579994
