48
CONF120
C 2.6380964728 -2.9776385930 -1.8204428655
C 2.5299720188 -1.6093533866 -2.4879872464
C 2.6939747442 -0.4257176058 -1.5292489435
C 1.6852291813 -0.5221380409 -0.3731895536
O 1.9784978446 -0.9715116574 0.7273602703
N 0.4325216226 -0.0997819175 -0.7034655486
C -0.6732756660 -0.2061770668 0.1937298950
C -1.8916126682 -1.1213861579 -0.1768619757
N -2.7383430477 0.0789789239 -0.1489230824
C -1.7090161591 0.9402702189 0.2101904431
O -1.6926518262 2.1256491721 0.4447025224
C -4.0595439247 -0.0399916369 0.4225710462
C -3.9182763535 -1.0405722851 1.6297549713
S -2.6180850185 -2.2733792971 1.0625990695
C -3.4238133342 -0.2757764232 2.8576627732
C -5.2015167710 -1.7986842013 1.9544176120
C -5.0416170085 -0.5278528264 -0.6311552700
O -4.7504664859 -1.2466141586 -1.5601440229
O -6.2807251422 -0.0701856988 -0.3866093502
O 4.0262322994 -0.4687111105 -1.0304309887
C 4.4960383521 0.6071975534 -0.3245677403
C 5.8114420958 0.4885669242 0.1356789811
C 6.3911116414 1.5284258234 0.8492046771
C 5.6718750794 2.6951139463 1.1136426317
C 4.3641823881 2.8038962310 0.6535710697
C 3.7651332822 1.7685500202 -0.0650759078
H 3.5878667677 -3.0845455141 -1.2894579910
H 1.8275503308 -3.1381507102 -1.1023539647
H 2.5790752982 -3.7669003949 -2.5750653360
H 3.2974445988 -1.4984702634 -3.2620490089
H 1.5594203746 -1.5033365738 -2.9852265102
H 0.2646505696 0.2602241253 -1.6328607545
H -1.8214810011 -1.6144250485 -1.1494531277
H -4.3866325738 0.9336343689 0.8009572936
H -4.2004145656 0.4216641368 3.1922476175
H -2.5122843330 0.2918488975 2.6511587291
H -3.2098597142 -0.9758374769 3.6692335282
H -5.0262061617 -2.4798161840 2.7915824379
H -5.9794847105 -1.0888185837 2.2530782953
H -5.5609824478 -2.3834521307 1.1036811647
H -6.8844982078 -0.4404074146 -1.0545635579
H 6.3608892634 -0.4231378673 -0.0759003289
H 7.4129231842 1.4262244603 1.2018737947
H 6.1266296375 3.5062714609 1.6722771552
H 3.7894849304 3.7031296797 0.8535934640
H -0.3048471791 -0.4118872865 1.2031817558
H 2.5315379562 0.5079441335 -2.0868805895
H 2.7420581500 1.8846169044 -0.4030816299
