41
CONF36
C -2.7971685805 1.7694982797 -0.8303093488
C -2.1197218985 2.6716842355 0.2072987840
C -1.8462235277 4.0565046638 -0.3721488402
N -0.8543843508 2.1227950702 0.7280735053
C -0.9801712465 0.8376439529 1.4220951418
C 0.2585668607 0.6029176191 2.2842084064
O 0.4225532110 1.6516134859 3.2405089778
C 1.5439916900 0.5313868238 1.4460631632
O 1.3915199478 -0.2579164499 0.2573722379
C 1.2503347828 -1.6135964460 0.3684034611
C 1.6098943596 -2.3469897652 1.5001390053
C 1.4656745790 -3.7327251237 1.5004072655
C 0.9601316085 -4.3895830839 0.3847298628
C 0.5928031046 -3.6453519991 -0.7346495366
C 0.7236165408 -2.2591247928 -0.7658724752
C 0.3319255912 -1.4583308317 -1.9851586189
C 1.5220558717 -1.0723080956 -2.8207078311
C 1.8607123814 0.1761987541 -3.1297107246
H -2.1417847997 1.6386510403 -1.7007021443
H -3.0251211571 0.7806043939 -0.4212816830
H -3.7359819753 2.2137047388 -1.1773380575
H -2.7903033519 2.7786065874 1.0720369237
H -2.7724576856 4.5171530155 -0.7282943988
H -1.1588126616 3.9847456674 -1.2239917029
H -1.3946424936 4.7106113038 0.3791212329
H -0.2144716997 2.0125312784 -0.0558424899
H -1.8480115418 0.8907256114 2.0913969256
H -1.1293234480 -0.0266541547 0.7548007767
H 0.1203192076 -0.3227462583 2.8535253329
H 0.2171149006 2.4643483055 2.7488660680
H 2.3872953982 0.1867275546 2.0559299354
H 1.7869194341 1.5336580345 1.0809523110
H 2.0042746234 -1.8523355393 2.3797301006
H 1.7510587877 -4.2943123975 2.3844767295
H 0.8433107960 -5.4680793920 0.3862308789
H 0.1833758303 -4.1479861498 -1.6072174333
H -0.3460256171 -2.0720564439 -2.5916598586
H -0.2114095876 -0.5545440178 -1.6878070995
H 2.1312402858 -1.9023889696 -3.1793587286
H 1.2769620671 1.0215531231 -2.7723928668
H 2.7303642872 0.3938067946 -3.7419232039
