41
CONF36
C 2.9774768328 -3.6607490628 -2.2115044840
C 3.9385990883 -2.5432667381 -1.8846725508
O 3.2014522495 -1.3038125999 -1.5681114371
C 2.7150447854 -1.1751999073 -0.3591866032
N 2.8949894995 -2.0241247576 0.6202213879
C 2.3400470784 -1.7504303268 1.8047734459
C 1.5825408751 -0.6580635965 2.1320649284
C 1.3877404698 0.2458999682 1.0800561360
N 0.7141028055 1.3959343272 0.9756234446
C 0.9273190571 1.7338068705 -0.3159437551
N 1.6671085658 0.9272133636 -1.0641891397
N 1.9685415693 -0.0416004101 -0.1551391077
S 0.1197101495 3.1722249388 -1.0418721049
O 0.7096343121 3.3916633472 -2.3607437976
O 0.0837057132 4.2093212059 -0.0130721688
N -1.4801512923 2.6426779099 -1.3205319496
C -2.3386742392 2.5150116477 -0.1957799658
C -2.5559094778 1.2767033318 0.4503336031
C -3.4055709684 1.2080655903 1.5566487295
C -4.0415304981 2.3471532012 2.0294105833
C -3.8612266185 3.5650208989 1.3871786814
C -3.0275914094 3.6395516798 0.2771027130
Cl -2.9128583770 5.1667069189 -0.5639995719
C -1.9368100914 0.0304536288 -0.0765739701
O -1.5370503638 -0.1166857507 -1.2220593940
O -1.8859737647 -0.9379973715 0.8454134040
C -1.4001289165 -2.2246461526 0.3816592967
F 2.5727998717 -2.6797339960 2.7406950950
H 3.5563022309 -4.5376967055 -2.5171415597
H 2.3195579388 -3.3762410059 -3.0368005654
H 2.3721838828 -3.9345101589 -1.3438160262
H 4.5922835250 -2.7782905213 -1.0423746291
H 4.5377166122 -2.2523133187 -2.7478844256
H 1.1565086126 -0.5013751308 3.1131733173
H -1.4408882444 1.7737794858 -1.8618442854
H -3.5723220163 0.2529611354 2.0382302990
H -4.6981554194 2.2870511438 2.8902815680
H -4.3784304715 4.4544037350 1.7283925475
H -0.4042160618 -2.1219683830 -0.0548816627
H -1.3698897939 -2.8539776458 1.2695837448
H -2.0879880874 -2.6322807097 -0.3627202844
