47
CONF76
C -0.2657326818 1.2551005240 2.7889785751
C -0.9496783920 1.5999517290 1.4859503807
C -2.3979332178 2.0368656875 1.4726297480
C -2.0370162013 0.6231744906 1.0264036635
C -2.1490112396 0.2790345991 -0.3969898788
O -2.3195597839 1.0329398053 -1.3297656328
O -1.9830143529 -1.0730803942 -0.5603619205
C -1.8590579447 -1.4934987872 -1.9359494166
C -2.0070554791 -2.9495202538 -1.9134975363
N -2.1011992859 -4.1000755761 -1.9396439284
C -0.5177260432 -1.1025835930 -2.5342488633
C -0.4321618850 -0.8089723687 -3.8913724408
C 0.8032815266 -0.4538340368 -4.4302748763
C 1.9344679310 -0.3886123973 -3.6277133666
C 1.8277141201 -0.6839462253 -2.2676940174
C 0.6051641988 -1.0501429998 -1.7109742310
O 2.9783067725 -0.5454359745 -1.5268822619
C 3.0221604648 -1.0927493119 -0.2467960104
C 3.2213087092 -0.2308599959 0.8234742512
C 3.3395890888 -0.7644504432 2.1057350986
C 3.2523726908 -2.1398280191 2.3061274633
C 3.0557269959 -2.9894749897 1.2175094896
C 2.9436923997 -2.4706270022 -0.0688438949
C -3.1784653847 2.2049026906 2.7005451743
C -4.0681679225 3.1732567330 2.9200185026
Cl -4.9561246986 3.2994890403 4.4176727486
Cl -4.4587057587 4.4231256961 1.7698318597
C -0.0278728555 2.2296363948 0.4672329542
H 0.0862697889 2.1702614864 3.2778910207
H 0.6055201236 0.6228614282 2.5860616476
H -0.9173817455 0.7189122692 3.4816827913
H -2.6517064734 2.7003154490 0.6515685151
H -2.2391604248 -0.1902097790 1.7151068232
H -2.6742804885 -1.0722582167 -2.5364319451
H -1.3181492753 -0.8474450734 -4.5170789220
H 0.8837842385 -0.2174785968 -5.4862986078
H 2.8987559501 -0.1039251497 -4.0351723740
H 0.5223545128 -1.2703569120 -0.6527957531
H 3.2836315745 0.8379582290 0.6476293518
H 3.4962273446 -0.0989104251 2.9487893435
H 3.3413378919 -2.5504387564 3.3065420555
H 2.9958768116 -4.0628293381 1.3676114757
H 2.7949849888 -3.1197277996 -0.9260999659
H -3.0365884554 1.4902055489 3.5056894760
H 0.4264317632 3.1273268477 0.8996152872
H -0.5509894718 2.5130642337 -0.4473735502
H 0.7777801729 1.5328898347 0.2090074927
