52
CONF34
C -2.0954411937 -1.3186303654 -1.3821988281
C -0.6174293752 -1.5717412502 -1.4452932787
C 0.1032445076 -2.1572875471 -0.4751279755
C -0.4336193374 -2.7279965349 0.7702785350
C 0.0096358321 -2.2156597696 2.1772383775
C 0.3706846393 -3.6079763918 1.6821958240
C 1.8027165369 -3.9645668608 1.3547132433
C -0.3797088171 -4.7309567698 2.3686399344
C 0.9584082126 -1.0960494980 2.2402198928
O 1.9517627160 -0.9236635546 1.5682109652
O 0.5248639622 -0.1913351800 3.1766185692
C 1.2657885162 1.0352626740 3.2543812795
C 0.7210277929 2.0950630024 2.3289827009
C -0.0996048705 1.7765627359 1.2495141404
C -0.5491857594 2.7893065968 0.4139823254
C -0.2013452660 4.1183109286 0.6205480636
C 0.6212199514 4.4292538947 1.6979974870
C 1.0767823261 3.4273448528 2.5481617217
O -1.4182794258 2.4492553906 -0.6141542196
C -0.9541103833 2.5169765940 -1.9086287517
C 0.3960559687 2.6313605350 -2.2348428329
C 0.7671014336 2.6429740309 -3.5767484965
C -0.1866581441 2.5387293127 -4.5837563465
C -1.5324923556 2.4238627794 -4.2400802650
C -1.9223914459 2.4159960189 -2.9075354392
C 0.0362389519 -1.1084251144 -2.7151596550
H -2.5519455976 -1.6283997404 -0.4408765962
H -2.2887735792 -0.2463363833 -1.5115962092
H -2.6115669828 -1.8302499283 -2.2045100191
H 1.1750353141 -2.2370232062 -0.6251234931
H -1.4964801344 -2.9513194026 0.7559688937
H -0.7838250047 -2.1588753498 2.9145315693
H 2.3133746231 -4.3053358839 2.2618880790
H 2.3672860072 -3.1254008994 0.9522619743
H 1.8173232435 -4.7864183339 0.6302012728
H -1.4157723413 -4.4528945480 2.5839878458
H -0.3929384746 -5.6207308506 1.7293618901
H 0.1059344062 -4.9984961734 3.3135922374
H 1.1796678155 1.3629239477 4.2944487146
H 2.3195890614 0.8397874017 3.0240650609
H -0.3971950292 0.7554712400 1.0378985573
H -0.5741542332 4.8838382019 -0.0513621925
H 0.8981695981 5.4622088051 1.8823230177
H 1.7119461260 3.6831384449 3.3918563196
H 1.1444800273 2.6941865586 -1.4535660728
H 1.8191565922 2.7245696536 -3.8310320253
H 0.1140430576 2.5451086849 -5.6256054082
H -2.2875521556 2.3425372213 -5.0155089584
H -2.9651963632 2.3294039152 -2.6218210200
H -0.3714247630 -1.6529001503 -3.5771495465
H 1.1182926175 -1.2592023828 -2.6926459949
H -0.1627369100 -0.0455605425 -2.8944803465
