36
CONF324
C 3.9878895738 2.9271586966 -1.5316439068
C 2.8019254971 2.8296816115 -2.5005041288
C 1.5640654356 2.3215305350 -1.8269200729
C 0.9189032300 1.1992403654 -2.1509204825
C -0.3052943180 0.6949363392 -1.4461195400
C -0.1125906336 -0.6737743531 -0.7769655170
C -1.1595751318 -1.0640080987 0.2821456423
C -1.0049037115 -2.5933083099 0.3868612275
C -0.7883547008 -3.0402646269 -1.0600874703
C -0.1295034206 -1.8544119061 -1.7399421433
O 0.2828498991 -1.8429726258 -2.8850942049
C -0.9710007069 -0.3393381384 1.6068413471
C -2.0651857634 -0.6303614885 2.6021344669
O -3.1940526346 -0.9844373477 2.3246332767
O -1.6458510008 -0.4146455065 3.8635464901
C -2.6442876701 -0.5997933734 4.8991025599
H 3.7480517075 3.5818433715 -0.6869572645
H 4.8718720561 3.3324883664 -2.0338482377
H 4.2421484167 1.9403301728 -1.1313836741
H 3.0576050194 2.1764139702 -3.3430081348
H 2.6054619192 3.8275246835 -2.9167849568
H 1.1889818911 2.9250724467 -0.9964504974
H 1.2941505158 0.5883257321 -2.9714949181
H -1.1420418975 0.6096606533 -2.1538631382
H -0.6042065845 1.4234967958 -0.6834619148
H 0.8801927387 -0.7081175911 -0.2939253189
H -2.1564225216 -0.8320003148 -0.1172510003
H -1.8666698919 -3.0692404013 0.8602946715
H -0.1165007004 -2.8211908596 0.9891121039
H -1.7457688012 -3.2031748677 -1.5745108621
H -0.1945010030 -3.9495723165 -1.1894541982
H -0.0002857663 -0.5855354951 2.0506671393
H -0.9785725553 0.7498669451 1.4596283467
H -3.4802306388 0.0863313474 4.7435396559
H -2.1336822168 -0.3766472028 5.8349334031
H -3.0046153131 -1.6311078065 4.8940748451
