57
CONF176
C 0.8814656610 2.2176388661 -2.0326360598
C -0.2265398013 1.3777579460 -1.4065159166
C -1.5952467876 1.9543841563 -1.8483371605
C -2.8056601753 1.3229124548 -1.2184131411
C -3.3443572843 1.8419029356 -0.0380162800
C -4.4559740358 1.2524559338 0.5583757943
C -5.0474263996 0.1317492583 -0.0201294415
C -4.5265704302 -0.3876419179 -1.2037522682
C -3.4169923500 0.2066040566 -1.7983953335
C -0.1258146382 -0.1063996139 -1.7150673481
C -0.6335564493 -1.0574299145 -0.8256058747
C -0.5823008714 -2.4133920301 -1.1306259333
C -0.0340031075 -2.8427233130 -2.3369744370
C 0.4605684055 -1.9017366710 -3.2353153043
C 0.4160638728 -0.5437871824 -2.9262300779
O -0.2145437493 1.5518270390 0.0694029015
P 1.0817202423 1.6483707327 0.9758665495
O 1.8188887739 2.9265311494 1.0523215514
O 1.9415409338 0.3800215282 0.4639521182
C 3.3179394843 0.2395363680 0.6438328588
C 3.9457249093 0.5749159480 1.8379193052
C 5.3172322177 0.3589684760 1.9537109061
C 6.0404769134 -0.1897348599 0.8974212233
C 5.3878335459 -0.5264260149 -0.2869833232
C 4.0194527059 -0.3115245216 -0.4214531331
O 0.5086923634 1.2546367164 2.4294177140
C -0.2381461552 0.0787974380 2.6195233476
C 0.4189578030 -1.1319931421 2.7901606815
C -0.3430945452 -2.2812923461 2.9877350069
C -1.7342262796 -2.2088302536 3.0160675552
C -2.3698481109 -0.9785781539 2.8588664931
C -1.6210467473 0.1783623656 2.6617110813
H 1.8714422682 1.7983807812 -1.8328202270
H 0.8319714162 3.2357882562 -1.6396721227
H 0.7416850054 2.2687136185 -3.1146723621
H -1.6345317060 1.8342014254 -2.9361932058
H -1.5775948160 3.0277991089 -1.6307671330
H -2.8869685354 2.7166045306 0.4158987752
H -4.8601176894 1.6686192243 1.4765631906
H -5.9139650061 -0.3293224100 0.4438498919
H -4.9877271834 -1.2545666631 -1.6672929348
H -3.0167119903 -0.2012249646 -2.7227687068
H -1.0682634660 -0.7375840321 0.1138583283
H -0.9761811006 -3.1353512975 -0.4214266055
H 0.0067678263 -3.9010886283 -2.5748777367
H 0.8898402627 -2.2216015207 -4.1798687079
H 0.8108135756 0.1695352946 -3.6409157122
H 3.3797736905 0.9947155625 2.6627215027
H 5.8179197993 0.6199004681 2.8805675403
H 7.1078434929 -0.3561981286 0.9976433316
H 5.9435712864 -0.9564923863 -1.1140824685
H 3.4904386049 -0.5662155769 -1.3340952138
H 1.5025267066 -1.1735340993 2.7620266217
H 0.1566698969 -3.2359788579 3.1167519072
H -2.3216956423 -3.1088134763 3.1649944328
H -3.4530986150 -0.9147035726 2.8816688676
H -2.0956190860 1.1425332323 2.5210746074
