57
CONF1
C 2.8656478588 1.3663104349 -3.4629740548
C 2.4483320254 0.4103681655 -2.3498401840
C 1.0080471840 -0.1579519426 -2.5127644610
C 0.2999133621 0.2582707755 -1.2233841036
C -1.0444919008 -0.3717777054 -0.8506971926
C -1.0771710849 -1.9027069377 -0.7677077474
C -2.4730746410 -2.4146267219 -0.3961797930
C -2.9523032402 -1.7648788676 0.8625599239
C -3.3748263950 -2.4815350424 1.9221425509
C -3.8946432121 -1.8696165761 3.1416590640
O -4.2991995421 -2.5626128538 4.0915151547
C -3.9242105744 -0.4136847834 3.1820202760
C -3.4421039794 0.3224298550 2.1681676344
C -2.9706810340 -0.2560142666 0.8701232108
C -1.5562065606 0.2922560473 0.4467051194
C -0.4915139559 0.2516260627 1.5647560120
C 0.8543487606 0.8651232233 1.1275111997
C 1.4048122928 0.2187645857 -0.1425797860
C 2.4943375360 1.0534040477 -0.9282415782
C 3.8774297492 0.9858168296 -0.2968664020
O 4.6733063296 0.0854022125 -0.5193302153
C 4.2673824917 2.0885783018 0.6634785542
O 5.4980976835 1.8067243832 1.2996776669
O 2.0632803100 2.4181643133 -0.9162668905
C 1.9679000775 -1.1721204548 0.1903536288
O -0.9302587342 0.9179902269 2.7480140033
F -1.7499926451 1.6789263508 0.1699478030
C -4.0397376923 0.2150252808 -0.1684581986
H 2.9180816655 0.8261586655 -4.4129116436
H 2.1403201231 2.1781276471 -3.5902264551
H 3.8546458679 1.8020503619 -3.2743890868
H 3.1635701599 -0.4163226093 -2.3291434697
H 1.0375816127 -1.2450460109 -2.6350857415
H 0.5099124473 0.2578833435 -3.3945402929
H 0.0767794336 1.3241352235 -1.3382982577
H -1.7489373979 -0.0809310575 -1.6414562622
H -0.7808467404 -2.3176454028 -1.7357772746
H -0.3683860187 -2.2807470309 -0.0301230441
H -2.4643568436 -3.5011059169 -0.2741143454
H -3.1711889146 -2.1834515502 -1.2118269058
H -3.3717695423 -3.5685310030 1.8865636092
H -4.3229521705 0.0523530273 4.0787512985
H -3.4772416015 1.4069899351 2.2161790940
H -0.3660243396 -0.7966780405 1.8589406434
H 0.6948258222 1.9361979844 0.9645675579
H 1.5481403139 0.7508504097 1.9684518728
H 3.4640682785 2.2175776745 1.4039289363
H 4.3251575188 3.0318857417 0.0990608753
H 5.8356254662 0.9991442275 0.8744936062
H 2.5552726668 2.8979500476 -1.5952729099
H 2.8832705570 -1.0749526850 0.7797206431
H 1.2690661833 -1.7415549202 0.8018675492
H 2.1982626364 -1.7642804585 -0.6983954040
H -0.9870528712 1.8626934387 2.5459591731
H -4.1528599546 1.2992965815 -0.1231663344
H -3.7685812381 -0.0675470035 -1.1863831912
H -4.9968043037 -0.2514700154 0.0792841467
