25
CONF4
C -4.1234313175 0.5528585895 1.7538479295
C -3.8572752551 0.4923509210 0.2674172229
O -2.4304174715 0.3063395563 0.0958189496
C -2.0099441925 0.2296284771 -1.1924055179
O -2.7603748625 0.3077029381 -2.1454048030
C -0.5588188491 0.0439717454 -1.3186459076
C 0.2880910444 -0.0418834411 -0.2786872795
C 1.7322897114 -0.2235161895 -0.3363774007
C 2.4478042832 -0.2931185422 0.8690983603
C 3.8261146942 -0.4645238854 0.8763705380
C 4.5191801984 -0.5699316405 -0.3250512240
C 3.8231235659 -0.5029235939 -1.5321504397
C 2.4478211709 -0.3322017650 -1.5403525416
H -3.8109172541 -0.3732849108 2.2439563428
H -3.5873366123 1.3880563304 2.2127797697
H -5.1941524998 0.6919233196 1.9297063395
H -4.3820942266 -0.3408276034 -0.2121827424
H -4.1566927500 1.4135808848 -0.2437775767
H -0.2270350067 -0.0177679310 -2.3493803370
H -0.1340993601 0.0306520667 0.7209776525
H 1.9076897315 -0.2105858243 1.8079933032
H 4.3596982475 -0.5158494485 1.8198538685
H 5.5959602639 -0.7036407979 -0.3244529948
H 4.3600647962 -0.5847462378 -2.4717027926
H 1.9247518605 -0.2822632293 -2.4891121271
