78
CONF269
C -0.8181317863 0.1912398640 -0.8705878606
C 0.1074395725 0.8555739105 -1.8791794072
O -0.3609928049 0.3334734405 -3.1708566980
C -1.0227174944 -0.8407166639 -2.9957231652
O -1.4297002266 -1.4810899070 -3.9365249840
C -1.0664244614 -1.1599403326 -1.5210528218
C -2.2884474750 -1.8594890316 -0.9203712508
C -3.6144504217 -1.2191534420 -1.3168887539
C -4.2496197252 -1.6441393146 -2.4855080931
C -5.4440744444 -1.0444368291 -2.8775245690
O -6.1637143758 -1.3671836032 -3.9959959458
C -5.6219097214 -2.3732728019 -4.8615717555
C -6.0210505378 -0.0244019727 -2.1117331365
O -7.1955381624 0.5662206145 -2.4827741713
C -5.3885382739 0.3894446682 -0.9348682180
O -6.0266296508 1.3799267513 -0.2455122079
C -5.4105080085 1.8304028753 0.9662765848
C -4.1909583686 -0.2109536065 -0.5411682654
C -2.1040563319 -1.8852043107 0.5915522555
C -2.8792196003 -2.8206926839 1.3091335815
C -2.7743876603 -2.8298410385 2.6770056483
C -1.9404453885 -1.9451146234 3.3542997688
O -2.0286108230 -2.1569651902 4.7043913660
C -2.9562421654 -3.2502270450 4.8805121411
O -3.4234704962 -3.6383680518 3.5688140084
C -1.1810402651 -1.0204544803 2.6852960712
C -1.2662036439 -0.9924824947 1.2741490642
C -0.3638057515 -0.0010571103 0.5622315849
O 0.9934836827 -0.5361752329 0.5874547335
C 1.9376400593 0.2508231237 1.2363138521
O 2.3356191742 1.3102674418 0.3543244832
C 3.3183143629 2.1282203870 0.9858643487
C 3.6945521335 3.2771674252 0.0690336633
O 4.7467835586 4.0262835643 0.7074685528
C 5.8916550810 3.2453617323 1.0252491536
O 5.5767892061 2.1214477128 1.8358061843
C 4.5671579067 1.2924803783 1.2376494702
C 4.2669697519 0.1379464898 2.1755180481
O 5.3885976055 -0.7314954102 2.3185549467
C 3.1159595426 -0.6671173438 1.5860007639
O 2.7031383516 -1.6285745173 2.5506947664
C 6.6666952724 2.8386888714 -0.2035803617
C 7.4467113336 1.7287153476 -0.3909749636
C 8.1219681323 1.7253784224 -1.6419142539
C 7.8590487205 2.8389865961 -2.3912106275
S 6.7715167735 3.9110180196 -1.5717724832
H -1.7660075708 0.7439970321 -0.8444185718
H 1.1495477935 0.5537532591 -1.7516329657
H 0.0286925720 1.9424088410 -1.9235772194
H -0.1861500505 -1.7998117999 -1.3430076732
H -2.3053659407 -2.8948365279 -1.2794207580
H -3.8012230040 -2.4278084723 -3.0820653968
H -4.6371167261 -2.0732149830 -5.2376748797
H -6.3241660351 -2.4598370746 -5.6908486722
H -5.5435328053 -3.3342390849 -4.3405257819
H -7.4800710281 0.1519291557 -3.3110846418
H -6.0604758733 2.6159817684 1.3528208482
H -5.3393839475 1.0175026431 1.6990568466
H -4.4118783655 2.2402667886 0.7725693022
H -3.7137530615 0.0878988863 0.3833465155
H -3.5421712048 -3.5038555137 0.7879555644
H -3.8069619142 -2.9105324424 5.4801928650
H -2.4358710798 -4.0957702772 5.3433153598
H -0.5355620837 -0.3300612589 3.2183745256
H -0.3649729853 0.9547375985 1.1000386490
H 1.5261272127 0.6944748353 2.1618579205
H 2.9375977822 2.5259770636 1.9412329470
H 2.8668671163 3.9751277882 -0.0752187497
H 4.0184036058 2.8862998035 -0.9063394539
H 6.4996411079 3.8949274386 1.6639691017
H 4.9241467722 0.8924735321 0.2762622313
H 3.9596039308 0.5378656150 3.1558976954
H 6.0929095971 -0.2254880205 2.7442371063
H 3.4587163478 -1.1537146920 0.6587580030
H 1.9827845214 -2.1373570453 2.1534925676
H 7.5283727576 0.9393190779 0.3471332087
H 8.7745819772 0.9265753180 -1.9743568298
H 8.2275186270 3.0919621525 -3.3766407908
