39
CONF1
C -5.3096684272 2.1999369254 -1.2490005880
N -3.9287531556 1.7667349039 -1.1141873120
C -3.3790410964 0.6119842968 -1.5436137060
C -2.0495774888 0.6166994227 -1.1518521326
C -1.9047715129 1.8607257075 -0.4812583932
N -3.0493208808 2.5466331946 -0.4676126350
C -0.7286106988 2.5174788271 0.1441321934
F 0.3227148772 2.5977402027 -0.7353632208
F -0.2658074321 1.7662436553 1.2178278880
C -1.1442198062 -0.4985418345 -1.5172529629
O -1.4790442702 -1.3046317065 -2.3776559652
N 0.0394689106 -0.5519470250 -0.8239376516
C 1.1165599661 -1.4315398840 -1.0205890574
C 1.2787274652 -2.1728609160 -2.1966914352
C 2.4131780088 -2.9549465111 -2.3705397082
C 3.4032482655 -3.0065024456 -1.3952211875
C 3.2407229571 -2.2752982759 -0.2254673215
C 2.1016968911 -1.4986230665 -0.0119118823
C 1.9490433044 -0.7678725368 1.2695973772
C 0.8861938244 -1.0692178149 2.1293628716
C 0.7694878979 -0.3972741805 3.3318541823
C 1.6883034931 0.5749595886 3.7097984491
C 2.7401771304 0.8619937385 2.8487428322
C 2.8816219342 0.2056148095 1.6387327747
F 3.6205567357 1.8062605853 3.2143342973
F 1.5599656263 1.2207060110 4.8722570016
F -0.2419547109 -0.6752641618 4.1681463513
H -5.3334239240 3.2181942003 -1.6431024923
H -5.8215097431 1.5270749442 -1.9385854222
H -5.8093016457 2.1779796506 -0.2761499153
H -3.9280438995 -0.1356302085 -2.0960771357
H -0.9669685349 3.5206623465 0.5105684835
H 0.1455463940 0.0867850897 -0.0476201725
H 0.5185006275 -2.1250241076 -2.9625091918
H 2.5227306570 -3.5241594541 -3.2879479611
H 4.2889410601 -3.6159077139 -1.5381245990
H 3.9909611345 -2.3179533921 0.5582172599
H 0.1565689114 -1.8296266312 1.8740585732
H 3.7051013558 0.4684141737 0.9846411068
