65
CONF186
C -3.3178596256 3.9669057378 -0.1498810387
C -2.0807845797 3.9841388332 -1.0447395337
C -1.5976779108 2.5797370732 -1.4216522066
C -0.3949653122 2.6299720705 -2.3781119251
C -1.1882231118 1.8113248294 -0.1824124623
O -0.4982163418 2.2648542920 0.7119796304
O -1.6420736682 0.5435206263 -0.2065565922
C -1.2636317206 -0.3279602431 0.9095799096
C -2.1914800465 -0.0925227789 2.0896428577
C -1.7910041814 -0.9894625101 3.2707418641
C -1.5548822823 -2.3970335458 2.8082882426
C -1.3755886654 -2.7542487607 1.5228662273
C -1.3798809927 -1.7505339416 0.3884913992
C -0.3067226681 -2.1315363123 -0.6556995136
C -0.7181501439 -3.4957161161 -1.2560985762
C -0.9376723617 -4.4953509537 -0.1499805808
C -1.1999780649 -4.1406071881 1.1195950244
C 0.2584216576 -4.0344980866 -2.3053669870
C 1.1226209435 -2.1630103525 -0.0657821739
C 2.1767600048 -1.5221901022 -0.9792659943
C 2.1474290559 -0.0022179105 -0.9230451484
C 2.8483305243 0.5853712734 0.2848038005
C 2.8732434554 2.0945116609 0.1754036379
C 3.6479417658 2.4798281000 -1.0789011083
C 3.3102567452 1.6836287828 -2.3173845610
O 3.5940154075 2.0665927526 -3.4353857884
O 2.7498832413 0.4657483218 -2.1850694484
O 3.5020479134 2.6175024539 1.3521878204
C -0.5723762928 -0.4427108966 4.0361582239
H -3.6516980055 4.9832751384 0.0789155081
H -4.1454811824 3.4406327977 -0.6376674128
H -3.1116599947 3.4628994755 0.8009894079
H -2.2988137415 4.5223909212 -1.9746416161
H -1.2605653752 4.5179693961 -0.5504425934
H -2.4137493217 2.0318429785 -1.9056778447
H -0.0697808938 1.6261018972 -2.6686590481
H -0.6705647527 3.1751537274 -3.2855649884
H 0.4481012179 3.1478200697 -1.9080728608
H -0.2322879771 -0.0861211960 1.1843937438
H -2.1621038844 0.9605076938 2.3860196923
H -3.2152370973 -0.3301346961 1.7751120502
H -2.6323322834 -1.0056170567 3.9777378831
H -1.5308869927 -3.1711649059 3.5751854251
H -2.3571864274 -1.8264408233 -0.1141853899
H -0.3458368564 -1.3840492850 -1.4589516421
H -1.6809511493 -3.3384361816 -1.7691446798
H -0.8514180691 -5.5500680622 -0.4058994556
H -1.3074073929 -4.9020229409 1.8898629025
H 0.3924941710 -3.3142755799 -3.1188130466
H 1.2396714125 -4.2518523729 -1.8712344789
H -0.1274369879 -4.9648393421 -2.7348486090
H 1.1424669555 -1.6731010165 0.9151234746
H 1.4088444216 -3.2005475342 0.1320032799
H 3.1824133133 -1.8660087614 -0.7092150536
H 1.9967934202 -1.8285254972 -2.0146967420
H 1.1079517486 0.3508019794 -0.9548793372
H 3.8730712146 0.1965725504 0.3509723047
H 2.3080327391 0.2824357480 1.1880076883
H 1.8415045298 2.4657880242 0.1086694197
H 4.7160916378 2.2933126440 -0.8962331186
H 3.5418500622 3.5400539318 -1.3256545257
H 3.4433589935 3.5807981646 1.3170610299
H 0.3019222412 -0.3665358696 3.3810038393
H -0.3097429368 -1.1039518593 4.8679705995
H -0.7892103902 0.5512977498 4.4410489672
