47
CONF10
C 0.5372953459 -0.7010683112 -0.8742159780
C 1.5931763449 -1.8195381518 -0.9462513664
C 2.5202273142 -1.9192422082 0.2718173265
C 2.8927075911 -0.5366706257 0.8207041549
O 3.8766748650 -0.7570706985 1.8220602100
C 1.5999120632 0.1213371632 1.3127482772
C 0.9449516775 0.5289606837 -0.0199055329
C 2.1298163830 1.2545590888 -0.6982923687
C 3.3316750422 0.4231466366 -0.2861424195
C 4.5744391816 0.5250820189 -0.7460250097
C -0.4079252808 1.3067319614 0.2104543898
C -0.4099069377 2.6072332779 -0.5480315758
O -0.0270126276 3.6476504676 0.2368993369
O -0.6687722768 2.7373600514 -1.7227137421
C -1.5290816051 0.3676734533 -0.2863535884
C -2.6739566099 0.0054065651 0.6575998908
C -3.3559242032 1.1265571931 1.4191252640
C -3.7132361949 -0.8237700428 -0.1752146634
O -4.5792764097 0.0266762337 -0.9342376321
C -3.0643182065 -1.8326056304 -1.0924462920
C -1.7419599602 -1.9143877697 -1.2544796176
C -0.8727759747 -1.0110806606 -0.4278505483
O -0.8972474415 -1.5318727008 0.9556184219
C -1.9753437245 -0.9880509048 1.5959172132
O -2.2753715490 -1.2826114028 2.7201740800
H 0.3863651069 -0.3248769024 -1.8979434477
H 1.1038008387 -2.7842891618 -1.1208048789
H 2.2160191240 -1.6265428692 -1.8261888670
H 3.4391765957 -2.4434399823 -0.0101148559
H 2.0514030225 -2.4791038927 1.0886705739
H 4.1996746757 0.1064724576 2.1073291348
H 1.8265244403 1.0330066243 1.8834376109
H 1.0016141246 -0.5462361664 1.9326724603
H 2.0174390436 1.3497431791 -1.7829605819
H 2.2357220304 2.2666655650 -0.2852411566
H 5.3615676811 -0.1103663699 -0.3504970892
H 4.8416677625 1.2392088381 -1.5193227949
H -0.4981580267 1.5272786130 1.2770028197
H -0.0082489137 4.4342653285 -0.3321709881
H -1.8776173356 0.7215197768 -1.2608001681
H -2.6403474006 1.6704340738 2.0412283431
H -3.8309395082 1.8222145614 0.7245031761
H -4.1237300879 0.7167582352 2.0813649243
H -4.3779865035 -1.3328513669 0.5343803117
H -4.0990805241 0.3116097791 -1.7219855397
H -3.7445267680 -2.4747445635 -1.6461039911
H -1.2891055810 -2.6371316400 -1.9274132312
