43
CONF38
C 1.7361766588 2.0559431721 3.5217521057
C 2.1986227400 2.3019791162 2.1015468844
O 1.7069300682 1.2888917760 1.1846177864
N 0.3471152063 1.4602511819 1.0015877486
C -0.1913190421 0.5451134061 0.2916188505
C -1.6495386101 0.4983757167 0.1003533268
C -2.5357792643 0.4784665211 1.2019894043
C -3.9115093715 0.3723499737 0.9798434883
C -4.4053320002 0.2673734469 -0.3147578369
C -3.5392635732 0.2740835528 -1.3975326704
C -2.1614807178 0.3935628931 -1.2010881788
O -1.2959191387 0.3833730105 -2.2572154719
C -1.0794501715 1.6962812861 -2.8329497441
Cl -4.1721530940 0.1174449141 -3.0253491262
O -1.9781414385 0.5388547360 2.4316899306
C -2.8498730566 0.4618406786 3.5719409967
O 0.5003169304 -0.5489399211 -0.2177754625
C 1.4749956835 -0.3364382645 -1.1692323838
O 1.7095819316 0.7489211220 -1.6436852269
C 2.1541418689 -1.5982965885 -1.5315055620
C 3.1284432600 -1.5458371088 -2.5357381676
C 3.7988956347 -2.7011034438 -2.9137701533
C 3.5027237002 -3.9138511694 -2.2920795902
C 2.5339704980 -3.9693381372 -1.2915896807
C 1.8578483997 -2.8168546773 -0.9087544538
H 0.6480322908 2.1347196959 3.5977941203
H 2.0457686344 1.0637234706 3.8635166814
H 2.1819650173 2.8049893095 4.1839640627
H 1.8894965136 3.2872377815 1.7348368808
H 3.2848547840 2.2143305773 2.0121424597
H -4.6097394806 0.3535050071 1.8062288668
H -5.4734603240 0.1750562866 -0.4775036723
H -2.0242393618 2.1148705994 -3.1949444131
H -0.3902298172 1.5506817571 -3.6649620007
H -0.6294267740 2.3615810161 -2.0888163848
H -3.4039548156 -0.4833144075 3.5768407920
H -2.1928445227 0.5102826512 4.4400832527
H -3.5469145968 1.3065776653 3.5873555165
H 3.3493806713 -0.5965294815 -3.0110857793
H 4.5528555517 -2.6581780343 -3.6928929584
H 4.0279508119 -4.8165760412 -2.5878616683
H 2.3048752834 -4.9133282043 -0.8080292628
H 1.1056269060 -2.8620762443 -0.1305832058
