60
CONF233
C 0.4790662118 -1.5849739049 0.1390681892
C -0.4787676732 -0.8828198335 -0.8221862692
C -1.7690356219 -0.4397697105 -0.1216002943
C -1.5165205350 0.0823222745 1.2663571300
C -0.3282197708 -0.0889869460 1.9391571626
O -0.1725696286 0.2221333304 3.2139235462
C 0.9046258576 -0.6460214476 1.2714815554
O 1.7025629257 -1.3118958913 2.2463835876
C 1.7793954029 0.5310815797 0.7485112554
O 1.7621724635 1.6017613610 1.3625621611
C 2.6173607508 0.2812981545 -0.4089191100
C 3.5071920569 1.3088479131 -0.9836656935
O 4.1816084322 1.0456156921 -2.0240894664
N 3.5860997955 2.5110906369 -0.3982806688
C 4.4759504345 3.5561886567 -0.8733846529
O 5.8198670269 3.3838813018 -0.4407852529
C 2.5597952832 -0.9429513900 -1.0703441791
O 3.2268084105 -1.1628213659 -2.1687645501
C 1.7300492912 -2.1034764204 -0.5861746376
N 2.5202931953 -2.9817000187 0.3354632785
C 1.9307428385 -4.3310513609 0.3701851393
C 3.9523518129 -3.0802863399 0.0096034746
C -2.6356279520 0.6274751637 1.9628065898
O -2.5904120309 0.8373214645 3.2250115742
C -3.8296257706 1.0215126501 1.2141895559
C -4.9574645358 1.4949845482 1.9395488602
O -5.0298474132 1.4360712460 3.2787209786
C -6.0393637665 2.0570740612 1.2630040485
C -5.9440892033 2.2708063070 -0.0945235784
C -4.8151319910 1.8531091594 -0.8022406722
Cl -4.7564447411 2.4267029269 -2.4787772138
C -3.7803585417 1.1334267214 -0.2048926358
C -2.6042240601 0.5296715716 -0.9988405401
C -3.1000486465 -0.2914405362 -2.2003289500
O -1.7229400508 1.5941900392 -1.3997218127
H -0.0417075837 -2.4337880927 0.5973051563
H 0.0066512143 -0.0115301876 -1.2724441193
H -0.7108039693 -1.5789647208 -1.6318523756
H -2.4079499159 -1.3270726100 0.0015351802
H -1.0827481813 0.5274074155 3.5266464214
H 2.1714044870 -2.0339267887 1.7251285205
H 3.0313655967 2.6368557013 0.4453943589
H 4.5025641758 3.5355084508 -1.9642821034
H 4.0657308783 4.5106063038 -0.5266827537
H 5.8556717811 3.5709721228 0.5066773054
H 3.7696581361 -0.2580449717 -2.3216748259
H 1.4358441333 -2.6660011271 -1.4873715350
H 0.8730086389 -4.2833247171 0.6375392185
H 2.0276757104 -4.8382592903 -0.6031433953
H 2.4499168411 -4.9212576158 1.1303392616
H 4.1284398643 -3.4849590157 -0.9989779154
H 4.4182460278 -3.7463192504 0.7406927520
H 4.4314267767 -2.1005719468 0.0884449335
H -4.1188679430 1.1757067460 3.5884893877
H -6.9076210373 2.3853913201 1.8233475630
H -6.7413517965 2.7853137996 -0.6194816066
H -3.7735853115 -1.0813830827 -1.8549274668
H -3.6239568719 0.3081046208 -2.9387025909
H -2.2472388725 -0.7535625362 -2.7000015871
H -2.1770227500 2.1247283761 -2.0685284215
