52
CONF70
C 1.6175237646 3.1098420586 1.1309842372
C 1.9224111110 2.0652768094 0.0811919096
C 3.2363567460 2.3254312973 -0.6597000323
C 3.4185537009 1.3421138819 -1.8211217978
C 2.1953387465 1.3594524258 -2.7379163684
C 0.8963491713 1.2150564034 -1.9354813704
O 0.8046502504 2.0859294259 -0.8526730758
O 0.8428788245 -0.1854727142 -1.5175574706
C -0.3969902201 -0.5835554210 -1.0768409114
C -0.6048746305 -0.8535012649 0.2447773509
O -1.8320839368 -1.2064721834 0.7154322844
C -2.9017469224 -1.3107670292 -0.1295424109
C -4.1150536951 -1.6503870390 0.4460872445
C -5.2149543168 -1.7853212939 -0.4030225066
C -5.1130044442 -1.5902596138 -1.7853960191
C -3.8887196452 -1.2502086952 -2.3358336026
C -2.7421727412 -1.0995805548 -1.5064108191
C -1.4612043575 -0.7277888148 -2.0485811199
O -1.2778893115 -0.5267879436 -3.2771623232
O -3.7837344174 -1.0559458091 -3.6606668409
O -6.4420495184 -2.1159435790 0.0672311245
C 0.4085136586 -0.7964176011 1.2955637061
C 0.1425469897 -0.0777295052 2.4681152098
C 1.1201902426 0.0478699939 3.4409670351
C 2.3712620231 -0.5690897520 3.2578215961
C 2.6213740836 -1.3128131725 2.1096868313
C 1.6451948366 -1.4254804885 1.1262338492
O 3.2700545647 -0.3843378673 4.2642037932
O 0.8560024601 0.7810121310 4.5567271282
O 2.2056371808 2.6239507139 -3.3974671239
O 3.6975597354 0.0264586071 -1.3248863419
O 4.3388923372 2.2270540714 0.2406539057
H 2.4112142164 3.1189248566 1.8815969305
H 1.5495772213 4.1027838354 0.6744454922
H 0.6711308185 2.8811798630 1.6292985688
H 1.9708805088 1.0732822905 0.5502629774
H 3.2320392833 3.3482887281 -1.0535496176
H 4.2988634204 1.6351130059 -2.4034884578
H 2.2615640592 0.5302694112 -3.4557744981
H 0.0277623780 1.4288560559 -2.5666455973
H -4.1934344407 -1.8091112960 1.5159098966
H -5.9861835420 -1.7030283603 -2.4175798795
H -0.8105694916 0.4202169970 2.6116203479
H 3.5837136627 -1.8022185583 1.9888887155
H 1.8365563322 -2.0197624173 0.2395731562
H 4.1020234574 -0.8319379747 4.0586881762
H 1.6403276711 0.7849002420 5.1249122147
H 1.5159123174 2.6171198409 -4.0737361197
H 2.8606058835 -0.3793385906 -1.0519034442
H 4.5044896677 1.2784676309 0.3562480830
H -6.4095935336 -2.2270550409 1.0277853419
H -2.8272199285 -0.8187454883 -3.8267599758
