40
CONF65
C 2.4694412278 -2.7074958818 -0.3440461321
O 2.8754063642 -1.4336302827 -0.9143737669
C 3.7056330017 -0.6970539011 -0.1605958198
O 4.1192603429 -1.0277850032 0.9280168789
C 4.0572874830 0.5872133535 -0.8915895704
S 4.4017685339 2.0005808538 0.2000720212
C 2.7922882241 2.3552114924 0.8695642418
C 1.6557784892 1.5877798547 0.6111517403
C 0.4038953875 1.8959789856 1.1631398483
C 0.3400868106 3.0058408150 2.0136092838
C 1.4399566392 3.7901535002 2.2977105678
C 2.6593643371 3.4592150481 1.7215562936
Cl 4.0586516713 4.4511132637 2.0879271047
F -0.8465491318 3.3297220268 2.5747782888
N -0.7216011981 1.1048827735 0.9846977422
C -1.1117784320 0.7250265208 -0.1748470466
N -2.1637008445 -0.1456403452 -0.3387898902
N -2.3473706669 -0.5646372852 -1.6663549116
C -1.6498362519 0.1210741548 -2.6081345810
O -1.7804753245 0.0401737146 -3.8150557487
S -0.4699726463 1.2212335435 -1.7766010726
C -3.6524053757 -1.1780362191 -1.9653935653
C -3.9144819703 -2.3185128261 -0.9920606275
C -3.7833408132 -1.8162900545 0.4434717594
C -2.4094204864 -1.2023529113 0.6680348674
H 1.9385883033 -2.5379402861 0.5955714049
H 3.3452085924 -3.3370408985 -0.1731255680
H 1.8091849047 -3.1548293302 -1.0852414718
H 3.2974340369 0.8368902890 -1.6368053406
H 5.0008943634 0.4143862879 -1.4237334824
H 1.7138445680 0.7045400411 -0.0114515746
H 1.3419765483 4.6466551223 2.9547190477
H -4.4303052618 -0.4063160641 -1.8815611438
H -3.6014895196 -1.5229015306 -2.9991337866
H -4.9195715673 -2.7082600045 -1.1779830291
H -3.1986532863 -3.1287916985 -1.1747202213
H -4.5572047709 -1.0677389740 0.6521127270
H -3.9113520524 -2.6371405098 1.1553093829
H -1.6188296808 -1.9622801003 0.5824477782
H -2.3376117606 -0.7229976299 1.6444123867
