60
CONF6
C -4.1374560795 1.3071407576 2.6854680420
C -5.2097065328 0.7103838521 1.7738337557
C -5.9924347776 1.7541992264 0.9736675111
C -5.1171133649 2.5930196550 0.0175439518
C -4.3442513805 1.7435119726 -0.9133623802
C -3.0010299713 1.4922836504 -1.0538472071
C -2.8810313556 0.4478585401 -2.0511618294
C -1.8305854936 -0.2275022180 -2.6813086197
C -2.1421392366 -1.1737030950 -3.6516975956
C -3.4704545770 -1.4476108221 -4.0093516247
C -4.5322877511 -0.7761071578 -3.4064908867
C -4.1942308080 0.1548790091 -2.4423636769
O -5.0821666002 0.9328883019 -1.7349425195
C -1.9417593562 2.1882635742 -0.3108963614
O -2.0168157029 3.3901710077 -0.0523059261
C -0.7714238119 1.3917684482 0.1432619243
C -0.8809839090 0.0210763834 0.4016304916
C 0.2174124570 -0.6757420337 0.8636726736
C 1.4686589066 -0.0622588380 1.0582252038
C 1.5181068145 1.3347291696 0.8914734354
C 0.4284816069 2.0490025268 0.4249227583
I 3.2233757062 2.4463983041 1.4877929115
O 2.4933462113 -0.8017560620 1.5378923009
C 3.6900805712 -0.9771647186 0.7214948713
C 3.4295014956 -1.7773603273 -0.5410415527
N 2.5290411940 -1.1019785379 -1.4724624364
C 3.1818740354 0.0239924566 -2.1514167267
C 2.2175859870 0.8676241163 -2.9751396705
C 1.8673483637 -2.0458856508 -2.3858621514
C 2.7705392059 -2.7512062490 -3.4037082918
I 0.0144670405 -2.7409818130 1.2669566283
H -3.3476281410 1.8049079275 2.1133543235
H -4.5723529467 2.0477244376 3.3662172687
H -3.6619107363 0.5290341309 3.2905029410
H -5.9221517256 0.1374188276 2.3790908272
H -4.7453011415 -0.0081420775 1.0842655741
H -6.4915795562 2.4480194350 1.6609251277
H -6.7777082812 1.2569836495 0.3939796043
H -5.7584081630 3.2703595263 -0.5602301133
H -4.4106811576 3.2130915446 0.5720781064
H -0.7984858977 -0.0239604735 -2.4183388822
H -1.3382878586 -1.7110537715 -4.1450535371
H -3.6772102581 -2.1921184564 -4.7710281030
H -5.5650642344 -0.9681068180 -3.6752767934
H -1.8258733845 -0.4870501393 0.2496984469
H 0.4838718701 3.1229473836 0.2895410755
H 4.1370689948 -0.0039204159 0.5043350266
H 4.3718795921 -1.5267563204 1.3743744309
H 2.9862881544 -2.7398917471 -0.2619654201
H 4.4250430554 -1.9917662890 -0.9806856896
H 3.6231735057 0.6662497383 -1.3815327242
H 4.0211635508 -0.3154543165 -2.7879073984
H 1.8399560253 0.3318030996 -3.8510817542
H 1.3635878719 1.1804198140 -2.3640648101
H 2.7305651038 1.7658719405 -3.3316553060
H 1.0745120957 -1.5094217255 -2.9187513493
H 1.3646534097 -2.7953848693 -1.7627991182
H 2.1761968331 -3.4550689602 -3.9951943080
H 3.5673261861 -3.3170312448 -2.9100147436
H 3.2326919461 -2.0413150161 -4.0967269127
