48
CONF74
C -1.1394063144 -1.6617625787 -0.9608258544
O -1.1645681283 -1.2796559546 0.4207281276
N -2.2418221086 -0.4450641725 0.6394889177
C -2.2746319455 -0.0040180310 1.8531124146
C -1.2781232586 -0.3101230364 2.9058923029
C -1.6603842196 -0.9381084497 4.0946226114
C -0.7238237090 -1.2363342467 5.0736589125
C 0.6116924253 -0.8875729641 4.8891200408
C 1.0115407472 -0.2498037020 3.7219539772
C 0.0666929292 0.0188194276 2.7437233935
O 0.4087061695 0.7515329668 1.6047730946
C 1.2480610505 0.2174149485 0.6955094146
C 1.4017184762 0.9198913242 -0.4982361231
C 2.2589699015 0.3750095074 -1.4452891045
N 2.9158335110 -0.7591519907 -1.2334032493
C 2.6977960704 -1.3454918523 -0.0563958651
N 1.9021624829 -0.9176355083 0.9207339298
O 2.4165348759 1.0598858571 -2.6064710187
C 3.1600806360 0.4544040336 -3.6115327960
C 4.4388740663 0.9249984950 -3.8669945709
C 5.1726750468 0.3966389142 -4.9225135842
C 4.6231719451 -0.6029900766 -5.7189396949
C 3.3387546227 -1.0734708168 -5.4680851722
C 2.6057512844 -0.5399501625 -4.4150545886
Cl 0.9864179788 -1.1088758857 -4.1038499556
F 0.7357214818 2.0570423328 -0.7316926009
C -3.4186387700 0.8588353885 2.1799795077
N -3.3927517694 1.4590355443 3.3257855454
O -4.4898789194 2.2502037012 3.6732809451
C -5.6726182914 2.0120953213 2.8984748092
C -5.3098880796 2.0021915000 1.4346586909
O -4.3675115096 0.9393925080 1.2152069721
H -0.2476195760 -2.2829792616 -1.0692739220
H -2.0367399325 -2.2336590665 -1.2195460834
H -1.0607344376 -0.7779543494 -1.6026165943
H -2.7053820070 -1.1862778618 4.2415567211
H -1.0374485385 -1.7293396355 5.9874153627
H 1.3453614870 -1.1060431221 5.6579222684
H 2.0432011872 0.0380917758 3.5614718387
H 3.2311427816 -2.2770217516 0.1255685196
H 4.8406607682 1.7027881183 -3.2270933671
H 6.1730229336 0.7657793652 -5.1198555909
H 5.1906264831 -1.0202828532 -6.5436275505
H 2.8972312055 -1.8480349919 -6.0843409906
H -6.1175104216 1.0484610579 3.1861088998
H -6.3583440555 2.8257505942 3.1495091935
H -6.1677675230 1.7863984908 0.7935508914
H -4.8568091331 2.9569412556 1.1405562702
