39
CONF182
C 4.5098363748 0.8072994838 -0.3554844159
C 3.9908955110 0.1020498989 -1.6093537548
C 2.5686346172 0.5123128371 -2.0106849880
C 1.5390705334 0.1808033021 -0.9527621747
C 1.3751566826 -1.3059029107 -0.6382044863
O -0.0370749894 -1.4562221923 -0.3664869284
C -0.6700158532 -0.2050390642 -0.6287311251
C -1.9377514692 -0.4842385078 -1.4537214019
N -2.9222781300 -1.2133909936 -0.6764631766
C -2.9956661418 -2.5387794341 -0.4405910230
N -3.9903772420 -2.8008067243 0.3987975949
C -4.4984305048 -1.5623930617 0.6573395198
N -3.8840721962 -0.5672961897 0.0311588864
O 0.2184383170 0.5206866093 -1.4459744954
C -0.9592486143 0.5134770687 0.6957397172
C -1.3996971618 1.8386638689 0.7784710289
Cl -1.6635184562 2.8242208396 -0.6551237071
C -1.6673781173 2.4568689544 1.9951776813
C -1.4969978027 1.7223379051 3.1604138567
Cl -1.8348858364 2.4931860253 4.7006149714
C -1.0694736643 0.4032708557 3.1324742910
C -0.8070871903 -0.1794774838 1.8990168787
H 4.4245115035 1.8950268617 -0.4571355177
H 3.9546636389 0.5093831130 0.5398227421
H 5.5632317434 0.5659581906 -0.1838803590
H 4.0341027770 -0.9856665969 -1.4677260646
H 4.6544106105 0.3265683215 -2.4519356358
H 2.2824554741 0.0001115142 -2.9374876395
H 2.5378667257 1.5916360812 -2.2037687484
H 1.7186963148 0.7487391116 -0.0290002672
H 1.9485249402 -1.6227985346 0.2382819284
H 1.6342080813 -1.9292714003 -1.5028034500
H -2.3899806583 0.4484247032 -1.7922092175
H -1.6460787313 -1.0865315089 -2.3175142373
H -2.3252393799 -3.2528184700 -0.8999955515
H -5.3421758031 -1.3872076992 1.3130387821
H -2.0037889551 3.4858342388 2.0277741513
H -0.9415870090 -0.1601703286 4.0491253936
H -0.4718997268 -1.2088478850 1.8597908571
