47
CONF33
C -4.2500355657 -2.7286907236 0.2318374894
C -3.2517425237 -2.6353792338 -0.9270728879
C -3.0377391669 -4.0293934159 -1.5292621352
C -1.8907375534 -2.0147310628 -0.5486814672
C -1.3346192194 -2.3320006798 0.8434050357
C -0.0808652026 -1.4523517867 0.9269894434
C -0.4048366475 -0.1800685084 0.0931720060
C -0.3997098010 1.1114854172 0.9299294746
C 0.9830923300 1.4535753040 1.4208393401
C 1.9529636698 1.9268702144 0.5299985544
C 3.2427283444 2.2265943464 0.9552988730
C 3.5614943465 2.0454948450 2.2963618215
Cl 5.1952738787 2.4215821693 2.8496873585
C 2.6266597335 1.5816552520 3.2109686189
C 1.3401222212 1.2903371683 2.7612466159
C -1.7732894969 -0.4707150589 -0.6094086492
O -2.8790607925 0.1842817212 0.0305716185
C -1.8222870465 0.0225868188 -2.0576836862
N -1.5750935006 1.4545420000 -2.1826579428
C -2.4301493204 2.4750332268 -1.9812889521
N -1.7981782980 3.6386561375 -2.1043320833
C -0.5214658010 3.2553450485 -2.3842714903
N -0.3359157239 1.9419000348 -2.4426493162
H -4.4321110770 -1.7605945508 0.7044085987
H -5.2085706983 -3.1094359109 -0.1367975688
H -2.4059574717 -3.9841368336 -2.4225388340
H -2.5512735982 -4.6910824289 -0.8025490380
H -3.9937737809 -4.4849037652 -1.8087348209
H -1.1485849062 -2.3831458611 -1.2740810890
H -2.0568521744 -2.0424121327 1.6170051046
H -1.1206590547 -3.3956508772 0.9842475520
H 0.7727834877 -1.9796254510 0.4890323658
H 0.1854196039 -1.2040157516 1.9587203811
H 0.3468277722 -0.0641650592 -0.6949835940
H -0.7875961834 1.9415563182 0.3288186552
H 1.6951124988 2.0681903372 -0.5161275411
H 3.9849293083 2.5971054683 0.2569924917
H 2.8910838616 1.4512092503 4.2544167488
H 0.6026194256 0.9310709963 3.4734192579
H -2.8108026166 -0.1794174530 -2.4804327237
H -1.0676055811 -0.4930599864 -2.6549367884
H -3.4780303528 2.3250897550 -1.7599800458
H 0.2889005944 3.9526511923 -2.5573506071
H -3.8919409222 -3.4237632550 0.9995469358
H -3.7027718658 -2.0037615598 -1.7045839164
H -1.0668883473 0.9957756815 1.7909820626
H -2.8754326742 -0.0402707048 0.9694532141
