23
CONF13
C -4.4454883661 -0.4038351929 -0.1602262571
C -3.5570015860 -1.3918594934 0.2574402190
C -2.1918259055 -1.1273003300 0.3133867397
C -1.7264229510 0.1301173976 -0.0595888605
C -2.6026079553 1.1252038307 -0.4838560826
C -3.9656130524 0.8516264295 -0.5299281936
N -0.3126903195 0.3836166309 -0.0283343280
C 0.1869675606 1.4780078880 0.7293226641
O -0.5767270772 2.2177652773 1.3511084738
C 1.6130015066 1.5895527862 0.6803723800
C 2.4143255183 0.6910270943 0.0022729153
C 1.7278890242 -0.3722522295 -0.6708278423
N 0.4357013012 -0.5123306171 -0.6808093751
N 3.7630064243 0.7350967814 -0.0262156932
Cl 2.3326525201 2.9075826092 1.5620290421
H -5.5099561608 -0.6114303236 -0.1992483435
H -3.9249358794 -2.3708119034 0.5473098412
H -1.4897289099 -1.8854160670 0.6431204048
H -2.2204957748 2.0955371595 -0.7778930937
H -4.6536772077 1.6216160489 -0.8636573012
H 2.2943191605 -1.1201834447 -1.2194827235
H 4.2598450030 0.1426802823 -0.6714801657
H 4.2443872067 1.5563987438 0.3043152993
