42
CONF5
C -2.9704338244 -1.6852895380 1.2529070139
C -2.4604608031 -0.4314415242 0.6313916619
C -3.1845734473 0.5360774288 -0.0019777669
C -2.2775440379 1.5788246758 -0.4754562578
C -0.9506178213 1.2185624422 -0.1304323898
C -1.0291448170 -0.0850479247 0.5588442006
C -0.0648828544 -0.8819862172 1.0829156456
C 1.3839651976 -0.7827047588 0.9507484816
C 2.1970898458 -1.1144880836 2.0488390616
C 3.5802295801 -1.0485719080 1.9562284549
C 4.1589502094 -0.6954879868 0.7399052612
C 3.3829286223 -0.3931994192 -0.3722347362
C 1.9997036499 -0.4429723577 -0.2641857380
S 5.9711859278 -0.5803924714 0.6096013978
O 6.2759091842 0.0851908258 -0.7345241696
C 6.2805142612 -2.3750150950 0.3712692519
C 0.0854310979 2.1153105562 -0.3599190698
C -0.1813695895 3.3366568725 -0.9869342227
C -1.4851451161 3.6272394380 -1.3533610354
C -2.5605188043 2.7839676295 -1.1080755402
F -1.7305231170 4.8125050704 -1.9742847626
C -4.6649644155 0.5774152287 -0.2362173557
C -4.9677342758 0.1124757256 -1.6453680628
O -5.1735363784 0.8402219344 -2.5939007557
O -4.9434026798 -1.2326931261 -1.7372085756
H -2.6233739512 -1.7849951411 2.2876322900
H -4.0612934572 -1.7148856982 1.2559790051
H -2.6134463206 -2.5669314701 0.7073550048
H -0.4044343117 -1.7227317247 1.6862617153
H 1.7333267063 -1.4042966250 2.9870970818
H 4.1983571763 -1.2794705915 2.8193785166
H 3.8612462083 -0.1302120987 -1.3103969237
H 1.3860605388 -0.2427917039 -1.1361709354
H 5.9452118411 -2.9090140304 1.2644558533
H 5.7311648524 -2.7017280950 -0.5155095475
H 7.3584999312 -2.4932529080 0.2374940911
H 1.1031945942 1.8941081071 -0.0619123168
H 0.6092380050 4.0510401313 -1.1871557111
H -3.5658432480 3.0789309361 -1.3885948255
H -5.0409859638 1.5986964993 -0.1350912336
H -5.1883646807 -0.0670968034 0.4735840080
H -5.0996137901 -1.4805256930 -2.6649243824
