47
CONF129
C -4.3692030836 2.1205424007 2.3234984510
O -3.5540571964 2.1001611842 1.1243587929
C -2.2386355780 2.1515886364 1.3238171509
C -1.3695039165 2.0954665781 0.2851009203
C -1.8416474265 1.9339692202 -1.1083806583
C -1.6417568262 2.9277317436 -2.0710253902
C -2.1115159347 2.7747829828 -3.3718401618
C -2.7940151417 1.6166192357 -3.7369373956
C -2.9928323548 0.6037850347 -2.8030136496
C -2.5107284664 0.7736452911 -1.5143587683
O -2.7620276390 -0.2423248707 -0.5864574931
C -1.6968036393 -0.8843763044 -0.0474312156
C -0.4449339166 -0.9075233932 -0.6501854781
C 0.5254036058 -1.6050049500 0.0533427770
N 0.3111519653 -2.2215943192 1.2101787589
C -0.9464688069 -2.1561675707 1.6600060136
N -1.9707750753 -1.5214373512 1.0949589948
O 1.7786510987 -1.6002214507 -0.4877349096
C 2.7284072903 -2.5055183546 -0.0534837455
C 2.4947668026 -3.8723748502 -0.0229514695
C 3.5315116974 -4.7274240797 0.3334469772
C 4.7968416740 -4.2290860150 0.6479238923
C 5.0355381539 -2.8654706949 0.6008440635
C 3.9953276249 -1.9893135115 0.2511258879
C 4.2260698835 -0.5904901716 0.1829070975
N 4.4352928639 0.5479551631 0.1295163049
C 0.0758538184 2.1643582507 0.5198168651
O 0.9171818034 2.1158308210 -0.3655041912
O 0.3984402448 2.2656508137 1.8303446367
C 1.8135694292 2.2592117407 2.1262219683
H -5.4029139978 2.0983304746 1.9813314617
H -4.1776712150 3.0363707443 2.8897941038
H -4.1539798888 1.2391082685 2.9337329140
H -1.8981458042 2.2466719594 2.3526161670
H -1.1208751641 3.8350319722 -1.7816924320
H -1.9506797484 3.5641393962 -4.0987621083
H -3.1664710334 1.4949274833 -4.7487630271
H -3.5076191473 -0.3152123092 -3.0625076231
H -0.2244484028 -0.4131742745 -1.5867630511
H -1.1507738131 -2.6714272175 2.5973705838
H 1.5155091953 -4.2589084978 -0.2797884652
H 3.3496347037 -5.7967328113 0.3574724255
H 5.5978081766 -4.9067963839 0.9209378424
H 6.0142963914 -2.4593360232 0.8297088888
H 2.3105764461 3.1038116594 1.6424166088
H 2.2658524801 1.3237436068 1.7873876076
H 1.8807975716 2.3464806376 3.2102014745
