38
CONF29
C -6.7488485893 -0.3804449410 -0.5385492243
C -5.3074276090 -0.7996648827 -0.2865732836
C -4.9673540711 -0.5635330622 1.1864588394
O -4.5566039481 0.4695109906 1.6476920780
O -5.2495479939 -1.6720652118 1.9078280968
C -5.0461318066 -1.5302979136 3.3330895831
O -4.4930692125 0.0074524290 -1.1236734804
C -3.1519966207 -0.2607143647 -1.1715740410
C -2.4018015076 0.6022443856 -1.9755943813
C -1.0374786167 0.4148832910 -2.1134954289
C -0.4265243880 -0.6344851398 -1.4404396974
C -1.1524742211 -1.4967067281 -0.6430863687
C -2.5275936794 -1.3143286949 -0.5033910568
O 0.9411277267 -0.8869066765 -1.6352535810
C 1.8293478800 -0.1299349931 -0.9583886956
C 3.1973758074 -0.3571625002 -1.2136154998
C 4.1296487608 0.3963695037 -0.5336966467
C 3.6810751807 1.3504136225 0.3834807552
C 2.3149967075 1.5033437954 0.5698723382
N 1.4120963175 0.7736377415 -0.0902205016
C 4.6698155791 2.2122251656 1.1048169930
F 5.7765603622 1.5147291917 1.4583649224
F 4.1489674384 2.7480211031 2.2299432864
F 5.0941860956 3.2460537605 0.3324848887
Cl 3.6966623137 -1.5666831893 -2.3593246589
H -6.8738293792 0.6775178115 -0.2944147000
H -7.4262024716 -0.9765178745 0.0780682577
H -6.9962304385 -0.5354060523 -1.5913142963
H -5.1751370747 -1.8639404831 -0.5253281675
H -4.0008642841 -1.2884849555 3.5405998099
H -5.6840390915 -0.7359033784 3.7285177572
H -5.3152236307 -2.4944061678 3.7631653230
H -2.9094963351 1.4143780788 -2.4833589816
H -0.6474987245 -2.3084968462 -0.1315207364
H -3.0829453270 -1.9983550157 0.1269762654
H 5.1882398549 0.2411997953 -0.7078939440
H 1.9254803404 2.2309161994 1.2766086241
H -0.4447070759 1.0783345880 -2.7334062301
