27
CONF9
C 3.1814158808 2.1635242842 -0.2865767916
C 2.5149743740 1.8350500382 0.8895782354
C 1.6528388771 0.7399059187 0.9279949468
C 1.4441427327 -0.0500498130 -0.2133227771
C 2.1145032718 0.2881309179 -1.3870509004
C 2.9700976137 1.3826742703 -1.4138717069
Cl 3.8072703172 1.7835917963 -2.9142187107
C 0.5054635009 -1.2217287577 -0.1655003077
C -0.9634583131 -0.8527754433 -0.1897655522
C -1.9199833235 -1.8596266160 0.0166357138
C -3.2821992020 -1.5686870686 -0.0035741096
C -3.7195790488 -0.2676873672 -0.2344928864
C -2.7717393242 0.7222011824 -0.4435790555
C -1.4099683199 0.4444817077 -0.4238966057
Cl -3.3029732733 2.3803052751 -0.7385681897
O -1.4475269435 -3.1231781368 0.2329286285
O 0.9723526763 0.3860295765 2.0566439840
H 3.8523227501 3.0143481455 -0.3170009837
H 1.9622896837 -0.3098801285 -2.2795816784
H 0.7147214370 -1.8880486539 -1.0107201898
H -4.7789271879 -0.0389849271 -0.2498985460
H -0.6901492561 1.2389265245 -0.5884377951
H 1.1974499574 0.9913543332 2.7757891331
H 0.6958925310 -1.8094928578 0.7397880097
H 2.6680789300 2.4357443501 1.7820115896
H -4.0076527907 -2.3609333769 0.1608561338
H -2.1907822054 -3.7259796250 0.3684376106
