36
CONF6
C 0.4799481215 -0.6327956184 1.7649858717
C -0.2526642751 0.2717907821 0.7967115530
C -0.9257844864 1.4948351637 1.4748566178
C -1.9926660901 1.9672764459 0.4461790317
C -1.7845430064 0.9850679294 -0.7228144666
C -1.4544775770 -0.3471487458 0.0040235290
C -2.5893032497 -0.8543171753 0.9008085337
C -1.0855148110 -1.4984861378 -0.9378139030
C -0.4398418772 1.3524095382 -1.3761525399
C 0.6158441209 0.9021207540 -0.3323296593
O 1.5396931911 0.0030645079 -0.9594715255
C 2.8714179281 0.0542530032 -0.4526243856
C 3.6019939359 -1.1262766545 -1.0576570084
O 3.0052767428 -2.3623715035 -0.6753534142
H 1.2124379999 -0.0697241221 2.3549754924
H -0.2245095564 -1.0842403840 2.4722283639
H 1.0126747682 -1.4387465470 1.2511193700
H -1.3786464351 1.2018257502 2.4266717557
H -0.1871762745 2.2704506919 1.7052133399
H -3.0046603860 1.9032314678 0.8555975066
H -1.8397004658 3.0031663612 0.1286065606
H -2.6204916882 0.9389926610 -1.4275486928
H -2.2914954578 -1.7796274392 1.4054318229
H -2.8980639517 -0.1429510924 1.6683962255
H -3.4686350859 -1.0864387132 0.2896288106
H -0.3088078144 -1.2433549020 -1.6571610610
H -0.7344808011 -2.3605311620 -0.3585313349
H -1.9746152293 -1.8212707852 -1.4917865733
H -0.3708439421 2.4202863589 -1.6039822595
H -0.2698880891 0.8074893614 -2.3077946140
H 1.1878124977 1.7524885197 0.0674652965
H 2.8824461103 -0.0225845266 0.6433733845
H 3.3590372170 0.9998150915 -0.7459132633
H 4.6352429196 -1.1465032124 -0.6959884393
H 3.6214360988 -1.0211897464 -2.1540326837
H 2.0715496765 -2.2900057297 -0.9123939446
