46
CONF50
C -1.5166814572 2.7910533204 -2.7882827610
C -0.5874385784 2.5261562798 -1.6050542797
C -0.5801262159 3.6453649730 -0.5589442949
C -1.9136694526 3.8764218801 0.1297585733
O -2.3482684675 2.6655044211 0.8200299127
C -1.8869665147 2.4972387750 2.0663631657
O -1.2248021443 3.2941133423 2.6912943234
C -2.3550357658 1.1689703184 2.6670507240
C -3.7314367587 1.3414381694 3.2890979681
O -2.4664491713 0.1283011224 1.6959220663
C -1.3384728428 -0.2317184830 1.0165803992
C -1.5375864075 -1.1163751664 -0.0482808573
C -0.4623363658 -1.5404093877 -0.8123446880
C 0.8124183781 -1.0752549726 -0.5108576785
C 1.0254062810 -0.2015358395 0.5405555953
C -0.0521513397 0.2263756974 1.3139294456
O 1.8897195455 -1.4515806184 -1.3177365009
C 2.5539745345 -2.5905645258 -0.9854774703
C 3.6192931971 -2.9557509295 -1.8206775552
C 4.3731682228 -4.0826705954 -1.5884927248
C 4.0659112324 -4.8911001838 -0.4826431603
C 3.0058440127 -4.5416076450 0.3604353902
C 2.2568259064 -3.4006308485 0.1102744339
C 4.8331820477 -6.0596154261 -0.2236501821
N 5.4545761021 -7.0132925592 -0.0079929546
F 3.9034157418 -2.1729557699 -2.8744390080
H -1.2896484390 3.7512422343 -3.2654514338
H -1.4122605419 2.0090011305 -3.5458861684
H -2.5683053501 2.8065633139 -2.4846878037
H -0.8643517410 1.5816557027 -1.1243122908
H 0.4379861601 2.3938603802 -1.9695177134
H 0.1737287154 3.4373901250 0.2095574573
H -0.2926481944 4.5944963254 -1.0321060202
H -1.8501407628 4.6913984720 0.8554281494
H -2.7156444492 4.0809446298 -0.5828540503
H -1.6227946852 0.8978707515 3.4388926441
H -3.6979488559 2.1300133632 4.0448178384
H -4.4598998588 1.6091155480 2.5197345828
H -4.0406933560 0.4068142917 3.7629566941
H -2.5460146611 -1.4487115282 -0.2675950376
H -0.6031281775 -2.2197057163 -1.6463595004
H 2.0296115919 0.1502842802 0.7516524557
H 0.1321719143 0.9191500607 2.1259437021
H 5.1887620170 -4.3292229771 -2.2577624759
H 2.7721756997 -5.1677737160 1.2133320873
H 1.4367295616 -3.1302621099 0.7648217090
