39
CONF35
C 5.8494394202 0.7659999131 -1.7289937435
C 5.0233165291 0.1009851050 -0.6306740509
C 3.5410269343 0.4620099947 -0.7170798580
C 2.7255477732 -0.2059292607 0.3883708987
N 1.3110589073 0.1410232520 0.3113854667
C 0.3455064900 -0.7820992152 0.1005770109
O 0.5360542732 -1.9908700875 0.0410451091
N -0.9600029680 -0.2363524353 -0.0350582982
C -1.3413422897 1.0693884879 -0.3862229403
C -0.6623721311 2.1327499032 -0.9689172699
C -1.3974121622 3.2913955802 -1.2230801541
C -2.7613473636 3.3692489820 -0.9270547391
C -3.4441303069 2.2853008909 -0.3849222430
C -2.7261004255 1.1237036845 -0.1197638061
N -3.1942694444 -0.0898865051 0.3576393561
C -2.1535622506 -0.8702158113 0.3952689841
N -2.0846523308 -2.1839807329 0.7856987936
C -3.0317046305 -2.9766027264 1.4241792086
O -2.8252911796 -4.1498013063 1.6483882121
O -4.1390907145 -2.2996433641 1.7530980838
C -5.1394301313 -3.0993492519 2.4166441521
H 6.9059053732 0.4938584012 -1.6520780634
H 5.7788958167 1.8571178847 -1.6672648306
H 5.4967390190 0.4646812945 -2.7208028166
H 5.4125609479 0.3935731011 0.3533300314
H 5.1324092586 -0.9892410252 -0.6940786816
H 3.4259878548 1.5533752846 -0.6538646969
H 3.1369580850 0.1566334596 -1.6906665718
H 3.1142885292 0.0826368729 1.3741686689
H 2.7917949579 -1.2944146028 0.3140568301
H 1.0361190680 1.0948348870 0.4881697645
H 0.3801861184 2.0748331793 -1.2617071372
H -0.8972780699 4.1417244033 -1.6738452950
H -3.2990482494 4.2867878052 -1.1414860859
H -4.5082492182 2.3240326633 -0.1806697583
H -1.2088348139 -2.6544273306 0.5738387239
H -5.4570325503 -3.9235939278 1.7731391123
H -5.9665590992 -2.4159870071 2.6063468097
H -4.7460832221 -3.5035019325 3.3528862736
