47
CONF171
C -6.7097061396 0.3350935011 -1.9264138030
O -6.8801258926 1.0385664563 -0.6552193376
P -5.9852430322 0.6556371986 0.6077279941
S -6.4370902909 1.7070336107 2.1711421611
O -6.0318785605 -0.9419899898 0.7513716942
C -7.2149072666 -1.5749586023 1.3208189089
O -4.4905549090 0.8291455116 0.0002819575
C -3.3297007983 0.8846630283 0.7655045631
C -3.1014320279 0.0234772690 1.8312856838
C -1.8906655830 0.1062413229 2.5146854878
C -0.9327192121 1.0466448169 2.1376449703
C -1.1841399382 1.9111386538 1.0679896112
C -2.3821040605 1.8256376165 0.3737264489
S 0.5821218770 1.1786286816 3.0792573596
C 1.8396236018 0.8197766038 1.8573606685
C 3.1258757410 1.3136996858 2.0970538800
C 4.1612312437 1.0193012987 1.2175834449
C 3.8963724708 0.2513690833 0.0924927368
C 2.6227154706 -0.2392701998 -0.1658230731
C 1.5931905903 0.0373467637 0.7270934439
O 4.9396840039 0.0305527798 -0.8107912388
P 5.5802107087 -1.4513626001 -1.0401705597
S 5.7190902350 -2.5532802228 0.5493035323
O 6.9148823837 -1.0490522451 -1.8197790635
C 7.9881686438 -0.3637430483 -1.1129172634
O 4.7202589766 -2.1476093189 -2.1875194746
C 4.4765585372 -1.4570318474 -3.4539162918
H -5.7350541367 0.5780875905 -2.3551129033
H -7.5090220233 0.7020586989 -2.5689326328
H -6.8079621453 -0.7427684264 -1.7776307563
H -7.0156950848 -2.6455526863 1.2904083322
H -7.3541046653 -1.2415962299 2.3522167494
H -8.0965066341 -1.3374634502 0.7190461660
H -3.8408697918 -0.7158377183 2.1169849833
H -1.6929861219 -0.5725392561 3.3373584601
H -0.4440510190 2.6496665243 0.7777691762
H -2.5955002372 2.4872301305 -0.4587851761
H 3.3222562082 1.9293356491 2.9692827937
H 5.1645232552 1.3930087289 1.3923357061
H 2.4341548987 -0.8373245393 -1.0514317008
H 0.6011387413 -0.3558951508 0.5344103970
H 7.6327493914 0.5979450825 -0.7339148703
H 8.3520478958 -0.9891266867 -0.2935792714
H 8.7748909241 -0.2114759327 -1.8508579123
H 3.7540205510 -2.0749473991 -3.9855749696
H 4.0589261301 -0.4644122710 -3.2670418709
H 5.4073259795 -1.3840482648 -4.0196791349
