53
CONF13
C -1.0733454787 5.1901650785 0.2692255256
C -1.3260283349 4.1245016883 -0.7778474933
O -1.0733155214 2.7992943966 -0.2418007740
C 0.2086235921 2.3567472221 -0.2723958555
O 1.1250707882 3.0219310594 -0.7460735128
C 0.3209275940 1.0233441382 0.3017070748
C 1.5435872976 0.4225377153 0.3937337523
N 1.6597440114 -0.8081704430 0.9732660522
C 0.6383872734 -1.4428737315 1.6365426687
C -0.6191226495 -0.9103197711 1.6044720084
C -0.9481069194 0.2819638936 0.7106134883
C -1.7133747001 -0.1753356145 -0.5323585297
C -1.0802760553 -1.0728801929 -1.4017533277
C -1.6891318567 -1.5419722718 -2.5575724700
C -2.9753711574 -1.1146442293 -2.8788231941
C -3.6347129758 -0.2247906710 -2.0399031898
C -3.0024839100 0.2320922342 -0.8847680727
Cl -3.9249665292 1.3581321521 0.1154534405
C -1.6923045072 -1.5234291917 2.3782082927
O -1.6140654289 -2.5051894281 3.1072283687
O -2.8637574125 -0.8568549884 2.2007028823
C -3.9975222581 -1.3856153598 2.9155994845
C 1.0642794601 -2.6800201071 2.3678436133
C 2.8574902291 1.0371644658 -0.0609734965
O 3.9847311419 0.2421523776 0.2906291486
C 4.6254462653 -0.4257418734 -0.8062899505
C 3.8913169997 -1.6747551690 -1.2654707595
N 3.7635531961 -2.6237644954 -0.1479612150
H -0.0215421483 5.2052676023 0.5663971327
H -1.6912577886 5.0139282990 1.1545500838
H -1.3310577752 6.1715703980 -0.1414740055
H -0.7063688571 4.2751486339 -1.6658621758
H -2.3786744590 4.0969655664 -1.0698498298
H 2.5674245214 -1.2804447772 0.9159495064
H -1.5903582693 0.9680204342 1.2636376064
H -0.0771992394 -1.4075495171 -1.1512511321
H -1.1640012150 -2.2372631500 -3.2044401771
H -3.4695217622 -1.4694265406 -3.7774667566
H -4.6365030087 0.1170197702 -2.2753997297
H -4.1971540163 -2.4159740067 2.6091416104
H -3.8203603385 -1.3550162672 3.9941486064
H -4.8337614054 -0.7396137348 2.6480093290
H 2.1129119770 -2.9008238380 2.1569988631
H 0.9367978588 -2.5509420403 3.4455988256
H 0.4475463059 -3.5338116669 2.0805263543
H 2.8217114983 1.2247887411 -1.1408392355
H 2.9694890532 2.0111668548 0.4255989435
H 4.7512334687 0.2667995282 -1.6505016440
H 5.6201217157 -0.6964714821 -0.4336200468
H 2.8843234256 -1.4086839985 -1.6152229413
H 4.4346866424 -2.0785127081 -2.1357121880
H 4.6831033613 -2.9629984504 0.1183580315
H 3.2331381790 -3.4368109412 -0.4433208852
