60
CONF140
C 0.5301425087 0.3118373698 -1.2511498588
C 1.4139774401 -0.0132807202 -2.4597019271
C 2.8639085666 0.1989594122 -1.9459482044
C 2.7484980742 0.5330182754 -0.4393133917
O 2.7263259083 1.9621988630 -0.3310588922
C 3.9185982279 0.0147918852 0.3757571806
O 4.4665563698 -1.0524445459 0.1279254250
C 4.3896274905 0.9000497219 1.5122237715
O 5.2405322439 0.2047019267 2.4519948217
S 6.7854075472 -0.1199180677 2.0219835303
O 6.6600816951 -1.6253654958 1.4923715225
O 7.5427191706 -0.1790924013 3.2599001776
O 7.1752877166 0.7779152426 0.9384114465
C 1.3699309369 -0.1359340906 -0.0384227883
C 1.5524019018 -1.6606758026 0.0187119924
C 0.7037444064 0.3922137408 1.2321564361
C -0.7746755820 -0.0316425562 1.3592928861
O -0.9035923922 -1.4173382890 1.7117044975
C -1.5830834240 0.2610266449 0.0814392579
C -0.9046105326 -0.2098485260 -1.2238866878
C -1.6709293212 0.3488619328 -2.4250548059
C -3.1600445360 0.0012902644 -2.3740943187
C -3.7893186420 0.3822167768 -1.0713826199
C -4.9467653549 1.0818637041 -1.0448887686
C -5.7293597907 1.2953927270 0.1624229679
O -6.7892070947 1.9290087185 0.1457053525
C -5.2201131184 0.6263385301 1.4136967577
C -3.6963728012 0.5617968907 1.4278748678
C -3.1019428371 -0.1255481553 0.1840299916
C -3.3683471499 -1.6523819756 0.2377231208
H 0.4548074635 1.4073777507 -1.1822951840
H 1.1923645274 0.6277982429 -3.3162087288
H 1.2634710735 -1.0507120208 -2.7778107242
H 3.4779996395 -0.6916609092 -2.0875387156
H 3.3686042621 1.0319674590 -2.4409513825
H 2.2038042555 2.2324023277 0.4356061108
H 3.5451766662 1.2436565150 2.1173301520
H 4.8925623017 1.7825352935 1.1016634595
H 5.8555489157 -1.6234984828 0.8881991161
H 0.5831926420 -2.1564724044 0.0084352541
H 2.1446258270 -2.0347520553 -0.8184628601
H 2.0577848682 -1.9519275749 0.9445164860
H 1.2357454007 0.0667755777 2.1364167905
H 0.6926391404 1.4909680501 1.2418450027
H -1.1986263068 0.5766800851 2.1713247476
H -0.3310055315 -1.5743455201 2.4734824971
H -1.5807275945 1.3625811349 0.0199448146
H -0.9055719661 -1.3062181946 -1.2841636761
H -1.2424793303 -0.0310570968 -3.3584570214
H -1.5563662068 1.4420294939 -2.4368778180
H -3.7001779765 0.4674765120 -3.2035408098
H -3.2688345336 -1.0870759361 -2.4907710710
H -5.3874465667 1.4381122545 -1.9740928069
H -5.6087999358 1.1567631894 2.2879219252
H -5.6532025578 -0.3842226749 1.4336685969
H -3.3586336440 0.0412392217 2.3291675447
H -3.3092133423 1.5882053624 1.4799203971
H -4.4205990234 -1.8574221656 0.0152162716
H -3.1336968443 -2.0415085117 1.2277480829
H -2.7623232455 -2.1937801289 -0.4916592916
