48
CONF31
C -3.5908467274 2.1088032903 -1.2617365643
C -3.1748071526 1.0734431512 -0.2145225245
C -3.0041737534 1.6874764762 1.2002367457
C -4.1813183510 1.1152255451 1.9813569505
N -4.3289897907 -0.2419690252 1.4314178998
C -4.2581846868 -0.0403528393 -0.0300275223
N -3.7533794292 -1.1730671605 -0.7941647298
C -2.3903747618 -1.0437382443 -0.9705885756
C -1.9827064959 0.2694368927 -0.6780194453
C -0.6679997080 0.6537554698 -0.8445192620
C 0.2419083005 -0.3028340599 -1.2980460431
C -0.1389925511 -1.6053945050 -1.5750144308
C -1.4708851557 -1.9983623901 -1.4089012834
O 1.5767168041 0.0805280781 -1.5248350621
C 2.4223104642 0.0002842946 -0.4430030066
O 2.0871363483 -0.3874910700 0.6582098062
N 3.6577020626 0.4228943508 -0.8329791554
C 4.8316328552 0.4996504255 -0.0650002049
C 4.9097633437 0.1095068530 1.2772913530
C 6.1231032486 0.2220206492 1.9517998200
C 7.2601018191 0.7145799852 1.3181790232
C 7.1760768152 1.1009027566 -0.0184731363
C 5.9752633621 0.9961795039 -0.7070575950
C -4.4218309425 -2.4564136056 -0.8357264904
C -5.5709782509 -0.8687357024 1.8828289346
H -4.4792122935 2.6553127767 -0.9267123532
H -2.7814590954 2.8275855942 -1.4247317289
H -3.8198428233 1.6236922514 -2.2166132746
H -2.0602486956 1.3600738595 1.6444339362
H -3.0119884167 2.7802701495 1.1731470011
H -5.0935028313 1.7189458082 1.8036392168
H -5.2465284393 0.2604656733 -0.4270003577
H -0.3333116966 1.6634622175 -0.6231473736
H 0.6064684905 -2.3184398191 -1.9123258309
H -1.7657169369 -3.0213068253 -1.6153275950
H 3.7319926094 0.7175479086 -1.7967807938
H 4.0367389416 -0.2756740352 1.7839307272
H 6.1715910000 -0.0842550508 2.9923649157
H 8.1985260701 0.7964648362 1.8563781560
H 8.0503215518 1.4877649421 -0.5327268451
H 5.9172106704 1.2996270242 -1.7488063076
H -4.1418799923 -2.9898504453 -1.7509712194
H -4.1749359279 -3.0981515006 0.0245773745
H -5.5038659030 -2.2985454304 -0.8572275257
H -5.6447436066 -1.8959612777 1.5183198170
H -6.4656218627 -0.3120974499 1.5451659187
H -5.5818178611 -0.9010360072 2.9772283272
H -4.0110218216 1.0730323861 3.0623816457
