48
CONF3
C 5.5988632889 -2.5946411440 2.0464398743
O 5.4373847668 -2.2387921880 0.6766015354
C 4.3691783555 -1.4578567243 0.3506772496
C 4.2569989072 -1.1176786488 -1.0018877915
C 3.2091792926 -0.3267498152 -1.4342138679
C 2.2326335687 0.1352005036 -0.5384406949
C 2.3706358008 -0.1987161961 0.8119182921
C 3.4216197924 -0.9878676826 1.2630454480
C 1.0973746844 0.9549988639 -0.9789270888
Cl 1.5603437218 2.2496004671 -2.1049832267
C -0.1990130026 0.8112220660 -0.6123148456
C -1.2543146052 1.8064352132 -0.8950745783
C -1.0994433650 3.1575824570 -0.5809641600
C -2.1148360743 4.0805450476 -0.8105710955
C -3.3184097411 3.6525029654 -1.3746135924
O -4.3769845541 4.4664244635 -1.6507173422
C -4.2347349137 5.8524836631 -1.3564967390
C -3.4967116336 2.3001732892 -1.6848449509
C -2.4820160847 1.3949214557 -1.4361979835
C -0.6454286059 -0.4135636626 0.0942101164
C -1.5084461523 -0.3186227967 1.1971139599
C -1.9423662020 -1.4470932835 1.8685992956
C -1.5380568265 -2.7156393588 1.4396168176
O -2.0196656947 -3.7658860995 2.1640950046
C -1.6392100305 -5.0758180644 1.7550562967
C -0.7028951612 -2.8356238802 0.3264656526
C -0.2685159573 -1.6893711448 -0.3304941053
H 4.7412146051 -3.1744356766 2.4118098447
H 6.4980474527 -3.2104810839 2.0900556953
H 5.7350845575 -1.7055576877 2.6756588352
H 5.0070981342 -1.4829545578 -1.6948601518
H 3.1365044132 -0.0634676544 -2.4840401036
H 1.6364122445 0.1632190463 1.5235405534
H 3.4926275642 -1.2171451632 2.3189024720
H -0.1695810157 3.4968984032 -0.1372540731
H -1.9558837663 5.1176561398 -0.5426931503
H -3.4074429106 6.2977658143 -1.9243250841
H -5.1736608249 6.3188927631 -1.6576371851
H -4.0736454399 6.0182233139 -0.2832367802
H -4.4398147321 1.9841947854 -2.1173035819
H -2.6320852039 0.3449308596 -1.6676937954
H -1.8354710051 0.6617517302 1.5298102337
H -2.6002371677 -1.3723683223 2.7277721649
H -2.1171124984 -5.7583849251 2.4590098333
H -1.9921376536 -5.2948802127 0.7388547356
H -0.5502500119 -5.2076121704 1.8008291431
H -0.3920182852 -3.8049382926 -0.0429409416
H 0.3791876625 -1.7894770759 -1.1952586393
