78
CONF715
C -0.8754370291 0.7811911423 -1.8622875407
C -0.1625266078 1.3545804408 -3.0798834978
O -0.9089137971 0.7897090708 -4.2128973379
C -1.5699782745 -0.3369423683 -3.8344544421
O -2.1932840854 -0.9962935744 -4.6337628643
C -1.3120159377 -0.5847796896 -2.3697792923
C -2.3984037461 -1.2033844041 -1.4864560371
C -3.7644813182 -0.5472658245 -1.6608902881
C -4.6464471995 -1.0616122789 -2.6130745937
C -5.8884161650 -0.4600487991 -2.8262832187
O -6.8168700291 -0.8854313221 -3.7314776991
C -6.4740540740 -2.0251298292 -4.5305777816
C -6.2563665636 0.6632517597 -2.0768742176
O -7.4774711950 1.2381590114 -2.2918933097
C -5.3737345176 1.1634977794 -1.1134770171
O -5.8527429304 2.2519022461 -0.4364993716
C -5.0022761832 2.8368534552 0.5593101422
C -4.1351670753 0.5633686499 -0.8990965550
C -1.9317714327 -1.1206169396 -0.0369159387
C -2.6273744087 -1.9187288291 0.8936905058
C -2.3111412108 -1.7836249292 2.2226566276
C -1.3574743211 -0.8695670940 2.6604540329
O -1.2895215966 -0.8887816707 4.0307924847
C -2.0536519708 -2.0473401942 4.4277681073
O -2.8760704180 -2.4161154529 3.2982285204
C -0.6720110884 -0.0718485017 1.7806855918
C -0.9490838277 -0.2176785213 0.4015710728
C -0.1234399684 0.6154649900 -0.5600605416
O 1.1408141846 -0.0282306792 -0.9178880391
C 1.9609363689 -0.4315763681 0.1250659729
O 2.4197902095 0.7331777738 0.8278185136
C 3.2430105948 0.3385047741 1.9216281302
C 3.6418989319 1.5601954767 2.7271222776
O 4.5204519232 1.1283766497 3.7839859887
C 5.6713048582 0.4358280810 3.3152056244
O 5.3442701269 -0.6840052633 2.5061112020
C 4.5132502026 -0.3227706161 1.3903299012
C 4.1614330033 -1.5595524323 0.5945225352
O 5.3504914803 -2.0929205519 0.0163329408
C 3.1516616461 -1.1718912421 -0.4883293300
O 2.7372100209 -2.3854871115 -1.1113523471
C 6.6465946288 1.3538775479 2.6200431620
C 7.5473009597 1.0493800640 1.6343246397
C 8.3913968209 2.1409996075 1.2919510793
C 8.1340631440 3.2641408993 2.0290027727
S 6.8447665853 2.9989394320 3.1566952268
H -1.7656137745 1.3889524765 -1.6611023808
H 0.8739785176 1.0170348033 -3.1614583090
H -0.2201811775 2.4400298198 -3.1671666236
H -0.4364043537 -1.2544546704 -2.3499383817
H -2.5057551593 -2.2600653613 -1.7563819167
H -4.3507953618 -1.9263628205 -3.1924287135
H -6.3080333530 -2.9095019168 -3.9043234498
H -5.5809574750 -1.8273152328 -5.1349729168
H -7.3301283504 -2.1939495106 -5.1844053517
H -7.5552309938 1.9939156204 -1.6902617274
H -4.7901852947 2.1196158521 1.3605063386
H -4.0631832721 3.1837300725 0.1131029463
H -5.5568687757 3.6851612623 0.9605204425
H -3.4731414263 0.9393771551 -0.1291094680
H -3.4050786350 -2.6006796256 0.5647885033
H -2.6941225081 -1.7885201410 5.2727084527
H -1.3665190450 -2.8726627698 4.6570238772
H 0.0645786297 0.6485223940 2.1222143183
H 0.1103861766 1.5838435575 -0.1029720148
H 1.4309676833 -1.0920532426 0.8337195171
H 2.7048378930 -0.3711258196 2.5722847115
H 2.7810355755 2.0244710280 3.2134363368
H 4.1357610767 2.2956783456 2.0760433154
H 6.1240480897 0.0106059828 4.2174519464
H 5.0401215540 0.3918981042 0.7397075134
H 3.6923259205 -2.2995196344 1.2643556208
H 5.0867605739 -2.8441112790 -0.5323076638
H 3.6392716030 -0.5010131366 -1.2123254347
H 2.2294888054 -2.1539809164 -1.9001610635
H 7.5973844625 0.0715154889 1.1698308595
H 9.1574346456 2.0959083249 0.5266038890
H 8.6132992268 4.2327534347 1.9739309296
