39
CONF117
C 8.7285168099 0.6921723772 1.5751108826
C 7.6942062661 1.7782517987 1.2795826896
C 6.2553574145 1.2590178638 1.2131271762
C 6.0233783638 0.2181212908 0.1153855463
C 4.5402350956 -0.1274475180 -0.0981194871
C 4.3431342054 -1.5097985822 -0.7366388059
C 4.5516890968 -2.6618504144 0.2433808013
C 3.8974807993 0.9555573566 -0.9561511866
O 2.4407042587 0.8576353335 -0.9287232545
C 1.8382584921 1.4806800237 0.0939306711
O 2.3840795174 2.1676653328 0.9250290513
C 0.3486637137 1.3016215545 0.0404986498
C -0.4070716841 2.4506546302 -0.1549563264
C -1.7897373727 2.3804360049 -0.2217921658
C -2.4469044413 1.1544159219 -0.0726974942
C -1.6876587927 -0.0054515549 0.1617848305
C -0.2899990327 0.0746141653 0.2139530011
Br 0.7620088657 -1.4562354992 0.6086354603
Br -2.5524874082 -1.6697012434 0.4104850360
Br -4.3320678753 1.0715682453 -0.1689790623
Br -2.7321151784 4.0004044216 -0.5199211326
H 8.4775957889 0.1540438797 2.4962652208
H 8.7880469444 -0.0420175142 0.7658633907
H 9.7267124850 1.1221829612 1.7009282119
H 7.7526236583 2.5527361363 2.0537301020
H 7.9429729708 2.2729106829 0.3310317018
H 5.9818619453 0.8157299015 2.1805014485
H 5.5747175302 2.1073718207 1.0706635961
H 6.5688695018 -0.6992049650 0.3608379818
H 6.4500815881 0.5753332096 -0.8352941701
H 4.0383624828 -0.1152791570 0.8803144568
H 5.0338701457 -1.6063344939 -1.5863185479
H 3.3292043431 -1.5712774191 -1.1480913790
H 3.8373686957 -2.5958977318 1.0716874958
H 4.4087102153 -3.6290142544 -0.2474118798
H 5.5575597162 -2.6570242210 0.6753332978
H 4.1553940038 0.8206714707 -2.0109844350
H 4.1830911281 1.9588916746 -0.6308142181
H 0.0939339119 3.4056404980 -0.2566481792
