30
CONF4
O 6.1756217106 -0.2536343562 0.7228763559
S 5.1438009132 0.0097931636 -0.5231977780
O 5.2279287912 1.4202763351 -0.8436329990
O 5.2932899195 -1.0713567227 -1.4871471581
C 3.5113677632 -0.2593543639 0.4448044912
F 3.4412735267 -1.5733675979 0.7381521314
F 3.5836106078 0.4507327103 1.5774819899
C 2.2706428572 0.1830558843 -0.3936285127
F 2.2115122380 1.5308781609 -0.3750020845
F 2.4444175743 -0.2411862533 -1.6641257533
C 0.9202218115 -0.3997668901 0.1561974661
F 0.9422889048 -0.3263669113 1.5066076019
F 0.8303472615 -1.6952949815 -0.2168538164
C -0.3406824534 0.3728301882 -0.3706239617
F -0.4501190336 1.5317228567 0.3158623715
F -0.1631585057 0.6440085723 -1.6822248332
C -1.6729272499 -0.4411143135 -0.2026661550
F -1.6590352436 -1.0541900031 1.0022484638
F -1.7335926139 -1.3752498793 -1.1770214767
C -2.9548904867 0.4611818600 -0.2879991998
F -3.1055869538 1.1097156768 0.8886729150
F -2.7872087948 1.3695589212 -1.2753304059
C -4.2605903643 -0.3520600395 -0.5836411305
F -4.2858543889 -0.6777658812 -1.8926548893
F -4.2623393631 -1.4839734174 0.1584841069
C -5.5787306616 0.4267315399 -0.2617901681
F -5.5430718817 1.6485046302 -0.8120661257
F -6.6141220626 -0.2502763534 -0.7748307342
F -5.7566398729 0.5437427696 1.0578375388
H 6.4499312709 -1.1866542559 0.6932343385
