45
CONF76
C 4.1254711875 3.1664963862 -1.6766731977
C 2.7743120824 2.4696988638 -1.5284111929
C 2.8240317816 1.0054306065 -1.9685226246
C 1.4697920572 0.2919571755 -1.9662340981
C 0.8314474138 0.1808985942 -0.5816723600
C -0.4831526533 -0.6177863359 -0.5793977908
C -1.1400386342 -0.6655555651 0.8144820119
C -1.5763615143 0.6927319052 1.3638734419
C -2.3658389701 0.5716159987 2.6670839846
C -2.7916663955 1.9228447475 3.2401124368
C -3.5799228313 1.7902358581 4.5414268609
C -0.2933852101 -2.0219740794 -1.1138306250
C 0.5914438906 -2.9134063388 -0.4985714852
C 0.7558538128 -4.2065093758 -0.9822403622
C 0.0361901956 -4.6364078624 -2.0942692342
C -0.8475034187 -3.7608429945 -2.7158514338
C -1.0078397308 -2.4668578821 -2.2272833579
H 4.4590351070 3.1569994227 -2.7199721518
H 4.8928075588 2.6612470056 -1.0800137294
H 4.0793374722 4.2094482220 -1.3487278901
H 2.4468748564 2.5365125419 -0.4838334577
H 2.0172718983 2.9986835935 -2.1233826432
H 3.2467653092 0.9586187887 -2.9810742361
H 3.5234049292 0.4573354224 -1.3211504376
H 0.7784650314 0.8193087466 -2.6393403895
H 1.5960610881 -0.7146534819 -2.3825738562
H 0.6301890928 1.1834327984 -0.1901798296
H 1.5427519377 -0.2875002955 0.1140680611
H -1.1822443277 -0.1043170281 -1.2560193086
H -2.0163491863 -1.3244946755 0.7557143739
H -0.4480090134 -1.1423881551 1.5222653151
H -0.7019041144 1.3313057145 1.5396125417
H -2.1912431557 1.2092554664 0.6128048699
H -1.7589439011 0.0368630566 3.4113769230
H -3.2572275083 -0.0484602988 2.4982546077
H -3.3962771179 2.4561681707 2.4946823047
H -1.8997091608 2.5402612784 3.4093235570
H -2.9842030497 1.2864963488 5.3103115270
H -4.4902763365 1.2005714568 4.3891032388
H -3.8757853895 2.7678121855 4.9339455213
H 1.1625430224 -2.5934963225 0.3683080201
H 1.4487028560 -4.8820636054 -0.4898296633
H 0.1650132321 -5.6453360257 -2.4726301104
H -1.4126410114 -4.0837984754 -3.5847812267
H -1.6972421817 -1.7863804563 -2.7204081117
