78
CONF99
C -2.0687181743 1.1676682155 -1.1066529959
C -2.1941625592 2.4673103644 -1.8940269225
O -2.3914305620 2.0299502216 -3.2725570004
C -1.9204745629 0.7604640329 -3.4455129475
O -1.9154941194 0.2235959249 -4.5222718579
C -1.3853894735 0.2657567783 -2.1188865271
C -1.5202939863 -1.2065194907 -1.7249242758
C -2.9391830923 -1.7461747853 -1.8804571524
C -3.8111929038 -1.8310363298 -0.7937818009
C -5.1215085778 -2.2819710192 -0.9672635109
O -6.0408174054 -2.4053305929 0.0326085211
C -5.6213854064 -2.0508330268 1.3438473164
C -5.5708377721 -2.6430057751 -2.2411534416
O -6.8518740908 -3.0734128860 -2.4063501881
C -4.6869864273 -2.5565287791 -3.3220932326
O -5.2419444553 -2.9317068463 -4.5191011316
C -4.4524721385 -2.7268537466 -5.6919184483
C -3.3767301828 -2.1253061594 -3.1497964731
C -1.0257911357 -1.3477144073 -0.2915397428
C -0.6723436305 -2.6424311983 0.1375530820
C -0.2825671073 -2.8047894779 1.4432544857
C -0.2646713364 -1.7411189825 2.3404401493
O 0.1058944500 -2.1896564690 3.5858816486
C 0.5676538502 -3.5338675182 3.3706571643
O 0.0756293173 -3.9600864585 2.0877626272
C -0.6261329747 -0.4760132331 1.9609707549
C -0.9955471027 -0.2724513899 0.6122808298
C -1.2838500396 1.1549745855 0.1923505423
O -0.0820983526 1.9696514878 0.0008819303
C 1.1642483631 1.3968746325 0.1359876922
O 1.5741377847 1.5166338213 1.5110561009
C 2.8278275658 0.8808064653 1.7053925839
C 3.2069750782 0.8859020560 3.1733843812
O 4.5185491507 0.3057699978 3.2876144169
C 5.5074188659 0.9735856158 2.5206856992
O 5.1774586769 1.0512675493 1.1391179952
C 3.8912253712 1.6531802753 0.9325788122
C 3.5623846358 1.6150288996 -0.5434222858
O 4.4360544881 2.4262717303 -1.3300871315
C 2.1481306001 2.1513785338 -0.7606295369
O 1.7361311087 1.9560801971 -2.1075360289
C 5.8428212528 2.3344043547 3.0790453006
C 6.2781704120 3.4465525571 2.4094379259
C 6.5970849131 4.5281284255 3.2722111174
C 6.4119505946 4.2244041927 4.5920014468
S 5.8370190487 2.6044724936 4.7982147124
H -3.0717356590 0.7680551827 -0.9032306149
H -1.2756211707 3.0596644711 -1.8490616787
H -3.0578080880 3.0788120343 -1.6245340155
H -0.3143906374 0.5254447298 -2.1479954495
H -0.8669638814 -1.8004350312 -2.3757214834
H -3.4564709289 -1.5629976009 0.1930711990
H -4.7850923791 -2.6777656773 1.6816850662
H -6.4856127632 -2.2206200337 1.9876130100
H -5.3278320876 -0.9936096545 1.3997077170
H -6.9641893837 -3.2555702012 -3.3497444039
H -4.1361865927 -1.6802253200 -5.7745087874
H -3.5692262432 -3.3775917487 -5.6890140358
H -5.0946107145 -2.9901426639 -6.5333331178
H -2.7025087467 -2.0411641678 -3.9912747652
H -0.7264732883 -3.4832306646 -0.5454846769
H 0.1630585132 -4.1864512913 4.1484224367
H 1.6683799190 -3.5423189002 3.3568627817
H -0.6026142057 0.3535280586 2.6575052875
H -1.8380077628 1.6596096136 0.9935700793
H 1.1623637195 0.3272870365 -0.1392661678
H 2.7980361937 -0.1638654159 1.3465483916
H 2.5414422314 0.2570980823 3.7700215131
H 3.1862939386 1.9129390433 3.5656870162
H 6.3802531532 0.3130301778 2.5648387707
H 3.8961191608 2.6960029546 1.2848332066
H 3.5980868492 0.5682951306 -0.8903542797
H 5.3197103592 2.0450355639 -1.2670583904
H 2.1183005357 3.2182233002 -0.4870000346
H 2.4443029461 2.2952296233 -2.6699319071
H 6.3607759126 3.4802545564 1.3298302794
H 6.9465842454 5.4937798742 2.9279449292
H 6.5687690933 4.8578660838 5.4541173876
