47
CONF33
C -3.1840641722 0.7273344375 1.2405784451
C -2.3841099940 0.6290174349 -0.0388624372
C -3.0577158360 0.1986520599 -1.3188156630
C -2.1570333916 -0.7878606300 -0.5720464486
C -0.8744980981 -1.1596926736 -1.1883635768
O -0.2776823815 -0.5527265418 -2.0490079805
O -0.4055612011 -2.3138120918 -0.6124453680
C 0.8895337502 -2.7657748169 -1.0783917624
C 0.7600685905 -4.1849391297 -1.3962327717
N 0.6763907890 -5.3054124000 -1.6609098474
C 1.9580789166 -2.4747134378 -0.0401781187
C 1.9752865053 -1.2029508769 0.5326603789
C 2.9684241134 -0.8864866796 1.4527236762
C 3.9397464104 -1.8225488401 1.8058404036
C 3.9055807212 -3.0835043168 1.2306530831
C 2.9198316376 -3.4192442072 0.3048457416
O 3.0207878716 0.3167277490 2.1180669525
C 2.4703987557 1.4558510068 1.5579501963
C 2.6838761254 1.8061732495 0.2268340113
C 2.1741073805 3.0113642305 -0.2433407460
C 1.4718749269 3.8643825677 0.6045019118
C 1.2762056647 3.5043456785 1.9345278189
C 1.7685662122 2.2957435613 2.4164315933
C -4.4932593186 -0.0795513654 -1.4031512172
C -5.2788682585 0.2263912107 -2.4374267187
Cl -6.9799599160 -0.1418370016 -2.4447837639
Cl -4.7203244352 1.0170694552 -3.8802837440
C -1.2842732893 1.6593288042 -0.1442140545
H -3.7182243890 1.6830877839 1.2760698736
H -2.5097328559 0.6843264348 2.1020713978
H -3.9159411834 -0.0757384453 1.3496221520
H -2.5973506153 0.5971544734 -2.2175965731
H -2.6388226911 -1.5800205666 -0.0093234944
H 1.1212500997 -2.2228683116 -2.0058246215
H 1.2253849671 -0.4661013300 0.2699982655
H 4.6965710081 -1.5477131998 2.5317843651
H 4.6543302198 -3.8183056479 1.5069718259
H 2.8987247595 -4.4099427649 -0.1356676032
H 3.2441497174 1.1464221419 -0.4265116902
H 2.3369274487 3.2874636852 -1.2801026181
H 1.0817619270 4.8045842478 0.2300666021
H 0.7328221936 4.1638461880 2.6035839216
H 1.6298130992 1.9967530900 3.4496416002
H -4.9765440326 -0.5750643147 -0.5674040065
H -0.7341565708 1.5837571961 -1.0825711918
H -0.5729818827 1.5547897640 0.6833334410
H -1.7193878010 2.6622438377 -0.0782549186
