41
CONF11
C 4.8120518020 3.2714450372 -0.6055408823
N 4.4599479748 1.8598427474 -0.6973903133
C 3.2237913895 1.3270745064 -0.7421587844
C 3.3844492490 -0.0511755005 -0.8502591191
C 4.7879289110 -0.2313009562 -0.8635461059
N 5.4304548373 0.9317593278 -0.7657804122
C 5.5444817143 -1.5113372001 -0.9780960554
F 5.7862361091 -1.8001182022 -2.3149272171
F 6.7825993294 -1.3938819080 -0.3890755083
C 2.3775528503 -1.1158021158 -0.9717727175
O 2.6796400924 -2.2380664495 -1.3844595673
N 1.1091373348 -0.7594708782 -0.5927615528
C -0.0516488613 -1.5535210220 -0.6490402879
C -0.2376458919 -2.5715509297 -1.6008076119
C -1.4341532504 -3.2807978095 -1.6483003302
C -2.4879987638 -3.0056403585 -0.7702286201
C -2.2921573939 -2.0108928995 0.1715361817
C -1.0870283902 -1.2975213837 0.2457993935
C -1.2487574835 -0.2574129730 1.3382113316
C -2.2573008780 0.8039454393 0.7859200266
C -3.5985044724 0.0118962893 0.6933028050
C -3.2189113755 -1.4155293803 1.2122781507
C -2.1828243883 -1.0316386234 2.2489146245
C -2.1238254374 -1.2653843237 3.5483702772
Cl -3.3449615283 -2.1725265204 4.4091171432
Cl -0.8175501049 -0.6978548296 4.5620486103
H 5.3519588019 3.5754143573 -1.5056972050
H 5.4409143492 3.4332676077 0.2728657069
H 3.8928292949 3.8502010627 -0.5132182290
H 2.3415836235 1.9516260090 -0.7126773496
H 5.0246006478 -2.3668292715 -0.5420487265
H 0.5516711518 -2.7995743495 -2.3037383161
H -1.5465861194 -4.0618650851 -2.3940050928
H -3.4209484779 -3.5573965313 -0.8258766845
H -2.3392289817 1.6358085759 1.4906313869
H -1.9224646712 1.1952921216 -0.1778951508
H -4.3593483648 0.4500982769 1.3446148435
H -3.9965667070 -0.0384674589 -0.3229221766
H -4.0556255276 -2.0343731889 1.5304092112
H -0.3422811936 0.1477367522 1.7849242223
H 1.0116590818 0.1252073237 -0.1164199362
