15
CONF17
C -1.3914972403 1.1197578652 -0.9261080116
C -1.0822036101 0.2148809939 0.2647762095
C 0.2500360893 -0.5858264253 0.1929078696
C 1.5536701828 0.2553480013 0.0917733076
F 1.5541271225 0.9684644933 -1.0524983747
F 2.6143111746 -0.5595970911 0.0818625954
F 1.6655158936 1.1010246315 1.1218187880
F 0.2074266478 -1.3873865444 -0.9050769213
F 0.3515636755 -1.3623788016 1.2950898576
F -2.0718722892 -0.7341012902 0.3617049276
F -1.0883576886 0.9218320651 1.4253311822
O -2.6941120098 1.6494253182 -0.8237124628
H -1.2339581523 0.5460302024 -1.8508834537
H -0.7008592543 1.9661772739 -0.9159760000
H -3.3238098819 0.9190828660 -0.8551010147
