16
CONF2
C -1.2227361396 -0.6239213461 -0.3206822426
C 0.1901077187 -0.7578297264 -0.3744086550
C 1.0061437294 0.2194041249 0.1759776699
N 0.5103083586 1.3161043898 0.7707608580
C -0.7945313857 1.4476150079 0.8512871089
C -1.7040425935 0.5304914138 0.3389189727
Cl -3.4208104345 0.7640502372 0.4669910159
Cl -1.3775436640 2.8902678911 1.6610332303
C 2.5037327725 0.1041489443 0.1997661747
O 3.1054098465 -0.9281057350 0.3981589603
O 3.0915182971 1.2943518955 0.0044389865
Cl 0.8320553677 -2.1475577940 -1.2088884070
N -2.0477427097 -1.5355212660 -0.8561144244
H 4.0540906310 1.1665845903 0.0687852476
H -3.0451010285 -1.4044297049 -0.8321429735
H -1.6808583638 -2.3356527213 -1.3438815328
