33
CONF35
C 4.8347482482 0.6106985589 -0.3343904905
C 5.4355231029 1.9970002736 -0.0691289894
O 6.8143626442 2.0253325063 -0.4227523788
C 3.3923172228 0.5257185398 0.1088727107
C 2.7409864686 -0.8533787445 -0.1910814046
C 1.3195765527 -1.1689796485 0.4025200922
C 0.1676359955 -0.1634618225 0.0736417627
C -1.2640911661 -0.7634700647 0.3262289636
C -2.3728820552 0.3395113975 0.4595957782
C -3.8233535036 -0.2194341660 0.2623630043
C -4.9471068120 0.7280943163 0.7964121121
F -4.9568041080 0.7585895333 2.1326490806
F -4.7700682899 1.9715821753 0.3278909576
F -6.1324271581 0.2704667385 0.3712298558
F -3.9451584987 -1.4013418499 0.9096876299
F -4.0432810861 -0.4099980626 -1.0555751102
F -2.2865778754 0.8949260937 1.6892642360
F -2.1596811198 1.2957103926 -0.4727180545
F -1.2487109490 -1.4904441049 1.4647093576
F -1.5836368462 -1.5694718964 -0.7110726156
F 0.3193224917 0.9310605431 0.8542616381
F 0.2468332197 0.1953307607 -1.2260358645
F 1.4362515005 -1.2708566585 1.7426867740
F 0.9684302562 -2.3827826701 -0.0975776260
F 2.6912257504 -1.0140629757 -1.5365384518
F 3.5575159245 -1.8165316184 0.3173869635
F 3.2877210415 0.7585993107 1.4533576064
F 2.6441497437 1.4818314671 -0.5284344280
H 4.8749996043 0.3749296292 -1.4037797457
H 5.4140509118 -0.1448068559 0.2026393932
H 5.3947125630 2.2219577303 0.9998015079
H 4.8667529290 2.7715327704 -0.6002237320
H 6.8837846990 2.0014117081 -1.3833754334
