55
CONF132
C 5.0156106384 -1.9771442896 -3.3563402518
O 4.9315962302 -2.5502853079 -2.0446635154
C 3.8077621248 -2.2990845572 -1.3183262413
C 3.7688688335 -2.8673551806 -0.0398015340
C 2.6644916712 -2.6671985734 0.7718904483
C 1.5769710384 -1.8976292537 0.3408578808
C 1.6256024245 -1.3466710685 -0.9397220129
C 2.7264945940 -1.5374520271 -1.7705978952
C 0.4229021949 -1.6794240350 1.2838616516
S -1.1646852148 -2.0532289185 0.3833048818
C -2.3825716389 -1.1899024521 1.3586016986
C -3.3838524299 -1.9251382092 1.9995200733
C -4.4078102595 -1.2808688592 2.6834315133
C -4.4206999711 0.1099061221 2.7594955571
C -3.4204219591 0.8513389014 2.1436615074
C -2.4035897958 0.2157054042 1.4273069412
N -1.4228946943 1.0109188141 0.7717587868
C -1.8758381951 2.0097863558 -0.2110522686
C -2.0346725199 1.3581860541 -1.5864620801
N -2.4770803808 2.3209218968 -2.5964062726
C -1.3764774668 3.2014998911 -3.0015025470
C -2.9930791735 1.6133058975 -3.7715409485
C -0.0785665854 0.8110558038 0.9072588784
O 0.7579183700 1.4673841178 0.2939531007
C 0.3374609278 -0.2730969435 1.9063587314
O 1.6503218547 0.0102727724 2.4149530606
C 1.7440289891 1.1110313325 3.2051674955
C 3.1460692159 1.3027193075 3.6903272136
O 0.7905166817 1.8096586425 3.4756322548
H 4.9714452741 -0.8827991268 -3.3098642616
H 4.2135180489 -2.3534447163 -4.0019425837
H 5.9821140810 -2.2890256076 -3.7528580377
H 4.6098484439 -3.4639860639 0.2985320692
H 2.6461226186 -3.1114179685 1.7631779684
H 0.7926515844 -0.7569179862 -1.3074482925
H 2.7254777248 -1.0931852503 -2.7582240203
H 0.5136078326 -2.3854129011 2.1152805876
H -3.3550448181 -3.0084078611 1.9480009199
H -5.1842630223 -1.8643261161 3.1669984050
H -5.2028619631 0.6209900129 3.3110951762
H -3.4177816886 1.9335553546 2.2224223109
H -1.1407169487 2.8157579795 -0.2269892971
H -2.8349277941 2.4160103113 0.1168291262
H -1.0816955293 0.8708674826 -1.8727737414
H -2.7917409393 0.5683296362 -1.5032979432
H -0.5293458277 2.6345784451 -3.4332860029
H -1.0041440107 3.7763976773 -2.1493382922
H -1.7352721351 3.9110543144 -3.7536879400
H -2.2286805798 0.9676449365 -4.2452149886
H -3.8439048997 0.9866948413 -3.4854805897
H -3.3332021228 2.3398678284 -4.5165880667
H -0.3661020821 -0.2947327743 2.7439381914
H 3.3699717332 0.5320121449 4.4356150504
H 3.8549616925 1.1839827684 2.8676193899
H 3.2455880399 2.2867022972 4.1465583840
