47
CONF40
C 0.9452853455 2.4850281893 2.0243888286
C -0.2869714634 2.1589722738 1.2100962532
C -1.6135777343 2.5257742405 1.8264425106
C -1.1703476985 1.0510135101 1.7899330619
C -1.8204615327 0.0720952510 0.9088147016
O -2.4204692510 0.2822101688 -0.1230426300
O -1.6183655662 -1.1910251635 1.4097904293
C -2.1549054518 -2.2741937586 0.6090250489
C -2.8600357282 -3.1686388875 1.5220207303
N -3.4325459438 -3.8825263561 2.2255939640
C -1.0465758402 -2.9581793093 -0.1704764079
C -0.9187599705 -4.3450702794 -0.2093102824
C 0.0823391885 -4.9220836732 -0.9862528275
C 0.9675442161 -4.1306809798 -1.7072064356
C 0.8327565716 -2.7475298247 -1.6502251358
C -0.1747887369 -2.1531826343 -0.9008888418
O 1.6847334719 -1.9855047536 -2.4247569351
C 2.3010693084 -0.8900482954 -1.8512969491
C 2.5637112413 0.1899523914 -2.6889573637
C 3.2618927829 1.2842740494 -2.1902689592
C 3.6910183903 1.3056612006 -0.8657386923
C 3.4176354297 0.2186369660 -0.0393423775
C 2.7200928667 -0.8840447397 -0.5218330274
C -2.7428337928 3.0128796746 1.0309915998
C -3.5727763175 3.9881682772 1.4010387508
Br -4.9950386778 4.5617600915 0.2795598421
Br -3.4514312209 4.9240221400 3.0543333014
C -0.0694667707 2.2616289793 -0.2808778762
H 1.7652529451 1.8120201316 1.7532451295
H 0.7595397361 2.3951288259 3.0984080081
H 1.2669374296 3.5115735006 1.8176731274
H -1.5517694372 2.9487866458 2.8244179585
H -0.8448345103 0.6368933471 2.7376454606
H -2.8860163745 -1.8466486697 -0.0914889422
H -1.5926584845 -4.9720620291 0.3643577297
H 0.1816114640 -6.0018917109 -1.0166115915
H 1.7600547442 -4.5626465600 -2.3077986612
H -0.2706754420 -1.0729268606 -0.8992254328
H 2.2247117485 0.1535369776 -3.7183166595
H 3.4681935760 2.1263658639 -2.8429811338
H 4.2371403338 2.1604053258 -0.4815228931
H 3.7624687347 0.2170760655 0.9900210307
H 2.5140590334 -1.7355755515 0.1173434812
H -2.9322449042 2.5519101854 0.0681489689
H 0.7624275584 1.6138024833 -0.5786070354
H 0.2038516371 3.2912216564 -0.5352443079
H -0.9467759885 1.9836623232 -0.8639718230
