29
CONF113
C -2.4573985039 0.9815311667 -1.1891753864
N -1.8604374034 -0.2020239245 -0.5640037405
C -1.8898825268 -1.4710598583 -1.3084230069
C -3.1572106605 -2.2649005858 -0.9828759671
O -3.2459158860 -3.4322445742 -1.7929526314
S -0.8967116191 -0.0604032761 0.7692106093
O -1.3077670610 1.1153198782 1.5327917587
O -0.7280920357 -1.3930781860 1.3429742614
C 0.8127855516 0.4077781001 0.0330639531
C 1.8136709581 0.9482949298 1.0976028012
C 3.3045516522 0.9288899579 0.6190007527
C 4.2624180399 1.8276090277 1.4664093619
F 4.1028408876 1.5768047863 2.7729152362
F 5.5290635426 1.5519693401 1.1241914440
F 4.0322958983 3.1243339562 1.2358134700
F 3.3662241962 1.3625184702 -0.6636913619
F 3.7674136863 -0.3374970819 0.6796031506
F 1.7145940554 0.1842692384 2.2077750509
F 1.4722911520 2.2202042497 1.4002553636
F 0.5986510812 1.3510941349 -0.9110631544
F 1.3205907609 -0.6942129191 -0.5632824000
H -2.4353906445 1.8175447916 -0.4892338028
H -1.9227421551 1.2567463392 -2.1061879293
H -3.5028139512 0.7661038894 -1.4325983317
H -1.0085821584 -2.0693893490 -1.0591511130
H -1.8501338135 -1.2479352858 -2.3817390117
H -3.1720365273 -2.5005702945 0.0902184692
H -4.0459513869 -1.6669942940 -1.2098436356
H -2.6163260339 -4.0807026218 -1.4593044070
