45
CONF3
C 5.2000232305 0.1020149827 -3.0674279087
C 6.2291149643 -0.5913864200 -2.5793624107
C 6.8510614742 -0.3476367069 -1.2648560955
O 7.7241662573 -1.0546820607 -0.7940074152
O 6.3505528635 0.7404540536 -0.6375178769
C 6.8632685528 1.0140833611 0.6876592591
C 6.2383587339 0.1186047127 1.7490406336
C 4.8194969243 0.4524498399 2.1592889858
C 3.7231783950 0.3067743170 1.0550892090
C 2.2583845836 0.1781284196 1.6013107693
C 1.1651394960 0.4837016584 0.5147177364
C -0.2548849933 -0.0693444622 0.8990267622
C -1.4168123940 0.6144547519 0.0923531628
C -2.7527795354 -0.2125069369 0.1219443068
C -4.0118461550 0.6439878279 -0.2590289167
C -5.2480119610 -0.2273057406 -0.6705035821
C -6.6080949610 0.5457498714 -0.6267083944
F -7.5448097454 -0.1929714097 -1.2352083435
F -6.4971509584 1.7187329988 -1.2659011212
F -6.9913803285 0.7673007593 0.6347536374
F -5.0683038441 -0.6733470605 -1.9314247069
F -5.3504527940 -1.2866447627 0.1649822908
F -4.3534768210 1.4070029862 0.8033576649
F -3.6960317783 1.4499880384 -1.2980727088
F -2.6448162470 -1.2366736179 -0.7537705072
F -2.9329073254 -0.7090224175 1.3661032761
F -1.6492215086 1.8352145545 0.6241771729
F -1.0297434305 0.7566798210 -1.1950964622
F -0.2807996672 -1.3988673651 0.6540074158
F -0.4670453605 0.1440624674 2.2167913912
F 1.5381917339 -0.0784142233 -0.6571627551
F 1.0774385829 1.8241668249 0.3548561686
F 2.0688223790 -1.0829530461 2.0555144520
F 2.0889093828 1.0473992665 2.6235348589
F 3.9934689994 -0.8011529720 0.3210086476
F 3.7737972474 1.3953194011 0.2455529771
F 4.7487218281 1.7339795988 2.6352234900
F 4.4590302981 -0.3814315750 3.1907047033
H 4.7793550491 -0.1424953696 -4.0374991034
H 6.6711834573 -1.4177280394 -3.1275694983
H 6.6384289111 2.0673950088 0.8648399023
H 7.9456841370 0.8674330670 0.6939598645
H 6.8231472646 0.2263242293 2.6700735875
H 6.2857970157 -0.9318618008 1.4526267366
H 4.7515100595 0.9206879160 -2.5144169904
