46
CONF283
C -6.3248750960 2.3457184139 -0.8034580850
C -5.9011067205 1.0798483604 -1.5474036327
C -4.7205396492 1.2866022711 -2.5019389927
C -3.4582979486 1.8080312170 -1.8393382266
O -3.0557322467 0.9617915268 -0.7115704720
C -2.3769965053 -0.1535303934 -1.0004353798
O -2.0187797898 -0.4945461471 -2.1070218790
C -2.1514644025 -0.9702918088 0.2730010392
C -3.3902315115 -1.8039603420 0.5685697878
O -1.0698073606 -1.8833409219 0.0919746847
C 0.1975439691 -1.3782360752 -0.0090293204
C 0.5227298767 -0.0229785502 0.0850282603
C 1.8561157233 0.3712299780 -0.0211129204
C 2.8365254483 -0.5838213058 -0.2217393081
C 2.5262609073 -1.9346943113 -0.3210408125
C 1.2020259261 -2.3305718727 -0.2146566568
O 4.1664474178 -0.1698280827 -0.3913650147
C 4.9794652845 -0.1945878985 0.6947104651
C 6.3184315265 0.1589089407 0.4731281673
C 7.2485248096 0.1835219544 1.4835757901
C 6.8339132236 -0.1594581821 2.7817866591
C 5.5016831495 -0.5147062399 3.0267599867
C 4.5817843112 -0.5313630845 1.9890306309
C 7.7729761313 -0.1428235509 3.8457042475
N 8.5391533111 -0.1289588781 4.7158754007
F 6.6894009027 0.4852301100 -0.7811582468
H -7.2314550707 2.1671581849 -0.2172791672
H -5.5486690302 2.6877278229 -0.1113137731
H -6.5315658222 3.1615491574 -1.5056145560
H -5.6494774905 0.2936201184 -0.8255531883
H -6.7461754504 0.6998926290 -2.1331200339
H -4.4950928061 0.3491048915 -3.0221610703
H -4.9921376775 2.0214199054 -3.2717919592
H -2.6272947406 1.8619709249 -2.5469384749
H -3.6115337686 2.7877557196 -1.3838307633
H -1.9461968146 -0.2929768420 1.1112910423
H -3.2203284284 -2.3999525148 1.4683618758
H -4.2464912844 -1.1469425841 0.7364520003
H -3.6090598119 -2.4708162362 -0.2702531705
H -0.2323737820 0.7383661145 0.2408343502
H 2.1270404569 1.4194096015 0.0506582813
H 3.3142927618 -2.6636240245 -0.4801027736
H 0.9286013025 -3.3776342938 -0.2910304113
H 8.2740355267 0.4617153264 1.2693253134
H 5.1879020797 -0.7760695852 4.0307053773
H 3.5508294698 -0.8048595223 2.1805076208
