52
CONF25
C -5.5267082523 1.9285314158 1.6094764953
C -4.9576577140 1.6987828569 0.2358370229
C -3.6823773165 1.1712985260 -0.0304331439
C -3.2481602225 0.9228613830 -1.3418142391
C -4.0626403829 1.2901540906 -2.4108921116
C -5.3136140669 1.8431369410 -2.1720095329
C -5.7561525084 2.0173429021 -0.8697928530
C -1.9782410948 0.2262171723 -1.7291634513
O -1.1464595135 0.7047745280 -2.4730640266
O -1.9472301252 -1.0216815947 -1.2484173736
C -0.8007839949 -1.8238995733 -1.6450420351
S -2.5651717646 0.8714911479 1.3616341811
O -2.7806267865 1.9020586428 2.3814751950
O -2.5927957500 -0.5408780372 1.7635193879
N -1.0211065464 1.0889739776 0.6895144763
C -0.5864573429 2.3121380175 0.2204483468
O -1.3112086968 3.2871151599 0.0906783027
N 0.7570712722 2.3787533968 -0.1329886809
C 1.7533256534 1.4170531650 -0.1236281202
N 2.9226676175 1.8206131609 -0.6037009444
C 3.8946010744 0.8766030601 -0.6029001298
N 3.7033112648 -0.4017128661 -0.1648566692
C 2.4946251473 -0.6470706195 0.2837008220
N 1.4597812983 0.1998819411 0.3561757053
O 2.1908340384 -1.8768363392 0.7355835787
C 3.2230837586 -2.8650051427 0.6483445955
C 2.6004186944 -4.1505815669 1.1466585873
F 3.5084653400 -5.1485173609 1.0743195637
F 1.5271619339 -4.5177663812 0.4107760222
F 2.1902310891 -4.0604175169 2.4312654491
N 5.1106257121 1.2073317447 -1.0612552105
C 6.2285529309 0.2686378061 -1.0848443489
C 5.4235624467 2.5378070336 -1.5740516593
H -6.6110468460 2.0286282735 1.5319744103
H -5.3012056239 1.1084539846 2.2945452463
H -5.1272207389 2.8448056522 2.0532523625
H -3.7157672236 1.1134244180 -3.4233408065
H -5.9509918028 2.1205500108 -3.0048545464
H -6.7470295773 2.4214547787 -0.6874670768
H 0.1226864058 -1.3269472579 -1.3415181792
H -0.8121147507 -1.9711796310 -2.7272398029
H -0.9213840921 -2.7713357803 -1.1222651312
H 3.5531371673 -3.0085133368 -0.3848126465
H 4.0771085085 -2.6118279219 1.2838169004
H 6.5331105414 0.0856839597 -2.1219860958
H 7.0761220904 0.7068806266 -0.5461488758
H 5.9489782468 -0.6722448703 -0.6170125350
H 5.8437990270 2.4436940523 -2.5814985839
H 4.5285391136 3.1538610336 -1.6099516866
H 6.1707875092 3.0147069890 -0.9289203455
H -0.3303710399 0.3238718713 0.7675045301
H 1.0303388264 3.2765944397 -0.5120525194
