54
CONF1114
C 7.6997728584 -2.0011794023 0.1757115679
C 6.6140651712 -1.4362425796 1.0819389858
C 5.3921533878 -2.3069483065 1.2045438066
C 4.3026418983 -1.9338753543 1.9762023932
C 3.1786857943 -2.7824872530 2.0571692695
N 3.1794528969 -3.9407614750 1.3736027477
C 4.2724355705 -4.2155204956 0.6668010160
N 5.3715214749 -3.4786414861 0.5386826365
N 2.1026013337 -2.4843027793 2.8311191100
C 0.8520301509 -3.2204212995 2.7228896787
C 0.0302008664 -2.7970273585 1.5176038941
O -0.2877054270 -1.4192161608 1.7080415001
C -0.9530136305 -0.7605731360 0.7044185971
C -1.1771565017 0.6103522473 0.9095555565
C -1.8371691675 1.3534305397 -0.0823242528
C -2.2750173720 0.7292473202 -1.2674301782
C -2.0464965298 -0.6355380647 -1.4245456983
C -1.3921308399 -1.3879552706 -0.4579910763
C -3.0355188102 1.4638574999 -2.3423360142
C -4.5128235100 1.6277421929 -1.9568758520
O -5.2943052896 2.2727800386 -2.9530529937
C -5.1045636336 3.6832556224 -3.0050862866
C -6.0996616904 4.2533175489 -3.9940923714
C -2.0495313770 2.8267749661 0.1570293612
C -0.6953718145 1.2682717071 2.1741039450
Cl 4.2990895872 -0.4122251642 2.8588601634
H 7.3272814297 -2.1500487437 -0.8402826411
H 8.0531468589 -2.9693548898 0.5373083151
H 8.5471318303 -1.3106590994 0.1398016957
H 6.2930728178 -0.4478250910 0.7275307226
H 7.0081790585 -1.2595425766 2.0916098566
H 4.2599178957 -5.1606432146 0.1231588169
H 2.0366570302 -1.5298504019 3.1492851690
H 0.2771199398 -3.0455616040 3.6382784690
H 1.0727423238 -4.2878887197 2.6489618836
H -0.8872499389 -3.4013485815 1.4551303140
H 0.6128110481 -2.9348647201 0.5965626151
H -2.3842939816 -1.1272004892 -2.3327329592
H -1.2289501628 -2.4450231895 -0.6250203741
H -2.9895206392 0.8976399668 -3.2782618807
H -2.5872756532 2.4417869389 -2.5452020687
H -4.9544515543 0.6346045755 -1.8191966060
H -4.5970327942 2.1647298992 -0.9968303855
H -4.0767589617 3.9302056360 -3.3168770960
H -5.2601072719 4.1158068745 -2.0012283202
H -5.9408835986 3.8207682339 -4.9857102677
H -7.1224787478 4.0289325626 -3.6797033816
H -5.9843513425 5.3389706662 -4.0656152103
H -2.4357104383 3.3391293112 -0.7239451844
H -1.1144571725 3.3176027077 0.4463650168
H -2.7616983668 2.9974475946 0.9733757189
H -1.4543243003 1.9387786914 2.5871708168
H -0.4445546930 0.5281222561 2.9331453839
H 0.2018531839 1.8723217028 1.9883819755
