47
CONF125
C -7.3268840387 -0.1819052977 3.0327408399
O -6.7974155567 -1.0726403823 2.0090548347
P -5.2342598478 -1.0708345100 1.6841488840
S -3.9767037230 -1.3942898637 3.1240679248
O -5.1280215315 -2.1639430439 0.5298915031
C -5.9895507000 -2.0859218469 -0.6498598525
O -5.1069329034 0.3866857984 0.9616509228
C -3.8685895906 0.9918316936 0.7394635994
C -3.5735144293 2.1484772275 1.4453710491
C -2.3620998477 2.7926132548 1.2140686247
C -1.4680291188 2.2830125578 0.2701265054
C -1.7885145716 1.1250782527 -0.4439429633
C -2.9887173560 0.4691016641 -0.2022169038
S 0.0329938636 3.2010729134 -0.0535579880
C 1.2528855851 1.9053807273 -0.2387695598
C 2.1724851762 2.0040555626 -1.2841890090
C 3.1825659726 1.0554458706 -1.4198266671
C 3.2455000584 0.0089085458 -0.5107531264
C 2.3321895822 -0.1105555673 0.5300040618
C 1.3382919629 0.8482569900 0.6720788469
O 4.2068811343 -0.9976325864 -0.6505718233
P 5.7729766333 -0.7310172902 -0.3298838993
S 6.1883986617 0.2864912300 1.2675686833
O 6.2368899956 -0.1064421684 -1.7339692494
C 7.6113890846 0.3490760027 -1.8960051008
O 6.3453430933 -2.2181676184 -0.2654554600
C 6.1598513589 -3.1324838098 -1.3917225042
H -7.1447459635 0.8590983015 2.7536321330
H -6.8644202092 -0.4079316757 3.9970582044
H -8.3970962525 -0.3815669006 3.0699636975
H -5.6087188139 -2.8412190639 -1.3360810321
H -7.0204468683 -2.3090825520 -0.3686503612
H -5.9192143305 -1.0941262109 -1.1039180466
H -4.2768697406 2.5279520698 2.1787450135
H -2.1120833268 3.6863272543 1.7764026976
H -1.1042661396 0.7325871899 -1.1887144229
H -3.2457776849 -0.4294594360 -0.7535385029
H 2.0985250623 2.8149495372 -2.0012977248
H 3.8962426455 1.1191326220 -2.2333438642
H 2.4132083618 -0.9384979433 1.2260132749
H 0.6314146803 0.7718079242 1.4916105162
H 7.8186793919 1.1611057426 -1.1947092969
H 8.3052698426 -0.4809357683 -1.7361416983
H 7.6816495858 0.7056740348 -2.9230330583
H 6.5363434731 -2.6794397795 -2.3118985530
H 6.7406218107 -4.0197620430 -1.1428082480
H 5.1022744117 -3.3862674134 -1.4917569148
