53
CONF302
C -1.3364490188 5.1064703587 0.3439955868
C -1.2659144855 4.1686993607 -0.8435583960
O -1.0304162981 2.8027083433 -0.4067431401
C 0.2528131970 2.4431126447 -0.1695655964
O 1.2033638422 3.1912186996 -0.3710194574
C 0.3307739875 1.0823294397 0.3505737334
C 1.5429275623 0.4739954481 0.4660069787
N 1.6347883509 -0.7519783732 1.0667902444
C 0.6036242550 -1.3601154020 1.7410296577
C -0.6496434702 -0.8256492467 1.6547699931
C -0.9503973854 0.3372672675 0.7111607331
C -1.6514389863 -0.1621704839 -0.5528447990
C -0.9745675439 -1.0800169074 -1.3660210655
C -1.5283755886 -1.5869976262 -2.5334772716
C -2.8015088907 -1.1789403410 -2.9239617828
C -3.5031956807 -0.2696227582 -2.1421044710
C -2.9258401250 0.2257950014 -0.9744931654
Cl -3.8967696112 1.3769421990 -0.0518247970
C -1.7445849251 -1.4099559027 2.4225545897
O -1.6755815493 -2.3389324884 3.2176496699
O -2.9178702284 -0.7811251616 2.1541366648
C -4.0699811786 -1.2785782307 2.8636904786
C 1.0136903000 -2.5679831295 2.5261464717
C 2.8853300142 1.0225052200 0.0083686822
O 3.8560137827 -0.0120869182 -0.1138181094
C 3.7275773501 -0.7421896380 -1.3478012706
C 4.6878214783 -1.9183809744 -1.3086307569
N 4.4288248618 -2.9147292583 -0.2606204853
H -1.5737085843 6.1168143529 -0.0038578205
H -0.3807499033 5.1392499844 0.8736812151
H -2.1187699648 4.7882038956 1.0392692089
H -0.4803878220 4.4600179698 -1.5456226364
H -2.2223706551 4.1183221182 -1.3690515474
H 2.5612968828 -1.1585352417 1.1085041454
H -1.6249449004 1.0299518374 1.2152312808
H 0.0188974891 -1.3997393600 -1.0638955805
H -0.9703165293 -2.2965724735 -3.1356421925
H -3.2528592475 -1.5634318755 -3.8328187174
H -4.4953428069 0.0578956880 -2.4322653443
H -4.9037210956 -0.6627967252 2.5264922351
H -4.2464001012 -2.3291128087 2.6178202114
H -3.9296481576 -1.1755639051 3.9430523241
H 0.9336454618 -2.3735557776 3.5992353131
H 0.3608570853 -3.4148044910 2.3102504344
H 2.0478688229 -2.8378482465 2.2961764090
H 2.7675399755 1.5667788461 -0.9332925170
H 3.2623782944 1.7279865341 0.7567510725
H 2.6921523547 -1.1012121954 -1.4686201020
H 3.9626879702 -0.0754098417 -2.1913775004
H 4.6474276910 -2.4113731129 -2.2878223894
H 5.7098576545 -1.5404373721 -1.1828523121
H 3.4674488900 -3.2385996449 -0.3255719819
H 4.5221470839 -2.4778176618 0.6510259666
