45
CONF36
C 0.3584492828 -3.0786019685 -0.9606864364
C 1.2113123953 -2.2906668362 0.0354051719
C 2.4446865265 -1.6597737781 -0.6070252495
C 3.3378645207 -0.9025174197 0.3825726958
C 2.6210569958 0.1632285265 1.2215901839
C 1.9028989594 1.2429335322 0.4095562958
C 1.3478480755 2.3476784651 1.3101088625
C 0.7021867223 3.4991901632 0.5626256504
O -0.4945424664 3.0762671514 -0.1604822023
C -1.6630866507 3.1084343944 0.5096302415
O -1.7661906883 3.4558502866 1.6716081649
C -2.8155762371 2.6926723818 -0.3717274248
C -2.5842120525 1.3578367319 -1.0884492922
C -2.4429940743 0.1851358420 -0.1183241122
C -1.9578214549 -1.0860858565 -0.8108806843
C -1.8349122436 -2.2779897554 0.1394891026
C -1.0335452594 -3.4574430558 -0.4321602074
H 0.8908250702 -3.9917578458 -1.2571131553
H 0.2507199099 -2.4857578681 -1.8782442753
H 0.6055692910 -1.4909725291 0.4748174171
H 1.5105547135 -2.9420126154 0.8695004855
H 3.0423650881 -2.4368175972 -1.1024783692
H 2.1127213047 -0.9771930753 -1.4017885113
H 3.8048555339 -1.6246789090 1.0658573831
H 4.1572788536 -0.4263352999 -0.1724747387
H 1.9000418324 -0.3155210880 1.8973373480
H 3.3635984855 0.6491571853 1.8688184770
H 2.6020364558 1.6835366694 -0.3154846536
H 1.0842479201 0.7996898542 -0.1722464735
H 2.1667454219 2.7769505716 1.9032725544
H 0.6291359643 1.9288919069 2.0260016831
H 0.4311788885 4.3128964447 1.2398788560
H 1.3646143256 3.8794971045 -0.2198220877
H -3.7076024853 2.6483609873 0.2589174450
H -2.9642062163 3.4927758418 -1.1080821097
H -1.6839672032 1.4319184685 -1.7090022053
H -3.4245948181 1.1758152210 -1.7683331244
H -1.7191336299 0.4453927010 0.6691781949
H -3.4011210452 0.0067082454 0.3887649590
H -2.6278024235 -1.3408182512 -1.6442062424
H -0.9814572160 -0.8644613778 -1.2592944005
H -1.3679494304 -1.9398541529 1.0736556404
H -2.8378503617 -2.6268793306 0.4173379696
H -0.9309660464 -4.2210215188 0.3503481271
H -1.6032607300 -3.9236585527 -1.2471061492
