49
CONF6
C -4.2274282514 2.6074978109 0.0505400256
C -2.7869619838 2.1068957599 0.0684273802
C -1.9726839911 2.7264375045 -1.0808963504
C -0.5311912044 2.2833507401 -1.0729687002
C 0.3594302886 2.7548294573 -0.1062210405
C 1.6850509539 2.3254596826 -0.0530869043
C 2.1429127842 1.3952288600 -0.9902481567
C 1.2660349984 0.9052392473 -1.9625378512
C -0.0493888161 1.3474502185 -1.9972544413
O 3.4192845915 0.9123676488 -1.0418944164
C 4.3677209989 1.4496730456 -0.1125838779
N -2.7380815732 0.6400015518 -0.0536125814
C -2.9294911537 -0.0618496860 1.2182696303
C -2.7588563222 -1.5662126614 0.9828905145
C -1.3714749508 -1.8763598423 0.4304178191
C -0.2477284087 -1.4861712193 1.1662548868
C 1.0398452200 -1.7057199593 0.6788200221
C 1.2024188878 -2.3460082126 -0.5660751190
C 0.0892464837 -2.7435464135 -1.2908307556
C -1.1933049248 -2.5040398142 -0.7985939299
O 2.4863552879 -2.5403173920 -0.9926986444
N 2.2111533845 -1.3358415974 1.3599310085
C 2.3469019665 -0.5540153128 2.4636708108
O 1.4400362274 -0.0212830915 3.0958619419
O -3.8002394061 -2.0513312457 0.1332537484
H -4.8165181110 2.1541851031 0.8534637621
H -4.7012146177 2.3600698011 -0.9057165873
H -4.2557318938 3.6937454466 0.1839393505
H -2.3137498626 2.4243135249 1.0173288386
H -2.4415375037 2.4495726687 -2.0332480978
H -2.0344691883 3.8167137665 -0.9878686656
H 0.0174184448 3.4820325777 0.6261480396
H 2.3421702077 2.7244909955 0.7103611561
H 1.6299610275 0.1797084502 -2.6834083169
H -0.7176911869 0.9585120104 -2.7617754067
H 5.3117210282 0.9488034022 -0.3294527113
H 4.0726873836 1.2410537695 0.9222773724
H 4.4821278468 2.5314967429 -0.2502345909
H -1.8047468410 0.3948037936 -0.3806099704
H -3.9433226737 0.1160806354 1.5950587945
H -2.2235894190 0.2741075822 1.9981882078
H -2.8849939143 -2.0842030536 1.9419546579
H -0.3635373052 -1.0047107635 2.1272764178
H 0.2286767635 -3.2342594175 -2.2506093643
H -2.0549297055 -2.8138345416 -1.3787121919
H 2.4817499211 -2.9790246669 -1.8540104526
H 3.0768593106 -1.6501180948 0.9411034394
H 3.4093880857 -0.4422172000 2.7448456500
H -3.8860710791 -1.4007167798 -0.5807749493
