39
CONF156
C 5.7972099804 1.1732712093 -2.3863137157
C 4.6708909485 1.6007224120 -1.4476733126
C 3.7487046631 0.4323007893 -1.0931962095
C 2.6096673927 0.8634594529 -0.1970513481
C 3.0035354953 1.3203257778 1.2019158500
O 1.8741748060 0.9477793839 2.0206911647
C 1.0425038835 0.0698717868 1.2567821901
C 0.8027662935 -1.2008688627 2.0965510554
N -0.2192886212 -2.0574830997 1.5262975422
C -1.5297451208 -2.1104142142 1.8433086649
N -2.1691148324 -2.9317009029 1.0208820669
C -1.1736733677 -3.3572157410 0.1925764665
N 0.0253491311 -2.8530225613 0.4553110213
O 1.7814555243 -0.2840990657 0.1125582417
C -0.2735541327 0.7571669347 0.8687966625
C -1.1066173076 1.4292274566 1.7690516635
Cl -0.7115711056 1.5710606931 3.4776600553
C -2.3110076823 2.0047966450 1.3760810585
C -2.6964995019 1.8904604327 0.0481343334
Cl -4.2135532738 2.6118094968 -0.4564223329
C -1.9153134674 1.2158318305 -0.8792782391
C -0.7187005112 0.6565448680 -0.4519931971
H 6.4113131121 0.3916756280 -1.9261572175
H 5.3928161429 0.7740752513 -3.3227492360
H 6.4504035745 2.0160014418 -2.6315773160
H 4.0802805478 2.3994271555 -1.9142912729
H 5.0995639449 2.0229983366 -0.5296956067
H 4.3174526777 -0.3573838864 -0.5857010558
H 3.3310618959 0.0002700831 -2.0107574685
H 1.9931137843 1.6302078846 -0.6914039947
H 3.1516981621 2.4005657318 1.2798232516
H 3.8986958842 0.7893953280 1.5520655589
H 1.7451108095 -1.7496753735 2.1662731152
H 0.4757965262 -0.9086231674 3.0959409478
H -1.3299201327 -4.0593821588 -0.6167072121
H -2.9331355248 2.5231514352 2.0952528430
H -2.2319984158 1.1239526609 -1.9113958787
H -0.1010813034 0.1203146935 -1.1633007849
H -1.9552545718 -1.5511629151 2.6671061045
