57
CONF143
C -4.7155570379 -1.1917560595 -2.4043524029
C -4.2734075466 0.2579720460 -2.2212119296
C -3.7964253973 0.5073368994 -0.7897932714
N -2.6797375646 -0.3943811921 -0.4650650665
C -3.1546752674 -1.7879779007 -0.5281907967
C -3.6020696352 -2.1313177333 -1.9475643269
C -1.8835943063 -0.0640805461 0.7546329704
C -1.4598570943 1.4148179548 0.7220339092
C -0.4279455278 1.7587145328 1.7909734777
N 0.7710822642 0.9397250414 1.6440628577
C 0.4287943465 -0.4746024528 1.7788879157
C -0.5917901191 -0.8987218644 0.7294699853
C 1.8501568164 1.3548384393 2.5395140833
C 2.6003292367 2.5587709152 1.9745498958
C 3.0964289390 2.2553106785 0.5554001226
C 1.9485524041 2.1567863862 -0.4315412590
O 1.2154042928 3.1330545655 -0.5902606728
C 1.7818162995 0.9544592364 -1.3052449986
C 0.8328769715 1.0184314061 -2.3352563980
C 0.5741225455 -0.0770151749 -3.1459489990
C 1.2880968483 -1.2423119229 -2.9132394728
C 2.2476896734 -1.3483720074 -1.9200581416
C 2.4908507935 -0.2388519476 -1.1184943051
F 1.0352091257 -2.3232774460 -3.6897670583
C -2.7060502188 -0.4355967310 2.0182654036
O -2.5914402408 -1.5354985649 2.5673100563
N -3.6251721687 0.4640752241 2.4369736222
H -5.6124734852 -1.3742732039 -1.7959523822
H -4.9874923678 -1.3865542728 -3.4480132285
H -3.4514492819 0.4868457690 -2.9123689250
H -5.0952257379 0.9479656376 -2.4457630511
H -4.6511742323 0.3618924499 -0.0998661669
H -3.4719944811 1.5462261956 -0.7043567306
H -4.0022212576 -1.9520202388 0.1665734091
H -2.3540779736 -2.4648385286 -0.2254338525
H -2.7399937189 -2.0435122714 -2.6221791016
H -3.9369413595 -3.1748548279 -1.9735896182
H -1.0287416612 1.6128408177 -0.2658804290
H -2.3010704635 2.1021706138 0.8404728764
H -0.1565872049 2.8134462746 1.6824535840
H -0.8665019388 1.6331737400 2.8025562825
H 1.3403054745 -1.0682815307 1.6396868294
H 0.0435938472 -0.6964111002 2.7938372908
H -0.1539549558 -0.7817553997 -0.2670678350
H -0.8105116368 -1.9552386664 0.8895413910
H 1.4764041294 1.5744890189 3.5573002869
H 2.5526553002 0.5164636103 2.6279840367
H 1.9628210979 3.4494481272 1.9563185464
H 3.4519706525 2.7874848820 2.6243230941
H 3.7220710420 3.0842717114 0.2009245774
H -0.1642814111 -0.0395644650 -3.9394631539
H 2.7805508421 -2.2816904757 -1.7751371378
H 3.2214864440 -0.3305592158 -0.3242397219
H -4.2385487352 0.2162262861 3.1983576436
H -3.7484592546 1.3604466811 1.9991967858
H 3.7218123573 1.3602522915 0.5682660356
H 0.2857665066 1.9426261183 -2.4839377204
