58
CONF8
C 4.1977389841 -1.6852501675 -1.7903599115
C 5.3909806665 -0.9877108828 -1.1345474752
C 6.6872799782 -1.7399731993 -1.4453944115
C 5.5169701147 0.4786477602 -1.5768484311
C 4.2851694330 1.3540787344 -1.3240633847
C 3.8814604695 1.4245779106 0.1490605112
C 2.7230244141 2.3822827672 0.4373663994
C 1.4181351824 1.9883067781 -0.2557806149
C 0.2313366939 2.8260073015 0.2165723869
C -1.0744417950 2.4610333504 -0.4554026809
O -1.4576961644 1.0686038740 -0.1582763658
P -2.2225797547 0.7127543840 1.1878198663
O -3.0323801388 1.7816159216 1.8103571737
O -1.1546380886 0.1428715130 2.2437577954
C -0.0014046167 -0.5922472586 1.9495967830
C 1.0932808153 -0.3385199985 2.7674922336
C 2.2707212250 -1.0496528209 2.5600638346
C 2.3510298975 -1.9971467624 1.5417013669
C 1.2421355957 -2.2365435110 0.7350014906
C 0.0513445697 -1.5402932962 0.9342461172
O -2.9973911767 -0.6436421184 0.7868173633
C -3.8564298013 -0.7415949647 -0.3126665014
C -4.6224459448 0.3291561070 -0.7594262207
C -5.4689127444 0.1339254771 -1.8491032171
C -5.5532984524 -1.1096449586 -2.4696895922
C -4.7820596973 -2.1701856687 -1.9981077070
C -3.9252244650 -1.9911302017 -0.9164555609
H 3.2465440765 -1.2243745149 -1.5057723013
H 4.2828355795 -1.6421788475 -2.8836510308
H 4.1547600948 -2.7397631589 -1.4961043378
H 5.2431047535 -1.0097945809 -0.0455284497
H 6.6391872247 -2.7750792251 -1.0904615049
H 7.5492824440 -1.2571899841 -0.9721398522
H 6.8662406201 -1.7631780084 -2.5275221105
H 6.3809999405 0.9227226044 -1.0625428571
H 5.7525048772 0.4929920627 -2.6510134914
H 3.4448285941 0.9843375780 -1.9235151584
H 4.4940564063 2.3702864789 -1.6862708939
H 3.5973008800 0.4249795162 0.5021774957
H 4.7565251136 1.7259348545 0.7417694619
H 2.5489268346 2.4081299575 1.5219705417
H 3.0011104786 3.4037277533 0.1412504016
H 1.2167790537 0.9264124374 -0.0634992649
H 1.5168840570 2.0981855838 -1.3431949503
H 0.1171116672 2.7458938974 1.3068791682
H 0.4138408804 3.8877415893 0.0015205130
H -0.9858311613 2.4803847826 -1.5444536419
H -1.8933518863 3.1161667695 -0.1452403530
H 3.1302265524 -0.8531440631 3.1930903588
H 3.2737100901 -2.5431423610 1.3752279329
H 1.2958476581 -2.9729726886 -0.0604666096
H -0.8109264457 -1.7363791579 0.3083513609
H -4.5687448238 1.2939074019 -0.2662066575
H -6.0696455540 0.9642099542 -2.2063492464
H -4.8419468173 -3.1437693664 -2.4739591216
H -3.3141059378 -2.8029559121 -0.5367358139
H 1.0130878570 0.4090094356 3.5493491200
H -6.2181666318 -1.2526729923 -3.3149241916
