51
CONF24
C 2.6897565193 -2.3814041049 -2.3374214221
C 3.1444292812 -0.9483997048 -2.0674152151
C 2.5734632756 -0.3199909062 -0.7818679751
C 2.9190500528 -1.1564554142 0.4575416334
C 3.1454368815 1.1075996638 -0.6169787921
C 1.0809261174 -0.1324552894 -0.9524972709
O 0.4736510929 0.0147204123 -1.9771932828
O 0.4333227053 -0.1084207045 0.2925776476
C -0.8674144955 0.2534306336 0.3747567241
C -1.5033616378 1.3239788236 -0.1297388022
C -2.8881683158 1.2507076061 0.3601911516
O -3.8005559417 2.0327826866 0.2004685100
O -3.0405431470 0.1185071967 1.1097774474
C -1.7803101810 -0.6156913124 1.1796534449
C -1.3542544594 -0.7276375269 2.6467930887
C -2.3043875914 -1.6252102420 3.4413176945
C -2.4340209774 -3.0032966403 2.7904253779
C -2.9100118693 -2.8770896839 1.3424631081
C -1.9691014282 -1.9896635974 0.5258045837
C -0.9624140007 2.4323757421 -0.9164904312
C 0.0554075612 3.2314951234 -0.3849773139
C 0.6068882193 4.2856520722 -1.1011881175
C 0.1214872914 4.5445339288 -2.3764568738
C -0.8856634926 3.7785398780 -2.9505383589
C -1.4103622591 2.7280475136 -2.2088021446
Cl -2.6295537241 1.7197823112 -2.9606293298
Cl 0.7980362234 5.8729989940 -3.3020138604
H 3.0558825702 -3.0718694295 -1.5722325504
H 3.0727293609 -2.7235822090 -3.3033569511
H 1.5973939374 -2.4562859947 -2.3675752735
H 2.8789870407 -0.3071441802 -2.9144801807
H 4.2365935707 -0.9177628153 -1.9755343795
H 2.3934161173 -2.1147951066 0.4624630264
H 2.6701579610 -0.6233347407 1.3776608100
H 3.9958059696 -1.3528410106 0.4538257219
H 4.2302809819 1.0330545277 -0.4933870209
H 2.9326177317 1.7195461880 -1.4988831494
H 2.7293103587 1.6001183164 0.2668238577
H -1.2983536365 0.2790047195 3.0753281812
H -0.3433128864 -1.1531404603 2.6582070910
H -1.9313843717 -1.7166160319 4.4670756783
H -3.2925428957 -1.1520776262 3.4995616016
H -3.1307515695 -3.6258929504 3.3623446791
H -1.4576903634 -3.5074310736 2.8099967665
H -3.9209787869 -2.4514305693 1.3246832419
H -2.9681317832 -3.8627291567 0.8682887907
H -2.3378764485 -1.8458417589 -0.4958520006
H -0.9781572008 -2.4566478307 0.4608959361
H 0.4144293564 3.0202927353 0.6171820006
H 1.3943451157 4.8939718182 -0.6724581570
H -1.2445008354 3.9839954556 -3.9515928441
