44
CONF38
C -3.3358189697 -0.2156969370 -1.2542369268
C -2.9930095428 0.0384786312 0.2216630267
C -4.0313888526 -0.6601933763 1.1033685185
C -2.9716845836 1.5587556617 0.4912397887
C -1.5986426277 2.0625689908 0.0044073726
C -0.7008830606 0.8072952124 -0.1282168664
C 0.7158128335 1.0035356244 0.4343428861
C 1.4850984179 2.0270465855 -0.3609895195
C 1.9940577757 1.7048494897 -1.6233156667
C 2.6732513678 2.6444618511 -2.3914131069
C 2.8408501028 3.9268833379 -1.8816653762
Cl 3.7005934562 5.1285866542 -2.8445552628
C 2.3529960176 4.2825895827 -0.6318010980
C 1.6780465502 3.3236326179 0.1201750285
C -1.5124544413 -0.3400474376 0.5336699639
O -1.3860113922 -0.3008492224 1.9643341329
C -1.0167969454 -1.6969473811 0.0094383269
N -1.7450856696 -2.8449863393 0.5389383326
C -1.7507019432 -3.3412669696 1.7916269597
N -2.5841582243 -4.3734809836 1.8764215209
C -3.0736068626 -4.4648809753 0.6090724813
N -2.5940914806 -3.5634374865 -0.2391927474
H -2.6516357414 0.2962281357 -1.9379837168
H -3.3311161184 -1.2830881409 -1.4929150542
H -4.3435640365 0.1649200390 -1.4498833671
H -4.1187724211 -1.7255753192 0.8704319377
H -5.0113479022 -0.2037901165 0.9227600704
H -3.0801986211 1.7339980306 1.5660783747
H -3.8088321854 2.0547895320 -0.0102986891
H -1.1673227183 2.7736486472 0.7158396654
H -1.6721297253 2.5826107594 -0.9552971885
H -0.5914423230 0.5509228846 -1.1887924783
H 1.2634546786 0.0525314703 0.4127484037
H 0.6563659943 1.3361455722 1.4768659536
H 1.8615515487 0.6999237355 -2.0156021296
H 3.0681621923 2.3831573682 -3.3667942520
H 2.4973073191 5.2863911491 -0.2482532288
H 1.2971589837 3.5948199986 1.1005195950
H -3.7952469844 -0.5494837051 2.1637666329
H 0.0390728868 -1.8170633570 0.2787319165
H -1.0938360321 -1.7443780790 -1.0781232791
H -1.1430063463 -2.9345109224 2.5874787383
H -3.7918305885 -5.2127603505 0.2973030341
H -0.4512907078 -0.3910217941 2.1922980425
