61
CONF7
C -0.6921427470 1.5561489698 3.3695890979
C -2.1906210873 1.3922762652 3.6260864368
C -2.8260802171 0.2425335501 2.8350550354
C -2.6544758587 0.3556216668 1.3260083658
C -3.3800244657 -0.7280708128 0.5205823320
C -3.3773739324 -0.1528725835 -0.9147923180
N -3.2534297757 1.3061915010 -0.7406777467
C -3.2448306388 1.6154041105 0.6950512969
C -4.1709780745 2.1037180311 -1.5361299501
C -2.1910172330 -0.7536705656 -1.6741116883
O -2.2009040496 -1.9455273666 -2.0234660386
N -1.1450154740 0.0664148306 -1.8161593734
C 0.1525452581 -0.2882189803 -2.3614250383
C 1.1351064816 -0.7888984948 -1.2853622052
C 0.9674551337 -2.2422131418 -0.8266447840
C 2.0267998667 -2.5522779908 0.2403065095
C 1.9744021627 -1.5089120460 1.3685926502
C 2.0392439665 -0.0745442467 0.8178243947
O 1.0460512706 0.1336645179 -0.1790685568
S 3.7428894315 0.4055099803 0.2619060246
C 3.6139179568 2.2096447565 0.5611903316
O 0.7983126938 -1.6619733080 2.1499206682
O 3.2870919452 -2.5414553390 -0.4295526928
O -0.2839486782 -2.5511113994 -0.2330460495
C 0.6807901752 0.9610053179 -3.1062244119
C 2.0424557566 0.7647190549 -3.7587927468
O 0.6794215506 2.1044421551 -2.2420154650
H -0.2599792437 2.3063154253 4.0392289284
H -0.1641671959 0.6088096560 3.5235649734
H -0.4943809697 1.8784464596 2.3412565311
H -2.3568754938 1.2104496695 4.6946350954
H -2.7107567274 2.3309307457 3.3937487045
H -3.8980659525 0.1890738024 3.0714684658
H -2.3820732354 -0.7062052169 3.1653355613
H -1.5850783669 0.3099832453 1.0766924717
H -2.9113492216 -1.7133942267 0.5777066583
H -4.4133039172 -0.8209022735 0.8766731646
H -2.6561606820 2.5214201144 0.8838442966
H -4.2668095069 1.7845923330 1.0912777691
H -3.9487658494 3.1672715445 -1.3983625668
H -5.2311426776 1.9365180215 -1.2668434201
H -4.0451551948 1.8728296013 -2.5994421037
H -1.2810354072 1.0113187988 -1.4652479422
H 0.0136015880 -1.0982872275 -3.0898522242
H 2.1504113733 -0.7382280679 -1.7044062560
H 1.1621120028 -2.8881718185 -1.6980139682
H 1.8030613306 -3.5404426151 0.6675858312
H 2.8256745311 -1.6556054425 2.0463719509
H 1.7728913037 0.6051045103 1.6335771398
H 2.8305217957 2.6605203394 -0.0540859173
H 3.4277922163 2.4192268663 1.6180519084
H 4.5723356555 2.6492595619 0.2752272429
H 0.0717370209 -1.8477468463 1.5292656671
H 3.9809213628 -2.7116069056 0.2176445404
H -0.9822009057 -2.5117844550 -0.9246501466
H -0.0593408320 1.1936500776 -3.8825312278
H 2.2628229983 1.6258894578 -4.3943076667
H 2.8376491059 0.6915661186 -3.0099608111
H 2.0615790478 -0.1387468316 -4.3786319500
H -4.2872242714 -0.4409582315 -1.4591610278
H 1.1070916273 1.8262139918 -1.4176956941
