37
CONF239
C -2.8342396177 1.4605410707 -2.5099397483
C -2.7198356844 0.0837787683 -1.8926625102
O -1.3231433595 -0.2647812851 -1.6550394918
P -0.6844473577 0.1480502351 -0.2542451281
O -0.8231546163 1.5533140811 0.1913825147
O -1.2745322549 -0.9463617703 0.7495935021
C -1.5143960444 -0.5957556157 2.1534736224
C -2.9125201061 -0.0466674931 2.3220906809
O 0.8280479292 -0.3181580282 -0.5989634315
P 2.0922223028 -0.2638465335 0.4479919537
O 1.6432304618 -0.2752638036 1.8578283398
O 3.0014348625 -1.4663118037 -0.0474038813
C 2.8686145052 -2.7653873757 0.6088597309
C 1.5888187955 -3.4695544958 0.2112170943
O 2.9669008231 0.9521121871 -0.0671519955
C 2.4438615216 2.3157501447 0.0961553855
C 2.1258358933 2.8967307990 -1.2610157157
H -3.8844865689 1.6740583745 -2.7344726759
H -2.2637364768 1.5095591632 -3.4413457773
H -2.4583090005 2.2222905032 -1.8228089168
H -3.2808082938 0.0127851060 -0.9521194374
H -3.0861014477 -0.6949861702 -2.5666337357
H -0.7486519601 0.1095843311 2.4825656022
H -1.3760591796 -1.5363038811 2.6925554139
H -3.0185769380 0.8970376976 1.7798564556
H -3.6598565115 -0.7594074785 1.9605946735
H -3.1043316933 0.1446814563 3.3830532700
H 2.9269880009 -2.6155349402 1.6918933535
H 3.7507899413 -3.3163109816 0.2748121767
H 1.5113532178 -3.5488483673 -0.8765243551
H 1.5881149151 -4.4788179653 0.6357652059
H 0.7086668840 -2.9404811936 0.5881005685
H 1.5588842506 2.3003828518 0.7407667884
H 3.2415122873 2.8672261915 0.6009306169
H 1.7914520644 3.9319477169 -1.1389309528
H 3.0085600198 2.8867518726 -1.9061082003
H 1.3218992445 2.3361963304 -1.7441205986
