46
CONF89
C -0.3813004407 -1.4874405488 1.5199860928
C -1.2843931260 -1.9985323208 0.4226455515
C -2.7855058940 -1.9897730074 0.5819153824
C -2.1129913613 -1.0192765160 -0.4078948139
C -2.0528376854 0.4307310936 -0.1558969777
O -2.1607709002 0.9983396239 0.9142243126
O -1.8250255233 1.0842809705 -1.3267788294
C -1.6917984655 2.5221334185 -1.2586484081
C -0.2580540480 2.9584502219 -1.0954947372
C 0.6910075718 2.1412081647 -0.4867446151
C 1.9952833229 2.6054307390 -0.3307405907
C 2.3653331354 3.8773982641 -0.7545976352
C 1.4069869062 4.6907432133 -1.3515077785
C 0.1048881674 4.2359788476 -1.5320378353
O 2.9634293559 1.8671109622 0.3245883057
C 2.9969692667 0.4904572280 0.1880760777
C 3.3871946078 -0.2353963953 1.3098473725
C 3.5236500474 -1.6173339708 1.2132466703
C 3.2636045291 -2.2697207723 0.0102500049
C 2.8749551394 -1.5279424769 -1.1041187428
C 2.7433653416 -0.1444814678 -1.0266645445
C -3.4367060403 -1.5191380631 1.8051253470
C -4.6101252541 -1.9594948826 2.2598809000
Cl -5.3042981749 -1.3778666707 3.7532198345
Cl -5.5983290996 -3.1497942757 1.4535366886
C -0.6976096509 -3.1602346416 -0.3485935545
H -0.2038219282 -2.2858281020 2.2486971757
H 0.5862040506 -1.2049612598 1.0900316410
H -0.7851212824 -0.6207770071 2.0429895846
H -3.3020258399 -2.7961077585 0.0708002673
H -2.2251455148 -1.2798408948 -1.4547353465
H -2.3066396095 2.9023963378 -0.4361559043
H -2.0938272506 2.8932595638 -2.2043051977
H 0.4337107097 1.1483023338 -0.1368790198
H 3.3877774170 4.2120088761 -0.6163140692
H 1.6856178609 5.6826763981 -1.6928622268
H -0.6322918452 4.8706971622 -2.0150166634
H 3.5814419310 0.2875740843 2.2404268926
H 3.8269600120 -2.1849850009 2.0874140515
H 3.3630342105 -3.3478604424 -0.0599792311
H 2.6794747548 -2.0262032330 -2.0486572444
H 2.4524288375 0.4342328396 -1.8967313775
H -2.9428440742 -0.7625168612 2.4027966680
H 0.2493731761 -2.8637885464 -0.8125052210
H -1.3757651335 -3.5101489840 -1.1317542990
H -0.4954609072 -3.9939662221 0.3329396658
