57
CONF2
C -4.2867260136 -2.3447952317 -1.6469406072
C -4.8782599599 -0.9368413990 -1.6105522039
C -3.7665184496 0.0963165851 -1.4581877679
N -3.0033965269 -0.1423284920 -0.2192554233
C -2.3500949178 -1.4577235488 -0.2967413972
C -3.3979707578 -2.5629010688 -0.4243567968
C -2.1252287969 1.0085481935 0.1258582832
C -1.0946585848 1.3535749224 -0.9661134346
C -0.0245464335 2.3645042958 -0.5478178171
N 0.6031505363 2.0171286234 0.7315708710
C -0.4067701402 1.8725883065 1.7821029008
C -1.3523213727 0.7309843530 1.4305560302
C 1.6527254286 2.9693570021 1.0986829011
C 2.6774362759 2.3336988312 2.0342604691
C 3.2406987087 1.0546623514 1.4065305095
C 2.2070961401 -0.0538058920 1.3514757710
O 1.6923312952 -0.4484051466 2.3977182531
C 1.9405907856 -0.7800856558 0.0724156221
C 1.3220086047 -2.0350371354 0.1417588558
C 1.0196262633 -2.7510176352 -1.0079112247
C 1.3360492713 -2.1824387583 -2.2313788770
C 1.9492878392 -0.9453418045 -2.3492156051
C 2.2571034601 -0.2519340243 -1.1852893659
F 1.0322981861 -2.8660543169 -3.3614320730
C -3.0773517510 2.2079920000 0.3902672487
O -2.8892111253 3.3314189898 -0.0781117086
N -4.1039954512 1.9293849068 1.2252518933
H -5.0791894090 -3.1005072297 -1.6900522600
H -3.6815455331 -2.4564625268 -2.5576004637
H -5.4431144896 -0.7270009892 -2.5262410321
H -5.5726794362 -0.8455394823 -0.7649523192
H -4.1935121558 1.1055664386 -1.4285901115
H -3.1114854098 0.0455664701 -2.3485967690
H -1.7618387133 -1.6334892189 0.6059540353
H -1.6560117645 -1.5191101665 -1.1573330109
H -2.8845057309 -3.5298270079 -0.4846322743
H -4.0144995209 -2.5743558678 0.4840703757
H -0.5976497011 0.4167522475 -1.2447830514
H -1.5970135287 1.7407043162 -1.8576353075
H 0.7593610260 2.3779883627 -1.3158043496
H -0.4663733386 3.3738383971 -0.5045584673
H 0.0949211689 1.6321401174 2.7243275188
H -0.9606797561 2.8200488939 1.9343096712
H -0.7295240303 -0.1574111802 1.2994481816
H -2.0481033130 0.5394623953 2.2538835518
H 2.1663648519 3.2734181495 0.1775987243
H 1.2301016751 3.8856985384 1.5518492108
H 3.4881391801 3.0478754012 2.2147284535
H 2.2353810483 2.0989528033 3.0084586676
H 3.6661635690 1.2768916426 0.4254914827
H 0.5433177696 -3.7246700154 -0.9665638084
H 2.1718926686 -0.5388975845 -3.3297281182
H 2.7155105497 0.7259970342 -1.2712088583
H -4.8130614675 2.6306219787 1.3748832414
H -4.3241715845 0.9616091105 1.4116137140
H 4.0545194121 0.6645111785 2.0313877335
H 1.0773584128 -2.4445736371 1.1157591590
