41
CONF49
C -3.4638731438 -1.1500346949 -0.2616266382
C -3.5255842865 0.1039399363 0.6168055976
C -4.3615026903 1.1931912566 -0.0483439081
N -2.1967125221 0.6606959292 0.9387454222
C -1.3105836651 -0.2597677728 1.6624539015
C -0.2377708123 0.5413107018 2.3995221202
O -0.8512948457 1.5406567592 3.2192303318
C 0.7435217807 1.2444900608 1.4649313794
O 1.3959791763 0.2395623355 0.6763757174
C 2.3363755810 0.6426477203 -0.2276161552
C 2.6993893986 1.9776879907 -0.4230553171
C 3.6720351862 2.2987426363 -1.3699313703
C 4.2850128458 1.3009113943 -2.1180229107
C 3.9159252420 -0.0283269449 -1.9108489284
C 2.9465057859 -0.3830286997 -0.9758439627
C 2.5305824569 -1.8245301607 -0.7972377694
C 1.2676908716 -2.1455818319 -1.5511110867
C 0.1945224776 -2.7338717220 -1.0270431959
H -2.9862063080 -0.9145548474 -1.2208058078
H -2.8931472355 -1.9511454351 0.2181610863
H -4.4712730816 -1.5283309879 -0.4650534554
H -3.9916738872 -0.1623369466 1.5763697169
H -5.3704700947 0.8272702680 -0.2607622979
H -3.9054537370 1.4950090931 -0.9991487836
H -4.4371373526 2.0757492576 0.5939754855
H -1.7539906371 0.9331239221 0.0639478912
H -1.9093911120 -0.7899116762 2.4135949534
H -0.8304708558 -1.0164156311 1.0252808623
H 0.3206231183 -0.1323941706 3.0606436000
H -1.6078505705 1.8464762189 2.6861526830
H 1.4787776905 1.7993745107 2.0619236248
H 0.2113220713 1.9540242378 0.8152761642
H 2.2355400295 2.7698277284 0.1518277812
H 3.9458549146 3.3395269863 -1.5138823402
H 5.0448541071 1.5488792701 -2.8518831267
H 4.3911267001 -0.8176399324 -2.4880493393
H 3.3400469155 -2.4570904632 -1.1836861578
H 2.3969409927 -2.0655293055 0.2621914724
H 1.2707518258 -1.8698160239 -2.6062785969
H 0.1636065004 -3.0199416972 0.0219618957
H -0.6825983385 -2.9522088730 -1.6291405493
