43
CONF22
C 0.5151486144 1.6094536214 1.6081515409
O 1.8550258031 1.0028100122 1.4937863152
C 1.7484257984 -0.0330522482 0.6053782876
C 2.8131771894 -0.7116701524 0.0120193252
O 4.0724772058 -0.3895508752 0.4313678929
C 5.1625976460 -1.0539583426 -0.2204907687
C 2.4882797826 -1.6314091019 -0.9967638046
C 1.1662394191 -1.8116124461 -1.4216260992
C 0.1104038771 -1.1267291833 -0.8094390869
C 0.4461058310 -0.3102351133 0.2555000524
C -0.4855882553 0.5805404076 1.0255474423
C -1.2418785747 -0.1717072600 2.1321990756
C -2.1498748919 -1.2519945698 1.5582759138
N -3.0204775262 -0.6982817926 0.5163934829
C -3.9861784135 -1.6932474831 0.0573586391
C -2.2453313700 -0.0955022375 -0.5873854796
C -1.3014463661 -1.0805815000 -1.3406255497
C -1.4969805697 1.1251576176 -0.0076520947
C -0.7750417490 1.9641860946 -1.0238228207
C 0.1789604043 2.8012059117 -0.6101828289
C 0.4489560847 2.9531824436 0.8657723301
O 1.6392371264 3.6869070825 1.1571201864
H 0.3667791211 1.7819501310 2.6773801042
H 5.1111532077 -2.1382284984 -0.0657200697
H 5.1702960855 -0.8349090591 -1.2949074672
H 6.0683884817 -0.6603059941 0.2415084983
H 3.2773027315 -2.1794825192 -1.4983758162
H 0.9725956868 -2.4726328578 -2.2622049228
H -1.8419914457 0.5571936185 2.6920125761
H -0.5247006118 -0.6233334254 2.8274861839
H -2.7837553259 -1.6604671554 2.3541996948
H -1.5387063807 -2.0931935495 1.1758105980
H -3.5252113863 -2.6221872185 -0.3258061894
H -4.6067012078 -1.2665934745 -0.7379651462
H -4.6390058369 -1.9726549062 0.8918501672
H -2.9809435779 0.2729137555 -1.3134736269
H -1.2520865935 -0.7779931410 -2.3941436632
H -1.7546050513 -2.0790304051 -1.3457858733
H -2.2455604942 1.7415588336 0.5137092607
H -1.0277579681 1.8661034630 -2.0775759552
H 0.7367352057 3.4345024791 -1.2960014211
H -0.4221705586 3.4659508261 1.3136399211
H 1.4977087576 4.5969275190 0.8680046100
