55
CONF150
C 1.4703220439 1.5698096369 1.0791487547
C 2.5999953019 1.8019033455 0.0867197117
N 2.8553264903 0.5818948109 -0.6875434108
C 3.2091234307 -0.5078539108 0.2319923570
C 2.0757828436 -0.7517652442 1.2174491032
N 1.8079847429 0.4695765727 1.9800783795
C 0.8725757730 0.3125161646 3.0938812149
C -0.6423988808 0.2723488781 2.7627815080
C -1.0233914147 -0.8952330694 1.9200430775
C -1.6281271239 -0.8950861513 0.7139060276
C -1.7309522518 -2.1453116970 -0.0640828188
C -2.1014278989 -3.3592035945 0.5285081296
C -2.1038743749 -4.5429173092 -0.1994235341
C -1.7512628230 -4.5329674935 -1.5483008255
C -1.4132497917 -3.3358755713 -2.1691130491
C -1.4075968041 -2.1515849360 -1.4300960593
S -0.9123307622 -0.6553662385 -2.2615736397
C -1.7962060577 0.5557830746 -1.3161400126
C -2.0988650701 0.3275971249 0.0390677787
C -2.8514681121 1.2921368229 0.7113273213
C -3.2115240745 2.4816679105 0.0832136972
C -2.8506483744 2.7235091839 -1.2403619861
C -2.1586762415 1.7477759932 -1.9447092899
C -3.9908046778 3.4854413720 0.8731047993
F -4.2909663900 4.5958662010 0.1649018110
F -3.3116903711 3.8943591652 1.9811421510
F -5.1692071554 2.9751083155 1.3259514067
C 3.8867108119 0.7980839895 -1.7084311494
C 3.8097022997 -0.2744574319 -2.7870703845
O 2.4876948353 -0.3482092051 -3.3354439009
H 0.5409321278 1.3744575269 0.5078030662
H 1.3122774706 2.4805567407 1.6704135241
H 2.3161273257 2.6048387053 -0.6032714837
H 3.5080716143 2.1252920439 0.6325443498
H 3.3829015587 -1.4262766353 -0.3384890952
H 4.1392338533 -0.2686868911 0.7842864810
H 1.1929497523 -1.1019347174 0.6531216649
H 2.3646089774 -1.5474899475 1.9143695712
H 1.1491169307 -0.5999353709 3.6369152942
H 1.0209948474 1.1581417553 3.7796074192
H -0.9392015784 1.2182358716 2.3032670977
H -1.1652830979 0.2156019122 3.7286694154
H -0.6778323552 -1.8598752025 2.2925739899
H -2.3882164610 -3.3626920719 1.5756855161
H -2.3886392732 -5.4722317642 0.2831600915
H -1.7561980882 -5.4526029957 -2.1243866981
H -1.1565040999 -3.3177686365 -3.2239260523
H -3.1558410541 1.1052864174 1.7360496373
H -3.1277442930 3.6487529786 -1.7313000544
H -1.9079035442 1.9090307552 -2.9881180064
H 4.9056158608 0.8215652548 -1.2775754899
H 3.6992421991 1.7735797565 -2.1737088412
H 4.4926897711 -0.0197520904 -3.6039643303
H 4.1136640559 -1.2547862909 -2.3909676604
H 1.8943871645 -0.2408537918 -2.5723917766
