21
CONF89
F -0.9139233239 0.0849460067 -1.7168859542
C -0.0690423155 -0.5257063480 -0.8445714229
F 0.2790780790 -1.7307747541 -1.3644669301
C 1.2251249236 0.3439267182 -0.7220213202
F 0.8208286848 1.6231055946 -0.4525620461
F 1.7468589402 0.3625138086 -1.9935944967
C 2.2479130236 -0.1539051172 0.2746451814
C 3.6335368071 0.4471257573 0.0928531176
O 3.5754298082 1.8536496659 0.3511410512
C -0.8422840245 -0.7844085631 0.4855232070
F -0.9310903113 0.3624420196 1.1990723665
F -0.1547627350 -1.6968796989 1.2138277340
C -2.2951546702 -1.3315157318 0.3011997953
F -3.1078718521 -0.3863550978 -0.1837284017
F -2.7630500034 -1.7227238919 1.4957883304
F -2.3012602386 -2.3839508709 -0.5288233138
H 1.8741730313 0.0537580211 1.2824429328
H 2.3328126974 -1.2395963488 0.1634825884
H 4.0008499595 0.2490059153 -0.9223755221
H 4.3042695284 -0.0546432442 0.8030944005
H 4.4677846247 2.2048165383 0.2429374872
