43
CONF211
C -4.7261642080 -0.8015763362 1.5387245841
Si -3.0636145167 -1.5270004620 1.1123287522
C -1.9391526416 -1.7153486877 2.5827254236
O -3.2347933290 -3.0583607198 0.4866135196
O -2.3712638215 -0.5714267222 -0.0445933240
Si -1.2644921049 0.6480842960 -0.1494198669
C -1.8195788994 2.1006556434 0.8740030952
C -1.0702361089 1.0597277241 -1.9552837555
O 0.1702348161 0.1298890631 0.4835123633
Si 1.3884359160 -0.8889074763 0.0292712789
C 2.4391864332 -1.1861106152 1.5367313100
C 0.6896215355 -2.4553103686 -0.6948929889
O 2.2793137979 -0.1599394962 -1.1560523674
Si 3.2069605300 1.1992983781 -1.3144239873
C 3.2520787669 1.6064873107 -3.1304477480
C 2.5539236699 2.5801674560 -0.2513340692
O 4.7400011599 0.9032730954 -0.7353052629
H -5.2458919281 -1.4127048970 2.2842299546
H -5.3599607294 -0.7363448748 0.6468363174
H -4.6127326965 0.2101282476 1.9444757372
H -2.4122144713 -2.3307831858 3.3555650108
H -0.9954576963 -2.1908053047 2.2947566560
H -1.7050650003 -0.7393453857 3.0215311854
H -3.9126937572 -3.1746679442 -0.1889178126
H -1.9156887791 1.8175617649 1.9284113232
H -1.0981369217 2.9223857237 0.8076879348
H -2.7916332491 2.4709285516 0.5307145816
H -2.0263284240 1.3773821049 -2.3855632323
H -0.7162568504 0.1886382480 -2.5179977106
H -0.3474786357 1.8708871265 -2.0949264709
H 2.8190242585 -0.2389145297 1.9360696686
H 1.8575099894 -1.6777212117 2.3243079168
H 3.2972663340 -1.8232283680 1.2970834505
H 0.0656134653 -2.2372554867 -1.5688666813
H 1.4928460623 -3.1305847320 -1.0094472204
H 0.0706667421 -2.9803355687 0.0406866916
H 3.6709871295 0.7716737075 -3.7039073425
H 2.2428903027 1.8025666652 -3.5091463028
H 3.8668887348 2.4928329466 -3.3187747749
H 3.1691670424 3.4795872039 -0.3616185046
H 1.5259968890 2.8315080318 -0.5324684910
H 2.5533380358 2.2925667556 0.8059170616
H 5.2768830731 0.2804425346 -1.2387963999
