46
CONF54
C -3.2856794241 -1.5840481514 -1.1971698188
C -3.6479343869 -0.2513151097 -0.5840278360
C -3.0414799632 0.1914730244 0.7259930552
C -2.6703197652 0.9137107894 -0.5937569599
C -1.3027107043 0.8186874352 -1.1362986824
O -0.5788405668 -0.1604088281 -1.1361524073
O -0.9301214841 2.0159208837 -1.6533085133
C 0.4463604009 2.1051293724 -2.1439654036
C 1.4050903863 2.2528299505 -0.9959679390
C 2.2185341695 1.1843502806 -0.6244609879
C 3.0585455177 1.3128892703 0.4783054499
C 3.1179868940 2.5009505813 1.2003077710
C 2.3175428728 3.5712850905 0.8095527136
C 1.4587468037 3.4516244497 -0.2787013799
O 3.9131163203 0.2985877491 0.8707954913
C 3.5004210983 -1.0182228027 0.7362545287
C 2.2097673932 -1.4239142969 1.0715950622
C 1.8788676947 -2.7717412859 0.9687137332
C 2.8259593151 -3.7060495610 0.5514417751
C 4.1161122227 -3.2847772818 0.2364475830
C 4.4588742735 -1.9377248886 0.3222992621
C -2.0598881038 -0.6182222782 1.4462420959
C -1.9318465759 -0.6540877790 2.7734905291
Cl -0.7555473883 -1.6705589887 3.5684867730
Cl -2.9001246529 0.2805328619 3.8837254486
C -5.0956670263 0.1353002480 -0.8045491544
H -3.9186462694 -2.3629466742 -0.7584401263
H -3.4843830350 -1.5556836363 -2.2738802666
H -2.2415386462 -1.8579052007 -1.0544502594
H -3.6897117641 0.7950917216 1.3530349699
H -3.1138520387 1.8982706272 -0.6948081402
H 0.4371140264 2.9968623395 -2.7732962642
H 0.6732276638 1.2232200849 -2.7469501160
H 2.1792863210 0.2544451403 -1.1803890922
H 3.7847833506 2.5763287152 2.0528856027
H 2.3637289063 4.5023341834 1.3655843085
H 0.8287086013 4.2852229306 -0.5743235217
H 1.4750885778 -0.6967695900 1.4018566399
H 0.8737809524 -3.0912617694 1.2259098535
H 2.5600595739 -4.7552350569 0.4757853136
H 4.8617030110 -4.0046095081 -0.0865143115
H 5.4569262957 -1.5922499883 0.0733363085
H -1.3791658986 -1.2434729457 0.8787977258
H -5.7546783752 -0.6250663382 -0.3716661232
H -5.3087833070 0.2022796052 -1.8769591546
H -5.3294119704 1.0989446248 -0.3437819604
