26
CONF12
C 2.2666403782 0.1626122847 -2.4920646047
C 2.3237131418 0.0740140642 -0.9937890931
C 1.3325939090 0.4318879343 -0.1646598902
C -0.0305353490 0.9669877988 -0.5262439827
C -1.0676418369 -0.1021025062 -0.3219752331
C -1.9684229612 -0.2190990163 0.6786977132
C -2.9022215490 -1.4008477512 0.7178356284
C -2.0741771376 0.7628546598 1.7519359743
C -2.9401904050 0.7043744616 2.7757329075
C 3.6205770442 -0.4672937056 -0.4564305210
H 2.4513370297 -0.8257263570 -2.9313775985
H 1.3117429551 0.5302337201 -2.8702888851
H 3.0631051613 0.8198045483 -2.8635045851
H 1.4906910628 0.2932528257 0.9056030935
H -0.2428090534 1.8523828491 0.0804462846
H -0.0559690004 1.2876818654 -1.5726043203
H -1.0378407995 -0.8985782482 -1.0657098388
H -2.7691759004 -1.9768723694 1.6411725542
H -2.7255110698 -2.0641494006 -0.1315516646
H -3.9493350111 -1.0772628884 0.6929137482
H -1.3858257836 1.6036175945 1.7168463024
H -3.6565071855 -0.1040629096 2.8855931838
H -2.9480323048 1.4773714334 3.5375430066
H 4.4631976110 0.1555835531 -0.7826211251
H 3.6220345667 -0.5111910639 0.6357756114
H 3.8085617043 -1.4754732868 -0.8472745650
