35
CONF48
C -0.6011304896 -0.7783291433 2.9840167129
C -1.2059959033 -1.3288489592 1.7273239614
C -2.0317598090 -2.4153363397 1.6759192101
S -2.5680133532 -2.7512462308 0.0598529384
C -1.6783083057 -1.4112363041 -0.5899752322
C -1.0056457821 -0.7633038230 0.4211858308
N -0.1905902007 0.3819476855 0.1973896411
C 1.2567484267 0.2448799663 -0.1154821667
C 1.8374841373 -1.0641967263 0.3918493774
C 1.4678446811 0.3951157931 -1.6325432759
O 2.8418334280 0.5400064842 -1.9667147970
C 3.3135877564 1.8778458328 -1.8106534474
C -0.7035964552 1.6512834724 0.2810426198
O -0.0249041907 2.6530354023 0.1134370204
C -2.2024796498 1.6904195583 0.6001170385
Cl -2.7988114315 3.3783525981 0.7801416338
C -1.7258120581 -1.0827683185 -2.0437766290
H -0.2252595507 0.2361911453 2.8240290486
H 0.2401969166 -1.3920052744 3.3230884755
H -1.3361591683 -0.7510908688 3.7929741854
H -2.3659354075 -3.0370685521 2.4957666719
H 1.7492899140 1.0850199131 0.3848126234
H 1.3206580897 -1.9265348663 -0.0413964991
H 2.8873147338 -1.1081257703 0.0908046939
H 1.7889780329 -1.1359687914 1.4808851389
H 1.1224361356 -0.5147354670 -2.1375060450
H 0.8862898356 1.2515374288 -2.0046883135
H 2.7411895719 2.5709511238 -2.4436530656
H 4.3598032651 1.8809582298 -2.1244331152
H 3.2523970602 2.2220624762 -0.7696329517
H -2.4179746946 1.1596954260 1.5308287243
H -2.7756984977 1.2179724663 -0.2015106345
H -1.0889239790 -1.7535011726 -2.6314524761
H -2.7434835542 -1.1631137080 -2.4367273939
H -1.3755694883 -0.0598643900 -2.2053190011
