41
CONF16
C 1.0559308837 -2.2649159291 -0.1761129319
C 0.2530079537 -1.0656338499 0.1914433529
C -1.1092933561 -0.9245695732 0.1750078206
C -1.4376004988 0.3460038066 0.7622787189
C -0.2337651032 0.9484461197 1.1677654017
N 0.8140132264 0.0899214157 0.7838522503
C 2.1649866290 0.3710202758 1.0270934238
O 2.5028129737 1.0333194390 1.9992884371
C 3.1521852828 -0.0772142798 0.0154534842
C 2.8699812396 0.0018797240 -1.3511145570
C 3.8465391154 -0.3081033743 -2.2889009405
C 5.0974942290 -0.7165860165 -1.8393736336
C 5.4036487978 -0.8007942041 -0.4836147357
C 4.4271202031 -0.4612452136 0.4411465725
Cl 6.3312821299 -1.1302006283 -3.0162408831
C -0.2147380922 2.2074433174 1.7609594850
C -1.4311997599 2.8449145798 1.9571708100
C -2.6450145346 2.2473200748 1.5658863754
C -2.6632300142 0.9941001447 0.9580815801
O -3.7621216354 2.9904495226 1.8270886455
C -5.0247711844 2.4294070614 1.4538535904
C -2.1108760049 -1.8961061846 -0.3393530793
C -2.6543037146 -1.5303599739 -1.7058341975
O -2.2454101418 -0.6440110025 -2.4229993980
O -3.6777741365 -2.3432835131 -2.0469963553
H 1.4887098343 -2.1947866782 -1.1788905463
H 0.4121320215 -3.1465362765 -0.1526847850
H 1.8778738262 -2.4271462040 0.5264784969
H 1.8894339624 0.3241563078 -1.6874846931
H 3.6385375461 -0.2339762646 -3.3499562273
H 6.3876015216 -1.1203281689 -0.1604854060
H 4.6462603171 -0.5049360484 1.5027123893
H 0.7076590106 2.6786409954 2.0736856422
H -1.4655876362 3.8228645940 2.4255816863
H -3.5848337363 0.5259485898 0.6337507908
H -5.7751686418 3.1630961237 1.7498431631
H -5.2066862494 1.4838796796 1.9792446340
H -5.0785647898 2.2645872872 0.3707755523
H -2.9659039862 -1.9814925685 0.3428143422
H -1.6970630906 -2.9070550590 -0.4266044880
H -3.9833046881 -2.0881175401 -2.9339692907
