45
CONF18
C -0.8701145669 2.6365865910 -1.3537870176
C -1.5202828184 1.9860503202 -0.1759209729
C -1.8029604568 0.6810217002 -0.0863697062
C -2.4751380442 0.0870523613 1.0787248426
C -1.9932969805 -1.2472159180 1.7265241906
C -3.3329221041 -1.1470781335 1.0099412282
C -3.6010781356 -1.8370987667 -0.3089799613
C -4.5289548269 -1.1823421839 1.9415112762
C -0.7587305703 -1.9228530166 1.2995307516
O 0.1361473842 -2.2105607691 2.0764325011
O -0.6821675396 -2.1889386195 -0.0274641428
C 0.5757928081 -2.7518980867 -0.4938104989
C 1.6144362095 -1.6751633741 -0.6130379035
C 1.4722243861 -0.6641200041 -1.5582038152
C 2.3805048102 0.3785594142 -1.6574752613
C 3.4894194646 0.4595635853 -0.8226448112
C 3.6398164860 -0.5611393722 0.1091320273
C 2.7331686946 -1.6063417467 0.2117780685
F 2.9660901511 -2.5669281522 1.1197065631
F 4.6990539187 -0.5462259624 0.9387279383
C 4.4624800218 1.6144784573 -0.8656779341
O 4.2901996379 2.4911437329 0.2463627487
C 3.0511734997 3.2034191790 0.1954536330
F 2.1738607080 1.3231567085 -2.5939215137
F 0.4237586745 -0.6939009151 -2.4009940322
H -1.5159510016 3.4153959910 -1.7778915068
H -0.6432825197 1.9091792556 -2.1383165552
H 0.0637061243 3.1333715928 -1.0624092458
H -1.7820967518 2.6392040311 0.6581034549
H -1.5391451484 0.0285021724 -0.9139897950
H -2.7654985927 0.8138324322 1.8349476809
H -2.0509692601 -1.2381325451 2.8102167033
H -2.7821293552 -1.7539610581 -1.0201166458
H -4.4975796932 -1.3971370197 -0.7598202487
H -3.7984365017 -2.9013597060 -0.1403109205
H -4.3169268985 -0.6727619177 2.8856556844
H -4.8103415495 -2.2181179268 2.1622421185
H -5.3853410062 -0.6894100797 1.4683730857
H 0.9078601384 -3.5419155120 0.1795737485
H 0.3368125551 -3.1681326974 -1.4732892441
H 4.3475304347 2.1595398259 -1.8108360416
H 5.4847165015 1.2346842169 -0.7975918456
H 2.1916745139 2.5234444708 0.2828379999
H 3.0482216053 3.8905331038 1.0438360974
H 2.9646963926 3.7740140391 -0.7400856281
