45
CONF11
C -2.9223099254 1.5571778884 0.9968699539
C -4.1471252258 1.0704212418 0.2807019825
C -4.3522151232 -0.2165081118 -0.0306837089
C -3.4312352012 -1.3289121723 0.3126319087
C -2.0960122874 -1.4710893206 -0.4317928909
C -3.2162368453 -2.5082248873 -0.5787781101
C -3.0592914253 -3.8773945769 0.0407389774
C -3.8847470740 -2.5223060328 -1.9360407178
C -0.8944926113 -1.7154787787 0.3746773753
O -0.8393470472 -2.2555414477 1.4572466736
O 0.2100679993 -1.2094725341 -0.2702350706
C 1.4327115559 -1.1901923910 0.4867247028
N 2.0202579566 0.1132018818 0.3566975409
C 1.5603927651 1.2372449111 1.0204860070
O 0.6657875126 1.2782359250 1.8322656963
C 2.4122582122 2.3945452584 0.5149825842
N 3.1932654033 1.7876290746 -0.5486410383
C 3.0345090981 0.4204426847 -0.5819450320
O 3.6267462076 -0.3820781604 -1.2686077912
C 4.3957504817 2.4055501298 -1.0897262868
C 5.4018964269 2.6620770758 -0.0637500224
C 6.1973567426 2.8753663470 0.8138399415
C -5.1499229279 2.1303065696 -0.0722984891
H -3.2004696229 2.0566189361 1.9332148615
H -2.3966993061 2.3076916675 0.3928383582
H -2.2177045142 0.7600512594 1.2364301653
H -5.2733870489 -0.4851706748 -0.5466762075
H -3.3184633936 -1.5515089963 1.3737384269
H -1.9502091689 -0.8182865272 -1.2851585753
H -2.5789370454 -3.8298551322 1.0187654846
H -4.0469391022 -4.3372427015 0.1581967278
H -2.4606191762 -4.5278590002 -0.6067642809
H -3.3212869536 -3.1549561368 -2.6297827380
H -3.9574353424 -1.5200364111 -2.3661771867
H -4.8982654633 -2.9320025063 -1.8542950192
H 1.2127489547 -1.4006189026 1.5362357032
H 2.1278216238 -1.9195344621 0.0631964583
H 1.7703794447 3.2099702502 0.1610506666
H 3.0439852947 2.7716934697 1.3324141689
H 4.7924436319 1.7216014004 -1.8483425384
H 4.1295816747 3.3441270300 -1.5925186312
H 6.9170279671 3.0539291785 1.5763698399
H -6.0136728078 1.7154099871 -0.5977597356
H -4.6938653025 2.9000394885 -0.7077465512
H -5.5070559930 2.6425032237 0.8299177055
