22
CONF44
C 2.3795222677 0.4390135859 0.4216183198
C 0.8833834314 0.6484489610 0.1807422098
C 0.0576766268 -0.5799376630 0.5694205384
C -1.4782643663 -0.4180858654 0.5863227122
C -2.1500546559 -0.0844209782 -0.7456579418
O -2.0279551096 1.3032079459 -1.0748045110
O -1.8514511504 0.5382137967 1.5815016608
O 0.4350424186 -1.6538897469 -0.3112285867
O 0.6751019119 1.0624771390 -1.1813441132
O 2.9587617057 -0.4641944296 -0.5278155971
H 2.5382815461 0.0931091774 1.4534497954
H 2.8991685045 1.3930807271 0.2919491456
H 0.5499590292 1.4815770281 0.8105761609
H 0.3456212464 -0.8199127376 1.6049822274
H -1.8744315097 -1.3909751852 0.9128336316
H -1.7437875053 -0.7258627986 -1.5389877099
H -3.2221384491 -0.2852355277 -0.6520055267
H -1.0893641016 1.4274449513 -1.3172564668
H -1.9266666202 1.3857991963 1.1151441392
H 0.0858185348 -2.4797393198 0.0486825510
H 1.1171937224 0.4121045409 -1.7470824841
H 2.4385833269 -1.2822226018 -0.4810401443
