39
CONF14
C 7.1867997527 1.0707313564 -2.7911095184
C 6.3322197413 0.0623514535 -2.0255819475
C 5.9658308035 0.5463017275 -0.6229048228
C 5.0893556968 -0.4498424058 0.1347264435
C 4.6607595417 0.0317951196 1.5282738027
C 5.7973412342 -0.0783958013 2.5586710872
C 5.5858307650 0.7705417448 3.8123714984
C 3.4611353241 -0.7655332318 2.0232181272
O 2.2774377824 -0.5072393595 1.1935401933
C 1.5695562852 0.5811407027 1.4936043745
O 1.7715980808 1.3335990947 2.4218613010
C 0.4106448232 0.7473688620 0.5513529928
C -0.8529355158 0.4001420586 1.0098740910
C -1.9582181405 0.5586582111 0.1868027468
C -1.8191062786 1.0768860896 -1.1049747134
C -0.5422195049 1.4434552094 -1.5628485370
C 0.5680644371 1.2737313279 -0.7283340294
Br 2.3130513549 1.7897482166 -1.2766977098
Br -0.3200197021 2.1653993331 -3.2990580010
Br -3.3369296371 1.2873729531 -2.2148288650
Br -3.6474492275 0.0458308233 0.8884018919
H 7.4347629269 0.7078040752 -3.7935731098
H 6.6593383356 2.0251202480 -2.8994097582
H 8.1261876909 1.2675536399 -2.2624850113
H 5.4099703995 -0.1418476368 -2.5861945152
H 6.8663592403 -0.8940270174 -1.9492282480
H 6.8872972356 0.7516827390 -0.0622561249
H 5.4329181507 1.5052771428 -0.7009487643
H 5.6174879536 -1.4091611384 0.2379636411
H 4.1941272725 -0.6480344234 -0.4676501877
H 4.3588892983 1.0870824005 1.4591300478
H 6.7329022159 0.2268358379 2.0776932132
H 5.9260256612 -1.1351858333 2.8326031142
H 4.6822920933 0.4832169537 4.3592198790
H 6.4319020114 0.6678941910 4.4988916031
H 5.4925708001 1.8293660197 3.5478912392
H 3.2050074469 -0.5388087579 3.0600758345
H 3.6319917162 -1.8395358481 1.9109246009
H -0.9720196263 0.0008906337 2.0103449505
