60
CONF21
C -0.3191992380 -1.6969570692 1.4879894933
C -0.7922248749 -1.7815046461 0.0800239907
C -1.1888961726 -0.7413415987 -0.7622693832
N -1.5787743940 -1.3117582920 -1.9437166910
N -1.4434478009 -2.6441855045 -1.9162072887
C -0.9795461754 -2.9438070460 -0.6914403087
C -0.7279573548 -4.3553873540 -0.2844275371
C -1.9941875997 -0.6561982974 -3.1753918409
C -1.2729672070 0.6724045989 -0.4862983639
C -0.3069276838 1.4232211747 0.1069512106
C -0.6534349868 2.7393457008 0.5156747233
N -0.9043870793 3.8170713542 0.8636400451
C 1.0843258178 0.9885392535 0.3433330711
C 1.7809164288 0.2410321026 -0.6143685999
C 3.0798844611 -0.1730915180 -0.3692480200
C 3.7436277231 0.1437326110 0.8269867388
C 3.0463136014 0.9123647962 1.7627536021
C 1.7409241686 1.3332713879 1.5258735347
C 5.1739388341 -0.3453402139 1.0526891152
C 6.0865800881 0.2256110676 -0.0501494944
C 5.7298519727 0.0894085442 2.4136114920
C 5.1966369579 -1.8850879531 0.9882306286
O -2.4476785811 1.3236027127 -0.8556806948
C -3.5862494400 1.0374953366 -0.1119903375
O -3.5472192051 0.3131539295 0.8488151259
C -4.7906544363 1.7808679488 -0.6586668287
C -6.0156941789 1.4099701470 0.1799244373
C -4.5188516531 3.2941884661 -0.5591316096
C -5.0127857081 1.3824734013 -2.1283761927
H -0.6520730380 -2.5690539984 2.0583174881
H 0.7766411916 -1.6606347779 1.5398539493
H -0.6983017272 -0.7957629397 1.9777411515
H -0.9625162402 -5.0350152041 -1.1063431927
H 0.3191736114 -4.5008556164 0.0017558940
H -1.3423761778 -4.6302263969 0.5799315349
H -3.0764626748 -0.7410842675 -3.3113554499
H -1.7175453248 0.3976058113 -3.1348355651
H -1.4845065230 -1.1317852029 -4.0158250158
H 1.3045446958 -0.0088442006 -1.5567743922
H 3.5904003062 -0.7481161924 -1.1350997361
H 3.5124189258 1.1933321904 2.6993994134
H 1.2228450968 1.9203678940 2.2789181308
H 6.0810972972 1.3204429439 -0.0271740979
H 5.7686674610 -0.0986636007 -1.0452611021
H 7.1149806288 -0.1181099476 0.1057218776
H 5.7665655458 1.1798570562 2.5058904015
H 5.1327916664 -0.3104432148 3.2399036950
H 6.7505019567 -0.2903721112 2.5227651845
H 4.8687105862 -2.2540888613 0.0120400653
H 4.5427539870 -2.3134183909 1.7552911480
H 6.2158713783 -2.2470880793 1.1618730642
H -6.8868524784 1.9458011647 -0.2080587084
H -6.2171409524 0.3362720972 0.1305194533
H -5.8753075711 1.6875968097 1.2280687801
H -3.6667470591 3.5888804373 -1.1761376869
H -5.4062239085 3.8307166224 -0.9090207189
H -4.3222828836 3.5902856458 0.4761729443
H -4.1618950018 1.6661570200 -2.7523230275
H -5.9031270697 1.8990407701 -2.4999519217
H -5.1765209459 0.3041108004 -2.2222608189
