32
CONF20
C -3.7030126446 1.9902466378 -0.6448419556
C -3.1910759574 0.6524037131 -0.2479735283
N -3.7954283017 -0.1679508950 0.5709269561
C -3.1005259663 -1.3307413223 0.7208106251
C -1.9189155772 -1.4405127654 0.0242097940
S -1.6771705190 0.0311857029 -0.8746054028
C -1.0639133751 -2.6480546055 -0.1109421589
O -1.5692327593 -3.7633676309 -0.1603850184
N 0.2906758274 -2.4756320547 -0.2227737475
C 1.0197072702 -1.2791940512 -0.0915366196
C 1.1459480047 -0.6106870682 1.1363901371
C 1.8514422148 0.5780674460 1.2556497156
C 2.4684909877 1.0841410764 0.1230659983
C 2.4218119715 0.4464244011 -1.1058442635
C 1.6896310188 -0.7275422288 -1.1947391964
Br 1.5737639892 -1.5985177165 -2.8815335426
O 3.2431577467 2.2488121583 0.2403964262
C 2.5848204679 3.4254940330 0.0684431319
F 3.4772650721 4.4079663562 0.2028320179
F 2.0127445880 3.5253308850 -1.1502397698
F 1.6033545725 3.6085078892 0.9776802974
Br 0.3524423421 -1.3409102068 2.7008569645
C -3.6864006199 -2.3740155657 1.6383338976
F -4.4170931415 -3.2909717358 0.9567005581
F -2.7385808927 -3.0434932144 2.3271176237
F -4.5136408029 -1.8126006287 2.5452338019
H -4.6087537663 2.2063871474 -0.0764254313
H -2.9589420843 2.7683311150 -0.4512467337
H -3.9383407793 2.0116129644 -1.7138110066
H 1.9410725297 1.0886533616 2.2060932388
H 2.9327906984 0.8643844125 -1.9640899106
H 0.8034546186 -3.3133971992 -0.4741915441
