39
CONF459
C 5.1523464391 3.3918486018 2.3040454765
C 5.6028101353 2.4522482175 1.1881497738
C 5.1091644079 1.0210128011 1.3919681645
C 5.5852018083 0.0617381514 0.2991948948
C 4.9971783764 -1.3616468433 0.4044811368
C 6.0440494869 -2.4217148054 0.0239331487
C 5.5649025700 -3.8698036689 0.1236897741
C 3.7692978590 -1.5272175805 -0.4771581471
O 2.8479108272 -0.4396536370 -0.1858802023
C 1.7573324672 -0.3739836836 -0.9728101187
O 1.4795571321 -1.1726229781 -1.8332110403
C 0.9837745775 0.8739696087 -0.6704464926
C 1.7138839849 2.0466572930 -0.4968350987
C 1.0756032153 3.2630895621 -0.3229193690
C -0.3204068398 3.3319439495 -0.2980198549
C -1.0663026329 2.1482664937 -0.4446265649
C -0.4140246178 0.9212120027 -0.6340837087
Br -1.4113349950 -0.6841512659 -0.7609816265
Br -2.9561499352 2.2180011634 -0.3801922084
Br -1.1809274364 4.9968130640 -0.0642714544
Br 2.1710369443 4.8010804346 -0.1233805856
H 5.4974319592 4.4156305503 2.1308195141
H 4.0596674854 3.4166348264 2.3755761450
H 5.5430795768 3.0645307426 3.2734850249
H 5.2373827544 2.8288476573 0.2223461154
H 6.6989036164 2.4545984667 1.1192256962
H 5.4604844768 0.6517838126 2.3658475741
H 4.0141513645 1.0159276266 1.4423845303
H 6.6803460127 0.0003948892 0.3442387169
H 5.3492156662 0.4805316960 -0.6897845139
H 4.6958426630 -1.5404914164 1.4472930180
H 6.9075448430 -2.2813582259 0.6847999315
H 6.4024929971 -2.2154218239 -0.9942650122
H 6.3997988116 -4.5626454243 -0.0153957529
H 5.1257572333 -4.0708674601 1.1073137241
H 4.8144726702 -4.1117023373 -0.6347265446
H 3.2454982221 -2.4712092707 -0.3014650231
H 4.0381704495 -1.4761086378 -1.5400639059
H 2.7955035819 2.0056314675 -0.5137561811
