48
CONF7
C -4.3091496976 2.3438589208 -2.2142110040
C -3.3098288482 1.3489716871 -1.6423455807
C -3.4381529211 1.2878202840 -0.1086092615
N -2.5068458804 0.2916321582 0.4535265984
C -2.7191621917 -1.0260532614 -0.1553372116
C -2.6004915836 -0.9737607306 -1.6830097998
N -3.4892835852 0.0335343825 -2.2773107113
C -1.2467243182 0.6665179181 0.8562738152
C -1.0500721647 1.7788709311 1.7255404999
C 0.1736223295 2.1682585537 2.1835869120
C 1.3262065108 1.4411863695 1.8347507435
C 1.1600097023 0.3024313922 1.0196923965
C -0.0932525626 -0.0615420559 0.5305012994
N 2.2956294465 -0.4394876944 0.6712722346
C 3.5229498395 -0.0687015383 1.0909209392
C 3.7406470842 1.0296774145 1.8822367747
C 2.6304409735 1.8478090200 2.3074832109
O 2.7879589852 2.8633879002 3.0425515349
C 5.1349250522 1.3378680265 2.2849634242
O 6.0978270591 0.6697264007 1.9417897507
O 5.2714220799 2.4141043065 3.0627403702
C 2.1739859702 -1.6094454699 -0.1473019839
C 1.6821107729 -2.7914229586 0.4008164471
C 1.5512381253 -3.9471107253 -0.3469265557
C 1.9411129928 -3.8805117590 -1.6759091221
C 2.4397485921 -2.7304558596 -2.2671499921
C 2.5483759848 -1.5860455264 -1.4862901107
F 1.8291812320 -4.9967685206 -2.4236213666
F 1.3207494245 -2.8050467321 1.6952989225
F -2.1387217294 2.4499942938 2.1745284536
H -4.1971364224 2.4180426621 -3.2994027689
H -5.3355290406 2.0266361674 -1.9943133985
H -4.1599711679 3.3365379053 -1.7791313666
H -2.2856504382 1.6810500418 -1.8744464893
H -3.2441612998 2.2727885385 0.3141490150
H -4.4617465934 0.9906073572 0.1603201617
H -3.7411412457 -1.3333597859 0.1062552416
H -2.0343609120 -1.7556818071 0.2867283132
H -1.5693296933 -0.7340873090 -1.9750875913
H -2.8406784741 -1.9579845776 -2.1007393991
H -4.4543760950 -0.2585836830 -2.1291048646
H 0.2571483684 3.0185498867 2.8510180985
H -0.1664311238 -0.9034411704 -0.1429179958
H 4.3462685154 -0.6985573507 0.7713086987
H 4.3359780470 2.7949587011 3.2056993053
H 1.1689800460 -4.8610664311 0.0921430566
H 2.7301477541 -2.7335701820 -3.3109293809
H 2.9255318251 -0.6621363077 -1.9120010835
