59
CONF553
C 7.2256967958 2.4387979025 3.2860683406
C 6.5365884977 1.1685781173 3.8617131984
C 5.0507785868 1.2795054764 3.4600709530
C 5.0406322478 2.2103787634 2.2302028707
C 6.0988324562 3.2520008050 2.6222163461
C 3.6797736043 2.8316037894 1.9493093276
C 2.6416032340 1.8476968660 1.4804800187
O 1.4442703454 2.0314120113 1.6541271197
N 3.0891186467 0.7039766064 0.8123202722
C 4.4276078917 0.4602661086 0.4898201870
O 4.7331846628 -0.5232466923 -0.1708869894
C 5.4531050426 1.4551354922 0.9650792520
C 2.0763594491 -0.2630362220 0.3501858443
C 1.5656372397 0.0765312248 -1.0497637585
C 0.4463704704 -0.8679962527 -1.5021793603
C -0.8898182068 -0.5343972223 -0.8383553365
N -1.9066090870 -1.5818272615 -1.0032505357
C -2.2863944283 -1.7559746951 -2.4115657610
C -3.3424559696 -2.8494577079 -2.5506091360
N -4.5146473870 -2.5316669182 -1.7358823899
C -4.1548983565 -2.3375829827 -0.3313711216
C -3.0976354657 -1.2443158271 -0.2123011798
C -5.6446716799 -1.9858591201 -2.2750859378
N -5.7658661550 -2.0020198794 -3.6260538418
C -6.9027778074 -1.5202875591 -4.1245555331
C -7.9284236054 -1.0138528906 -3.3345421118
C -7.6978995180 -1.0328896956 -1.9638143300
N -6.5787334505 -1.5041478123 -1.4173511497
H 7.9819719599 2.1601929616 2.5455606460
H 7.7353967460 3.0192774708 4.0596374871
H 6.9857102190 0.2640590632 3.4401470963
H 6.6457476225 1.0996844373 4.9473718184
H 4.4749155733 1.7592051059 4.2605885281
H 4.5909318389 0.3046082523 3.2639408430
H 5.6499862671 3.9408379584 3.3488171544
H 6.4376915440 3.8446136153 1.7659048800
H 3.2712147626 3.3333951640 2.8314275755
H 3.7734582244 3.5906861572 1.1581516541
H 5.6086766354 2.1685118199 0.1424383136
H 6.3888430791 0.9043770178 1.0918612667
H 1.2678777140 -0.2510717211 1.0824907231
H 2.5414550979 -1.2508420826 0.3529379464
H 1.2058263877 1.1131710192 -1.0645164468
H 2.4058022987 0.0159586285 -1.7496984283
H 0.7200756424 -1.9066396012 -1.2719382969
H 0.3521531829 -0.7971987890 -2.5904202343
H -1.2520254781 0.4383668206 -1.2289162611
H -0.7428765727 -0.4036142616 0.2408924634
H -2.6805700049 -0.8122535157 -2.8419918463
H -1.4068826708 -2.0486414580 -2.9934062878
H -2.9297472120 -3.8008308086 -2.1904528825
H -3.6352729452 -2.9644186250 -3.5929551407
H -3.7480614301 -3.2838923228 0.0480504043
H -3.5398299251 -0.2812470313 -0.5396931391
H -2.8046358127 -1.1388811312 0.8390297905
H -6.9949439828 -1.5373117824 -5.2102890853
H -8.8443726825 -0.6234199501 -3.7596410120
H -8.4447870290 -0.6485724428 -1.2695319229
H -5.0402092318 -2.0771186558 0.2464456919
