55
CONF30
C -0.9878927879 0.2588731114 1.0357761553
C -1.8419035520 -0.0557778199 2.2682627698
C -3.3006494894 0.1759770912 1.7899982653
C -3.2268815630 0.4846662193 0.2748389897
O -3.0994285289 1.8958668122 0.0338649958
C -4.4235004549 -0.0514275572 -0.5106288566
O -4.9982362051 -1.0802798072 -0.2032921253
C -4.8490576260 0.7623154298 -1.7130088024
O -5.8124153166 0.0382412021 -2.4611125926
C -1.8689572812 -0.1809065830 -0.1556371221
C -2.0416490103 -1.7059799462 -0.2249053799
C -1.2352882747 0.3408233447 -1.4461219745
C 0.2156123898 -0.1531453789 -1.5738566150
C 1.0802603499 0.1973519026 -0.3511386708
C 0.4360640302 -0.2831980900 0.9674138240
C 1.2628341217 0.1949409391 2.1580493954
C 2.7126422872 -0.2850643638 2.0467447637
C 3.3366118680 0.1004209137 0.7414344760
C 4.5480924847 0.7034337939 0.7225004310
C 5.3084314017 0.9508734259 -0.4918713590
O 6.4202155079 1.4878882487 -0.4628795088
C 4.7012051236 0.4439323086 -1.7739574730
C 3.1770421999 0.4919719446 -1.7289256346
C 2.5712931011 -0.2539654242 -0.5219290936
C 2.6887575408 -1.7815158279 -0.7345956150
H -0.9054641776 1.3526174153 0.9609172691
H -1.6970327180 -1.0960217852 2.5814283688
H -1.5872726387 0.5790231344 3.1208197662
H -3.7799181803 1.0145066541 2.3054540378
H -3.9254267620 -0.7041349305 1.9552788022
H -3.7712696907 2.3445069579 0.5633038303
H -3.9534895526 1.0075461927 -2.3042663697
H -5.2494881675 1.7191691183 -1.3425755481
H -6.1064821493 0.6138660346 -3.1773024642
H -2.6092596804 -1.9848522855 -1.1182597688
H -1.0730255868 -2.2050432493 -0.2816589829
H -2.5708559370 -2.1048422565 0.6430635170
H -1.8024307773 0.0108407070 -2.3256492322
H -1.2427977500 1.4359198809 -1.4376838871
H 0.6482569704 0.2913513388 -2.4751773377
H 0.2191008601 -1.2370631430 -1.7302596438
H 1.1121624976 1.2979515564 -0.2802604539
H 0.4089635901 -1.3817411415 0.9903475525
H 0.8320236071 -0.1705563630 3.0964633869
H 1.2405124791 1.2934387104 2.1955782762
H 2.7189164765 -1.3831710429 2.1158246032
H 3.3200293672 0.0902175533 2.8758522643
H 5.0413520530 0.9596071980 1.6582955500
H 5.0543140067 -0.5889510674 -1.9063963357
H 5.0975512994 1.0241388282 -2.6125125795
H 2.7758806496 0.0776030843 -2.6579484578
H 2.8629238298 1.5431368539 -1.6799539102
H 2.1756743077 -2.3417687547 0.0507329404
H 3.7384557726 -2.0899686057 -0.7328940007
H 2.2548929069 -2.0636431128 -1.6974504338
