24
CONF1
C -1.6006907785 2.2957634363 -0.4469404426
C -0.3166147624 1.7696190974 -0.3850582738
C -0.0639170845 0.4110417636 -0.0892826791
C -1.2143424121 -0.3357557754 0.1307610934
C -2.4883031130 0.1922795388 0.0685908489
C -2.7382803668 1.5122783492 -0.2190323277
O -3.4067832103 -0.8105334831 0.3365025184
C -2.6719867751 -1.9646895954 0.5678007912
O -1.3099667761 -1.6857640869 0.4399600071
F -2.9275154993 -2.4468949723 1.7996032466
F -3.0269594641 -2.9304842253 -0.3014268711
C 1.2716929847 -0.1678703380 -0.0172270146
C 1.5738162577 -1.4857366119 0.2827372311
N 2.9345093283 -1.6370457971 0.2516436389
C 3.5395035630 -0.4610095470 -0.0594249660
C 2.5426434576 0.4834340640 -0.2358351179
C 2.8192199895 1.8238137817 -0.5712473292
N 3.0784136781 2.9199511273 -0.8475898764
H -1.7233571613 3.3475779478 -0.6789731365
H 0.5198129993 2.4297804389 -0.5708255855
H -3.7435797458 1.9113254532 -0.2641238217
H 0.9249279583 -2.3136878844 0.5130967883
H 3.4174845680 -2.5001923003 0.4340098166
H 4.6102719647 -0.3572001811 -0.1377184385
