42
CONF149
C 3.7005704921 2.8084123128 0.2313267231
C 2.5064702429 1.9599061576 0.6740252675
C 1.3236252646 2.1253513023 -0.2808478341
C 2.9467110314 0.5089033415 0.7681185350
O 1.8151023321 -0.2763566747 1.2190686927
C 2.0416218336 -1.5978812499 1.3489449683
O 3.1305215548 -2.1209825862 1.3019182487
C 0.7719640831 -2.3263323090 1.6459594614
C 0.7591019203 -3.1880355309 2.7391782460
C -0.4118087136 -3.8435306009 3.1034385577
C -1.5774663223 -3.6425760112 2.3708817923
C -1.5681299482 -2.7981557941 1.2665926094
C -0.3953017397 -2.1415826087 0.8897132916
C -0.3427425643 -1.3774840091 -0.3882083257
O 0.6190227942 -1.3442591506 -1.1239667514
O -1.5165313595 -0.7646244851 -0.6511290880
C -1.5828443723 -0.0641765896 -1.9210158034
C -2.8843155697 0.7171994695 -1.9606625681
C -3.0311510946 1.3630429027 -3.3400375131
C -2.9358176284 1.7660535825 -0.8497910334
H 4.0378220717 2.5110703399 -0.7683237170
H 4.5468072662 2.7049172385 0.9183169425
H 3.4268158201 3.8666116241 0.1895388362
H 2.1977086104 2.2824680078 1.6778064853
H 1.5866320886 1.7598786207 -1.2805408360
H 0.4541069132 1.5613629425 0.0673016596
H 1.0391476342 3.1793063544 -0.3643576701
H 3.7750760221 0.3797030669 1.4732518424
H 3.2600622062 0.1226678131 -0.2103793561
H 1.6748796187 -3.3280159528 3.3036804388
H -0.4138537439 -4.5091456210 3.9603252034
H -2.4927590470 -4.1534020922 2.6511498031
H -2.4644989476 -2.6603774810 0.6730249916
H -1.5244454157 -0.8033935331 -2.7284067160
H -0.7156422553 0.6013217724 -2.0039072479
H -3.7082563169 0.0049146198 -1.8156474728
H -2.2145175785 2.0703420606 -3.5259142324
H -3.9718007875 1.9171947984 -3.4067428504
H -3.0213517017 0.6161557463 -4.1404406335
H -2.1271636439 2.4961847191 -0.9760350551
H -2.8279158802 1.3079417426 0.1367402951
H -3.8854547571 2.3094025276 -0.8739482826
