24
CONF51
C 2.8837521095 0.6941163351 0.1334182246
C 1.4599440396 0.6558786274 0.7037235675
C 0.4278115066 0.2281164706 -0.3371040527
C -0.9633168053 0.0233935233 0.2848942342
C -2.0531194306 -0.0464672221 -0.8024012823
C -3.3690670975 -0.4279253145 -0.1674167870
O -4.0021249244 -1.3835011664 -0.5542228472
O -1.7251119369 -0.9698723670 -1.8274930877
O -0.9909319231 -1.1371542409 1.1022029588
O 0.8832062458 -0.9980692814 -0.9216727688
O 1.0409451248 1.9682737450 1.1005645334
O 3.4853781311 -0.5872620997 0.0461630513
H 2.8735194354 1.2157628019 -0.8386289546
H 3.5108424164 1.2831542122 0.8140438915
H 1.4346809440 -0.0479651338 1.5499584813
H 0.3717213909 1.0250881448 -1.0967354209
H -1.1828687977 0.8842408345 0.9284561793
H -2.1689451340 0.9650427412 -1.2334711666
H -3.7157354701 0.2091957623 0.6709295535
H -2.4513624787 -1.6192668286 -1.8409282082
H -0.4468377869 -1.8023474206 0.6554275976
H 0.2227990987 -1.2429457104 -1.5903455988
H 1.5652444850 2.2302342706 1.8646060679
H 2.9095770533 -1.1197204931 -0.5182747687
