53
CONF12
C 0.6292863983 -0.5533951568 -0.0971074839
C -0.1097089026 -0.8256609585 -1.4118493410
C -1.4602020994 -0.1610669063 -1.5270563824
C -2.0773340751 0.4739528634 -0.4384166738
C -3.3356271251 1.0611054232 -0.6241351864
C -3.9813933511 1.0073880658 -1.8549729913
O -5.2159563740 1.5678291205 -2.0604063028
C -3.3768942498 0.3685690914 -2.9370612928
C -2.1268579835 -0.2033724770 -2.7565561308
C -1.3479029591 0.6295725522 0.8968439249
C -2.2972818241 0.6547581704 2.1069289308
C -3.0362452573 -0.6709906242 2.2942367868
C -2.0428991465 -1.8246525653 2.4551048900
C -1.0686481279 -1.8713294046 1.2748551640
C -0.3388871994 -0.5416679999 1.0937531248
O 0.4422032908 -0.3320258577 2.2854023874
C -0.5416741246 1.9464839372 0.8315016083
C 0.5619040793 1.8954808236 -0.2196189983
N 1.4068622809 0.7045257732 -0.0350222927
C 2.5640760175 0.7481399755 -0.9375067867
C 3.5214192865 -0.4132293749 -0.7618695156
C 4.1537580633 -0.6549500867 0.6323425010
C 5.4821137433 -1.0100206245 -0.0841989662
C 4.9567116394 -0.2540407981 -1.3319141771
H 1.3392255480 -1.3698904316 0.0775987058
H 0.5206919294 -0.5283551969 -2.2590070389
H -0.2389382214 -1.9115551672 -1.5128712334
H -3.8295591971 1.5710487655 0.1973950417
H -5.5235588337 1.9721250305 -1.2381812751
H -3.8839117736 0.3302233964 -3.8959104770
H -1.6452232509 -0.6976208101 -3.5970345196
H -1.6838530333 0.8494596305 2.9942552278
H -2.9990540087 1.4922822351 2.0305248484
H -3.6930506684 -0.6112679429 3.1700280363
H -3.6783136402 -0.8631956820 1.4241691235
H -2.5759451480 -2.7796445784 2.5292095509
H -1.4828091381 -1.6959362253 3.3891110773
H -1.6282334884 -2.1024169198 0.3614603796
H -0.3212477269 -2.6624926497 1.4132535297
H 1.1718549005 0.2429895857 1.9891360754
H -0.1020361799 2.1392348749 1.8173154653
H -1.2234028877 2.7755328039 0.6083754644
H 1.2025239932 2.7800573271 -0.1218479295
H 0.1264080651 1.9265898829 -1.2355093023
H 2.2570733739 0.8137027470 -2.0005704840
H 3.1032985764 1.6788251721 -0.7128390831
H 3.0889592081 -1.3456395557 -1.1433463574
H 3.6969145626 -1.4082266223 1.2810873242
H 4.2376515111 0.2889605155 1.1826327744
H 6.4149811846 -0.6612263590 0.3671580955
H 5.5566562676 -2.0851020796 -0.2735792013
H 5.2657911236 0.7969347174 -1.3167343545
H 5.1662852384 -0.6767994253 -2.3185558477
