76
CONF311
C 2.9909914532 1.9764794234 -1.0096631128
C 2.8673114827 1.3533533971 0.3850878986
C 4.1834733039 0.6498967473 0.7767105788
C 4.5376667629 -0.5629665423 -0.1046322775
C 5.8332465760 -1.1784753523 0.3211156434
O 5.8434303731 -1.8580395771 1.4974192133
N 6.9041806517 -1.0533611940 -0.3580786683
C 8.1297472482 -1.6489619170 0.1501273446
C 9.2700397911 -1.3792099197 -0.8177724871
O 8.9308563048 -0.6720958963 -1.9036459647
O 10.4052010450 -1.7662967530 -0.6353621562
C 1.6609434437 0.4108954921 0.5303754769
C 1.5812902769 -0.2318874935 1.9461714678
C 0.0824587784 -0.4932881713 2.2412935069
C -0.6117811213 -0.1705414423 0.9172693777
C -2.1136234983 0.0939735426 0.9347454884
C -2.8869517129 -1.0478331599 1.5999005864
O -2.4468341970 -2.2933460803 1.0173986595
C -4.3992816567 -0.8539648859 1.4786970456
C -4.8922316761 -0.5346832531 0.0601688103
C -4.8632540761 -1.7763055094 -0.8507573974
C -5.3742917874 -1.4825888713 -2.2542203491
O -5.3647317459 -2.6668253560 -3.0756121056
C -4.5734486879 -0.3485702832 -2.8798337423
C -4.6497119654 0.8902475941 -1.9885218657
C -4.1332230421 0.6767573903 -0.5485588644
C -4.4863937871 1.9545840976 0.2336182085
C -2.6049286657 0.3795070411 -0.5038380537
C -1.7546734849 1.4743025030 -1.1663790894
C -0.2413566893 1.2218314318 -1.1165119675
O 0.1130348519 0.0705599105 -1.9084498100
C 0.2274219700 0.9882503442 0.3277757598
C 0.0762865750 2.2962657068 1.1207268536
H 3.9572804427 2.4818526127 -1.1196410667
H 2.2107872187 2.7199071634 -1.1885668558
H 2.9136077929 1.2189814019 -1.7967152425
H 2.7460735198 2.1686026600 1.1125347614
H 5.0014000341 1.3775692093 0.7042985080
H 4.1330410639 0.3387748348 1.8259839313
H 4.6340622696 -0.2639336146 -1.1501732201
H 3.7497890725 -1.3242437070 -0.0405286888
H 4.9535787980 -1.8848971783 1.8787120117
H 8.0554544309 -2.7386399523 0.2754851349
H 8.4271344101 -1.2440443376 1.1280953247
H 7.9641429839 -0.4892516691 -1.8018556081
H 1.7703223655 -0.3914084781 -0.2088777345
H 2.1674217904 -1.1560512087 1.9885046684
H 2.0114335153 0.4455604809 2.6928531614
H -0.2808288886 0.1671613426 3.0382001937
H -0.1068252298 -1.5210381614 2.5640335724
H -0.4443170193 -1.0226005943 0.2470563622
H -2.3024033072 0.9751937974 1.5618832788
H -2.6261966570 -1.0559348183 2.6710847289
H -3.0240701000 -2.9879129972 1.3576019607
H -4.6795194220 -0.0377050510 2.1559359016
H -4.9100186561 -1.7506672631 1.8570876860
H -5.9478682860 -0.2311015986 0.1427838832
H -3.8430975678 -2.1682589819 -0.9283597773
H -5.4749796903 -2.5668117301 -0.3970438118
H -6.4316357672 -1.1867798761 -2.2071215839
H -4.4497955883 -2.9748619481 -3.1207410124
H -3.5311290398 -0.6743363852 -3.0092143764
H -4.9687448078 -0.1225734318 -3.8772048828
H -5.7043227089 1.1935021278 -1.9141770210
H -4.1278637213 1.7321038010 -2.4556242589
H -4.0904051888 2.8427297163 -0.2692865621
H -5.5755511643 2.0646011879 0.2852176508
H -4.1037922172 1.9541625637 1.2566584117
H -2.4323264382 -0.5422967747 -1.0729398410
H -2.0342610254 1.5793865236 -2.2220582962
H -1.9542098043 2.4467846467 -0.7026855960
H 0.2592650628 2.1076062249 -1.5332378473
H -0.2889257400 0.1868013431 -2.7779873825
H 0.4966645100 2.2004469870 2.1255849324
H 0.6069640947 3.1118291977 0.6175837988
H -0.9662002181 2.6041288964 1.2297131262
