47
CONF123
C -3.7125043111 -3.2366880984 -0.0914869927
C -2.9742445881 -2.4030236602 -1.1466763479
C -2.5240425172 -3.3243901653 -2.2876198682
C -1.7683202763 -1.5917587737 -0.6236384491
C -0.8658299801 -2.2877588160 0.4159265482
C -0.1175501696 -1.1487359872 1.1528860317
C -0.6551715775 0.1664908372 0.5544724596
C -0.6281362824 1.3580105962 1.5182031042
C 0.7813340393 1.6966440866 1.9284793395
C 1.6364285436 2.3614588028 1.0429044007
C 2.9542984088 2.6473618467 1.3843321998
C 3.4176724966 2.2571178540 2.6352539016
Cl 5.0874700553 2.6150964787 3.0829802205
C 2.5991685233 1.5980903274 3.5423397579
C 1.2827206244 1.3239121783 3.1776566999
C -2.0443865514 -0.2104976613 0.0120133777
O -2.9307531731 -0.2891863888 1.1413002741
C -2.6615341667 0.8331167692 -0.9398913329
N -1.8921559129 1.0930272489 -2.1486313924
C -2.0121269553 0.5177610386 -3.3614136840
N -1.1012915933 1.0047021058 -4.1970316440
C -0.4320255673 1.8997414664 -3.4177823463
N -0.8754239988 1.9908663905 -2.1699727181
H -3.0969992416 -4.0807430809 0.2376407305
H -3.9917933779 -2.6655090870 0.7980069656
H -2.0842610899 -2.7520484699 -3.1113260560
H -1.7713934443 -4.0369621677 -1.9300125904
H -3.3689060072 -3.8988377069 -2.6821062660
H -1.1405301047 -1.3689945311 -1.4989009641
H -1.4743312900 -2.8502862082 1.1278336748
H -0.1846597688 -2.9974830002 -0.0614201783
H 0.9677665362 -1.2170069341 1.0381663722
H -0.3294972528 -1.1827271284 2.2270050309
H -0.0459196806 0.4260959118 -0.3195127883
H -1.0805124834 2.2313946968 1.0330741612
H 1.2672224163 2.6650262845 0.0668791759
H 3.6067201134 3.1670411131 0.6914114134
H 2.9769860365 1.3051387049 4.5156166084
H 0.6364564392 0.8097688876 3.8834016972
H -2.7827430537 1.7804586325 -0.4082577722
H -3.6539318563 0.4950260548 -1.2567926763
H -2.7675714497 -0.2247665230 -3.5853019149
H 0.3930428962 2.5038887818 -3.7738961180
H -4.6286609211 -3.6490516039 -0.5269508835
H -3.6960283556 -1.6896479806 -1.5719645003
H -1.2244095560 1.1234506100 2.4049402765
H -3.8042064784 -0.5547670850 0.8248074971
