39
CONF68
C 4.8205997468 -0.2697195226 4.1333345983
C 4.7656708861 -0.3527401704 2.6092927378
C 3.4165755382 0.0991435317 2.0527517322
C 3.3810407247 0.0208700367 0.5273230012
N 2.0861833667 0.4224944680 -0.0239694665
C 1.0700087551 -0.4442147730 -0.1309828087
O 1.1439030250 -1.6490601205 0.1113583596
N -0.1580624834 0.1256262567 -0.5844921605
C -0.6267243543 1.4426908849 -0.4556415236
C -0.1951565841 2.5334237255 0.2893910316
C -0.9595914109 3.6976443661 0.2030345044
C -2.1177624990 3.7582259555 -0.5808894553
C -2.5632837598 2.6498347291 -1.2953832184
C -1.8101230283 1.4811529820 -1.2228166805
N -2.0760105632 0.2417680175 -1.7915864740
C -1.0999809464 -0.5301178402 -1.3967661436
N -0.9140105554 -1.8586789818 -1.6842163029
C -1.5828590510 -2.5814569220 -2.6543047473
O -2.4126078228 -2.1603680913 -3.4296559764
O -1.1458642120 -3.8590176160 -2.5984296411
C -1.7459650276 -4.7459157338 -3.5724073411
H 4.0484228293 -0.9011724099 4.5861084354
H 4.6545099538 0.7580353135 4.4741370952
H 5.7919351773 -0.5987416145 4.5149808300
H 4.9612523195 -1.3836279099 2.2868347872
H 5.5622444930 0.2662205158 2.1757965838
H 2.6162035088 -0.5301904229 2.4625389525
H 3.2098143798 1.1304130553 2.3666863283
H 3.5953357143 -0.9996327572 0.1941490191
H 4.1357042511 0.6834663921 0.0927284949
H 0.6773200790 2.5005486865 0.9317933918
H -0.6481287308 4.5709377049 0.7664525894
H -2.6846365499 4.6827503816 -0.6204782186
H -3.4740337652 2.6817444527 -1.8843246822
H -1.2859714148 -5.7167103812 -3.3931679035
H -1.5280067462 -4.3984428880 -4.5849984030
H -2.8264907821 -4.7984433252 -3.4201439853
H 1.9741283456 1.3680482573 -0.3562132068
H -0.2028369418 -2.3310134600 -1.1315079465
