78
CONF227
C -0.8680861207 0.0240767096 -0.6767047690
C -0.3253630912 1.2667916801 -1.3727840478
O -0.9359896232 1.2221289348 -2.6990609982
C -1.3016067437 -0.0536590216 -3.0142944421
O -1.7504499514 -0.3413621726 -4.0931506167
C -0.9788664643 -0.9496168836 -1.8362933338
C -1.9045199141 -2.1146007360 -1.4787826244
C -3.3639789281 -1.6977160227 -1.3224624313
C -4.1339331227 -1.4940860820 -2.4685365289
C -5.4474597459 -1.0564915293 -2.3418591504
O -6.2967176485 -0.7992986950 -3.3880018817
C -5.7492606175 -0.8885991935 -4.7043485689
C -6.0228262148 -0.8389240084 -1.0853376308
O -7.3121718246 -0.4192810477 -0.9592670473
C -5.2547059436 -1.0664129525 0.0604475711
O -5.8932146833 -0.8450183756 1.2451343113
C -5.1544161912 -1.0949174995 2.4340174012
C -3.9289388755 -1.4876781296 -0.0637232134
C -1.3511347819 -2.7476783599 -0.2115277503
C -1.7184738479 -4.0826784847 0.0531031500
C -1.2490598623 -4.6623822387 1.2033220908
C -0.4438030377 -3.9653186909 2.0990979568
O -0.1533222900 -4.7635481720 3.1796274970
C -0.5912920620 -6.0763583036 2.7942264304
O -1.4940170207 -5.9236332540 1.6850222908
C -0.0856188557 -2.6625858691 1.8775988738
C -0.5508233857 -2.0415519011 0.6977081186
C -0.0964896400 -0.6094817103 0.4676978978
O 1.3272332918 -0.6310746946 0.1749823492
C 2.1103845402 0.1270118407 1.0225332220
O 1.9170795371 1.5176366383 0.6954039754
C 2.7112817325 2.3643290113 1.5152434443
C 2.4337139756 3.8180097328 1.1788622412
O 3.3216273353 4.6348810482 1.9598609741
C 4.6918815252 4.3318967923 1.7822646484
O 4.9922807999 2.9602742818 2.0374896708
C 4.1831389284 2.0867904759 1.2378521748
C 4.4971502940 0.6543233489 1.6025542600
O 5.8293947751 0.2727847943 1.2675520345
C 3.5704356241 -0.2804836594 0.8256050089
O 3.7015630738 -1.6151951439 1.2878349696
C 5.1894011638 4.7716099846 0.4287703205
C 4.6955283956 5.7658249785 -0.3725631771
C 5.4773681854 5.9827784113 -1.5378363888
C 6.5662890314 5.1594897867 -1.6058322046
S 6.6473063678 4.0974760204 -0.2410676834
H -1.8848905371 0.2333761744 -0.3163512132
H 0.7603441059 1.2324312908 -1.4900239733
H -0.6186059118 2.2115951389 -0.9116947565
H 0.0223612557 -1.3605436900 -2.0481656075
H -1.8544114923 -2.8566966289 -2.2847976906
H -3.6901975605 -1.6500727211 -3.4424296178
H -6.5458352162 -0.5763156110 -5.3807109361
H -5.4542118844 -1.9192455089 -4.9368741465
H -4.8823171211 -0.2263527015 -4.8149238603
H -7.6602819628 -0.3177104832 -1.8560548882
H -4.8288373948 -2.1421896636 2.4917869533
H -4.2768757036 -0.4379085966 2.5076150768
H -5.8367711397 -0.8800475956 3.2576814076
H -3.3327923351 -1.6762007801 0.8198190699
H -2.3607824865 -4.6242391298 -0.6328363966
H -1.1196175035 -6.5432485701 3.6293153720
H 0.2786557565 -6.6693306275 2.4723533531
H 0.5516746241 -2.1315508683 2.5758510262
H -0.2439786919 -0.0288347441 1.3891434423
H 1.8265206566 -0.0230647566 2.0836288907
H 2.5013113838 2.1896561858 2.5849547935
H 1.4213619356 4.1187508509 1.4590910146
H 2.5779465521 3.9814532190 0.1012765229
H 5.2049862792 4.8792729241 2.5803451444
H 4.3843699660 2.2494397918 0.1668458208
H 4.3171660710 0.5138959116 2.6824430749
H 6.4292136738 0.8595212710 1.7437718015
H 3.8029490727 -0.2025990143 -0.2491470883
H 4.6450388008 -1.8205149578 1.2778365829
H 3.8008379265 6.3231565003 -0.1225613233
H 5.2407148555 6.7182984681 -2.2969110933
H 7.3184361693 5.1048093029 -2.3806552401
