38
CONF27
C 1.6796849137 -0.0213917476 -3.7829551288
S 3.2583178403 -0.3566496268 -2.9986879834
O 3.0590853159 -1.3115490071 -1.9047275415
O 4.2699396173 -0.6005042656 -4.0322538430
N 3.7080976461 1.1629149578 -2.3210580298
C 3.4887774155 1.6544842081 -1.0514621724
O 3.9897416653 2.7057690011 -0.6924048556
C 2.4711948102 0.9536470183 -0.1927016859
C 2.7803480699 0.0162054762 0.7984183351
C 1.7927848208 -0.5279957057 1.6119485135
C 0.4725100234 -0.1475610109 1.4453961007
C 0.1609976240 0.7856993253 0.4570484109
C 1.1525692039 1.3444828729 -0.3517972034
O -1.1077034221 1.2363895661 0.2210324157
C -2.1683236738 0.5631577535 0.7970061941
C -2.6013193898 -0.6615209471 0.2800114756
C -3.7096194369 -1.2929111426 0.8233318580
C -4.3859168895 -0.6842122198 1.8791933017
C -3.9651358491 0.5386834714 2.3926861120
C -2.8505523061 1.1619499530 1.8451732215
C -5.5638417212 -1.4026061812 2.4716447827
F -6.3906863754 -1.8915036979 1.5147321494
F -5.1739283472 -2.4678792889 3.2220303043
F -6.3041972489 -0.6075465604 3.2724730461
Cl -1.7506199208 -1.3893211124 -1.0558408204
N 4.1522954437 -0.4361602455 0.9625944833
O 4.3959869698 -1.2625133789 1.8373587675
O 5.0035926775 0.0364678842 0.2085826144
H 1.3848330973 -0.9499127745 -4.2797106171
H 0.9583088706 0.2505642843 -3.0094932655
H 1.8216948582 0.7845482450 -4.5055526234
H 4.3690376886 1.6848804114 -2.8915093462
H 2.0629505720 -1.2535646558 2.3686970561
H -0.3001633889 -0.5705362893 2.0767429133
H 0.8757656010 2.0768019499 -1.1031809819
H -4.0427923074 -2.2422233969 0.4189216502
H -4.4964713213 1.0064317515 3.2125106835
H -2.4972439670 2.1149851248 2.2233370123
