42
CONF35
C -0.5279262294 -3.5210799831 0.5074236327
O 0.3980073453 -2.4067133491 0.5411063552
C 0.3433418100 -1.5844298034 -0.5089260337
C 1.1877299736 -0.5332359993 -0.6187020268
C 2.2469618567 -0.2663991638 0.3905200563
C 3.4340599063 -0.9992004170 0.3608499150
C 4.4490071493 -0.7493992679 1.2822078481
C 4.2834386998 0.2407187653 2.2458580632
C 3.0973806912 0.9696798838 2.2895789865
C 2.0770626181 0.7265571100 1.3705953910
C 0.7892219996 1.4905936768 1.4462621606
O -0.2260322338 0.5772031972 1.9630689395
C -1.4309493922 0.5122926041 1.3654091717
C -2.2788438658 -0.5231288112 1.8022823639
C -3.5193871416 -0.6373050926 1.2143807167
C -3.9024886349 0.2698670368 0.2171418656
C -2.9903694031 1.2493796051 -0.1206968497
N -1.7754166705 1.3851028332 0.4307540403
C -3.2977811282 2.2898219449 -1.1714067122
F -3.2100529463 3.5471071952 -0.6708812948
F -4.5383136782 2.1488940915 -1.6839827119
F -2.4263951625 2.2252971515 -2.2097377845
C 1.1110846808 0.3703009680 -1.7680892284
O 1.8789069956 1.3057326532 -1.9482260713
O 0.1066198211 0.0751243274 -2.6268955768
C 0.0411679058 0.8980375828 -3.8142530248
H -1.5523235193 -3.1553829555 0.3901766708
H -0.4187946360 -4.0297451254 1.4645138907
H -0.2659481254 -4.1964741867 -0.3119926288
H -0.4147408153 -1.7956764949 -1.2606617936
H 3.5628057211 -1.7656919482 -0.3978264216
H 5.3679982881 -1.3259407741 1.2428600006
H 5.0710485430 0.4420118419 2.9651261127
H 2.9579274530 1.7367245059 3.0465996337
H 0.4780034366 1.8652790080 0.4696032875
H 0.8640772508 2.3293026075 2.1441587934
H -1.9405712283 -1.2064124457 2.5727463334
H -4.1966463151 -1.4277736425 1.5200444482
H -4.8706009607 0.2060259907 -0.2620392285
H -0.8398183029 0.5530773244 -4.3546811578
H -0.0629656938 1.9514998923 -3.5462798373
H 0.9405147576 0.7583571497 -4.4199375968
