47
CONF9
C 4.0934488285 2.5520736670 -1.7498081296
C 4.4576281649 1.0604446370 -1.7529148632
C 3.8503810382 0.3297654271 -0.6038159571
N 4.5354418688 0.0805401706 0.5214788704
N 3.6859389660 -0.5291056123 1.3623672226
C 4.1585302345 -0.9454035163 2.6786513074
C 2.4521324580 -0.7085565143 0.8164477166
C 1.3300671429 -1.3037189784 1.5805770665
O 1.2314866613 -1.1368012772 2.8005659411
N 0.4553762933 -2.0203893757 0.8395616557
C -0.8050929861 -2.5373300344 1.3617437626
C -1.9947894676 -1.9002509006 0.6816358364
C -2.9857725958 -2.6819004539 0.0876317118
C -4.0826958110 -2.0901133564 -0.5297854182
C -4.2303688719 -0.6979516637 -0.5829969946
C -3.2287258746 0.0762336503 0.0137474568
C -2.1309519742 -0.5135450321 0.6349327751
C -5.4473564352 -0.0875436222 -1.2824027909
C -6.7340297987 -0.5947619500 -0.6034130918
C -5.4480125944 -0.5179579442 -2.7620865368
C -5.4455483214 1.4448400572 -1.2256620441
C 2.5421272191 -0.1559103579 -0.4610001887
Cl 1.2864254323 -0.0278024081 -1.6506204306
H 3.0092684744 2.6893902072 -1.8043701504
H 4.4528908167 3.0332733062 -0.8353196998
H 4.5460199659 3.0581306675 -2.6075505413
H 4.1190311955 0.6001254847 -2.6877592682
H 5.5441444081 0.9400132775 -1.7035954960
H 5.2482402666 -0.9496465157 2.6436632194
H 3.7881986399 -1.9458305063 2.9071027583
H 3.8109076595 -0.2511347631 3.4476507286
H 0.6221445642 -2.1186699870 -0.1514076254
H -0.8130763009 -2.3285830084 2.4358660245
H -2.8983172458 -3.7653582362 0.1057147903
H -4.8310618710 -2.7319294574 -0.9845493969
H -3.2934875614 1.1579554377 0.0019767512
H -1.3682464713 0.1177926243 1.0844031929
H -6.8200846216 -1.6834748010 -0.6655897798
H -7.6108018319 -0.1573532458 -1.0935006002
H -6.7512916499 -0.3090637927 0.4537230937
H -5.4996051677 -1.6059286291 -2.8639450099
H -6.3146408491 -0.0872579944 -3.2758158966
H -4.5399900531 -0.1687263507 -3.2650896589
H -4.5668908006 1.8670168610 -1.7243644666
H -5.4698799401 1.8103268324 -0.1937395227
H -6.3357919981 1.8237221737 -1.7374664150
H -0.8388693028 -3.6246594371 1.2302286941
