47
CONF48
C -3.0668546462 1.7205214703 -0.1699098932
C -2.3230908360 0.5400258282 -0.7525582730
C -3.0956326357 -0.6847080765 -1.1271061219
C -2.2749027115 -0.6990903317 0.1581175257
C -1.0780816762 -1.5481378447 0.2026830299
O -0.4723178914 -2.0027477602 -0.7422645590
O -0.6972186688 -1.7424378335 1.5080815479
C 0.5051104933 -2.5221178937 1.6977744977
C 0.2088145134 -3.5317501079 2.7108853277
N -0.0039277061 -4.3452319225 3.5018094711
C 1.6745642881 -1.6265270538 2.0684281491
C 1.8300202566 -0.4296713881 1.3708483340
C 2.9253096576 0.3808259542 1.6484007633
C 3.8607337368 0.0146101679 2.6137360807
C 3.6879648094 -1.1760763850 3.3042906684
C 2.6007277616 -2.0043362727 3.0369402319
O 3.1103938277 1.6092867715 1.0539906411
C 2.6599440701 1.8380960696 -0.2332358176
C 2.1231849703 3.0960725069 -0.4889965696
C 1.7390437623 3.4219083469 -1.7855817481
C 1.8780400745 2.4960613161 -2.8154650516
C 2.4145281518 1.2402080450 -2.5431043307
C 2.8143975747 0.9034562014 -1.2545523502
C -4.5708186933 -0.7413258812 -1.0465288234
C -5.2439045380 -1.8412791946 -0.7096429601
Cl -6.9800399339 -1.9041946091 -0.6568787651
Cl -4.4536751833 -3.3265913818 -0.2875950172
C -1.1122825162 0.9187274689 -1.5714702535
H -3.9130931631 1.4106390158 0.4492635801
H -3.4458016733 2.3617055379 -0.9740912163
H -2.3924688596 2.3215763099 0.4482295822
H -2.6427710299 -1.2947528749 -1.9084520866
H -2.8119552369 -0.6090138706 1.0957763969
H 0.7261928865 -3.0370775699 0.7516546608
H 1.1100029997 -0.1241400224 0.6208304351
H 4.6990924141 0.6726145109 2.8124590923
H 4.4079514529 -1.4641152858 4.0629376193
H 2.4719074293 -2.9304918399 3.5863037187
H 2.0255554912 3.8031413853 0.3274991689
H 1.3245318867 4.4043407462 -1.9878641724
H 1.5727784342 2.7510652633 -3.8245134588
H 2.5323790089 0.5139626752 -3.3408501540
H 3.2442166592 -0.0692983889 -1.0426145967
H -5.1518749855 0.1409815793 -1.2992000546
H -0.3945017326 1.4824177222 -0.9648988001
H -1.4196182273 1.5649033502 -2.4008577784
H -0.6025525631 0.0479662447 -1.9856609547
