39
CONF16
C -2.5288433060 3.2583106183 1.5035982828
C -1.8600791543 2.0382039045 0.9411697606
O -1.7581833810 1.9025639419 -0.2768411616
C -1.3507012661 1.0282380531 1.9256606902
C -0.6916512797 -0.2510798240 1.3903684740
C -1.5808195771 -1.1487638923 0.5348153218
C -1.0194860736 -2.2809738790 -0.0690621605
C -1.8034740789 -3.1731125424 -0.7911407189
C -3.1745013929 -2.9557139487 -0.9215922538
C -3.7465213835 -1.8422808022 -0.3154231959
C -2.9569028522 -0.9485021267 0.4078719448
C 0.6944790878 -0.0204533526 0.8114227531
C 0.9715520293 0.2357805830 -0.5135091435
C 2.3338972476 0.2638990053 -0.9898186149
C 2.6779346234 0.4478533672 -2.3390072532
C 4.0075772874 0.4516396779 -2.7239322197
C 5.0163868890 0.2829384595 -1.7678623931
C 4.6995152190 0.1098510722 -0.4284906910
C 3.3595301766 0.0994129958 -0.0531037398
O 3.0841935304 -0.0602548551 1.2733522702
C 1.7798603786 -0.1361716081 1.7509089754
O 1.6700080462 -0.2993403391 2.9569865871
O 0.0366801215 0.4427754052 -1.4373607283
H -1.9802600166 4.1431693748 1.1638876283
H -2.5719310213 3.2483322083 2.5931880174
H -3.5409882779 3.3258810528 1.0916668897
H -0.6392645536 1.5578614947 2.5753725861
H -2.1899985985 0.7855366918 2.5931907265
H -0.4955717474 -0.8349716605 2.2985599007
H 0.0476377483 -2.4616786787 0.0268641560
H -1.3427229384 -4.0415767198 -1.2521816715
H -3.7888061312 -3.6490232543 -1.4874848464
H -4.8134868382 -1.6610148867 -0.4034035991
H -3.4375271292 -0.0931826433 0.8698777429
H 1.8886260787 0.5825906442 -3.0692520753
H 4.2684648443 0.5890837364 -3.7677074078
H 6.0579479151 0.2894620536 -2.0722219909
H 5.4664732920 -0.0167626802 0.3278120512
H -0.7890428088 0.7914733427 -0.9929184151
