44
CONF4
C 4.6449041472 2.1558759294 -2.6558896766
C 3.8044469567 1.4172509705 -1.6194268418
C 2.6373766481 0.5584059372 -2.2361116609
N 1.6146311449 0.4883214584 -1.2216330599
C 1.4043090494 1.6626986268 -0.3695248316
S 2.9277014153 2.6845408867 -0.5446295956
C 1.2355094155 0.6888092977 0.8497055021
C 1.4577493939 -0.4338118615 -0.1946777164
O 1.5466668984 -1.6388624235 -0.1713021787
N 0.0488432968 0.6924658596 1.6414406674
C -1.1593924477 0.3641031869 1.1262605133
O -1.3133205227 0.0426996508 -0.0517322473
C -2.3438590612 0.4461191267 2.0992262836
C -3.2515271257 -0.7551010461 1.9310662901
C -2.7363171583 -2.0525640825 2.0253929772
C -3.5644848319 -3.1624876044 1.9420643172
C -4.9385001746 -2.9860607054 1.7586273674
C -5.4697145977 -1.7006900979 1.6575229811
C -4.6233811383 -0.5979200667 1.7437462138
O -5.7105613553 -4.1117439523 1.6825239086
N -1.8963931731 0.6764903517 3.4857945578
C 2.0728695997 1.1713206698 -3.5085607863
O 2.7004328481 0.6927941801 -4.5969924915
O 1.1856420870 1.9934359951 -3.5405506711
C 4.6875868351 0.5102083304 -0.7624587841
H 5.1413766485 1.4315169268 -3.3096282067
H 5.4190075169 2.7428929233 -2.1538121721
H 4.0431031913 2.8332144227 -3.2675879223
H 3.0107833233 -0.4472131872 -2.4538537101
H 0.5221111302 2.2591037015 -0.6125275978
H 0.0760939824 0.9813670479 2.6110718398
H -1.6670972763 -2.2006986754 2.1604951414
H -3.1616783777 -4.1679144908 2.0107684928
H -6.5375966887 -1.5635511003 1.5085422801
H -5.0440721450 0.4007864979 1.6614663238
H -6.6354923701 -3.8616110598 1.5543951642
H -1.6617658980 -0.2163513091 3.9120343166
H -2.6760722472 1.0404169529 4.0237055522
H 4.1066163441 -0.0519481585 -0.0261970511
H 5.2133343066 -0.2033015478 -1.4074948188
H 5.4288656745 1.1083246620 -0.2263782033
H 2.3401486485 1.1414371160 -5.3821908459
H -2.8963288963 1.3400361616 1.7798842697
H 2.1099184900 0.7439537253 1.5047369778
