24
CONF22
C -2.1798281829 -2.3476063015 0.9573965695
O -1.4343991964 -1.3653438439 0.1787901139
P -1.3573096082 0.1534486146 0.6851021484
S -0.8563149850 0.4556292464 2.5292372802
O -2.7263035545 0.8614448976 0.2898881604
C -3.2808790760 0.7147613646 -1.0568832675
O -0.3513690295 0.7488284324 -0.4571281068
C 1.0187539435 0.6617047946 -0.3237039929
C 1.6649163754 -0.5544164271 -0.4939326641
C 3.0497532877 -0.6196308252 -0.4023694661
C 3.7887941313 0.5378040632 -0.1453571619
C 3.1415536719 1.7577076986 0.0167717483
C 1.7577869198 1.8181866999 -0.0696403751
Cl 0.9460183930 3.3434822575 0.1348999065
Cl 5.5244599414 0.4904410629 -0.0250063027
Cl 3.8320362549 -2.1589047191 -0.6171382561
H -3.2320362026 -2.0570613799 1.0195599598
H -1.7461653904 -2.4353643983 1.9564808287
H -2.0786924285 -3.2862088342 0.4139592893
H -2.6452352990 1.2369705217 -1.7751255083
H -3.3685554827 -0.3430143287 -1.3148308932
H -4.2659857726 1.1772607480 -1.0145593336
H 1.0835549802 -1.4451210801 -0.7006659418
H 3.7154466161 2.6550018261 0.2142551752
