54
CONF17
C 1.5076962771 -2.7478254499 0.2479455498
C 0.0028340502 -2.9730560395 0.3329404347
C -0.8727470548 -1.7425033652 0.3179560968
O -2.0726332838 -1.7740485923 0.5156762573
O -0.1696494961 -0.6297580533 0.0475949245
C -0.8094512212 0.6949806645 0.0343073857
C -1.3087255373 1.0066404342 1.4727830736
C -0.3033174831 0.7145035069 2.5582685439
C 0.6489843983 1.6645843847 2.9450154961
C 1.5899974865 1.3762671947 3.9306531688
C 1.5917928047 0.1308919894 4.5550464631
C 0.6341995243 -0.8156245202 4.1975535214
C -0.3051830329 -0.5228720940 3.2120662124
C -1.9302901303 0.7334152821 -0.9949775538
C -3.0041573206 1.6172406633 -0.8541302471
C -3.9959708000 1.6976322794 -1.8300031987
C -3.9332576682 0.8951826330 -2.9645385117
C -2.8664976506 0.0115833585 -3.1151223249
C -1.8752022075 -0.0653616953 -2.1427274747
C 0.3635355254 1.6322973970 -0.3734033844
C -0.0409364579 3.1055991766 -0.4382910479
C 1.0195582076 1.2294045117 -1.7058790444
N 2.3714307962 1.7961706906 -1.8386237763
C 2.7732812506 1.8017422195 -3.2471615564
C 3.3406485620 1.0166933436 -1.0636524273
H 2.0277430089 -3.7085739151 0.2987579574
H 1.8607688544 -2.1243700768 1.0746068569
H -0.2646793003 -3.5195438128 1.2446353611
H -0.3462049790 -3.5975817788 -0.4996167194
H -1.5834532259 2.0625075220 1.5125664814
H -2.2168081494 0.4259412736 1.6464884362
H 0.6495588887 2.6459885470 2.4796888268
H 2.3190611179 2.1291777739 4.2148103092
H 2.3246495309 -0.0948974835 5.3234977330
H 0.6135097716 -1.7830077689 4.6905714064
H -1.0597661296 -1.2606770740 2.9554565311
H -3.0795384921 2.2567241347 0.0178939804
H -4.8209122915 2.3909063152 -1.6967711227
H -4.7075907316 0.9545027409 -3.7229193813
H -2.8044628409 -0.6243514478 -3.9930399072
H -1.0567187517 -0.7643815093 -2.2770983132
H 1.1092703641 1.5087492317 0.4203346846
H 0.4067783529 1.6195333853 -2.5276867838
H 1.0545907449 0.1322902912 -1.8175749161
H 2.0841823394 2.4220944272 -3.8296689376
H 2.7832750496 0.7862806047 -3.6892754384
H 3.7805242708 2.2212939064 -3.3413908843
H 3.4014454605 -0.0337580579 -1.4099717442
H 4.3339707252 1.4677079626 -1.1573078833
H 3.0742519870 1.0082018163 -0.0023273707
H 1.7852109797 -2.2585297114 -0.6891501371
H -0.3901494536 3.4994223038 0.5193935073
H 0.8300628516 3.6922683501 -0.7417861548
H -0.8299025203 3.2617599610 -1.1813823072
