39
CONF53
C -2.5203068659 -1.9746743509 -0.0775833843
C -3.1512172732 -0.5957512304 -0.2660291789
C -4.6489835613 -0.6430074300 0.0397084745
C -2.4189836797 0.4917161470 0.5883065033
C -3.0125825590 1.8990816685 0.3778006590
C -2.5501575297 0.1451972601 2.0118090974
N -2.6791925507 -0.1316631788 3.1259439825
N -0.9698473032 0.5047171148 0.3106540611
C -0.4362179341 0.8123434775 -0.8938471188
O -1.0745170954 1.1159990858 -1.8940563350
C 1.0935763154 0.7413281953 -0.9710224836
C 1.6661605156 1.9808445441 -1.6340634562
O 1.6354472253 0.5736832589 0.3689032221
C 2.8521236450 -0.0526280881 0.4292464631
C 2.9603006087 -1.4468084921 0.3691587486
C 4.1933546921 -2.0781572328 0.4761297013
C 5.3278613209 -1.2956122609 0.6549992637
C 5.2502302339 0.0895783127 0.7370169603
C 4.0079494255 0.6998382066 0.6213410866
Cl 6.8842777812 -2.0824683256 0.7932163148
Cl 1.5191693364 -2.4171172551 0.1926430386
H -2.6240516971 -2.3174836283 0.9584336489
H -1.4587890943 -1.9734353512 -0.3367435741
H -3.0217618440 -2.7013719208 -0.7228363556
H -3.0050623312 -0.2744540535 -1.3027739614
H -5.1568113719 0.2910267750 -0.2114271349
H -4.8305981503 -0.8662525585 1.0973446201
H -5.1142322484 -1.4373179623 -0.5507451744
H -2.4077840085 2.6353979067 0.9119005468
H -4.0321783397 1.9447272974 0.7622990399
H -3.0066127335 2.1325212523 -0.6881812221
H -0.3284499411 0.2292398451 1.0403190411
H 1.3280291886 -0.1532044157 -1.5648485241
H 1.4617054464 2.8645579295 -1.0227468692
H 2.7466713970 1.8756743146 -1.7640269308
H 1.2015888211 2.1141561753 -2.6129069876
H 4.2624720008 -3.1577754310 0.4321848292
H 6.1458168190 0.6795815800 0.8889322592
H 3.9116030432 1.7779727286 0.6898086342
