15
CONF4
O 1.9235039338 1.3728811861 -0.1036694467
P 1.4141764004 0.0161024177 0.5474380586
O 2.6977060576 -0.8851049348 0.2998115764
O 0.8448194908 0.0641317998 1.9236781362
C 0.0565071821 -0.5882561030 -0.5886326854
Cl 0.5433920505 -0.4989413187 -2.3145371934
Cl -0.3509098116 -2.2836110221 -0.1347091851
P -1.3813520596 0.5738402165 -0.3072157949
O -1.9362185745 0.2052972434 1.1403020512
O -2.5657107729 0.1764853144 -1.2823976734
O -0.8783369030 1.9545201858 -0.5358296226
H 1.1732737984 1.9791606644 -0.2818390338
H 2.7421693981 -1.6705644310 0.8687627847
H -1.2202243352 0.2074762174 1.8111062015
H -3.0627955531 -0.6234172350 -1.0422679617
