29
CONF250
C -1.8957122297 0.5879755391 -1.8068976941
N -1.5975635973 -0.2763133134 -0.6562650915
C -1.1794641869 -1.6673433241 -0.9169010472
C -2.3415936785 -2.6396315720 -0.7436340629
O -3.4562125468 -2.3110650254 -1.5709360270
S -1.4226679356 0.3795690194 0.8458629398
O -2.4299313566 1.4247225833 1.0218526053
O -1.2160804357 -0.7160496932 1.7922701549
C 0.1994050662 1.4289042483 0.8631610379
C 1.5187307237 0.6093585843 0.8805010384
C 2.7947293380 1.4553572191 0.5434099907
C 4.1386416767 0.7765259167 0.9649199639
F 4.2867506847 0.7910999285 2.2926476920
F 4.1753320510 -0.4922255245 0.5307005585
F 5.1559919589 1.4511486967 0.4126126623
F 2.7247815480 2.6504523149 1.1721818667
F 2.8397522817 1.6614565395 -0.7914526104
F 1.4225308513 -0.3768654698 -0.0508496141
F 1.6707647954 0.0508959140 2.0981354320
F 0.1416934278 2.2076513756 1.9549794582
F 0.1781896503 2.2108874076 -0.2452437966
H -2.5896028018 0.0570869079 -2.4637834066
H -2.3680048346 1.5092770568 -1.4622173026
H -0.9839006411 0.8319985655 -2.3661014513
H -0.3671808094 -1.9599502060 -0.2463657948
H -0.8011583739 -1.6989403345 -1.9449133408
H -2.0073364703 -3.6391055945 -1.0449132237
H -2.6290934323 -2.6807021829 0.3153868010
H -3.9617916285 -1.6261755928 -1.1198479618
