40
CONF1
C 4.5774074742 2.7878212229 0.4108490271
C 3.4005696765 1.8433892121 0.5469871020
C 2.9266831417 1.6962657741 1.9819805212
O 3.8880169908 0.5546988837 0.0487084278
C 3.0126059469 -0.4088410423 -0.2867833146
C 1.6262214705 -0.2592949957 -0.3389780651
C 0.8075739065 -1.3199132155 -0.7209112959
C 1.3612403067 -2.5549485060 -1.0531529310
C 2.7419694351 -2.7195899593 -1.0320595359
C 3.5475931655 -1.6613170032 -0.6497036747
Cl 5.2794879880 -1.8869024273 -0.6140379344
Cl 0.3460436091 -3.9172024065 -1.4546954310
N -0.5897145415 -1.1161994223 -0.7515319603
C -1.3842526703 -1.1225388261 -1.8638658004
O -1.1356198766 -1.3503056454 -3.0239784857
O -2.6437997278 -0.7762032848 -1.3826404577
C -2.4971841055 -0.5485772226 -0.0353140153
N -1.2919812798 -0.7295991883 0.3847012218
C -3.6992255437 -0.1366708665 0.7484171891
C -4.2259709416 1.1935019958 0.1752393054
C -3.3117273572 0.0392403969 2.2199629713
C -4.7763457570 -1.2298190251 0.6094818335
H 4.2838372603 3.7829944790 0.7556440102
H 4.8999575089 2.8598824367 -0.6310810589
H 5.4161396960 2.4406085853 1.0220436039
H 2.5868060674 2.1785265416 -0.1074210580
H 2.5569723967 2.6612950129 2.3406858230
H 2.1180733105 0.9664702874 2.0752983150
H 3.7596276195 1.3823924914 2.6187446578
H 1.1523292585 0.6821505416 -0.0932207704
H 3.1841404861 -3.6739729791 -1.2913140607
H -4.5139529051 1.0868630782 -0.8742136506
H -3.4682823680 1.9789607565 0.2561561293
H -5.1076095838 1.4990270857 0.7465351411
H -4.1997763545 0.3455187529 2.7800342529
H -2.5442972171 0.8092077539 2.3392844809
H -2.9386131336 -0.8963241671 2.6460101980
H -4.4128667080 -2.1863099064 0.9975982131
H -5.0746241221 -1.3621391698 -0.4340909121
H -5.6574522049 -0.9321459498 1.1856778901
