27
CONF3
C 2.8303464365 -0.4373084861 1.2433913232
Si 1.5132285844 -0.4059565236 -0.0845635565
C 1.8689902027 0.9627041522 -1.3198076909
C 1.4367016438 -2.0568930262 -0.9706306930
O 0.0697472392 -0.1241396287 0.6668957522
Si -1.4791178392 0.3456531006 0.3378200055
C -1.5212480244 2.2014667584 0.0727837826
C -2.0999973643 -0.5312044199 -1.2020656251
C -2.5229861257 -0.1239856604 1.8174086871
H 3.8193422276 -0.6402406043 0.8184086562
H 2.8798319644 0.5224439337 1.7685168659
H 2.6172470430 -1.2136380849 1.9858258347
H 2.8471938635 0.8174111294 -1.7919524115
H 1.1198440143 0.9912165434 -2.1190448659
H 1.8770096870 1.9431222840 -0.8311616807
H 0.6740473042 -2.0497185483 -1.7567715497
H 2.3968218075 -2.3000076128 -1.4392835837
H 1.1903340900 -2.8643960860 -0.2727187051
H -0.9298059151 2.4939655348 -0.8014962178
H -2.5465768045 2.5541154473 -0.0859043700
H -1.1168962234 2.7298615299 0.9429355201
H -1.5094379723 -0.2624744182 -2.0851606626
H -3.1420397571 -0.2633688107 -1.4100292943
H -2.0524909874 -1.6192169471 -1.0837534998
H -3.5679632734 0.1738975915 1.6789404178
H -2.1518433121 0.3626305191 2.7255913177
H -2.5002826097 -1.2059400483 1.9852028476
