60
CONF432
C 6.1675498812 4.1139215530 -1.6068122832
C 6.3322685140 2.6337876362 -1.9409822538
N 5.5709404017 1.7661396845 -1.0367071236
C 6.2389730878 1.3500541353 0.2005803880
C 7.0169422652 0.0429318670 0.0537284735
C 4.2843150247 1.4554632501 -1.3699167502
O 3.7221726285 1.9270862933 -2.3670011639
N 3.6380425766 0.5715719270 -0.5081621634
C 2.3201824309 0.1139959158 -0.6834392589
C 1.2927689632 0.9286301954 -1.1456074393
C -0.0244316826 0.4623543723 -1.2577970081
C -0.3135793370 -0.8726615489 -0.8925282370
C 0.7174584162 -1.6865250665 -0.4126738828
C 2.0120685931 -1.2006969357 -0.3148423005
O -1.5848242281 -1.3129584318 -1.0839327394
C -1.9743751723 -2.6181859393 -0.6185117266
C -2.1643212143 -2.6890072100 0.9029276985
C -3.0011242357 -1.5348761679 1.4520176175
N -4.3476557084 -1.5955184585 0.8737897487
C -5.4311269454 -0.9150094033 1.6313385397
C -5.0776888348 0.5410816411 1.9717248038
C -5.7283524983 -1.6988385216 2.9132385482
C -6.6662959516 -0.9420477448 0.7266611747
O -2.7916795904 -3.9432242497 1.1907653260
C -1.0275030769 1.4495592109 -1.7601704940
O -0.6390020909 2.4479425627 -2.3634906370
C -2.4987436658 1.2649424279 -1.5019602586
H 6.7730831464 4.7226421608 -2.2858175312
H 6.4911109681 4.3233493671 -0.5821659525
H 5.1212019077 4.4153452730 -1.7103427498
H 7.3854289573 2.3410524826 -1.8646722755
H 6.0083546487 2.4374750355 -2.9658965123
H 6.9251260370 2.1567480780 0.4805008255
H 5.5070081595 1.2841607697 1.0125306676
H 7.7712426261 0.1302559180 -0.7341128393
H 6.3567887598 -0.7931264919 -0.1988917073
H 7.5270000456 -0.1955091899 0.9920987876
H 4.2135067044 -0.0213009640 0.0700095387
H 1.4895030164 1.9571624443 -1.4122507778
H 0.5287730960 -2.7136421197 -0.1282634240
H 2.7963094779 -1.8558931247 0.0547293527
H -2.9365263455 -2.8013145443 -1.1051466436
H -1.2696477375 -3.3851897395 -0.9588741478
H -1.1955771212 -2.6952179223 1.4136286288
H -3.0652959275 -1.6696004918 2.5362571796
H -2.4753476942 -0.5834616814 1.2732315596
H -4.3183105540 -1.1763975928 -0.0523549556
H -4.8653576211 1.1073741400 1.0574203549
H -4.2004940727 0.5961177919 2.6244674542
H -5.9124125898 1.0260650647 2.4887995940
H -4.8844061995 -1.6830264299 3.6093660251
H -5.9651139960 -2.7412736770 2.6761593266
H -6.5869063959 -1.2541903780 3.4259600494
H -7.5153144012 -0.4688434504 1.2287348694
H -6.9378419589 -1.9731375075 0.4777722668
H -6.4752855974 -0.3972617962 -0.2055531656
H -3.7374850495 -3.7801393285 1.0268948638
H -2.6889125998 0.8946762153 -0.4917508920
H -2.9033892370 0.5177836564 -2.1926612777
H -3.0037906110 2.2184052232 -1.6666279926
