65
CONF844
C -3.8696092651 5.0713737773 0.0495798435
C -2.6151325461 4.3221594528 0.4918845208
C -2.2341934989 3.1611364081 -0.4564509344
C -1.8884573026 3.6351473044 -1.8668491230
C -1.0581431491 2.4444177378 0.1663211573
O 0.1089161381 2.7364787063 -0.0150200875
O -1.4662641970 1.4592139832 0.9928393266
C -0.4351099010 0.7451575298 1.7426388031
C -0.1953628140 1.4460422441 3.0687467598
C 0.9257742592 0.7424315457 3.8487693624
C 0.7662537962 -0.7478885165 3.7880278314
C -0.0573298529 -1.4001270582 2.9453319637
C -0.9393236204 -0.6725952306 1.9479861124
C -1.0487316797 -1.4839317888 0.6395202364
C -1.7020824896 -2.8407533730 0.9753614290
C -0.9277951721 -3.5243188336 2.0702974013
C -0.1644652176 -2.8509191308 2.9480078154
C -1.8959193787 -3.7444995318 -0.2451391049
C 0.3196512040 -1.6278465247 -0.0672391472
C 0.3356347160 -0.9447153779 -1.4361323769
C 1.7117706156 -0.9267150860 -2.0768079745
C 2.2654567892 -2.2985629099 -2.4019881419
C 3.5346037650 -2.1578810989 -3.2140062323
C 3.1961753161 -1.4572723424 -4.5232763036
C 2.3167522548 -0.2361665126 -4.3869513787
O 2.2122995870 0.5911561882 -5.2713102240
O 1.5669514938 -0.0839238533 -3.2806671101
O 4.0630019655 -3.4676257243 -3.4486878511
C 2.3249936011 1.1625406356 3.3627383964
H -4.1424013291 5.8266319343 0.7928405902
H -3.7207518874 5.5841393316 -0.9048870893
H -4.7159884101 4.3846565922 -0.0610531156
H -1.7648496535 5.0133932549 0.5523696560
H -2.7709089060 3.9150737672 1.4983280320
H -3.0760870316 2.4597160966 -0.4900661826
H -2.7707381424 4.0553147253 -2.3552140212
H -1.1092155836 4.4023752597 -1.8353205585
H -1.5257084061 2.8041849405 -2.4792955663
H 0.4787145898 0.7494661477 1.1415858237
H 0.0655827815 2.4957144912 2.8949386046
H -1.1272540085 1.4208584686 3.6469105097
H 0.8476565045 1.0470299396 4.9020740870
H 1.3777261030 -1.3323427270 4.4757643290
H -1.9514505437 -0.6066571781 2.3776432777
H -1.7327661313 -0.9448540627 -0.0279962691
H -2.7085583530 -2.6155464183 1.3648093139
H -0.9940342483 -4.6090903864 2.1351604497
H 0.3987807422 -3.3887733091 3.7084124839
H -0.9403002307 -4.0547114182 -0.6797724762
H -2.4401923140 -4.6514717873 0.0374855481
H -2.4724643275 -3.2278558341 -1.0195036478
H 1.1162662531 -1.2012309894 0.5565707193
H 0.5729192267 -2.6862580655 -0.1759962634
H -0.3676213757 -1.4449553391 -2.1148115457
H -0.0006875297 0.0943841615 -1.3319912959
H 2.4156498845 -0.3863959204 -1.4291015259
H 1.5264053232 -2.8869193924 -2.9622978542
H 2.4774994715 -2.8185322009 -1.4628580528
H 4.2629990582 -1.5572543306 -2.6468819431
H 2.6332692662 -2.1587971119 -5.1553239211
H 4.0886682313 -1.1623454354 -5.0825846249
H 4.8878285011 -3.3721292741 -3.9420146763
H 2.4701728446 2.2389268264 3.5006817669
H 2.4574767899 0.9275374586 2.3014705564
H 3.1040465247 0.6352041597 3.9223997428
