55
CONF258
C -6.8377258029 -2.4008136403 0.5467253290
C -5.4052796903 -2.0284966627 0.8429249269
O -4.9489553062 -1.1848368951 -0.2559371275
C -3.6742526987 -0.7462597094 -0.1595911819
O -2.9194190406 -1.0090565471 0.7624237068
N -3.3788241354 0.0280397193 -1.2518534853
C -2.1386731395 0.6060841415 -1.5541662113
C -1.1902968413 0.9000056348 -0.5720747923
C 0.0408677488 1.4285271813 -0.9452637031
C 0.2942437057 1.7817348936 -2.2731287378
C -0.6794851505 1.5426601666 -3.2422373702
C -1.8738046218 0.9321389107 -2.8917602322
S 1.8452212694 2.5455350431 -2.6933463279
C 2.0730899726 3.4948711586 -1.2021383467
C 2.6781446054 4.7510830686 -1.2473925565
C 2.8560360523 5.4688655218 -0.0693782860
C 2.4000581658 4.9541291507 1.1436285742
C 1.7811702449 3.7092962449 1.1873304784
C 1.6411644822 2.9667137162 0.0178478559
N 1.0566953253 1.6627188912 0.0287565688
C 1.6676306735 0.6464172776 0.7587647994
O 2.6030335295 0.8893593000 1.5128829610
C 1.1308125890 -0.7538503011 0.5597672172
C 2.0752496888 -1.8017004076 1.1391821626
N 1.6690404622 -3.1612526110 0.7660008747
C 0.3973916878 -3.5472174503 1.3951242392
C 0.0380627593 -4.9732309569 1.0137704460
O 1.0580954934 -5.8964806440 1.4111929318
C 2.3017839002 -5.5304116019 0.8008973946
C 2.7045047079 -4.1174298994 1.1834720254
H -7.4686473807 -1.5098292448 0.4833759864
H -7.2156705311 -3.0347883980 1.3538944948
H -6.9118763328 -2.9565403228 -0.3922043783
H -4.7568708202 -2.9083895269 0.8987258970
H -5.3136467437 -1.4636311951 1.7757237028
H 3.0831193757 -1.6349527724 0.7423274306
H -0.4982178334 1.8221358273 -4.2749268717
H -2.6170468457 0.7235138614 -3.6551925326
H 3.0027771531 5.1606526706 -2.1986328019
H 3.3334885249 6.4426693126 -0.1040750247
H 2.5215984828 5.5249301560 2.0582014652
H 1.4200353234 3.2985818836 2.1231649794
H 0.1482512337 -0.8100553945 1.0394153459
H 0.9632115356 -0.9438182371 -0.5066950659
H 2.1364481216 -1.6847828564 2.2369217792
H 0.4562894052 -3.4632217268 2.4988655000
H -0.4070251698 -2.8890625268 1.0487362203
H -0.8801077670 -5.2811664586 1.5221414973
H -0.1153806902 -5.0399515553 -0.0757248622
H 3.0483034131 -6.2479081716 1.1532448453
H 2.2132970464 -5.6130368323 -0.2946836200
H 3.6484588716 -3.8644611961 0.6852850171
H 2.8744242027 -4.0728638418 2.2777046378
H -1.3957575298 0.7017166689 0.4695117436
H -4.0804132905 0.0509966352 -1.9789615037
