40
CONF58
C 2.2218242306 -2.8891106933 1.0195934418
C 2.7892289730 -1.5094997878 1.2489888036
O 3.2601590371 -1.0198233888 -0.0412507743
C 3.7549979482 0.2278365981 -0.0334522732
O 3.8529525038 0.9291761749 0.9442269238
C 4.1407208389 0.6905387544 -1.4322072904
C 3.0017090380 0.5325920740 -2.4440300536
C 1.7607284408 1.2169751019 -1.9321849130
C 0.7742028215 0.4672247262 -1.2942466400
C -0.3543907093 1.0540858545 -0.7327804917
C -0.4939218985 2.4386835983 -0.8107705178
C 0.4412817962 3.2172528932 -1.4682127723
C 1.5595276262 2.5995272563 -2.0141088668
Cl 2.7395721753 3.6135438727 -2.8199244608
F -1.5290482726 3.0394719369 -0.2121058853
N -1.3121841812 0.2639829178 -0.0735731491
C -2.6800622474 0.2791359369 -0.3037757952
O -3.3516182273 0.9865497440 -1.0203142118
N -3.1141267313 -0.7940670218 0.5125202692
C -2.0044940516 -1.3915690297 1.0936464390
N -0.9130004021 -0.7794444559 0.7484902105
C -2.0591569391 -2.5634694266 1.9967872765
C -4.4798571532 -1.1662569335 0.6008763764
F -4.8943994029 -1.1563563190 1.9036359632
F -4.6592612496 -2.4469295877 0.1520138664
Cl 5.6021821040 -0.2468778569 -1.9906151650
H 1.8875345851 -3.3053567916 1.9747344311
H 2.9747707605 -3.5593184015 0.5964796029
H 1.3619203671 -2.8473176664 0.3450926099
H 3.6356472914 -1.5153611937 1.9429500366
H 2.0335803565 -0.8124447542 1.6247019822
H 3.3228427123 0.9568577883 -3.3988601047
H 2.8020375584 -0.5312748764 -2.5894635343
H 0.8915364882 -0.6074422917 -1.2140611862
H 0.3047145425 4.2901975124 -1.5188522349
H -1.0408256237 -2.8178674347 2.2929396622
H -2.5179469174 -3.4218334710 1.4969541959
H -2.6509401577 -2.3412269217 2.8898175600
H -5.0849324815 -0.4739224833 0.0058116044
H 4.4586857046 1.7302877994 -1.3461668404
