51
CONF129
C -2.9762675692 3.3376501881 3.7031567593
C -3.3960589525 3.0922257117 2.2808400087
C -3.0153896152 1.9761387337 1.6361975157
C -3.4124106270 1.5948060979 0.2695800674
C -2.3826903131 1.3613665996 -0.8702568983
C -3.2177292187 0.2170529657 -0.2893739506
C -2.5568947622 -0.8680927738 0.5277665228
C -4.2987618398 -0.3030448693 -1.2138043145
C -0.9429013286 1.4893919321 -0.6230230456
O -0.3453286824 1.2874857653 0.4176698783
O -0.3162777677 1.8970219214 -1.7671345433
C 1.1222957213 2.0182059818 -1.6999595653
C 1.7847338012 0.6986395916 -1.9090318014
C 3.1925556019 0.4374070672 -1.8230666284
C 3.3658405579 -0.8848546911 -2.0957541049
O 2.1495478509 -1.4674088741 -2.3433249034
C 1.1973880554 -0.4844607497 -2.2280659050
C 4.5546115054 -1.7753333576 -2.1372469469
C 4.5134758856 -2.8492336379 -1.0664925535
C 4.4403164779 -4.1998612928 -1.4080724556
C 4.3921631713 -5.1809265764 -0.4179450282
C 4.4153593986 -4.8191499103 0.9260507259
C 4.4871505372 -3.4704621359 1.2754242999
C 4.5339175703 -2.4939243645 0.2855748290
C -4.2425469631 4.1811521416 1.6873920741
H -2.4005291882 4.2689119502 3.7809478176
H -2.3686774435 2.5180303702 4.0955438216
H -3.8548821871 3.4611699604 4.3494432097
H -2.3802538171 1.2796383139 2.1752182431
H -4.2904800273 2.1064572335 -0.1137683908
H -2.6914193183 1.7086029006 -1.8504392727
H -3.3011395870 -1.3338495788 1.1834850191
H -2.1640190832 -1.6435958643 -0.1391358690
H -1.7337628027 -0.4999818607 1.1388590379
H -4.7615127036 0.5070246796 -1.7845161893
H -3.8842583486 -1.0322288183 -1.9188164812
H -5.0800288057 -0.8012090556 -0.6284994925
H 1.4157848016 2.4562744746 -0.7405746114
H 1.3820629399 2.7189347689 -2.4990104556
H 3.9742849883 1.1448094261 -1.5854190011
H 0.1761144705 -0.7888407488 -2.3960177429
H 5.4392241525 -1.1442083232 -2.0022845738
H 4.6361244077 -2.2470034889 -3.1235611067
H 4.4216377977 -4.4863603199 -2.4562285061
H 4.3358671983 -6.2282138505 -0.6993787308
H 4.3783351065 -5.5815223389 1.6979888068
H 4.5079616749 -3.1800425456 2.3215874773
H 4.5856137648 -1.4434144248 0.5611321715
H -4.4839649282 4.0210244500 0.6357034738
H -3.7236371906 5.1439421419 1.7744014177
H -5.1805443723 4.2838587667 2.2479450706
