44
CONF81
C 5.1544545881 1.1898172137 -1.0476908900
C 3.7528570678 0.6128231730 -1.2158784631
C 2.7294696915 1.6039079840 -1.8854610215
N 1.4262458622 1.2138259400 -1.4054666144
C 1.3155760250 0.7288741372 -0.0258534724
S 3.0288236049 0.2844897615 0.4860402089
C 0.3266974318 -0.3742090085 -0.5448819176
C 0.5414389405 0.2815635849 -1.9319216305
O 0.1739771773 0.0662207880 -3.0626889264
N -0.9927500495 -0.4957813182 -0.0112633997
C -1.9125285841 0.4920436486 -0.1423210448
O -1.6566325823 1.5526786219 -0.7096847427
C -3.3234569915 0.1761088174 0.3815592087
C -3.3413614277 -0.8083492939 1.5281655373
C -3.8348918778 -2.1013812379 1.3551352854
C -3.8335408118 -3.0200445838 2.4021899796
C -3.3319669819 -2.6415139752 3.6468710067
C -2.8337363142 -1.3491781768 3.8381651846
C -2.8426459407 -0.4467567308 2.7855436469
O -3.3024259669 -3.4879060641 4.7180227488
N -3.9577222594 1.4436500341 0.7579522149
C 3.0061189701 3.0564960777 -1.5288011152
O 3.8177568306 3.6316386917 -2.4331356827
O 2.5672713118 3.6202285761 -0.5522942240
C 3.8004244924 -0.6779243382 -2.0338460227
H 5.8016482358 0.4534740505 -0.5631845075
H 5.1559714232 2.1002542133 -0.4424982530
H 5.5771684816 1.4157387302 -2.0319278372
H 2.7738708227 1.4835188624 -2.9725605807
H 0.8851838181 1.4411572907 0.6814917307
H -1.2377099219 -1.3275381371 0.5062439936
H -4.2297389637 -2.4001114459 0.3875323282
H -4.2258782334 -4.0228555656 2.2553362253
H -2.4452706888 -1.0692521129 4.8121872115
H -2.4564965414 0.5567705718 2.9368118464
H -3.6708449580 -4.3445320080 4.4634548573
H -4.9581076228 1.2933596024 0.8378576610
H -3.8181525776 2.1089030396 0.0026645196
H 4.4098362757 -1.4245772918 -1.5184239187
H 2.8045215602 -1.1008081451 -2.1909346708
H 4.2490844294 -0.4739553955 -3.0129950947
H 4.0016824407 4.5428843634 -2.1445916044
H -3.8136717128 -0.3126367301 -0.4821153847
H 0.8119250442 -1.3543570197 -0.5354934926
