32
CONF65
C -2.7339970362 0.1716117707 3.0061074529
C -1.4793628224 0.5746627800 2.2726835097
O -0.6623909530 -0.6297441817 1.9942944468
P -0.5273018962 -1.2164805982 0.5259972475
S 0.6250025650 -2.7715541962 0.4355778984
O -2.0410523767 -1.3413623106 0.0492108183
C -2.3695177149 -1.8252621042 -1.3014748535
C -3.8721362812 -1.9070623323 -1.3918136878
O -0.0632989106 0.0355134277 -0.4365523911
C 1.2332158639 0.4787536477 -0.5661925791
C 2.0809822509 0.6216967179 0.5329185656
C 3.3608194124 1.1148539974 0.3364626741
C 3.7627202885 1.4585831395 -0.9514468280
C 2.9174028402 1.3244843303 -2.0505686692
C 1.6411740820 0.8265524393 -1.8531532492
N 5.1135378425 1.9796728101 -1.1564276486
O 5.8493887379 2.0862287557 -0.1770584174
O 5.4491046066 2.2869038523 -2.2987553004
H -3.3644049959 -0.4675255870 2.3826696531
H -2.4897836622 -0.3563509661 3.9318194380
H -3.2984095689 1.0741259488 3.2615863393
H -1.6988093144 1.0881647335 1.3323287709
H -0.8318890035 1.2093762697 2.8815736276
H -1.9542508823 -1.1174145140 -2.0255682184
H -1.8979174464 -2.8039798771 -1.4354728656
H -4.3261971023 -0.9248718847 -1.2352325041
H -4.2684946262 -2.6080869711 -0.6524404357
H -4.1475132288 -2.2617394076 -2.3894249041
H 1.7439884877 0.3621490740 1.5298881134
H 4.0374281920 1.2373592024 1.1724269069
H 3.2570541987 1.5989880360 -3.0409690369
H 0.9549090519 0.7017540027 -2.6829933658
