55
CONF79
C -7.9298000670 -2.9624767415 0.4723590085
C -6.5688387753 -2.5459561468 0.9759726964
O -5.9379170360 -1.7769117215 -0.0889870591
C -4.6942364880 -1.3176870843 0.1876160261
O -4.1039483511 -1.5115629585 1.2365199529
N -4.2273870654 -0.6165600200 -0.8922943574
C -2.9942711585 0.0321186498 -1.0342926709
C -1.9761957984 -0.0313732251 -0.0793423977
C -0.7718419097 0.6199175321 -0.3242985039
C -0.5856517472 1.3844942362 -1.4775283998
C -1.6114495512 1.4578933851 -2.4197088529
C -2.7964863898 0.7730778947 -2.2097439785
S 0.9436198352 2.2610687651 -1.7282409000
C 1.2793495582 2.6736032852 -0.0311229698
C 1.9021632713 3.8774472972 0.2980588079
C 2.1311389319 4.1917079097 1.6332361183
C 1.6977777115 3.3318168279 2.6417105111
C 1.0618947369 2.1392058699 2.3151357005
C 0.8963623663 1.7823144777 0.9776425762
N 0.3057707610 0.5364493244 0.6113291803
C 0.8429889921 -0.7102035916 0.9315641621
O 0.2893425507 -1.7439416950 0.5727702644
C 2.1337174239 -0.7562104127 1.7163269219
C 3.1860778648 -1.6998989354 1.0834100214
N 3.8523775286 -1.2390774870 -0.1312018341
C 2.9895166344 -1.2067646392 -1.3138318240
C 3.8243544225 -0.8809536888 -2.5419006340
O 4.4987829417 0.3746870511 -2.3917562040
C 5.3414814391 0.3433555674 -1.2341175776
C 4.5346520707 0.0470270987 0.0200131616
H -7.8423096647 -3.5831466194 -0.4237156735
H -8.5458121328 -2.0891584162 0.2407427943
H -8.4348813636 -3.5453214405 1.2479434159
H -5.9358934797 -3.4088849816 1.2049773496
H -6.6380639363 -1.9151412238 1.8676873237
H -4.8662335477 -0.5371734955 -1.6707643808
H -2.1042879317 -0.5959403513 0.8305399019
H -1.4832680223 2.0542853291 -3.3170506067
H -3.5872113797 0.8280352598 -2.9517508758
H 2.1980484396 4.5636250913 -0.4890377940
H 2.6235222145 5.1249805745 1.8857699169
H 1.8457618768 3.5932435303 3.6840480586
H 0.7144155959 1.4627949831 3.0895860718
H 2.5666908897 0.2280504180 1.8872715739
H 1.8786559305 -1.1693096359 2.7002256432
H 3.9592143466 -1.8660174287 1.8438160896
H 2.7151141141 -2.6657879423 0.8699388539
H 2.5145187094 -2.1866703326 -1.4421885509
H 2.1890567587 -0.4474914211 -1.2294642109
H 4.5651481320 -1.6785005869 -2.7156123802
H 3.1846607914 -0.7871405761 -3.4243641164
H 6.1243041807 -0.4212146474 -1.3671632620
H 5.8110866528 1.3287976324 -1.1633672493
H 3.8266391381 0.8845788497 0.1808854968
H 5.2077795824 0.0018997121 0.8857511728
