46
CONF25
C 4.8495202909 2.9688025259 -1.7053401042
C 5.4360011079 1.7056297370 -1.1092592737
O 4.7203031874 0.5273073015 -1.5653429696
C 3.5869839403 0.1896737517 -0.9465340988
N 2.9853320993 -0.8772025003 -1.4753443707
C 1.8687673786 -1.2438125467 -0.8319353619
N 1.3795644427 -0.6397593627 0.2791744830
C 2.0493911962 0.4373024578 0.6582882713
N 3.1684681801 0.9199960274 0.0933393278
N 1.5692124251 1.1777769157 1.7234895728
C 0.3886246376 1.0381184746 2.4757058138
O -0.0059434676 1.9559592930 3.1658048183
N -0.2012484530 -0.2107436546 2.3777959300
S -1.7472594228 -0.5355134955 3.0155403389
O -1.9941027601 -1.9328440088 2.6488553399
O -1.8009055151 -0.0836290376 4.3986003762
C -2.8468485886 0.4966110575 2.0334349365
C -3.2476662344 1.7147228333 2.5678118726
C -4.1513877631 2.5006500517 1.8602079813
C -4.6610469997 2.0539368405 0.6460172895
C -4.2626328911 0.8270034792 0.1248717747
C -3.3346703118 0.0397879390 0.8052042309
C -2.8507813012 -1.2201040059 0.1548459801
O -1.7160167878 -1.3920220558 -0.2374065305
O -3.8541543415 -2.0911032313 -0.0116020950
C -3.4743594271 -3.3495098941 -0.6144564819
N 1.1575480452 -2.2884013307 -1.2941759235
C 1.4758482435 -2.9568536959 -2.5443955120
H 3.8340239584 3.1364024857 -1.3393171157
H 5.4656201694 3.8273555586 -1.4195413682
H 4.8303695944 2.9058883194 -2.7968220245
H 6.4554602590 1.5368429620 -1.4648738623
H 5.4327868698 1.7330829307 -0.0166553076
H 2.0479869749 2.0509066682 1.8919478665
H 0.0873625863 -0.7793793931 1.5611844771
H -2.8526521945 2.0264817315 3.5275914466
H -4.4644157124 3.4559236162 2.2673893587
H -5.3776749423 2.6593864407 0.1010955444
H -4.6645633483 0.4750389725 -0.8193252909
H -4.3898759962 -3.9381110212 -0.6536774451
H -2.7231185115 -3.8422274058 0.0078971410
H -3.0753295462 -3.1848644853 -1.6188614782
H 0.2302127618 -2.3797801334 -0.9025672982
H 1.2945887626 -2.3125799002 -3.4141825804
H 2.5277559627 -3.2505629527 -2.5556923918
H 0.8549211351 -3.8515846460 -2.6258426124
