49
CONF108
C -1.7006821309 -0.4062139027 -1.3362789881
C -2.5849702961 -1.1090281374 -0.3248186373
C -2.7994473611 -0.5439907068 1.0931676097
C -1.9877619804 -1.8400695280 0.8428532209
C -2.6340092075 -3.1108622108 1.3619301616
C -0.4893249205 -1.8616174284 1.0620303022
C -2.2653319440 0.6918960762 1.6692207118
O -2.7890541724 1.2973364651 2.5872898424
O -1.1070295223 1.1354155098 1.0929998333
C -0.5504733795 2.3453506943 1.6523522090
C -0.0022926569 2.0656170295 2.9867370690
N 0.4640017502 1.8668668214 4.0247733391
C 0.5326477191 2.8233861026 0.7134916995
C 1.5254779815 1.9294618827 0.3156555758
C 2.5063141101 2.3616789707 -0.5696589758
C 2.5248991757 3.6793328327 -1.0285196523
C 1.5393270070 4.5611556692 -0.6049510943
C 0.5297606917 4.1387977780 0.2593301283
O 3.5289111174 1.5425488066 -0.9928581589
C 3.2995751686 0.1701782165 -1.0223561646
C 4.1886576102 -0.6514671786 -0.3420314901
C 4.0189158303 -2.0331288184 -0.4117782226
C 2.9688488847 -2.5778540293 -1.1467751678
C 2.0876778901 -1.7361412367 -1.8248223759
C 2.2499736303 -0.3557447356 -1.7709682230
C -3.8428022372 -1.6440582224 -0.9873221759
H -2.2203862775 0.4662370840 -1.7471716091
H -1.5036104718 -1.0973459462 -2.1640213756
H -0.7453343501 -0.0720806303 -0.9393026029
H -3.7877358405 -0.7311354337 1.5018856764
H -2.2937007974 -3.9684679733 0.7697618186
H -2.3330822900 -3.2802733414 2.4012109823
H -3.7234752558 -3.0815674940 1.3280792329
H 0.0271157690 -0.9771589166 0.6955853187
H -0.0687881651 -2.7336110716 0.5479285923
H -0.2693957370 -1.9660499004 2.1303097635
H -1.3322338826 3.1042461020 1.7637777611
H 1.5289419714 0.9098306277 0.6850438868
H 3.3065442734 3.9929984356 -1.7122008422
H 1.5478039076 5.5845321057 -0.9653422377
H -0.2507161129 4.8241986863 0.5726786828
H 4.9964273881 -0.2086408004 0.2311131803
H 4.7090630886 -2.6827296486 0.1172328422
H 2.8372204009 -3.6538541702 -1.1933675272
H 1.2701834476 -2.1544244451 -2.4037379261
H 1.5733089931 0.3091651543 -2.2983276250
H -4.5690640070 -2.0375524442 -0.2752654007
H -4.3287861277 -0.8423295980 -1.5536870128
H -3.5821076819 -2.4428320647 -1.6912064550
