18
CONF4
C 0.6592303279 1.0923655604 0.0201745736
C 1.1727301599 -0.2062326177 0.0887659979
C 0.3361620049 -1.3228309530 0.0094480677
C -1.0335865333 -1.1376185379 -0.1345672583
C -1.5618022038 0.1573650296 -0.1818151766
C -0.7138364991 1.2675224165 -0.1169535021
O -1.2207269768 2.5255924607 -0.1833041692
O -2.9139875164 0.3633325021 -0.3813881488
O -1.8418915354 -2.2267941467 -0.2229444372
C 2.6260150813 -0.4511270583 0.2385103760
O 3.1360131887 -1.5550435979 0.3120300908
O 3.3521852754 0.6867721492 0.2865239827
H 1.3031819086 1.9606298883 0.0772043135
H 0.7465109984 -2.3247191026 0.0509213374
H -2.1837114900 2.4585871717 -0.2858997662
H -3.4006890527 0.2081507431 0.4429754165
H -2.7480324612 -1.9332282577 -0.4043524801
H 4.2862347101 0.4372760380 0.3846706660
