57
CONF219
C -4.9795335309 -2.3114563889 2.1949416365
C -3.8063235922 -2.4926737935 1.2421356254
C -2.9485754308 -1.2370830360 1.1286205626
O -3.2005159333 -0.2392997693 1.8109393187
N -1.9066908308 -1.2832131702 0.2383343965
C -1.6846603329 -2.4864237485 -0.5167374007
C -2.2257339915 -2.6238247227 -1.7939838696
C -2.0065040085 -3.7934419640 -2.5166146887
C -1.2479994226 -4.8254505396 -1.9673178056
C -0.7072129993 -4.6854193195 -0.6905915207
C -0.9233844676 -3.5168572280 0.0341592223
C -1.0139619511 -0.0859947199 0.0095297689
C -0.3262299941 0.3093316788 1.3325222396
C 0.7870447138 1.3375702717 1.1520052531
N 1.8020709436 0.8734912371 0.1984116248
C 1.1660417396 0.6224754874 -1.1011543014
C 0.0963770746 -0.4583747664 -0.9900098288
C 2.8839278603 1.8495203301 0.0494285993
C 3.8146592902 1.8960579327 1.2718943392
C 4.9816918109 2.8037246917 1.0544965204
C 6.2973203091 2.4731254757 0.8580745458
C 7.1470620669 3.5961919466 0.6505576683
C 6.4769716834 4.7868844132 0.6865357602
S 4.7830093195 4.5394527361 0.9770795904
C -1.8591946571 1.0754278754 -0.5259492521
O -2.4606859836 0.6998146795 -1.7622224604
C -3.2717528037 1.7494506129 -2.2814675546
H -5.5649526755 -3.2342380062 2.2410533905
H -5.6369292443 -1.5031390756 1.8634837894
H -4.6360725661 -2.0711928257 3.2044427095
H -3.1706342555 -3.3236162661 1.5699438071
H -4.1580749164 -2.7728519501 0.2423966853
H -2.8094331954 -1.8089671200 -2.2090814926
H -2.4296108944 -3.8980815265 -3.5109304702
H -1.0784850825 -5.7363235256 -2.5328386938
H -0.1140091858 -5.4853212777 -0.2585511671
H -0.5058356736 -3.3951432323 1.0292471250
H 0.0985693189 -0.6038179004 1.7670206845
H -1.0625543137 0.7003762768 2.0367701879
H 1.2560665356 1.4993335030 2.1277620343
H 0.3684979631 2.3131359840 0.8342680372
H 1.9345471625 0.2747876186 -1.8008724973
H 0.7425312840 1.5522737851 -1.5294852893
H -0.3259071512 -0.6498048306 -1.9798898281
H 0.5813581402 -1.3796678844 -0.6522035090
H 3.4834402846 1.5629893943 -0.8232261404
H 2.4871078263 2.8652726296 -0.1498252996
H 3.2579637337 2.2100187824 2.1615469202
H 4.1981035337 0.8881979736 1.4643851106
H 6.6433427680 1.4452111525 0.8676772867
H 8.2155072899 3.5229862460 0.4826948527
H 6.8670002510 5.7882469812 0.5618913489
H -2.6304267598 1.3404000774 0.2072702992
H -1.2178456119 1.9550708164 -0.6786132185
H -2.6749023747 2.6526375056 -2.4778019758
H -3.7038833942 1.3920987832 -3.2191706302
H -4.0816964675 2.0069997171 -1.5829826555
