39
CONF105
C 5.5537160420 0.1027811850 -0.5189079314
C 4.5199311684 -0.8819811383 0.0281432821
C 3.1305140041 -0.2745133404 0.2389848794
C 2.4820426746 0.1935596835 -1.0652884196
N 1.1096562745 0.6626415410 -0.8782999678
C 0.0946364302 -0.2293248591 -0.7789588569
O 0.2297616393 -1.4395129055 -0.9282533691
N -1.1699291494 0.3423145634 -0.4915858756
C -1.5830962900 1.6833647261 -0.5906526723
C -1.0620470202 2.7922058255 -1.2464279675
C -1.7899819094 3.9798054607 -1.1593136381
C -3.0003424810 4.0445466496 -0.4632713523
C -3.5374497098 2.9196927561 0.1541646506
C -2.8230521737 1.7284590989 0.0818888511
N -3.1805365482 0.4797805840 0.5658398408
C -2.2103915508 -0.3115693038 0.2199022739
N -2.0933468746 -1.6552313969 0.4606700841
C -2.9055474309 -2.3976569605 1.3066049780
O -3.8085662630 -1.9966219104 1.9925898618
O -2.4886309902 -3.6924322914 1.2315424457
C -3.2369892489 -4.5905427619 2.0727654633
H 6.5467515523 -0.3540894517 -0.5578223179
H 5.6214619991 0.9932736289 0.1161258750
H 5.3102285387 0.4327505208 -1.5337008755
H 4.8718592960 -1.2784334818 0.9873102230
H 4.4350561065 -1.7439975955 -0.6460854595
H 2.4703382696 -1.0200494874 0.6958557700
H 3.1970546593 0.5726553761 0.9352543223
H 2.4540859586 -0.6305052122 -1.7850003731
H 3.0476296276 1.0151708661 -1.5162109961
H 0.9687593541 1.5823988853 -0.4876312769
H -0.1566152038 2.7517363638 -1.8409496023
H -1.4097187406 4.8654129548 -1.6569022895
H -3.5374661017 4.9861618114 -0.4196592741
H -4.4897169519 2.9496531406 0.6716066670
H -1.3252294604 -2.1222269508 -0.0140057522
H -2.7948525884 -5.5731629461 1.9089109397
H -4.2925687021 -4.5897669628 1.7887991765
H -3.1474064118 -4.2967481575 3.1219690856
