41
CONF81
C 5.7561961153 -0.7575962260 1.6199752904
C 5.9373122363 0.3176095684 2.6709528320
O 4.6521826643 0.8204421094 3.1324561357
C 4.0677603638 1.7646150852 2.3485023837
O 4.5820976923 2.2540146161 1.3516012493
N 2.8551112647 2.1143230892 2.8487194967
C 1.9545120160 2.9685542217 2.0901443002
C 1.2158133224 2.2294650888 0.9899974235
O 0.3787193205 1.2524202585 1.6282978607
C -0.3472894120 0.4140859086 0.8330176376
C -1.1047565191 -0.5528221694 1.5032024854
C -1.8865787034 -1.4470461600 0.7858352724
C -1.9043111315 -1.3808581932 -0.6031544716
C -1.1522878772 -0.4306316062 -1.2783813899
C -0.3715154717 0.4762125272 -0.5638438216
O -2.6357918298 -2.3330982507 -1.3095546183
C -3.7730117543 -1.9236940590 -1.9737510513
C -4.3087627305 -2.8365634493 -2.8831019984
C -5.4735791228 -2.5139892908 -3.5691036951
C -6.1049712586 -1.2880299012 -3.3578727458
C -5.5591127458 -0.3880562478 -2.4467987338
C -4.3930613885 -0.6954956550 -1.7475739260
H 5.2764184091 -0.3519782030 0.7254256323
H 5.1491094037 -1.5802677444 2.0088265430
H 6.7353814120 -1.1560695431 1.3357976933
H 6.5340369216 1.1537381853 2.2971009422
H 6.4043323819 -0.0822954141 3.5738132074
H 2.4672463647 1.5383833446 3.5802161800
H 2.5306536913 3.7798986434 1.6362339337
H 1.2354116071 3.4102625298 2.7867307676
H 0.6032384341 2.9350523853 0.4121147597
H 1.9266495915 1.7329222468 0.3164710970
H -1.0726631193 -0.5896588767 2.5871720201
H -2.4801851186 -2.1986428849 1.2959373496
H -1.1770438550 -0.3940511976 -2.3630040788
H 0.2082772825 1.2130053012 -1.1057245378
H -3.8067806782 -3.7858686871 -3.0390904504
H -5.8878188405 -3.2257120804 -4.2766399968
H -7.0124566224 -1.0388201822 -3.8975723704
H -6.0429555700 0.5676376853 -2.2694142785
H -3.9755257407 0.0086033224 -1.0368018248
