32
CONF1
C 2.2455100737 -3.0116803594 0.0210423712
C 3.1876350325 -2.0134603005 0.0902340799
C 2.7869218512 -0.6574959662 0.1076667671
C 1.3931116501 -0.3288572948 0.0538400684
C 0.4297427253 -1.3809891849 -0.0171185740
C 0.8803750969 -2.6967089167 -0.0321046947
C -0.9987063331 -1.0437170138 -0.0715737717
C -1.9868623329 -2.0200165664 -0.1402459017
C -3.3489032547 -1.6920474166 -0.1928326400
C -3.7483617656 -0.3772173060 -0.1774642114
C -2.7869218092 0.6574959568 -0.1076667961
C -1.3931116118 0.3288572168 -0.0538401691
C -0.4297428134 1.3809890278 0.0171210224
C -0.8803754282 2.6967086115 0.0321139285
C -2.2455104675 3.0116800632 -0.0210316605
C -3.1876352084 2.0134601727 -0.0902287586
C 0.9987064694 1.0437169810 0.0715711008
C 1.9868627217 2.0200167377 0.1402366661
C 3.3489037194 1.6920476861 0.1928219740
C 3.7483620233 0.3772174531 0.1774588821
H 2.5502459853 -4.0533442482 0.0071683920
H 4.2474644486 -2.2466926550 0.1319950069
H 0.1754263406 -3.5171055313 -0.0859989551
H -1.7194272569 -3.0692951170 -0.1546241568
H -4.0843321211 -2.4885567744 -0.2458783819
H -4.8006936974 -0.1120121726 -0.2180151160
H -0.1754267961 3.5171050613 0.0860125527
H -2.5502465793 4.0533438345 -0.0071525149
H -4.2474646300 2.2466925219 -0.1319894721
H 1.7194277385 3.0692953841 0.1546106578
H 4.0843327676 2.4885571984 0.2458626445
H 4.8006939616 0.1120123172 0.2180096602
