63
CONF39
C 4.8094471361 -0.3867117073 5.1898899812
O 3.9837864977 0.1903385127 4.1461536860
C 4.4940863979 0.0951040093 2.9187247914
O 5.5608818564 -0.3829496876 2.6136242788
O 3.6078975353 0.6746131371 2.0736644637
C 3.8896117132 0.5027989560 0.6773734846
O 3.6014235692 -0.8200628664 0.2730377906
C 2.2898828420 -1.1867377209 0.3810564689
C 1.3380314687 -0.8042664702 -0.5348450223
C 1.6498796661 -0.0760918518 -1.8128331881
O 2.7802284314 0.3410836765 -2.0579048114
N 0.6150809586 0.0442386699 -2.6957650986
C 0.8881973151 0.2300833115 -4.1241729570
C 0.7807244877 -1.1355080939 -4.7995144024
O -0.5005828709 -1.7328329721 -4.5550057253
C -0.7470464271 -1.9279352642 -3.1618348612
C -0.7006018173 -0.5694927448 -2.4576375892
N -1.0156293502 -0.6357053959 -1.0485805988
N 0.0426581704 -1.2675906872 -0.3634696855
C -0.2945948473 -2.1212198934 0.6378398200
C 0.6266987165 -2.5558710937 1.5373283109
C 1.9806423719 -2.0763063831 1.5111245271
O 2.8444840664 -2.3781327230 2.3547982604
C -1.2904109073 0.7329200860 -0.4451344841
C -2.4914892442 1.3731949222 -1.0995665117
C -3.7506534989 0.7479846973 -1.1249829019
C -3.9742881864 -0.6017681539 -0.5272912168
S -3.9670846125 -0.5540154145 1.3086394991
C -2.4033714571 0.1214478229 1.8373508146
C -2.2819837767 0.0958084595 3.2371100195
C -1.1495176114 0.5749233676 3.8746865138
C -0.1061122760 1.1113441560 3.1242960866
C -0.2251229921 1.1485779910 1.7443561431
C -1.3515086789 0.6547085500 1.0667401571
C -4.8049849225 1.4373313405 -1.7121213486
C -4.6329926726 2.6988036830 -2.2675798008
C -3.3979214386 3.3143872887 -2.2483727531
C -2.3313779363 2.6395980456 -1.6628099778
F -5.6939745556 3.3059175875 -2.8316205187
F -6.0332700316 0.8842900823 -1.7590044288
H 4.9566455966 -1.4522750835 5.0004692188
H 4.2504040786 -0.2330858161 6.1115532881
H 5.7731187755 0.1256390754 5.2327407998
H 4.9477515501 0.6629335378 0.4682897036
H 3.2468921476 1.2278525411 0.1760785384
H 1.8858607151 0.6536647331 -4.2511865575
H 0.1434844167 0.9208174530 -4.5358619548
H 0.8707484445 -1.0339675385 -5.8840686547
H 1.5792446431 -1.7964522353 -4.4273987077
H -0.0013852866 -2.6116422613 -2.7254713313
H -1.7456567229 -2.3637158718 -3.0715768679
H -1.4511499277 0.0791905960 -2.9260527273
H -1.3401319012 -2.4072601978 0.6596219016
H 0.3271466208 -3.2452845569 2.3179733872
H -0.4372266158 1.3851112875 -0.6713329050
H -3.2323528728 -1.3213600074 -0.8717516313
H -4.9714480395 -0.9796976054 -0.7620720217
H -3.0937375220 -0.3168195319 3.8300551156
H -1.0867059378 0.5297743036 4.9571464823
H 0.7872259900 1.4945383317 3.6053555626
H 0.5863425859 1.5663723032 1.1550215501
H -3.2800439894 4.2980174976 -2.6891065979
H -1.3541525258 3.1113491127 -1.6443303226
