56
CONF819
C -0.5350305412 4.3023741809 2.2663362346
C 0.4300910257 3.2110049293 1.8647312024
O -0.0971418549 1.9701522814 2.3721543758
C 0.5824082617 0.8224514693 2.0869059700
C 1.8096622298 0.7665787890 1.4212229266
C 2.4014760648 -0.4718499374 1.1773585804
C 1.8120835703 -1.6753559110 1.5747747515
C 0.5912715913 -1.5883947929 2.2534598872
C -0.0175505373 -0.3663156761 2.5083695815
C 2.4535744527 -3.0129533713 1.1974619904
C 1.7219271380 -4.2133635536 1.8109710173
C 3.9241692011 -3.0620969554 1.6484169742
C 2.4288441992 -3.1403727936 -0.3351950333
O 1.0799789881 -3.0189232918 -0.7798960256
C 0.9242286273 -2.7542106546 -2.1764965163
C -0.1922812377 -1.7577511034 -2.3501786780
C -0.0907079001 -0.5243935701 -1.7034583272
C -1.1027014621 0.4148443414 -1.8408387083
C -2.2321940508 0.1473255400 -2.6165931002
C -2.3285735175 -1.0856412635 -3.2524407471
C -1.3178776067 -2.0388446309 -3.1227196227
O -0.8885807968 1.6442118120 -1.2422794883
C -1.9791930932 2.3597303008 -0.7750473949
C -2.0538272316 3.7062534121 -1.1127277896
C -3.0933441209 4.4779353722 -0.5985973906
C -4.0471627250 3.9058296997 0.2397923651
C -3.9543876496 2.5542207293 0.5714823540
C -2.9189210809 1.7726104550 0.0689299685
H -1.5288914736 4.1059709299 1.8538022750
H -0.1839418358 5.2626900708 1.8774096106
H -0.6089943408 4.3745533476 3.3553094901
H 1.4275079036 3.3871850637 2.2901789072
H 0.5224552579 3.1448502896 0.7721078168
H 2.3070706298 1.6670331733 1.0813979622
H 3.3458787772 -0.4808428377 0.6409172912
H 0.0843402967 -2.4875655437 2.5837097236
H -0.9694145424 -0.3189564146 3.0286897648
H 2.2386031395 -5.1347717602 1.5234726086
H 1.7194178148 -4.1535249961 2.9042042842
H 0.6884402027 -4.2846033888 1.4630373067
H 4.3791318762 -4.0129738058 1.3499730258
H 3.9843935830 -2.9801804087 2.7381196260
H 4.5147956614 -2.2522386717 1.2114273060
H 2.8548719639 -4.1128564233 -0.6346659723
H 3.0428087368 -2.3444201676 -0.7834750768
H 0.7047883645 -3.6821753645 -2.7233890552
H 1.8563732308 -2.3336668919 -2.5819765469
H 0.7697836043 -0.2954064215 -1.0814667024
H -3.0155228997 0.8900434176 -2.7225168919
H -3.2037944306 -1.3035892636 -3.8566641056
H -1.4070519775 -3.0006760690 -3.6189098717
H -1.3023551478 4.1340274414 -1.7682326403
H -3.1559741044 5.5301411199 -0.8581350898
H -4.8561705889 4.5095323215 0.6376882542
H -4.6874965839 2.1046915222 1.2339965790
H -2.8312926747 0.7226748186 0.3299904689
