35
CONF2
C -2.4194583936 1.2381334156 0.8487343213
C -0.9530582232 0.9302483220 0.5224288445
C -0.1002590221 1.0326236356 1.7988701944
N 1.3579023313 1.0010238833 1.6759327419
C 1.9400570402 2.0949351621 0.9158069845
C 2.0174426558 1.8835197512 -0.5876561547
O 2.0682786988 2.7985700427 -1.3951140909
N 2.0899963615 0.5634918896 -0.9971401471
C 2.0517198617 -0.5587518325 -0.1735284054
O 2.1947892591 -1.6772916192 -0.6401987291
C 1.9604863314 -0.2718768315 1.3125738303
N -0.7315318103 -0.3643463844 -0.1558462295
C -1.3662956120 -1.5072331635 0.4903414833
C -0.9420366145 -2.8070500841 -0.1534531881
O -0.9010274203 -3.8661677825 0.4490730498
N -0.6486926627 -2.7394535997 -1.5038310710
C -0.6752483953 -1.5948823108 -2.2807035762
O -0.4151003031 -1.6338740778 -3.4714319774
C -1.0913226637 -0.3295058866 -1.5679732382
H -3.0644450441 1.0833046147 -0.0213063558
H -2.5191631952 2.2823545314 1.1583578238
H -2.7856480522 0.6081972088 1.6666748871
H -0.5988860044 1.6943874780 -0.1835800733
H -0.3890794935 0.2416234400 2.5024334771
H -0.3624919731 1.9821122090 2.2828054233
H 1.3932782474 3.0248024081 1.0951956223
H 2.9798569540 2.2590169736 1.2442591294
H 2.1693844606 0.3948793969 -1.9959450978
H 1.4286504767 -1.1025757327 1.7830420349
H 2.9998729846 -0.2998651799 1.6823743588
H -2.4737085987 -1.4803550681 0.4375966987
H -1.0904363012 -1.5709512388 1.5450234603
H -0.3547380139 -3.5990745843 -1.9571478219
H -0.5886253672 0.5038806306 -2.0672864208
H -2.1804616894 -0.2138499079 -1.7432874799
