39
CONF15
C -4.6317497712 1.8876260542 -3.7475996700
N -3.6233053437 1.3901183643 -2.8196689870
C -3.1715533887 0.1282527377 -2.7015260436
C -2.2119484118 0.1217460158 -1.6959721218
C -2.1765612907 1.4740758032 -1.2622048972
N -3.0423965257 2.2265559264 -1.9466234830
C -1.4508943189 2.1451629301 -0.1557269650
F -1.7754865630 1.5646353858 1.0526106198
F -0.0743967267 1.9898137357 -0.2888559993
C -1.5095552494 -1.1272716563 -1.3275692557
O -2.0099864530 -2.2199999403 -1.6034871614
N -0.2917758188 -0.9864942243 -0.7201417081
C 0.6279943125 -2.0102219698 -0.4115257447
C 1.6140318070 -1.7479434450 0.5615809198
C 2.6137620161 -2.6934808988 0.7990929669
C 2.5961111412 -3.8846043991 0.0995287131
C 1.6284849679 -4.1742375644 -0.8448100513
C 0.6477172993 -3.2254476192 -1.1063836995
F 3.5640175400 -4.8031422998 0.3522720793
C 1.6202716552 -0.4916600994 1.3497429272
C 2.6985995132 0.3890665807 1.2493382275
C 2.7271610836 1.5492347268 2.0145690089
C 1.6818069840 1.8338475241 2.8949715308
C 0.6095351720 0.9543798427 3.0032142265
C 0.5763080667 -0.1969097297 2.2309032972
Cl 1.6911039849 3.2835057726 3.8671836225
Cl 4.0863064211 2.6332516419 1.8496332595
H -4.9296547386 1.0675781223 -4.4012609408
H -4.2098721964 2.7007847115 -4.3423115669
H -5.4983688703 2.2505271132 -3.1895060695
H -3.5311376745 -0.6733570785 -3.3296146848
H -1.6661476605 3.2155992382 -0.1021149284
H 1.6493575860 -5.1169223325 -1.3804462859
H 3.5154281407 0.1781103743 0.5677514741
H -0.1979146572 1.1801084650 3.6902322572
H 3.3806802996 -2.5065053734 1.5431711580
H -0.0947917279 -3.4218042378 -1.8659635265
H -0.2646830980 -0.8764459267 2.3208141179
H 0.0205050491 -0.0452304306 -0.5201679922
