47
CONF3
C -4.3914567879 -3.3530092372 -0.8160071394
C -3.8574043192 -1.9806955786 -1.2200417888
C -3.9264937656 -0.9658610714 -0.0792315261
C -3.3790227788 0.4026579754 -0.4797136528
C -3.4278605585 1.4690174178 0.6236797528
C -3.1554293591 2.8629665939 0.0368983781
C -3.1956271581 4.0044391921 1.0509135505
C -2.4962542299 1.1395999167 1.7876172921
O -1.1113202517 1.2656221777 1.3799268328
C -0.4062696417 0.1160659230 1.1879680515
O -0.8565143311 -0.9992403735 1.3638996749
C 0.9581206594 0.4344046072 0.7530068074
C 1.8383123133 -0.5566118824 0.5209359589
C 3.2177034147 -0.4371754495 0.0944602441
C 3.8469088913 0.7961081232 -0.1668474774
C 5.1641193167 0.8558687494 -0.5662545379
C 5.9096064661 -0.3229171152 -0.7210757291
C 5.3110840961 -1.5594918118 -0.4705457340
C 3.9814699504 -1.6001569684 -0.0693984723
O 7.1974093121 -0.1523188184 -1.1160980477
C 7.9993453162 -1.3199428167 -1.2858067804
H -4.3334816115 -4.0675037383 -1.6429309059
H -3.8164512118 -3.7611266971 0.0219581725
H -5.4388333349 -3.2894968319 -0.5008486287
H -2.8138426633 -2.0739423053 -1.5477318182
H -4.4213034892 -1.6016471826 -2.0830652868
H -3.3571243704 -1.3613107625 0.7695610016
H -4.9698717331 -0.8600481218 0.2517407922
H -3.9483823078 0.7759577882 -1.3419536986
H -2.3418486578 0.2946607776 -0.8271403781
H -4.4420890142 1.4723633602 1.0555975914
H -2.1795477911 2.8494776260 -0.4639292793
H -3.9014810116 3.0467425131 -0.7459718619
H -4.1275030888 3.9901042227 1.6280425995
H -3.1327831293 4.9732741690 0.5465188355
H -2.3612196860 3.9503311054 1.7566229086
H -2.6240657047 1.8559038875 2.6040699339
H -2.6681878483 0.1303001275 2.1676219568
H 1.2025409514 1.4846961323 0.6389314357
H 1.4717440233 -1.5706851557 0.6758736541
H 3.2915502139 1.7210531729 -0.0546789560
H 5.6493029218 1.8046399906 -0.7677382821
H 5.8614355699 -2.4849893115 -0.5822990724
H 3.5195846021 -2.5638486782 0.1252165925
H 7.5855820825 -1.9758190891 -2.0620548514
H 8.0947626010 -1.8759224955 -0.3446707903
H 8.9810854288 -0.9624941522 -1.5976490147
