36
CONF12
C 1.3930794503 3.4898185123 -0.0200938254
C 2.3377076119 2.6596650255 -0.8998353242
C 1.6327415274 1.5094271599 -1.5491148806
C 1.9120314800 0.2214970183 -1.3469314779
C 1.1814907128 -0.9265005919 -1.9670980574
C 0.4880996734 -1.8370126474 -0.9420993795
C -0.6832111213 -1.2344400063 -0.1484334442
C -1.5578200161 -2.4541170993 0.2091740009
C -1.4878724433 -3.3433459995 -1.0324944511
C -0.1089263477 -3.0774357981 -1.6184745107
O 0.4313802862 -3.7196319192 -2.4885683050
C -0.2568936527 -0.4186509313 1.0632008268
C -1.3968210993 0.3314813543 1.7055724440
O -2.5059463706 0.4703460345 1.2434967297
O -1.0042439115 0.8763701030 2.8824287310
C -2.0119800398 1.6622408698 3.5535497889
H 0.5464821690 3.8666774662 -0.6032682448
H 1.9125878310 4.3489516350 0.4147848715
H 0.9905911663 2.8846446128 0.7989865775
H 3.1778077702 2.2868790093 -0.3023177237
H 2.7647101471 3.3112776192 -1.6743020657
H 0.8070687793 1.7673315491 -2.2160082489
H 2.7309296279 -0.0391846873 -0.6720423673
H 1.8742441068 -1.5550746797 -2.5417181784
H 0.4303826456 -0.5523117192 -2.6740019524
H 1.2438497122 -2.2213541657 -0.2350792448
H -1.2563223633 -0.5812974041 -0.8213145508
H -2.5731791790 -2.1616921499 0.4839898745
H -1.1128565878 -2.9759051425 1.0671146530
H -2.2190216791 -3.0226796287 -1.7880574834
H -1.6466387548 -4.4114970406 -0.8654509028
H 0.2234528915 -1.0519789162 1.8194605413
H 0.4908797258 0.3301085105 0.7745254150
H -2.3263069727 2.4978731503 2.9227018509
H -1.5385669535 2.0245233340 4.4658619064
H -2.8829095420 1.0449969488 3.7887800010
