36
CONF27
C 1.9098285904 4.2815820563 -2.0809857138
C 1.1213004466 3.4219866352 -1.0846581397
C 0.8457350258 2.0489854498 -1.6155811539
C 1.2766053104 0.9132584741 -1.0659272529
C 1.0219743726 -0.4567759281 -1.6105734153
C 0.3658805743 -1.4037096923 -0.6010532844
C -1.0902867846 -1.1196529942 -0.1967142008
C -1.5976953583 -2.4847296890 0.3100896710
C -0.9808501435 -3.4928767790 -0.6601659050
C 0.3246493958 -2.8444182368 -1.1100016072
O 1.1779849849 -3.3742428959 -1.7828020580
C -1.3312114395 0.0315152206 0.7944187837
C -0.6688490089 -0.1996329210 2.1271421864
O 0.5275069842 -0.2362221716 2.3181339145
O -1.5798725744 -0.3803643980 3.1139713107
C -1.0157857404 -0.6149754181 4.4227829937
H 2.8842070867 3.8306417938 -2.2910867159
H 2.0735276025 5.2902242795 -1.6895054963
H 1.3719241186 4.3714714775 -3.0305160502
H 0.1699834265 3.9250025190 -0.8596621628
H 1.6696865430 3.3449651078 -0.1386632600
H 0.2601870317 1.9985790023 -2.5366572125
H 1.8567749614 0.9586589443 -0.1421808890
H 1.9690868288 -0.9232698080 -1.9133087442
H 0.3987956118 -0.3949676295 -2.5122008495
H 0.9799807699 -1.4324970774 0.3139277834
H -1.6430059498 -0.8614974028 -1.1130354004
H -2.6891417547 -2.5320011250 0.3602286652
H -1.2136461612 -2.6597486583 1.3234560589
H -1.6005149716 -3.6124701694 -1.5593580958
H -0.8045360797 -4.4932073533 -0.2568523479
H -0.9147427114 0.9547386073 0.3788418051
H -2.4068068786 0.1638384613 0.9407692867
H -0.4048949871 -1.5215023222 4.4173666607
H -1.8691247639 -0.7281917505 5.0909928725
H -0.3946540620 0.2315057938 4.7262915512
