47
CONF498
C 5.0294375373 -1.7401309041 -0.5224970950
C 3.7668695962 -0.9659000196 -0.2873650530
C 2.5474186661 -1.6435940326 0.0043888250
C 2.5223984215 -3.1391247724 0.0730986489
C 1.3767349833 -0.9309320107 0.2212473503
C 1.3660389909 0.4687867252 0.1606497578
N 0.2260237537 1.2189964959 0.3770505133
C -1.0524283378 0.5442653587 0.6511403156
C -1.6916397455 0.0283181056 -0.6466771464
O -1.8265690214 1.0748250435 -1.6018528852
C -3.0557507062 -0.6163764243 -0.3718534533
O -3.9437216123 0.3980135893 0.1250959299
C -3.0038587562 -1.7554976112 0.6567883488
O -1.8743412912 -2.6090806877 0.4292773331
C -4.3009706313 -2.5570515035 0.6785825454
O -4.5118440184 -3.2415381489 -0.5652832098
C 0.2541989912 2.5904925920 0.2920316894
N -0.8584229248 3.2688946895 0.4933685399
C -0.8287706528 4.6306906889 0.4211031862
O -1.8219177231 5.3320790630 0.6047239068
N 0.3923958160 5.2695896572 0.1204437954
C 1.6026645163 4.6631620244 -0.1045635102
O 2.6220648413 5.2915653855 -0.3562803103
C 1.5373556446 3.1815684569 -0.0099791299
N 2.6348497621 2.5047274260 -0.2123541664
C 2.5783856931 1.1523856587 -0.1329390523
C 3.7566167383 0.4094632893 -0.3490508546
H 5.8637165249 -1.0675036787 -0.7296536210
H 4.9184029138 -2.4260880243 -1.3697259415
H 5.2849074538 -2.3517601546 0.3499122933
H 1.5230199885 -3.5080020918 0.3103425197
H 3.2212592153 -3.5052999309 0.8337273513
H 2.8406626661 -3.5763175369 -0.8803917920
H 0.4711362924 -1.4873876231 0.4299837363
H -0.8626413071 -0.2726979643 1.3495743006
H -1.7111887536 1.2681647724 1.1292977378
H -1.0391624293 -0.7145775345 -1.1135654160
H -2.4499023747 1.7166438915 -1.2299546408
H -3.4232532812 -1.0078568697 -1.3295838370
H -4.6894277835 0.4799682626 -0.4792995367
H -2.8615541227 -1.3191925282 1.6532774291
H -2.0044752074 -3.0382653110 -0.4284842029
H -5.1446838478 -1.8745312141 0.8268388921
H -4.2765528538 -3.2670741721 1.5139196518
H -4.1326099702 -4.1246015919 -0.4901642848
H 0.3665553233 6.2817297639 0.0738644541
H 4.6625736309 0.9660517770 -0.5682092249
