38
CONF6
C 5.0966087452 1.3453494407 -1.2094973839
S 3.4330610383 2.0387748088 -1.1285565654
O 2.6528059406 1.2886770302 -0.1449389122
O 3.5497197810 3.4949021887 -1.0869147723
N 2.7709926175 1.6872572847 -2.6806823520
C 2.0101691871 0.6042560135 -3.1085085690
O 1.8370087914 0.4013424563 -4.2908879247
C 1.2215821650 -0.1559110089 -2.0760588757
C 1.5777444874 -1.4075936109 -1.5751232831
C 0.7412261022 -2.1177589614 -0.7198178868
C -0.4670661252 -1.5685031032 -0.3339139701
C -0.8250278728 -0.3119690716 -0.8267102499
C -0.0000035024 0.3850624426 -1.7030103728
O -2.0258043890 0.2777723128 -0.5280783290
C -2.5678928177 0.0898774783 0.7208041377
C -3.9290441857 -0.2059646245 0.8179028717
C -4.5305181324 -0.3169209749 2.0654630306
C -3.7654049327 -0.1372145549 3.2121328366
C -2.4055111332 0.1560917413 3.1205264726
C -1.8102994078 0.2749330117 1.8751461142
C -4.3951076797 -0.3064529368 4.5656067846
F -5.7328234999 -0.1241471240 4.5316037831
F -4.1767178003 -1.5513205969 5.0615225455
F -3.8868992553 0.5665400032 5.4650656111
Cl -4.8718616345 -0.4313181751 -0.6249726480
N 2.8788850803 -1.9763179452 -1.9088795214
O 3.6765408728 -1.2430414408 -2.4998265907
O 3.1136821266 -3.1294278952 -1.5793547228
H 5.6408427338 1.8462582503 -2.0125971776
H 5.5578791737 1.5647613017 -0.2429576347
H 5.0229050707 0.2712841501 -1.3836380408
H 3.1625723717 2.2405164100 -3.4369657306
H 1.0542593773 -3.0908877114 -0.3629413986
H -1.1295404273 -2.1038475928 0.3361807142
H -0.3144502995 1.3547590863 -2.0718560791
H -5.5877205358 -0.5426765396 2.1317882937
H -1.8185710088 0.3093456941 4.0186920008
H -0.7582218056 0.5235127682 1.7817891255
