44
CONF13
C 2.4963665458 2.1046547774 -2.5813888965
C 2.7805121380 1.4058491778 -1.2965311891
N 2.0486203853 0.3116597293 -1.0174698705
C 2.3517248131 -0.2991278023 0.1308635524
N 3.3147956797 0.0749503216 0.9842490667
C 3.9751640755 1.1636071800 0.5959307940
N 3.7537504860 1.8781634701 -0.5208981010
O 4.9579554933 1.6402961143 1.3511764480
C 5.2688702161 0.9352345180 2.5794758546
N 1.6364941189 -1.4141053392 0.5127969419
C 0.5039080368 -2.0114347373 -0.0538261662
O -0.0202592043 -2.9706937191 0.4886697497
N 0.0508648354 -1.4252647448 -1.2108534269
S -1.3366492634 -1.9679231538 -2.0336231903
O -1.4821614018 -0.9943126233 -3.1257321700
O -1.1834656063 -3.3888471190 -2.3558001048
C -2.6764905128 -1.7853495466 -0.8488523990
C -3.3674754109 -2.9553157080 -0.5330251313
C -4.4578357482 -2.8963044152 0.3233132031
C -4.8467563484 -1.6698662976 0.8543521978
C -4.1441549372 -0.5155122671 0.5327616439
C -3.0387495376 -0.5347894959 -0.3248402595
C -2.3202908172 0.7694200673 -0.5797708203
C -1.5045522791 1.1898595402 0.6529342668
C -0.8736877950 2.5450235630 0.4829702896
F -1.7998619650 3.5294094949 0.3452745102
F -0.1048789585 2.8762785163 1.5516424061
F -0.0721495530 2.6162101631 -0.6118977319
H 2.7640578194 3.1596889915 -2.5130010894
H 3.1084496903 1.6484320961 -3.3693021043
H 1.4487437808 1.9865058378 -2.8626021449
H 6.0922433869 1.4958966126 3.0194472751
H 4.4028183877 0.9350789337 3.2449298677
H 5.5740913642 -0.0902410272 2.3601261621
H 1.9238222252 -1.8392126417 1.3855230774
H 0.5658210548 -0.6030179086 -1.5725328950
H -3.0481976618 -3.8994244147 -0.9572074613
H -4.9985624191 -3.8034224668 0.5702097311
H -5.7018656066 -1.6101908336 1.5198023972
H -4.4573276646 0.4375990047 0.9502834180
H -3.0750622549 1.5356692209 -0.7861752172
H -1.6714513189 0.7139877369 -1.4533730010
H -2.1372101230 1.2433225633 1.5441767584
H -0.6999791617 0.4775586201 0.8567375498
