21
CONF111
F -0.1321131819 -2.4037464464 0.3898605300
C 0.1303936751 -1.0746034114 0.5012220744
F 0.1232921397 -0.7501429729 1.8194897462
C 1.5684142233 -0.8123103847 -0.0540933466
F 1.6322716305 -1.3798865383 -1.3010642844
F 2.3853840562 -1.5663811279 0.7503801412
C 2.0037103290 0.6325920569 -0.0971609569
C 3.4421998067 0.8277274246 -0.5606890677
O 4.3296396914 0.5112723722 0.5171444209
C -1.0258578017 -0.2882482527 -0.1896409827
F -0.8614132448 -0.3121408515 -1.5335678309
F -0.9841626420 0.9989614228 0.2309405418
C -2.4595628398 -0.8333989888 0.1120664714
F -3.3607620334 0.0491477692 -0.3439948748
F -2.6376350342 -0.9897005142 1.4310927884
F -2.6667462195 -2.0047799687 -0.4996334516
H 1.3429127261 1.1573151956 -0.7936342030
H 1.8661208233 1.0771283086 0.8939579982
H 3.5544090306 1.8791492275 -0.8560835712
H 3.6494417178 0.2035365969 -1.4406736803
H 5.2302838018 0.6533394516 0.2010603323
