49
CONF109
C -1.6807775843 -0.4373653558 -1.3494333105
C -2.5819480184 -1.1145036764 -0.3354339528
C -2.8158675181 -0.5188858787 1.0663519116
C -2.0032576590 -1.8217789353 0.8560614134
C -2.6586882383 -3.0805443618 1.3923432932
C -0.5082611370 -1.8397624598 1.0980004148
C -2.2858944803 0.7261150176 1.6264366998
O -2.8164981046 1.3462660215 2.5305737001
O -1.1228724955 1.1603235159 1.0522622228
C -0.5674114651 2.3756748876 1.6011711401
C -0.0365128169 2.1119151641 2.9457036317
N 0.4185703366 1.9202229671 3.9900226307
C 0.5299341615 2.8351448894 0.6695133803
C 1.5263779855 1.9324651410 0.3015821399
C 2.5211956360 2.3473983236 -0.5764683054
C 2.5497782480 3.6569903778 -1.0572622307
C 1.5601723592 4.5480535737 -0.6633213301
C 0.5369577224 4.1426697704 0.1929827136
O 3.5482450962 1.5189663104 -0.9699798179
C 3.3145108643 0.1471331412 -0.9847968382
C 4.1921269314 -0.6684727071 -0.2826950904
C 4.0187608815 -2.0503888841 -0.3369112856
C 2.9763647739 -2.6012587025 -1.0782713242
C 2.1067040533 -1.7655901004 -1.7783461654
C 2.2729448908 -0.3851027758 -1.7401941315
C -3.8315506276 -1.6609226433 -1.0042786406
H -2.1909138727 0.4272701749 -1.7879771956
H -1.4741155223 -1.1479410243 -2.1581548690
H -0.7300140160 -0.0977213329 -0.9462210345
H -3.8102810273 -0.6955412639 1.4647615357
H -3.7473322339 -3.0529226676 1.3378637707
H -2.3074022788 -3.9512369575 0.8261917779
H -2.3767333858 -3.2263592515 2.4405120422
H -0.3047299804 -1.9285951979 2.1709004263
H 0.0131792401 -0.9600778422 0.7270985928
H -0.0793441725 -2.7186233804 0.6027982533
H -1.3468843351 3.1396004575 1.6917524266
H 1.5222518867 0.9193490688 0.6886314301
H 3.3422558892 3.9573607897 -1.7344109248
H 1.5764713460 5.5651963685 -1.0406857893
H -0.2462872122 4.8350511224 0.4832368429
H 4.9939609811 -0.2208449940 0.2950124886
H 4.6999615089 -2.6952862643 0.2091526410
H 2.8418072064 -3.6773571828 -1.1127560581
H 1.2955443504 -2.1887400431 -2.3626210408
H 1.6053947325 0.2751346004 -2.2847631014
H -4.3058016779 -0.8709713280 -1.5965680316
H -3.5638346035 -2.4769386745 -1.6853789086
H -4.5702556288 -2.0345667923 -0.2943186542
