51
CONF38
C -0.1218536026 -1.4872086458 1.5950892162
C -0.6885404284 -0.1046713783 1.4345392237
C -1.7873737526 0.1026705783 0.6879751388
C -2.4174702884 1.4036244014 0.4148040274
C -2.6209793797 1.8746229100 -1.0641926746
C -3.7981255066 1.5583642286 -0.1663249699
C -4.6869670771 0.3572727051 -0.4039247592
C -4.5736489070 2.7787778982 0.2908012208
C -2.0931479472 0.9878199802 -2.1131728310
O -2.4162761800 -0.1623365571 -2.3469241490
O -1.1015737324 1.6249389579 -2.7936755792
C -0.3333651903 0.7868137196 -3.7173008153
C 0.6786794190 -0.0213937693 -2.9839299615
C 1.9547271384 0.4253010886 -2.4975171123
C 2.5450170924 -0.6411792247 -1.8939561546
O 1.7062871333 -1.7293045440 -1.9655906216
C 0.5791281908 -1.3313715212 -2.6280577322
C 3.8654140611 -0.8560763296 -1.2428967799
C 3.7556968888 -1.2321353231 0.2210572329
C 3.6920608345 -2.5723238728 0.6098474321
C 3.5743567183 -2.9153626415 1.9550364245
C 3.5233902402 -1.9203233905 2.9290995979
C 3.5873544298 -0.5813047159 2.5494519854
C 3.7003009281 -0.2408370473 1.2036770957
C 0.0903430697 0.9679642362 2.1383954721
H -0.0766614513 -1.7715597936 2.6544614484
H 0.9113614428 -1.5202326644 1.2239693452
H -0.7105908598 -2.2345705119 1.0561975444
H -2.2361780630 -0.7654072706 0.2129292878
H -2.0976201949 2.2246891541 1.0487507957
H -2.3974784294 2.9244915364 -1.2249737054
H -5.2253142288 0.1236326661 0.5215221172
H -5.4296346774 0.5946216731 -1.1735827010
H -4.1403829305 -0.5257060102 -0.7277593149
H -5.1028231628 2.5597448853 1.2248728057
H -3.9122794760 3.6331265193 0.4627033591
H -5.3159613077 3.0630641177 -0.4634292613
H 0.1454727684 1.5042008684 -4.3858991859
H -1.0187795946 0.1528360816 -4.2829918714
H 2.3805272704 1.4130810944 -2.6029909982
H -0.1865766768 -2.0797181178 -2.7616959860
H 4.4338413710 0.0720409334 -1.3499672860
H 4.4105583373 -1.6421053224 -1.7802331954
H 3.7405368499 -3.3514322409 -0.1461100066
H 3.5275748076 -3.9614336732 2.2426966971
H 3.4358810110 -2.1867990575 3.9778599962
H 3.5493633109 0.2004608035 3.3021927173
H 3.7502321412 0.8049569958 0.9109488555
H -0.3541983007 1.9604948887 2.0553665194
H 1.1087320401 1.0126789161 1.7319999260
H 0.1969638560 0.7225014732 3.2025573857
