50
CONF184
C -1.4777984939 -0.1663380075 -2.1471233341
C -1.9986387377 -1.5689317268 -1.9404768155
C -1.2024989159 -2.7688850573 -2.4095125092
C -1.3613320506 -2.4881777426 -0.9022241309
C -0.2392153337 -2.0318448111 -0.0696688146
O 0.7653018005 -1.4465889982 -0.4139244286
O -0.4918048808 -2.3491536674 1.2398664757
C 0.4902881640 -1.8396636228 2.1783205750
C 0.2977762755 -2.6201500257 3.4003221702
N 0.1673629129 -3.2072874830 4.3858569523
C 0.3003318335 -0.3598325547 2.4400075734
C 1.3813101513 0.5011317036 2.2911293228
C 1.2005695696 1.8632388744 2.5177008141
C -0.0450667222 2.3676109670 2.8866257742
C -1.1168919538 1.4898688842 3.0248651610
C -0.9547349330 0.1258950398 2.8084902004
O 2.3253206657 2.6517335828 2.4151070022
C 2.1869905266 3.9760541327 2.0189960174
C 2.8764030236 4.9344979939 2.7519787029
C 2.8307702643 6.2639638472 2.3387987247
C 2.0980820447 6.6266184116 1.2111541337
C 1.4141934736 5.6504436159 0.4873952685
C 1.4575342885 4.3170954696 0.8829364868
C 0.0884880634 -2.6129231626 -3.0790428532
C 0.5410062276 -3.3838284257 -4.0730907083
C -0.2230789456 -4.5602983683 -4.6364548262
F 0.4127056881 -5.1781918388 -5.6446544241
F -1.4393174271 -4.1768301648 -5.1075398045
F -0.4595005614 -5.4972853186 -3.6805190058
Cl 2.0958096712 -3.0706037375 -4.8116781422
C -3.5024154991 -1.6826061673 -2.0601331050
H -1.9613585955 0.5087534548 -1.4331299296
H -0.3996355072 -0.0780483569 -2.0175026820
H -1.7364457383 0.1678405131 -3.1573002899
H -1.8091625273 -3.6112758587 -2.7218704191
H -2.0453977747 -3.1551027781 -0.3893162951
H 1.5006733977 -2.0324492712 1.7997617510
H 2.3566696827 0.1326919244 1.9906422585
H -0.1747434343 3.4291751314 3.0658423014
H -2.0869325701 1.8788050329 3.3168457532
H -1.7937291954 -0.5531407312 2.9215212813
H 3.4388730856 4.6333806762 3.6294946985
H 3.3674819371 7.0175820232 2.9063965092
H 2.0620908576 7.6637370866 0.8946307732
H 0.8493915950 5.9245907192 -0.3981234143
H 0.9363542079 3.5499031276 0.3194142627
H 0.7292462290 -1.8035286829 -2.7497364618
H -3.9882340313 -1.0421056250 -1.3163626773
H -3.8206831997 -1.3538844184 -3.0552210318
H -3.8424087144 -2.7106552091 -1.9094948412
