47
CONF13
C -7.2202821020 -1.8929014810 1.5048964528
O -6.3110230689 -2.5719572730 0.5940201862
P -4.7887353044 -2.0980372109 0.4820971436
S -3.8314798371 -1.7536909890 2.1358332254
O -4.1868787611 -3.1978606351 -0.5084204807
C -3.7523200398 -4.4870831579 0.0104967377
O -4.9391773942 -0.8352908420 -0.5268524198
C -3.9129560342 0.0982374598 -0.6910810849
C -2.7421607807 -0.2569520112 -1.3530168666
C -1.7611546340 0.7056664202 -1.5484702784
C -1.9475541483 2.0037407609 -1.0637576870
C -3.1291333929 2.3418046156 -0.4026912537
C -4.1237037970 1.3852172397 -0.2212903996
S -0.7267594991 3.2796871543 -1.3467910867
C 0.7797695726 2.5230295571 -0.7481364353
C 0.7953532319 1.6498739122 0.3430911526
C 1.9999335862 1.1272626640 0.7959127259
C 3.1830394854 1.5042211503 0.1735940881
C 3.1879222822 2.3851423231 -0.8996285472
C 1.9777822857 2.8852320688 -1.3689881315
O 4.3800141390 1.0067650702 0.6932388329
P 5.3342908393 -0.0028703067 -0.1643719225
S 4.4017545429 -1.3268471772 -1.2261057238
O 6.3121219994 -0.4936407744 1.0004225293
C 5.8137820437 -1.3873270278 2.0351492393
O 6.2962682952 0.9189392685 -1.0405308665
C 7.0702615427 1.9883541445 -0.4137082299
H -6.8514271202 -1.9738548058 2.5303787076
H -8.1751391020 -2.4073854009 1.4021966639
H -7.3244610837 -0.8428536400 1.2178702683
H -3.3656743906 -5.0317307285 -0.8501962716
H -2.9655552820 -4.3437634981 0.7553223989
H -4.6003278799 -5.0217715530 0.4464096629
H -2.6100807295 -1.2679229916 -1.7228963940
H -0.8491869936 0.4453395722 -2.0755589897
H -3.2703212615 3.3467523385 -0.0192667334
H -5.0456476577 1.6269119237 0.2962165603
H -0.1291563884 1.3702052085 0.8367000686
H 2.0287421404 0.4386843968 1.6336319538
H 4.1208926371 2.6664120607 -1.3764556862
H 1.9699841415 3.5563219030 -2.2218796744
H 6.6644899947 -1.5867188622 2.6858129404
H 5.0129631005 -0.9000488121 2.5975570869
H 5.4550389099 -2.3160280433 1.5836398210
H 7.8482320866 1.5590001096 0.2206320802
H 7.5146882668 2.5453022867 -1.2377576741
H 6.4129704690 2.6384338246 0.1697783129
