47
CONF60
C -2.3797020774 0.7653030847 4.3496507226
C -2.7896625935 0.6626676056 2.8947900987
C -2.3934149560 -0.5913141048 2.1804507940
C -1.6283992844 0.7342030701 1.9124256778
C -1.7219070589 1.2973655591 0.5601207579
O -2.7139115584 1.5323343641 -0.0976698306
O -0.4591484236 1.4798638763 0.0580951220
C -0.3765175605 1.9276140456 -1.3167483096
C -1.0804355822 0.9964529317 -2.2116716930
N -1.5636935491 0.2663599944 -2.9656258657
C 1.0911434128 1.9657548960 -1.6716038549
C 1.7020520232 3.1572032917 -2.0429476574
C 3.0655907477 3.1493937145 -2.3442122078
C 3.8043318661 1.9775290622 -2.2677986072
C 3.1720284722 0.7893607113 -1.8896873282
C 1.8138648079 0.7741360039 -1.5979993945
O 3.9609410025 -0.3353507733 -1.8425548493
C 3.3731354262 -1.5127847920 -1.3770242140
C 3.2609393341 -1.7251706333 -0.0082616512
C 2.7072815298 -2.9211044927 0.4422155114
C 2.2780869605 -3.8849643797 -0.4699243287
C 2.4024610257 -3.6531686709 -1.8384760102
C 2.9509336265 -2.4589024418 -2.3015114729
C -3.2220376326 -1.1972859607 1.1206966223
C -2.7354279326 -2.0094718979 0.1839584766
Br -3.8413029371 -2.8138794347 -1.1387518156
Br -0.8856587161 -2.4425269355 0.0514222474
C -4.1093696015 1.3341536011 2.5926842171
H -2.2891691244 1.8161322577 4.6438787888
H -1.4226001867 0.2693646867 4.5338850413
H -3.1400466552 0.2961487799 4.9830236962
H -1.7831816830 -1.2998051691 2.7372764276
H -0.6312389906 0.7663628202 2.3374491719
H -0.8385779771 2.9157537028 -1.4178652701
H 1.1279337200 4.0762790104 -2.0947132923
H 3.5582343387 4.0711071021 -2.6361421622
H 4.8647388685 1.9652117097 -2.4968235799
H 1.3180261019 -0.1467243368 -1.3101977433
H 3.5983582279 -0.9617349789 0.6855131839
H 2.6139797977 -3.1002198427 1.5087476196
H 1.8485795318 -4.8157104373 -0.1135572059
H 2.0694238928 -4.4014413202 -2.5505657500
H 3.0502922931 -2.2549858362 -3.3626780262
H -4.2889813166 -0.9920986151 1.0976534432
H -4.0414439291 2.4019010838 2.8248924397
H -4.8846946103 0.8975978102 3.2315610285
H -4.4118321548 1.2330910083 1.5516677698
