20
CONF68
C -0.1095196138 -0.3736373649 0.4020960141
O 0.0729149090 -1.2331330980 -0.7500489368
C 1.4191301527 -1.4361413011 -0.9492681013
O 1.8444255547 -2.1126387205 -1.8643849480
C 2.1605251956 -0.7447111264 0.0842004692
O 3.5122834167 -0.7589020323 0.1646584284
C 1.2822963247 -0.1285208388 0.8983652024
O 1.5882625182 0.6193280871 1.9673345997
C -0.8617869083 0.8901397293 -0.0385685861
O -0.1634131399 1.5881872323 -1.0590601245
C -2.2922765040 0.5632110129 -0.4827078645
O -3.0429351532 -0.0767115522 0.5487977598
H -0.7192742862 -0.9137042695 1.1384489900
H 3.8469458603 -1.3154664819 -0.5556663720
H 0.7889427829 0.8953906931 2.4383211228
H -0.9065548948 1.5684804653 0.8243871342
H -0.1330308515 1.0206391692 -1.8425731606
H -2.2642149089 -0.1314614630 -1.3293641518
H -2.7696944231 1.4943837286 -0.8144502581
H -3.2530258300 0.5852680145 1.2194824816
