61
CONF13
C -1.7193953119 0.9302036669 5.1672350079
C -1.5231833366 0.6933292214 3.6721043322
C -2.4399275575 1.5651513758 2.8137601477
C -2.2728358627 1.3309821656 1.3173506250
C -2.7258763110 -0.0572772461 0.8363837548
C -3.0691628473 0.1470095393 -0.6668250426
N -3.0412563046 1.6022992897 -0.8756728815
C -3.1167762494 2.2462044340 0.4362996329
C -4.0085699782 2.0818321619 -1.8497307976
C -2.0452375835 -0.5952267157 -1.5171214498
O -2.0941373525 -1.8289540555 -1.6161913881
N -1.0895905170 0.1665243522 -2.0739084946
C 0.1540313788 -0.3864794882 -2.5717840745
C 1.0945938416 -0.8446750992 -1.4189297862
C 1.3132130934 -2.3506666608 -1.2843321656
C 2.3754312995 -2.5797919532 -0.1978752404
C 1.9725272724 -1.8623694514 1.1039734247
C 1.5519168796 -0.4011815986 0.8584633391
O 0.6060439447 -0.2978700277 -0.1874669985
S 2.9900647833 0.7576929170 0.6121158655
C 2.0812724277 2.3030313100 1.0002509814
O 0.9034651585 -2.5455744673 1.7397696148
O 3.6045654535 -2.0767629524 -0.7245387344
O 0.1661849410 -3.0825558574 -0.8856517947
C 0.8341130185 0.6924598169 -3.4366740996
C 2.0402784713 0.1742334606 -4.2068892549
O 1.1544539144 1.8397329047 -2.6401393544
H -1.0496105379 0.3027231953 5.7623414378
H -1.5228551322 1.9756548068 5.4292360087
H -2.7474466851 0.7012085976 5.4678324041
H -0.4785632477 0.8991398623 3.4014328658
H -1.6933033134 -0.3650248018 3.4398250058
H -2.2444865435 2.6228950875 3.0403085871
H -3.4873341733 1.3776917592 3.0921030284
H -1.2176994539 1.4709476834 1.0418385133
H -1.9708659620 -0.8332739277 0.9797302827
H -3.6280918036 -0.3581056250 1.3809843959
H -2.7348127416 3.2730288774 0.3829931342
H -4.1559878095 2.2878092696 0.8231386767
H -5.0542573690 1.9003584754 -1.5368684275
H -3.8472962496 1.5836946412 -2.8119356193
H -3.8782786542 3.1583052912 -2.0029572629
H -1.0968054690 1.1421997080 -1.7898931092
H -0.0842238861 -1.2509603390 -3.2049288505
H 2.0961135404 -0.4287369205 -1.6008884927
H 1.7144568836 -2.7223263366 -2.2437715664
H 2.4371021211 -3.6581495903 0.0094052363
H 2.8191956137 -1.8670004917 1.8042494163
H 1.0295700695 -0.0573784538 1.7574863041
H 2.7580326785 3.1391588430 0.8097062621
H 1.2064518402 2.3963900322 0.3501950054
H 1.7751004428 2.3223500852 2.0501270027
H 0.3009605559 -2.8223867030 1.0243757991
H 4.2971261831 -2.2160358955 -0.0692477359
H -0.6490598904 -2.6763704741 -1.2688336307
H 0.0840627810 1.0545813659 -4.1502957653
H 1.7504861568 -0.6446488245 -4.8736961763
H 2.4593517589 0.9825049086 -4.8112776999
H 2.8284604633 -0.1940665816 -3.5411123922
H -4.0511979840 -0.2961613369 -0.8966079898
H 1.8614779037 1.5935414164 -2.0243617549
