44
CONF15
C 4.1618595593 -2.6686200580 -2.9008257244
C 3.0336469468 -1.7250814655 -2.6561173719
N 1.8619416371 -2.2586770730 -2.2735805608
C 0.8951939683 -1.3659910409 -2.0400882071
N 1.0067294919 -0.0400462789 -2.1835974060
C 2.2189370512 0.3715152415 -2.5569244677
N 3.2707813111 -0.4158228649 -2.8059584449
O 2.4473653465 1.6685308159 -2.7169188028
C 1.3440896558 2.5848149232 -2.4916277429
N -0.3088282341 -1.8915106534 -1.6193803822
C -1.4646769928 -1.2652050458 -1.1417539380
O -2.3978334467 -1.9312205463 -0.7222182301
N -1.4442208422 0.1089339632 -1.1708461169
S -2.6881708671 1.0659780561 -0.5137050393
O -2.1545673043 2.4316650052 -0.6290008559
O -3.9519159584 0.7359965025 -1.1787860378
C -2.7948705357 0.5765600262 1.2118424277
C -4.0348047753 0.0864756284 1.6236433836
C -4.2296319006 -0.2501609522 2.9556040319
C -3.1851421900 -0.0916185420 3.8620455743
C -1.9560127266 0.3927472912 3.4333597139
C -1.7188148687 0.7391717252 2.0982965749
C -0.3320307718 1.2166064752 1.7331343172
C 0.6674572712 0.0491517540 1.7719504748
C 2.0900474804 0.5004183676 1.5852642737
F 2.9448127182 -0.5537080910 1.5472341872
F 2.2782686997 1.1949141266 0.4312882232
F 2.5101137576 1.3102406036 2.5916471257
H 3.7982881919 -3.5852153592 -3.3696342802
H 4.9334596086 -2.2014554268 -3.5130352889
H 4.6046108154 -2.9450793016 -1.9360876650
H 1.0011820441 2.5200555990 -1.4559765930
H 1.7578760055 3.5713652311 -2.6939958523
H 0.5234108446 2.3635663672 -3.1783264218
H -0.3372870292 -2.9012099132 -1.5474243132
H -0.5916689379 0.5780523517 -1.5125896123
H -4.8356847073 -0.0271420204 0.9033765070
H -5.1921965069 -0.6303752133 3.2799657299
H -3.3274226815 -0.3439319848 4.9078394951
H -1.1481387986 0.5146315783 4.1496515562
H -0.0310378748 1.9674565567 2.4715542466
H -0.3044122115 1.6977947089 0.7558230723
H 0.6269319384 -0.4704679751 2.7340084724
H 0.4523648078 -0.6841031082 0.9898137696
