33
CONF6
C -5.3101245096 0.0279381633 -0.9390487354
C -4.0121907901 0.3642346906 -0.2161755677
C -3.9696123245 -0.3938905107 1.1071688469
O -4.5150117575 0.0125944295 2.1102829239
O -3.3276741869 -1.5685854419 1.0179562298
O -2.9448070352 0.0147493522 -1.0973656918
C -1.6717815337 0.3879549989 -0.7549651744
C -1.3361220579 1.1031033104 0.3953731408
C 0.0000254930 1.4231174598 0.6397086750
C 0.9751719794 1.0372096845 -0.2629664352
C 0.6483800586 0.3320682388 -1.4183052596
C -0.6755321084 0.0037499598 -1.6596438216
O 2.2910919815 1.4415191123 -0.0317964514
C 3.2384350016 0.4771237003 0.1631233033
C 4.5802411760 0.8484070274 0.0123755682
C 5.6078630478 -0.0589124256 0.2307142738
C 5.2791649904 -1.3576956222 0.5984992399
C 3.9583983479 -1.7550259154 0.7581996226
C 2.9424725492 -0.8318078754 0.5412959518
Cl 6.5724321339 -2.5173242239 0.8662413363
Cl 4.9728752064 2.4874265729 -0.4527677164
H -5.3677302934 0.6088249062 -1.8623447763
H -6.1627544642 0.2827197666 -0.3055718874
H -5.3455617142 -1.0377711861 -1.1805022672
H -3.9815326083 1.4347129340 0.0216650777
H -3.3746855909 -2.0064961971 1.8858514344
H -2.0844864806 1.4201760096 1.1117724657
H 0.2785241247 1.9746474527 1.5313083228
H 1.4260178983 0.0430072182 -2.1180391596
H -0.9570203741 -0.5448157779 -2.5522080215
H 6.6400449841 0.2461266000 0.1085028251
H 3.7176516177 -2.7696719088 1.0527693788
H 1.9078372341 -1.1294143074 0.6696136619
