38
CONF12
C -2.2507792631 -1.6818376457 -1.0877162155
C -1.6408847560 -0.4387265351 -0.4350353532
C -2.3064140146 -0.0439534412 0.8771453354
C -3.8029278639 0.0168047983 1.0275171947
C -3.0076199729 -1.0284844311 1.7679937260
C -0.1087514899 -0.5959493389 -0.2100165580
C 0.5821046371 -1.0223402821 -1.5327795186
N 2.0308324968 -0.9978714937 -1.4046944539
C 2.9290760470 -0.1464638126 -1.9384878740
N 4.1410821982 -0.3902043711 -1.4569456102
C 3.9190660914 -1.4156508806 -0.5941146856
N 2.6549013624 -1.8207943328 -0.5245230674
C 0.5054921891 0.7253569050 0.2577610292
C 0.4387102622 1.8656407237 -0.5491469954
C 1.0094441589 3.0683269112 -0.1505214851
C 1.6605942740 3.1268016312 1.0759141038
C 1.7447388428 2.0135711514 1.8995679589
C 1.1647089788 0.8185588212 1.4818782133
Cl 2.3884776048 4.6412123568 1.5907076827
O 0.0583890715 -1.6228660527 0.7598544433
H -1.9505811673 -1.7701761178 -2.1353441641
H -3.3426392724 -1.6308331152 -1.0777162382
H -1.9449016884 -2.5904896868 -0.5627064478
H -1.7650336977 0.4071161718 -1.1253253788
H -1.7741899953 0.7459475202 1.4011032772
H -4.4237616328 -0.3145712726 0.2011733644
H -4.2154581684 0.8461467570 1.5927149916
H -3.0912744607 -2.0539090340 1.4254073118
H -2.8820870715 -0.9199573107 2.8400094745
H 0.2750165330 -2.0385832834 -1.7923290940
H 0.3136707255 -0.3464774094 -2.3492414573
H 2.6601260000 0.6113067614 -2.6622816276
H 4.6984754794 -1.8843864091 -0.0075483967
H -0.0671993552 1.8321348214 -1.5096010416
H 0.9506356042 3.9465908996 -0.7831912504
H 2.2538559542 2.0756181995 2.8545840098
H 1.2172255840 -0.0502875282 2.1275006322
H 0.9778795789 -1.9363203591 0.7084339744
