45
CONF175
O -0.5582498396 -0.9486725124 -2.8442216431
C -1.8872642337 -1.4309749996 -2.6470762121
C -2.4640406097 -1.0776269897 -1.2942148177
O -1.6435142963 -1.6970735845 -0.2557158507
C -1.4829989669 -0.8211815997 0.8413871435
C -1.6349532412 -1.6403041271 2.1193322132
O -1.2819084416 -0.8909752139 3.2838556117
O -0.2129050792 -0.1507424249 0.8329323910
C 0.9415623279 -0.8871755393 0.4667241070
O 1.3944358692 -0.4794795996 -0.8148409766
C 1.7398452631 0.9289949589 -0.8937832052
C 2.0618011932 1.2378085913 -2.3458250646
O 0.8997232250 1.4705715500 -3.1405995643
C 2.9041042811 1.1988900841 0.0582954827
O 3.2193973201 2.5897277450 -0.0238164947
C 2.4852900791 0.8174750290 1.4710179003
O 3.6159720110 1.0276740211 2.3215984980
C 2.0251638735 -0.6371985358 1.5177015091
O 1.5888594139 -1.0100903288 2.8187568155
C -2.5127278381 0.3043776962 0.6222897400
O -2.2446556687 1.5014333521 1.3219198694
C -2.5189525348 0.4013072464 -0.9101166245
O -3.6102581599 1.1064296815 -1.4710584938
H -0.0235468013 -1.1709699757 -2.0622170511
H -2.5165754474 -0.9818026243 -3.4225293210
H -1.9172240822 -2.5229136025 -2.7702393227
H -3.4784453149 -1.5029978200 -1.2353568199
H -0.9564871887 -2.4995237258 2.0822968663
H -2.6661194196 -2.0129823386 2.1750264821
H -1.8301963233 -0.0940074526 3.3134269359
H 0.7198319130 -1.9554051699 0.3792763294
H 0.8764375815 1.5364229440 -0.5866172580
H 2.6763286823 0.4207669024 -2.7550141126
H 2.6493715681 2.1587017740 -2.3811474908
H 0.3349779435 0.6765404339 -3.1073528933
H 3.7715765920 0.5864255410 -0.2407376230
H 3.8490304691 2.7778058395 0.6852461110
H 1.6547549234 1.4741487103 1.7776555485
H 3.3356985202 0.8296022043 3.2251770660
H 2.8796995979 -1.2814712845 1.2771381681
H 0.6869910953 -0.6607258647 2.9559130989
H -3.4977021119 -0.0430101302 0.9610363495
H -1.3299120219 1.7524205508 1.1243591041
H -1.6113915737 0.9184188866 -1.2460018786
H -4.4308235487 0.6813617760 -1.1838804376
