41
CONF8
C -2.6567766120 -2.4792948142 -1.9862559677
C -1.9444633788 -2.6012921764 -0.6413825527
C -0.8902536218 -1.5132580870 -0.3377887020
C -0.1751818896 -1.8691986086 0.9831547444
O 0.3154791250 -2.9432088407 1.2515499439
C -0.2495110038 -0.6869053036 1.8731004884
C 0.3790049826 -0.4742169849 3.0942570338
C 0.1836841433 0.7537387129 3.7168951218
C -0.6385384717 1.7340954028 3.1431277818
C -1.2804643145 1.5117012163 1.9305216185
C -1.0643115213 0.2919358365 1.2993198240
C -1.5439048166 -0.1566746449 -0.0277080910
O -2.3206437866 0.4406521090 -0.7464622672
C 0.1323614261 -1.3925299812 -1.4928540375
C 1.3919835480 -0.5980446751 -1.1900621338
C 2.6590962730 -1.0435045494 -1.8008886370
O 2.3737247563 -1.3213916931 -0.4254072104
C 1.2695650617 0.8515142268 -0.8223108639
C 1.9799409053 1.3440286970 0.2744168876
C 1.8448234930 2.6792230196 0.6222285081
C 1.0331287769 3.5479625028 -0.0971678480
C 0.3439475528 3.0496307034 -1.1979841005
C 0.4569921557 1.7131335207 -1.5610673399
Cl 2.7089328131 3.2848305426 2.0270584370
H -3.1382447816 -1.5050801053 -2.0959530752
H -3.4251116724 -3.2543271658 -2.0645190787
H -1.9682628353 -2.6203274137 -2.8247155445
H -2.6851459722 -2.5853474016 0.1684402657
H -1.4267882588 -3.5652360998 -0.5671145522
H 1.0138419417 -1.2411173809 3.5255228020
H 0.6782646550 0.9656401372 4.6593619854
H -0.7614571261 2.6841837607 3.6531121282
H -1.9103343945 2.2645554718 1.4685235837
H -0.3786823812 -0.9539874417 -2.3574670721
H 0.4432402922 -2.4066454952 -1.7669168368
H 3.4447606070 -0.3074722653 -1.9702340357
H 2.6603613855 -1.9129884688 -2.4590874166
H 2.6055885800 0.6766956695 0.8540353988
H 0.9430791304 4.5864409233 0.1988988122
H -0.2958191146 3.7119641844 -1.7716096274
H -0.1079056458 1.3401223409 -2.4079279829
