45
CONF26
C -3.1836636276 3.0434818280 0.4811304077
O -3.1959429741 1.6816489074 -0.0145205485
C -2.0422447526 1.2861458367 -0.5801040940
O -1.0438134941 1.9814188071 -0.7003622472
N -2.0941189486 -0.0223133914 -0.9887213863
C -1.0968762052 -0.6487543077 -1.7828632096
C -0.6859658697 -0.0569278174 -2.9781859080
C 0.2763770546 -0.6797653209 -3.7624056794
C 0.8037711937 -1.9074452607 -3.3653359291
C 0.3753825429 -2.5012518307 -2.1830313414
C -0.5704498573 -1.8779771762 -1.3676240353
C -1.0062135287 -2.5205373784 -0.0757083367
O 0.0825701074 -3.2257902878 0.5632420604
C 1.0379556162 -2.4481698274 1.1110496560
N 0.9508582938 -1.1250871092 1.1794208989
N 2.0961212210 -0.7477630782 1.8197735852
C 2.8782780807 -1.8215087085 2.1334622311
C 2.2263172924 -2.9478678508 1.6907495137
C 2.3549927293 0.6187023063 2.0482425855
C 1.6426692146 1.5856655723 1.3344747343
C 1.8901796975 2.9344330160 1.5566187011
C 2.8571916697 3.3053425656 2.4826407939
C 3.5734101778 2.3543033680 3.1995542341
C 3.3144833647 1.0060123596 2.9875532097
Cl 3.1776482352 5.0140630389 2.7605683958
O -3.2724219914 -0.7582755307 -0.7875166269
C -4.1297384507 -0.6662217088 -1.9503718888
H -3.0023752345 3.7432219118 -0.3378137434
H -4.1752893215 3.1978851315 0.9043822763
H -2.4160475947 3.1600136334 1.2498533443
H -1.1208299665 0.8904942325 -3.2779660790
H 0.6007756410 -0.2158607841 -4.6881870703
H 1.5469618177 -2.4051246810 -3.9800459644
H 0.7937886511 -3.4528502467 -1.8708585451
H -1.7588061335 -3.2924792917 -0.2580964055
H -1.4204666134 -1.7795798557 0.6133147674
H 3.8352772326 -1.7117492796 2.6200647258
H 2.5513273984 -3.9737886504 1.7624147718
H 0.8953674819 1.2912073595 0.6083037148
H 1.3372667204 3.6849944722 1.0027946864
H 4.3165625492 2.6556525811 3.9288037130
H 3.8553525646 0.2701223680 3.5709063865
H -5.0007606995 -1.2761077138 -1.7035797099
H -4.4293871484 0.3727444750 -2.1223953071
H -3.6254740621 -1.0734958790 -2.8336257294
