12
CONF10
C -1.6536292065 -0.0672845816 -0.1245687102
O -1.3212135671 1.2940391343 -0.1741601677
O -0.6544825580 -0.8827815668 0.4572052035
O 0.4055361392 -1.0302000614 -0.5625557645
C 1.5805392050 -0.4850108225 0.0048281682
O 1.6036010406 0.9174048158 0.0316953555
H -2.4967032088 -0.1731932555 0.5668186617
H -1.9088653053 -0.4638758332 -1.1171808599
H -0.6655881699 1.4108386298 -0.8755163709
H 2.3664207193 -0.8115656818 -0.6849154116
H 1.7329235922 -0.9161782737 1.0041138286
H 1.0114613193 1.2078076130 0.7390130660
