26
CONF75
C -4.1370872689 -0.3908469109 0.4863664146
N -3.0763600268 0.6149665507 0.6124204651
C -1.7757328685 0.0726282092 0.2224908083
C -0.6941023520 1.1528545994 0.2559383157
O -1.0180009715 2.2169469283 -0.6481006912
C 0.6739028724 0.5486226142 0.0000065059
C 1.3151864640 0.6559410178 -1.2311953384
C 2.5555831395 0.0489213043 -1.4385788123
C 3.1619754128 -0.6679847080 -0.4171679884
O 4.3774343878 -1.2932480198 -0.5222356528
C 2.5243956154 -0.7774114886 0.8289555372
O 3.1044285077 -1.4685673419 1.8558307864
C 1.2927924107 -0.1709369861 1.0280600269
H -4.1934402764 -0.8453739574 -0.5183791168
H -5.1057037368 0.0652835067 0.7133207962
H -3.9653098250 -1.1974059822 1.2086096893
H -3.2901458105 1.3886339424 -0.0104014729
H -1.5006423707 -0.7268263765 0.9225134839
H -1.7813132894 -0.3780116619 -0.7920911199
H -0.6969913732 1.6179122026 1.2497517416
H -1.2091105562 1.8291758720 -1.5133339595
H 0.8661752677 1.2214216942 -2.0401753600
H 3.0579689886 0.1354153318 -2.3987336153
H 4.7396799589 -1.1626919761 -1.4086028573
H 3.9536007203 -1.8205243458 1.5516188213
H 0.8208170966 -0.2622128405 2.0031126718
