59
CONF1162
C 2.3002419251 4.1816676955 -0.7351420418
C 1.7301359870 3.2575682771 -1.8117577882
C 2.5235178147 1.9601714311 -1.9965078127
C 2.5178820772 1.0514143839 -0.7674764300
C 3.2111907890 -0.2842342989 -1.0261034806
C 3.1926705219 -1.2060071950 0.1891048663
O 4.0300131714 -2.3409205653 -0.1473261091
C 1.8116277217 -1.6694223101 0.5327669844
C 1.2224370748 -1.4703671086 1.7124825843
C -0.1610049222 -1.9113707313 2.0747396454
C -0.1577493226 -2.7823871156 3.3561127965
O -1.1046896067 -3.8587948375 3.1369573425
C -0.6407335542 -1.8418544885 4.4614479698
C -1.7349375979 -1.0228056190 3.7748727561
O -2.9666597335 -1.7558591481 3.6758398261
C -1.0997710156 -0.7022116356 2.4020047320
C -2.1166336983 -0.3868859835 1.2986154136
C -1.4616808004 0.0747213653 0.0344616060
C -1.4921898206 -0.5775900536 -1.1285814560
C -0.7997076753 -0.1402805784 -2.3825147885
C -1.7595999668 0.0374139557 -3.5687875661
C -2.7448720364 1.1737340914 -3.3304909601
C -3.7153971780 1.3744784146 -4.4583166449
O -4.5049093594 2.4537184305 -4.2509128373
O -3.8144430760 0.6745734455 -5.4463089752
H 3.3534837577 4.4091077186 -0.9369658597
H 2.2411075376 3.7283260322 0.2592415426
H 1.7523205371 5.1287072191 -0.6992670569
H 1.7025256766 3.7936759624 -2.7685619625
H 0.6884173799 3.0080341297 -1.5661223874
H 2.1042293283 1.4038908158 -2.8461454490
H 3.5610674884 2.2039142885 -2.2657257932
H 1.4800916529 0.8697145551 -0.4577792384
H 3.0105079768 1.5518988943 0.0759395853
H 4.2575168318 -0.1108172657 -1.3094544743
H 2.7288780670 -0.8025467762 -1.8665768127
H 3.6234580503 -0.6744890003 1.0529137153
H 3.9713383354 -2.9639019320 0.5887104295
H 1.2766802345 -2.1927926896 -0.2622315308
H 1.7682089472 -0.9298652272 2.4903572780
H -0.5744850328 -2.5026210836 1.2499987395
H 0.8320254434 -3.2104234058 3.5594300720
H -1.1153447138 -4.4023402684 3.9368508619
H 0.1837918181 -1.1771322355 4.7488986041
H -0.9868467980 -2.3694140127 5.3562707520
H -1.9847770475 -0.1045418072 4.3159033009
H -2.7289132889 -2.6423965381 3.3579727308
H -0.4687098409 0.1850328113 2.5533332518
H -2.7928766955 0.3953189833 1.6729820030
H -2.7278676012 -1.2744260653 1.1016477422
H -0.8945582288 1.0062964540 0.0995504168
H -2.0546190065 -1.5124466175 -1.1932976861
H -0.0481759976 -0.8927270493 -2.6608993463
H -0.2603925791 0.7974752945 -2.2012117745
H -2.3091492307 -0.8955740278 -3.7397319802
H -1.1825481211 0.2385789907 -4.4778099089
H -3.3334847442 0.9978909959 -2.4200453762
H -2.2206750276 2.1232629646 -3.1611841647
H -5.1169622401 2.5288601979 -5.0028293685
