74
CONF17
C -0.3498170931 -1.0742691664 0.0362128601
C 0.6877577949 -2.1872272772 0.0361260366
O 0.0165871715 -3.2840303191 0.7487088985
C -0.9708362570 -2.7968698956 1.5453317493
O -1.6005335555 -3.5196831563 2.2816180228
C -1.0437267025 -1.2994764476 1.3699448099
C -2.3942048145 -0.5811629966 1.4321998417
C -3.4660123851 -1.2255906842 0.5597556842
C -3.6605665434 -0.8219263169 -0.7627539958
C -4.6189702829 -1.4491603583 -1.5614444668
O -4.8805448007 -1.1269000651 -2.8618573708
C -4.1004066211 -0.0749693005 -3.4412205485
C -5.3956011338 -2.4858559353 -1.0336478901
O -6.3331630881 -3.0884433512 -1.8237413508
C -5.2045856327 -2.8754129697 0.2973285536
O -6.0308354250 -3.8900852474 0.6979628665
C -5.8589996304 -4.3943506966 2.0288979881
C -4.2497809648 -2.2497817998 1.0951180042
C -2.1568621555 0.8750188583 1.0521044239
C -3.1575415313 1.7970747520 1.4244908388
C -2.9938445027 3.1078654075 1.0547804329
C -1.8886086212 3.5300561254 0.3204531598
O -2.0029626150 4.8684623911 0.0380186821
C -3.0978423380 5.3312339556 0.8555650381
O -3.8421071666 4.1637384561 1.2648884729
C -0.9079320029 2.6548961789 -0.0679425170
C -1.0440163429 1.3001724593 0.3119602835
C 0.0938562463 0.3710805790 -0.0725811529
O 1.2037922665 0.6133072475 0.8408872240
C 2.3771962094 1.0461354267 0.2398638871
O 2.9655866695 -0.0684631429 -0.4513251658
C 4.1818654788 0.3141791574 -1.0902647338
C 4.7317592180 -0.8469061569 -1.9011657715
O 6.0069814790 -0.4533694061 -2.4288305413
C 6.9238711373 -0.1048846580 -1.3981456734
C 8.2325370457 0.2745899676 -2.0367341300
O 6.4485848561 1.0149710290 -0.6484584351
C 5.2047819300 0.6905587995 -0.0216636828
C 4.6914805053 1.8815554893 0.7598035432
O 5.5241161820 2.2202485250 1.8705996148
C 3.3152333165 1.5484628141 1.3373836223
O 2.7161824897 2.7023463305 1.9177108699
H -1.0708893303 -1.2639959748 -0.7694226401
H 0.9550042247 -2.5619992470 -0.9525924546
H 1.5855721844 -1.9204641993 0.5983494512
H -0.4042773751 -0.8902792945 2.1697397087
H -2.7538881921 -0.6089650972 2.4671472232
H -3.0770574428 -0.0010892812 -1.1599545610
H -4.4506400115 0.0193224685 -4.4695442421
H -4.2572537027 0.8716873084 -2.9101962354
H -3.0330257661 -0.3273748785 -3.4366701427
H -6.7629802297 -3.7750944245 -1.2921818150
H -6.5768802266 -5.2082409229 2.1319347918
H -4.8412470169 -4.7751569722 2.1715743836
H -6.0722458737 -3.6165993765 2.7710779972
H -4.0988937673 -2.5565313733 2.1218208477
H -4.0314839605 1.4691639923 1.9780449222
H -2.6970192822 5.8336746873 1.7463777987
H -3.7432283941 5.9830566641 0.2638482790
H -0.0554968875 2.9874377138 -0.6511264983
H 0.4274255513 0.5978727284 -1.0923156825
H 2.1873384279 1.8537930768 -0.4916277316
H 4.0145632861 1.1771986543 -1.7557792333
H 4.0918846010 -1.0876106126 -2.7535817163
H 4.8358782808 -1.7354973590 -1.2583317605
H 7.0237181589 -0.9639682215 -0.7096572084
H 8.0849158234 1.1263709602 -2.7064230599
H 8.6230166709 -0.5698322641 -2.6088401612
H 8.9557241803 0.5449090783 -1.2641337333
H 5.3433605908 -0.1677652595 0.6585935212
H 4.5921502667 2.7422245986 0.0787695471
H 6.3431485141 2.5951761948 1.5231200038
H 3.4267187019 0.7447374139 2.0835494074
H 3.3642195442 3.0767057284 2.5299657653
