49
CONF16
C -3.3429118985 -1.6922096031 -0.8696379325
C -3.1389074630 -1.4999709854 0.6183082954
C -2.2547747904 -0.3458020984 1.1352590258
C -1.8205063805 -1.8258159596 1.2547573573
C -1.7665370968 -2.3699889699 2.6692206303
C -0.6705691852 -2.3420948166 0.4161274335
C -1.5716424090 0.5968188617 0.2523677185
O -1.1013703530 0.4094641931 -0.8515123362
O -1.5062963125 1.8323432936 0.8708900981
C -0.7591560247 2.8433739042 0.1431514849
C -1.3941900047 4.1191917727 0.4653290764
N -1.8793112832 5.1388775958 0.7061459123
C 0.7013952248 2.8048916009 0.5335143331
C 1.5962188491 2.1611599597 -0.3177890115
C 2.9276431449 2.0368632475 0.0711960678
C 3.3737660961 2.5702536425 1.2772822667
C 2.4703967530 3.2251808857 2.1083245663
C 1.1313969606 3.3386907443 1.7490339353
O 3.8745647076 1.4480639715 -0.7393367943
C 3.5013206443 0.3784822350 -1.5422359961
C 2.7294589498 -0.6705895326 -1.0476012404
C 2.4495778187 -1.7501819826 -1.8796905343
C 2.9407352578 -1.7867869510 -3.1839377758
C 3.7192208836 -0.7330663997 -3.6572522265
C 4.0009462310 0.3583624858 -2.8394274804
C -4.4284868892 -1.7153064123 1.3878096380
H -4.1389951411 -1.0277461946 -1.2228622290
H -3.6628048261 -2.7241307213 -1.0548320097
H -2.4525023834 -1.4927703671 -1.4617840099
H -2.5889280224 0.1035678974 2.0645096333
H -2.5128507862 -1.9264665274 3.3290045869
H -1.9211618474 -3.4552645797 2.6552361845
H -0.7785477803 -2.1772299072 3.1006147334
H -0.7398722473 -3.4339441490 0.3477341811
H 0.2813949256 -2.0974529881 0.9006070945
H -0.6482762143 -1.9321676944 -0.5913172102
H -0.8676990656 2.6690227411 -0.9335335958
H 1.2564691736 1.7503164807 -1.2616371986
H 4.4186127792 2.4674180484 1.5503939993
H 2.8154443376 3.6424429152 3.0486422097
H 0.4279897133 3.8390059021 2.4073269388
H 2.3554721952 -0.6425019541 -0.0293794734
H 1.8503869386 -2.5718767807 -1.4999822952
H 2.7199376107 -2.6333781049 -3.8255048046
H 4.1071679371 -0.7535802726 -4.6708021800
H 4.6023656458 1.1894415202 -3.1926094059
H -5.2219487982 -1.0945476302 0.9583953154
H -4.7396590698 -2.7631963112 1.3052174760
H -4.3439755314 -1.4651650107 2.4459350524
