39
CONF390
C 6.8679892501 3.0407241785 2.0636625800
C 6.1783553081 2.3730544920 0.8764068961
C 5.7378665205 0.9414644524 1.1802159470
C 5.0126934522 0.2831484658 0.0072043751
C 4.5590114066 -1.1581498606 0.2830855636
C 5.7281785744 -2.1511123162 0.1733067700
C 5.4453211235 -3.5375899690 0.7514237928
C 3.4436347416 -1.5686214371 -0.6705934283
O 2.2588515066 -0.7677620966 -0.3945320500
C 1.8412181558 0.0827002935 -1.3534847074
O 2.3008687893 0.1742018803 -2.4649861348
C 0.7572784577 0.9651621788 -0.8112919791
C 0.9696580856 1.5329829722 0.4409682879
C 0.0837424953 2.4631537773 0.9586621544
C -1.0585863336 2.8281736077 0.2404655420
C -1.2998136287 2.2313713458 -1.0104038947
C -0.3882101848 1.3059374814 -1.5379104354
Br -0.7368722706 0.4481029085 -3.1904951483
Br -2.8643026360 2.6798127137 -1.9761534310
Br -2.2567611367 4.1018028887 0.9548113558
Br 0.4906880181 3.2014076429 2.6602357006
H 7.1786290948 4.0620020347 1.8243111584
H 6.1987405157 3.0889306643 2.9294317606
H 7.7602297817 2.4812165323 2.3649837151
H 5.3021561516 2.9635464380 0.5773935064
H 6.8531895998 2.3670032214 0.0106270136
H 6.6172207284 0.3507977990 1.4695603329
H 5.0720400752 0.9467202827 2.0552185023
H 5.6541461678 0.2912144729 -0.8855014754
H 4.1426536522 0.9030682170 -0.2447521498
H 4.1547876353 -1.2083101892 1.3056697601
H 6.5918704513 -1.7225915363 0.6932505540
H 6.0224308699 -2.2350106537 -0.8821442274
H 5.1432262040 -3.4674404721 1.8017675735
H 4.6518953638 -4.0618450551 0.2105746603
H 6.3388085360 -4.1668206016 0.7031369096
H 3.1330143734 -2.6040134175 -0.5122477184
H 3.7370820286 -1.4282338276 -1.7153804571
H 1.8477172126 1.2515944894 1.0080218003
