29
CONF1
C 2.7747423020 1.2887445328 1.2062519321
C 3.7262226718 0.6420573455 0.4248557681
C 3.2815304641 -0.2638517044 -0.5352972679
C 1.9281867578 -0.5191810399 -0.7124946050
C 0.9717310033 0.1350070719 0.0801788291
C 1.4137974917 1.0508742675 1.0497864748
N -0.3577364294 -0.2021331037 -0.1809153247
C -1.5339523839 0.2325149260 0.3619138729
C -2.7729330368 -0.3082005839 -0.1184422199
C -3.9507967258 0.1643660469 0.4634201365
C -3.9058055032 1.1199713472 1.4655664452
C -2.6541248652 1.5800477983 1.8582987518
N -1.5041163450 1.1589206731 1.3325378257
C -2.8270228723 -1.3199694175 -1.1813412709
O -1.8543007604 -1.8005243841 -1.7554433998
O -4.0823991211 -1.7006341753 -1.4935054834
C 4.2496960384 -0.9991130325 -1.4129846857
F 5.5364530266 -0.6712751208 -1.1651049171
F 4.1503747752 -2.3481297330 -1.2599444700
F 4.0263481903 -0.7534063411 -2.7326874778
H 3.0969405889 1.9991391604 1.9607483182
H 4.7827014743 0.8380697998 0.5592975081
H 1.6048076240 -1.2295900590 -1.4683324884
H 0.6973275724 1.5664567148 1.6698786640
H -0.4985334780 -0.9005521539 -0.9088204117
H -4.9022161102 -0.2247561120 0.1218952395
H -4.8087845543 1.4986331879 1.9289285448
H -2.5675384033 2.3318985263 2.6414554745
H -4.0205990743 -2.3653847389 -2.1996994879
