70
CONF187
C -3.0211316060 0.6148291979 0.1633213516
C -4.1602412237 1.0844862241 1.0983757154
C -4.8390466453 -0.1064095444 1.6923922979
C -6.0988420513 -0.3605297825 2.1784280036
N -6.1673121499 -1.6848711032 2.6005520675
C -4.9573869179 -2.3018054205 2.3796514400
C -4.4806117991 -3.5979234083 2.5922524968
C -3.1647354251 -3.8488074406 2.2101020170
C -2.3305770254 -2.8624284824 1.6348377715
C -2.8010390211 -1.5693344998 1.4322224215
C -4.1180838454 -1.3209628934 1.8131630570
C -2.0487440521 -0.3810535577 0.8669993403
C -0.9265850332 -0.8062562594 -0.0783225450
C -0.2015017572 0.4173336666 -0.6417044333
C -1.2231622804 1.3449284893 -1.3011247671
N -2.2323102136 1.7645361713 -0.3231385277
C -3.0296100761 2.8836382037 -0.8738643368
C -3.8825231183 2.5406212910 -2.0653997407
C -3.7134166094 3.0659489175 -3.2775334489
C 0.8370168707 -0.0184399792 -1.6609768710
O 0.5457669267 -0.7951417976 -2.5746788251
N 2.1211978499 0.4281112442 -1.4955085748
C 3.1610350343 -0.0443096321 -2.4371330401
C 3.6190649595 -1.4901284746 -2.2199127929
C 4.6703796766 -1.6996829659 -1.1331397493
N 4.2409949371 -1.3428660860 0.2290541215
C 5.3815805037 -1.4305632812 1.1490850734
C 3.1427030888 -2.1898765928 0.7052211613
C 2.4222408359 1.5905775779 -0.6773717890
O 1.8411886196 2.6610114876 -0.8594037364
N 3.3756491725 1.3479437627 0.2238884689
C 3.9941506896 2.4149975317 1.0035079444
C 5.1370828187 3.0890416554 0.2479265702
H -3.4826082112 0.0634482739 -0.6822380148
H -3.7225941357 1.7225813083 1.8802915009
H -4.8807015211 1.6965923107 0.5487695065
H -6.9659364156 0.2798308703 2.2653357666
H -6.9873489318 -2.1197970557 2.9910706341
H -5.0975567280 -4.3773476465 3.0279901737
H -2.7611379375 -4.8464066983 2.3568527586
H -1.3176980792 -3.1382213159 1.3589602290
H -1.6015145120 0.1695151276 1.7110700137
H -0.2127703620 -1.4489000951 0.4482497824
H -1.3501295533 -1.3887836908 -0.9055209496
H 0.2724585764 0.9570275162 0.1843028477
H -0.7186316737 2.2398890117 -1.6803677825
H -1.6716272702 0.8185334342 -2.1646398615
H -3.6558515648 3.2921050434 -0.0732418722
H -2.3221371394 3.6731308118 -1.1542087228
H -4.6790070472 1.8128821585 -1.9078492374
H -2.9260726676 3.7927953438 -3.4691998506
H -4.3535006738 2.7945343757 -4.1123514678
H 4.0126316188 0.6384036870 -2.3511454181
H 2.7530538454 0.0545210472 -3.4485164435
H 2.7480907274 -2.1335544274 -2.0659532842
H 4.0763851324 -1.8241001347 -3.1590640234
H 5.5458948612 -1.0799530112 -1.3680530344
H 5.0040984265 -2.7545627566 -1.1617032079
H 6.1761249103 -0.7551962204 0.8149872239
H 5.7926122032 -2.4541726519 1.2026255365
H 5.0669261505 -1.1305816891 2.1537435304
H 2.2600694634 -2.0645648491 0.0725399224
H 3.4197167043 -3.2590828104 0.7135951508
H 2.8739906292 -1.8925884081 1.7237676129
H 3.7513266809 0.3709105996 0.2681673731
H 3.2253120232 3.1479026385 1.2675800287
H 4.3633838654 1.9677104620 1.9320298145
H 4.7713469671 3.5420865798 -0.6787172120
H 5.9149259407 2.3614939694 -0.0042060794
H 5.5852830780 3.8753043491 0.8632796231
