41
CONF7
C 0.1364044617 -3.4778613869 -0.2454641895
C -0.2253930964 -2.0888793042 0.1405060563
C -1.4711717701 -1.5307614889 0.2608348458
C -1.3111277272 -0.1373492374 0.5784538751
C 0.0708617214 0.1266876375 0.6380227243
N 0.7389202942 -1.0831154153 0.3496255700
C 2.1237224575 -1.3088742094 0.3881164396
O 2.5839018936 -2.3766907680 0.7642454015
C 2.9939909549 -0.2146436522 -0.1075988607
C 2.6300516200 0.5588576592 -1.2142117102
C 3.5018545954 1.5138041838 -1.7192956044
C 4.7295454664 1.6969578617 -1.0907094279
C 5.1153836075 0.9384444328 0.0106392318
C 4.2442898509 -0.0301236408 0.4888441510
Cl 5.8284849271 2.9153938595 -1.7104273852
C 0.5482392481 1.3724370773 1.0395589628
C -0.3785373378 2.3672668235 1.3113538248
C -1.7621642108 2.1266514677 1.2096486639
C -2.2441709987 0.8709391619 0.8526628360
O -2.5559993374 3.2015000181 1.4979434931
C -3.9723273898 3.0081738759 1.4240004776
C -2.7802447030 -2.2347911001 0.0524358105
C -3.1791338267 -2.1719789337 -1.4053008263
O -3.0805098253 -3.0869013890 -2.1957747525
O -3.6324712438 -0.9473882054 -1.7480533122
H -0.7521005910 -3.9902428633 -0.6185247397
H 0.5441276095 -4.0427567083 0.5976149587
H 0.8925864459 -3.4845752792 -1.0363208477
H 1.6683038058 0.4081704930 -1.6932859637
H 3.2323620785 2.1062774274 -2.5858373005
H 6.0783306844 1.1002420769 0.4808655563
H 4.5269164420 -0.6412853557 1.3394475340
H 1.6050233199 1.5831438231 1.1435322934
H -0.0453825540 3.3537965372 1.6154933001
H -3.3042768334 0.6591162216 0.7926701970
H -4.4173782654 3.9697323079 1.6816910584
H -4.3039988243 2.2455216939 2.1390970245
H -4.2785429521 2.7202477736 0.4108225348
H -3.5566750558 -1.7571265501 0.6585641239
H -2.7146028539 -3.2861159940 0.3357974852
H -3.8270924157 -0.9519004127 -2.7010430233
