47
CONF86
C -5.1569424197 2.6899419083 2.9647901013
C -4.0812876884 2.6116067186 1.8831809539
C -2.8040648410 1.9459347243 2.3944626627
C -1.6933091927 1.8679001222 1.3666894341
O -2.0911830012 0.9761394127 0.2733232864
C -2.4366415176 1.5195830620 -0.8944866906
O -2.4521791787 2.7061266213 -1.1540067065
C -2.8977398009 0.4679514115 -1.9046365785
C -4.4102642482 0.3213726494 -1.8146651308
O -2.3430392141 -0.8271252081 -1.6647417343
C -0.9912679694 -0.9904733250 -1.8098921150
C -0.5043792040 -2.2575016036 -1.4723303293
C 0.8498554934 -2.5347274031 -1.5827152768
C 1.7113489877 -1.5402844234 -2.0279665644
C 1.2442612872 -0.2846134010 -2.3727202565
C -0.1167840544 -0.0003959114 -2.2639518604
O 3.0696220909 -1.8437808883 -2.2066670716
C 3.9158589512 -1.6486259412 -1.1610109618
C 5.2536378224 -2.0103724658 -1.3756935175
C 6.1388970931 -1.8230111376 -0.3376981011
C 5.6683850258 -1.2817088604 0.8660598485
C 4.3235105102 -0.9605743722 0.9729508989
N 3.4521484425 -1.1406241024 -0.0290672555
C 6.6049320579 -1.0942663689 2.0124346506
F 6.0944379530 -0.2950517755 2.9763593177
F 7.7836502127 -0.5445815427 1.6195928095
F 6.9227743674 -2.2763638346 2.6127809856
H -6.0659165632 3.1682235592 2.5874813907
H -5.4250826918 1.6891366923 3.3208890706
H -4.8027964626 3.2676084436 3.8256830337
H -4.4691910365 2.0500313710 1.0240415549
H -3.8423301147 3.6184291397 1.5182880316
H -2.4087246071 2.5127711493 3.2479348324
H -3.0276447586 0.9364282063 2.7627934493
H -0.7944067455 1.4078810511 1.7835278160
H -1.4498807852 2.8489295813 0.9518625071
H -2.6135044932 0.8286396810 -2.9009351318
H -4.7520414121 -0.3883479808 -2.5717624612
H -4.8863045444 1.2880404579 -1.9950904090
H -4.6978027810 -0.0409229739 -0.8237431520
H -1.1993671159 -3.0147733732 -1.1251742989
H 1.2398534801 -3.5130585320 -1.3217047156
H 1.9369067864 0.4744610330 -2.7208438499
H -0.4654161964 0.9872874466 -2.5411886705
H 5.5633318174 -2.4214464055 -2.3291217628
H 7.1846760549 -2.0885144461 -0.4544356217
H 3.9214032092 -0.5404782711 1.8911229007
