49
CONF1
C 2.2981696109 -2.2668419807 -0.5491959682
C 0.8243242695 -1.9367286340 -0.4906944381
O 0.7053679776 -0.5010445008 -0.5477360364
C -0.5379100659 0.0532226276 -0.5121402299
C -1.7140152928 -0.6913591819 -0.4464952226
C -2.9714891177 -0.0692452029 -0.4232970668
C -3.0159143733 1.3238493205 -0.4676744145
C -1.8353123814 2.0654102883 -0.5273061942
C -0.5841389769 1.4621925811 -0.5525756937
C 0.6668070767 2.3051058727 -0.5944307839
C 1.6595155643 1.9854479253 -1.7430102645
O 2.8538194299 1.4966275826 -1.0593427172
C 2.6069930040 1.6645020414 0.2656276736
N 1.4801172938 2.1300850216 0.6391224327
C 3.6981400407 1.2587586588 1.1635212142
C 3.4780952331 0.4468072866 2.2805111966
C 4.4893156181 0.0427283438 3.1334787950
C 5.7882389256 0.4683830115 2.8734507136
C 6.0676676958 1.2809125764 1.7788124801
C 5.0227027811 1.6521654082 0.9533847360
F 5.2901725200 2.4630205446 -0.0914659320
F 2.2274541506 0.0092815844 2.5274236089
C -4.2284682935 -0.9403520840 -0.3510247709
C -4.1889831356 -1.7865304980 0.9361766113
C -4.2725202554 -1.8752205068 -1.5751396728
C -5.5137703658 -0.1044793829 -0.3379854756
H 2.4287677833 -3.3519522870 -0.5080900557
H 2.8314733732 -1.8222259668 0.2963325874
H 2.7419356259 -1.8987562424 -1.4787182256
H 0.3716064133 -2.3008937874 0.4411159348
H 0.2863097030 -2.3812969273 -1.3384231341
H -1.6578933485 -1.7718443230 -0.4131462222
H -3.9617757118 1.8508328209 -0.4539339217
H -1.8893522678 3.1509793995 -0.5560604393
H 0.3515145443 3.3521591783 -0.6514830770
H 1.9428645548 2.8784035165 -2.3059937307
H 1.3147600203 1.2023945458 -2.4195744142
H 4.2544541853 -0.5959878324 3.9769362602
H 6.5932444244 0.1637025549 3.5330919809
H 7.0711033113 1.6306901368 1.5658233491
H -4.1496610531 -1.1413906964 1.8204346047
H -3.3193383613 -2.4499767570 0.9567130141
H -5.0897991175 -2.4068026242 1.0010470667
H -3.4041684181 -2.5398841946 -1.6068834047
H -4.2943326111 -1.2941525114 -2.5033592766
H -5.1737751223 -2.4969534078 -1.5359125508
H -5.6103495005 0.5015590192 -1.2448017535
H -6.3771764344 -0.7754305116 -0.2887209957
H -5.5547908149 0.5601293056 0.5312814494
