39
CONF152
C 3.4506928426 1.2087463101 -1.0824558794
C 3.0091673700 -0.0798450830 -1.7756985625
C 2.7991283727 -1.2588974671 -0.8192725164
C 1.7142160949 -1.0306825933 0.2076177010
C 1.3863286395 -2.2129464276 1.1034283834
O 0.0004135638 -1.9970963238 1.4530177444
C -0.5488242442 -1.0688974732 0.5121337724
C -1.7435698536 -1.7390128808 -0.1912186257
N -2.3620107943 -0.8469637707 -1.1554262167
C -1.9785691808 -0.5800504297 -2.4203062294
N -2.7448103061 0.3711875835 -2.9407970171
C -3.5976066294 0.6623316107 -1.9178283890
N -3.4038957712 -0.0467442128 -0.8132619418
O 0.4414840387 -0.8464049993 -0.4652915249
C -0.9319422414 0.2416454907 1.2076190892
C -1.7227246669 0.3185476498 2.3579951575
Cl -2.3603459637 -1.1199025412 3.1447488959
C -2.0701227980 1.5339128777 2.9389294852
C -1.6200593204 2.7031931919 2.3421126187
Cl -2.0540415041 4.2417175774 3.0670191275
C -0.8455949629 2.6812868874 1.1913437624
C -0.5174768100 1.4492872975 0.6409400390
H 3.6749910039 1.9873671587 -1.8179873005
H 2.6739197588 1.5999911422 -0.4173759348
H 4.3523318824 1.0408466457 -0.4825838058
H 3.7672228251 -0.3732190996 -2.5110851108
H 2.0842718597 0.0979944436 -2.3373787043
H 3.7297408724 -1.4612853129 -0.2728219640
H 2.5526754438 -2.1635841569 -1.3884383246
H 1.9225089066 -0.1425613616 0.8220457079
H 1.9757089349 -2.2375646618 2.0233062356
H 1.4873198360 -3.1618342856 0.5604093085
H -1.3707964176 -2.6256561016 -0.7104174675
H -2.4980050742 -2.0316405905 0.5394845306
H -1.1631199643 -1.0988618411 -2.9064495837
H -4.3818539742 1.4057916134 -1.9865148625
H -2.6811376263 1.5625059714 3.8327678795
H -0.5065652401 3.6012413460 0.7299660210
H 0.0809513149 1.4160576103 -0.2622755992
