40
CONF5
C -6.2558535723 -0.3874262791 0.5061997559
C -4.8844134540 -0.6349903861 1.0911675432
O -3.9179565339 -0.1690039204 0.1293238741
C -2.5985417709 -0.3067721258 0.4496059488
C -2.1102282785 -0.8528898771 1.6306403924
C -0.7371171261 -0.9517638765 1.8583098394
C 0.1677701744 -0.5018488026 0.8995681525
C -0.3075936258 0.0553798537 -0.2965990880
C -1.6772505544 0.1520115896 -0.5198006634
O -2.2281107718 0.6760708869 -1.6482857720
C -1.3354778584 1.1659034457 -2.6706922123
C -2.1932578992 1.6812741620 -3.8031134006
N 1.5388667838 -0.6341067810 1.1917785601
C 2.6114918572 -0.2889954126 0.4223916128
O 2.5741765551 0.2237506938 -0.6870351724
O 3.7517237597 -0.6144775652 1.0830629416
C 5.0166788450 -0.2565598758 0.4312456772
C 6.0494446029 -1.2129079816 0.9917282439
C 5.3333737971 1.1995716218 0.7195910813
H -7.0185425989 -0.7299724471 1.2113123409
H -6.4117883812 0.6787172445 0.3185547690
H -6.3818049542 -0.9342491550 -0.4325458705
H -4.7223350831 -1.7046915522 1.2815082846
H -4.7514237991 -0.0889321891 2.0349842617
H -2.7904893504 -1.2115710735 2.3931631188
H -0.3782791785 -1.3832508362 2.7877752703
H 0.3975460568 0.4028068407 -1.0345315700
H -0.6839487088 0.3481447132 -3.0061107553
H -0.7080773230 1.9641962416 -2.2523929795
H -2.8414973325 2.4931565496 -3.4613942572
H -2.8148698357 0.8812887548 -4.2150513479
H -1.5493366314 2.0645800047 -4.5997608468
H 1.7610925792 -1.0504039370 2.0848873341
H 4.8902436321 -0.4152845467 -0.6440056641
H 5.7760478835 -2.2503426930 0.7811050534
H 7.0194754759 -1.0083095088 0.5298703158
H 6.1474753606 -1.0829580982 2.0741509527
H 5.4382661691 1.3579737015 1.7977418310
H 4.5478967668 1.8557176638 0.3357770336
H 6.2766240268 1.4711659582 0.2358751990
