35
CONF5
C -5.4451685209 -1.2841546022 0.9165138088
C -4.4668084213 -2.2412246891 0.2839742200
O -3.2803173342 -1.4545576068 -0.0596163519
C -2.2958465051 -2.0968236070 -0.6503784584
N -2.3190912332 -3.3713590943 -0.9400614535
C -1.2467206643 -3.8987700021 -1.5458052027
C -0.1011787537 -3.2424036516 -1.9051325668
C -0.0794135854 -1.8738447369 -1.5918798650
N 0.8186365047 -0.9091133619 -1.7648835448
C 0.1955349696 0.1601203522 -1.2210350777
N -1.0201113845 -0.0029175053 -0.7185383250
N -1.2041620748 -1.3309576799 -0.9586920118
S 0.9346699254 1.8053410963 -1.2647840173
O 0.2677891257 2.6409428921 -0.2749034479
O 1.0452692362 2.1556330464 -2.6809231229
N 2.5389088321 1.4685520688 -0.7331483454
C 3.0032989818 2.0610878838 0.4548429272
C 3.9300643776 3.1166368707 0.4402886489
C 4.4340288904 3.6740162463 1.6064694215
C 3.9883247498 3.1970308432 2.8323439875
C 3.0684063246 2.1583084298 2.8909580705
C 2.5992100409 1.5921476612 1.7137563745
Cl 1.4925069224 0.2494547067 1.8135000395
Cl 4.4785237834 3.7455453644 -1.0987632189
F -1.3548732155 -5.2061075168 -1.8047854455
H -5.0237289021 -0.8329463826 1.8180088944
H -6.3517095972 -1.8303586804 1.1921183582
H -5.7177492360 -0.4876607732 0.2200233080
H -4.1593895273 -3.0411992812 0.9643210062
H -4.8532625386 -2.6943929519 -0.6337756482
H 0.7302443921 -3.7292738496 -2.3937649938
H 3.1553711442 1.6130264978 -1.5282452186
H 5.1522324781 4.4825694205 1.5468659739
H 4.3645264960 3.6359007252 3.7496463357
H 2.7219844144 1.7717518729 3.8415794505
