27
CONF54
C -2.5239698793 -0.5572412703 0.2160543067
C -4.0047475182 -0.3927664470 0.5813942764
O -4.4911594030 -1.5497814452 1.2542020281
C -1.9803673180 0.6557381791 -0.5003819499
C -0.5318025970 0.5198081400 -1.0721601842
C 0.5537459351 0.0734884568 -0.0384359116
C 2.0238616308 0.3474606192 -0.5097151223
C 3.0929473363 -0.4806893457 0.2813540235
C 4.5509880205 0.0683136964 0.1423229487
F 4.8522021292 0.2681767883 -1.1483432021
F 5.4008756317 -0.8341823324 0.6510564941
F 4.6983704781 1.2161556310 0.8109292913
F 3.0887098236 -1.7512018749 -0.1741541934
F 2.7812814023 -0.4803433724 1.5990667371
F 2.1330992404 0.0344877732 -1.8199207250
F 2.2896882962 1.6629991656 -0.3453081873
F 0.3529172902 0.7241035808 1.1308823637
F 0.4098082994 -1.2598451100 0.1808635746
F -0.5662245036 -0.3989671593 -2.0691065109
F -0.1628143929 1.7150838264 -1.5925697399
F -2.0064864476 1.7543753550 0.3139270145
F -2.7607874056 0.9546564706 -1.5879292247
H -1.9307872081 -0.7123555573 1.1236230392
H -2.3978505672 -1.4364360573 -0.4230196242
H -4.1526170162 0.5154767698 1.1813120899
H -4.6050658237 -0.2979321538 -0.3263529661
H -4.1138158409 -1.5692059292 2.1404094542
