41
CONF61
C -4.8689969544 0.1019554723 -1.7444333725
C -4.7127219481 -0.1570369748 -0.2462638881
N -3.6618821107 0.6509601661 0.3891115797
C -4.0762379517 1.8726260947 1.0783552077
C -3.9907870217 3.1208336200 0.1885466590
O -4.2893250772 4.2983922921 0.9387884082
C -2.3477974567 0.3217969629 0.2578872362
C -1.3186487509 1.1363598391 0.8213638378
C 0.0037288761 0.7856178814 0.7259960990
C 0.3938095355 -0.3951527793 0.0530334433
C -0.6142846013 -1.1945045520 -0.5215739951
C -1.9432373117 -0.8547814671 -0.4316758080
N 1.6874986991 -0.8424746574 -0.1060558298
N 2.5999929934 -0.1364750215 0.4410340795
C 3.8986216673 -0.6132316394 0.2294340438
C 4.9139302569 0.0660804842 0.9263855176
C 6.2369713133 -0.3104620614 0.7937424961
C 6.5487916628 -1.3743075323 -0.0528343336
C 5.5606443504 -2.0611084553 -0.7646830114
C 4.2413282919 -1.6821746614 -0.6244159918
N 7.9387243645 -1.7767494177 -0.2029942836
O 8.7976221217 -1.1592923611 0.4304094889
O 8.1963277472 -2.7168256354 -0.9582415916
H -3.9347851728 -0.0799463464 -2.2827270332
H -5.1798580892 1.1326299464 -1.9338841067
H -5.6342047422 -0.5666587380 -2.1505167975
H -4.5079365526 -1.2163878149 -0.0585948042
H -5.6486792410 0.0740609903 0.2681747337
H -3.4705335774 2.0258547350 1.9772766434
H -5.1100595433 1.7363850234 1.4106699478
H -2.9713552373 3.2429168325 -0.1908307656
H -4.6634935053 3.0168329257 -0.6727811612
H -5.2329763276 4.2911122065 1.1426024441
H -1.5685017617 2.0564515261 1.3334250304
H 0.7605292543 1.4246914050 1.1657293104
H -0.3195155658 -2.0979790812 -1.0468328818
H -2.6748301069 -1.5013215877 -0.8966616020
H 4.6383666610 0.8908509508 1.5751161260
H 7.0219854392 0.2057607269 1.3314245135
H 5.8371635891 -2.8784162383 -1.4190589683
H 3.4646127837 -2.1997245653 -1.1734471332
