46
CONF2
C -5.2781498054 3.1565878292 -0.0037271581
N -4.5007219573 1.9647209162 0.3244074227
C -3.9888116018 1.8985502431 1.6898142017
C -4.0839879884 1.1613972109 -0.6689989848
O -4.3497925977 1.3271890970 -1.8664313824
C -3.3273838849 -0.0863127710 -0.2923573599
C -1.9722281144 -0.2765388503 -0.5454184856
N -1.3079037135 -1.4088271455 -0.3920228816
C -1.9906310015 -2.4680222286 0.0557206379
C -3.3473083873 -2.4027931973 0.3627217562
C -4.0207009366 -1.2034708121 0.1828622787
S -0.9491483214 1.1016523076 -1.1685227257
O -1.5428545667 2.3676147351 -0.7284808412
O -0.6567176538 0.8877078728 -2.5926411021
N 0.5415352752 0.8693453994 -0.4006499549
C 0.6030505966 0.6859684780 0.9710740822
O -0.3077429893 0.9732569884 1.7355865332
N 1.7969842519 0.1676113799 1.4479699122
C 2.9063249950 -0.3443454964 0.7802636041
N 3.8766606473 -0.7813805761 1.5841417732
C 4.9488989301 -1.2860546312 0.9643933095
C 5.0680589671 -1.3621357003 -0.4220778854
C 3.9865694162 -0.8733339536 -1.1430060093
N 2.8983115984 -0.3587848468 -0.5534493082
O 4.0469285802 -0.9245630746 -2.4770798802
C 2.9128165308 -0.4218616666 -3.2241237548
O 5.9720741898 -1.7485476026 1.6913813508
C 5.8621019685 -1.6776108423 3.1334250621
H -4.6182588447 4.0223715936 -0.1444771741
H -5.9645836310 3.3665631825 0.8209140315
H -5.8453715736 2.9866793615 -0.9188397358
H -4.8231655922 1.8665383560 2.3981458610
H -3.3694759512 1.0122248869 1.8263104768
H -3.3789355724 2.7856666836 1.8998979103
H -1.4318117780 -3.3923146073 0.1755548183
H -3.8648203337 -3.2800100486 0.7342623817
H -5.0800804639 -1.1205222845 0.4057526365
H 1.2879911737 0.4088562399 -0.9498666914
H 1.8387447775 0.1054408929 2.4572234759
H 5.9436548928 -1.7745436915 -0.9048118146
H 2.0115626925 -0.9915997877 -2.9812762739
H 3.1809898542 -0.5655345066 -4.2699921234
H 2.7561632364 0.6398422719 -3.0149578691
H 5.7621430646 -0.6393751915 3.4586194356
H 6.7924612244 -2.1058317743 3.5047455875
H 5.0065599054 -2.2614697448 3.4809635321
