54
CONF79
C -3.3255205515 -3.5277796659 -1.0415518782
C -2.5729852076 -3.7251178449 0.2768284124
C -3.5194725889 -4.1165956297 1.4121261349
C -1.7149207750 -2.5019345187 0.6680380198
C -0.6150100071 -2.2748973752 -0.3807216879
O 0.2965262485 -3.0955767416 -0.5056453191
N -0.7287987817 -1.1700947691 -1.1440464978
C 0.2893032269 -0.7897617723 -2.1093706455
C -0.3123831245 0.2133872505 -3.1219352928
C -0.7281578930 1.4854686792 -2.4276153006
O -1.6496880525 1.5552687992 -1.6322113772
O 0.0507892114 2.5244935762 -2.7531083683
C -0.2397223511 3.7677809822 -2.0603271648
C 1.5356526650 -0.2073164348 -1.4612937289
C 1.4865096332 0.4427341323 -0.2287841799
C 2.6260429673 1.0329346915 0.3119928596
C 3.8171629930 0.9624467682 -0.3977301563
C 3.8984037627 0.3151110640 -1.6251605288
C 2.7489077838 -0.2661303934 -2.1488316327
Cl 5.2663496123 1.7019602053 0.2786294604
N -2.5326858562 -1.3293531441 0.9239568631
C -2.0953938438 -0.3288481147 1.7344081780
O -0.9920007048 -0.3047812131 2.2646287470
O -3.0446560783 0.6270163644 1.8704666166
C -2.6803060542 1.8042313723 2.6693330894
C -1.8776502190 2.7670621096 1.8139102678
C -3.9918666536 2.3889999263 3.1517402876
H -4.0826208124 -2.7380546992 -0.9699625962
H -2.6459795336 -3.2750233070 -1.8617895374
H -3.8483504776 -4.4508674654 -1.3093112226
H -1.8491991448 -4.5363126760 0.1362354896
H -4.2837858943 -3.3500611312 1.5797427639
H -4.0337913992 -5.0503646443 1.1650460776
H -1.1750447531 -2.7498873105 1.5897583105
H -1.4659218396 -0.5052985772 -0.9449000316
H 0.5791603913 -1.6846422501 -2.6712359853
H 0.4303453294 0.4236350668 -3.8927540004
H -1.1984045122 -0.2331800272 -3.5843723439
H -1.2579468091 4.0932577331 -2.2845014010
H 0.4879469995 4.4835583735 -2.4392343691
H -0.1215201800 3.6273024082 -0.9830783368
H 0.5586769745 0.4829716720 0.3335493185
H 2.5838606234 1.5342326576 1.2724597092
H 4.8402298197 0.2610093087 -2.1592760141
H 2.8022902640 -0.7771096377 -3.1065405081
H -2.0810942826 1.4532443477 3.5149859762
H -0.9625879138 2.2956184587 1.4457464155
H -1.5998732815 3.6416934448 2.4103355477
H -2.4726792929 3.1026727968 0.9585871378
H -3.7906611320 3.2668731195 3.7722759596
H -4.5479897296 1.6613635143 3.7489576397
H -4.6097594768 2.6996889013 2.3032762551
H -2.9726218963 -4.2631676249 2.3491022481
H -3.4647433068 -1.2644357375 0.5438567427
