39
CONF115
C 4.1146195485 1.9229714610 -1.1965443543
C 3.4910791993 0.6272676234 -1.7140199479
C 3.5628234544 -0.5388058011 -0.7260264915
C 2.9039804466 -0.2621160480 0.6283054860
N 1.5199394414 0.1955357661 0.5067965932
C 0.5195172341 -0.6682647250 0.2304438390
O 0.6699212646 -1.8826563351 0.1408929175
N -0.7540122341 -0.0655981197 0.0638876273
C -1.0744860765 1.2737844011 -0.2195840161
C -0.3325106408 2.3535796296 -0.6837187473
C -1.0183115060 3.5499034693 -0.8988408849
C -2.3949282892 3.6513318005 -0.6792876083
C -3.1389959523 2.5556397839 -0.2546150104
C -2.4712302848 1.3561895804 -0.0302451202
N -3.0037209180 0.1306111859 0.3366675477
C -1.9910780869 -0.6820737484 0.3817893196
N -1.9954284501 -2.0169254494 0.6915333087
C -3.0584031325 -2.7111508721 1.2522209832
O -4.1232550037 -2.2675451580 1.5933812409
O -2.6767270629 -4.0139972174 1.3611167466
C -3.6788758429 -4.8631501075 1.9514908183
H 4.1241348294 2.6921908992 -1.9740914986
H 5.1487686191 1.7618043814 -0.8722191074
H 3.5629705092 2.3339275830 -0.3434825630
H 3.9962434362 0.3259472891 -2.6386819747
H 2.4436030274 0.8038892753 -1.9892390596
H 3.0946421768 -1.4248001003 -1.1682175418
H 4.6120172719 -0.7970597287 -0.5311577361
H 3.4472187550 0.5163195230 1.1722509772
H 2.9223574091 -1.1706699609 1.2392726988
H 1.2937273923 1.1550622449 0.7119018893
H 0.7245763368 2.2894663371 -0.9174055796
H -0.4670280582 4.4125174278 -1.2572254797
H -2.8925524395 4.5983415820 -0.8595705180
H -4.2116246819 2.6134567409 -0.1077687206
H -1.1249217133 -2.5123015540 0.5176818247
H -3.2349772863 -5.8582258718 1.9753428331
H -4.5881957869 -4.8604335536 1.3447440251
H -3.9208751113 -4.5239651314 2.9622216915
