45
CONF1
C -0.4781954061 2.7120066929 -1.0540030298
C -1.4962745182 1.9988278822 -0.2256018660
C -1.6886362802 0.6747450869 -0.2309139847
C -2.6954720532 0.0082630216 0.6077239814
C -2.3528428542 -1.3190921434 1.3504919795
C -3.3788528399 -1.2866239902 0.2415737402
C -3.1277137343 -1.9358107093 -1.1019821283
C -4.8126948740 -1.4334336772 0.7106703062
C -0.9774062721 -1.8245588865 1.2141579325
O -0.4264908911 -2.2552216514 0.2198363056
O -0.3275054989 -1.6905705706 2.4059715755
C 1.0880521741 -2.0018775714 2.3854233865
C 1.8557625226 -1.0269249834 1.5365898575
C 1.8071168609 0.3417076282 1.7876749111
C 2.4874793966 1.2520358340 0.9948940843
C 3.2770147645 0.8469002846 -0.0767507853
C 3.3295697414 -0.5198474511 -0.3208973524
C 2.6356655562 -1.4334995567 0.4607385974
F 2.7284700791 -2.7381248431 0.1513165799
F 4.0689801102 -0.9893923655 -1.3442429603
C 4.0066425654 1.8568047908 -0.9321071672
O 3.1395162229 2.4954787453 -1.8677295367
C 2.7332779034 1.6215719367 -2.9239360575
F 2.3938172270 2.5613096129 1.2916777814
F 1.0830605979 0.7992853039 2.8252087706
H 0.2088883806 3.2862858317 -0.4206243618
H -0.9531663599 3.4328201099 -1.7311114015
H 0.1104012288 2.0101564077 -1.6511206419
H -2.1175241603 2.6170551138 0.4242727195
H -1.0649670240 0.0553020144 -0.8731857534
H -3.2786723408 0.6883771948 1.2250905502
H -2.7282727519 -1.3542465740 2.3683237378
H -3.8263210059 -1.5157032769 -1.8340906473
H -3.3153631129 -3.0129878450 -1.0363045716
H -2.1118807032 -1.7927893878 -1.4637113157
H -4.9698677447 -0.9530894715 1.6808523235
H -5.0751946436 -2.4932283230 0.8037843173
H -5.4935881364 -0.9757645063 -0.0152904825
H 1.3941932910 -1.9244283820 3.4304625288
H 1.2431929446 -3.0219578568 2.0309743487
H 4.8407200173 1.3666364996 -1.4500944708
H 4.4041761479 2.6505162982 -0.2955583299
H 2.1450797731 0.7743506356 -2.5437015686
H 2.1095953031 2.2117504695 -3.5983296673
H 3.6062312177 1.2369863370 -3.4697551033
