39
CONF179
C -1.2456521536 -0.0336210039 -4.8772747457
C -1.7595675155 -0.1303331496 -3.4429447372
C -0.6262584978 0.0609447796 -2.4380853887
N -1.1074412411 -0.0460816112 -1.0493270130
C -0.8593322828 -1.3191590828 -0.3634613931
C 0.5564203880 -1.4065105459 0.1689070215
O 0.6698473871 -0.4047417276 1.2156007452
C 1.9331345865 -0.2031151038 1.6708095282
C 2.4144793680 -0.8769049948 2.7995794257
C 3.6820644844 -0.6423626916 3.3167513666
C 4.4837882438 0.2937253750 2.6767537132
C 4.0567029496 0.9970221991 1.5579877353
C 2.7817476325 0.7365534207 1.0726049574
Cl 2.2015373584 1.6183342569 -0.3175607561
Cl 6.0886412125 0.6044912035 3.3082468114
Cl 1.3749531326 -2.0373847755 3.5863800781
C -1.5308787539 1.0852312068 -0.4512444559
O -1.4739326085 2.2088207971 -0.9370947348
N -2.1164496275 0.9251248622 0.8604510487
C -3.1987010462 0.1453998342 1.2320976995
C -3.4043119121 0.4204509694 2.5565300436
N -2.4780631040 1.3418923483 3.0112824240
C -1.7312471654 1.6322853334 1.9673003208
H -0.4878238837 -0.7995973869 -5.0745359085
H -2.0597788615 -0.1716279102 -5.5942528854
H -0.7920659525 0.9455631989 -5.0649750979
H -2.2282579184 -1.1072070866 -3.2723811114
H -2.5264834465 0.6323141456 -3.2624227126
H 0.1418077805 -0.7056102772 -2.5833719165
H -0.1524977416 1.0370340980 -2.5744883371
H -1.0213054618 -2.1307281047 -1.0797470694
H -1.5605272595 -1.4624744622 0.4590525507
H 1.2993354404 -1.2040985293 -0.6113603651
H 0.7345430976 -2.4023836990 0.5922211288
H 4.0294885669 -1.1758363969 4.1927081387
H 4.6924256806 1.7304885184 1.0778649778
H -3.7174064136 -0.4869846364 0.5274539098
H -4.1705439457 0.0155569579 3.2030243322
H -0.8923905213 2.3155300574 1.9409206555
