11
CONF2
C -1.0971031235 -0.7645834209 -0.1937268064
C 0.0657760585 0.1464757287 0.0335117240
C -0.0181336703 1.4524004567 0.3177752056
C 1.4156705385 -0.4475745205 -0.0644883557
O 1.6226718084 -1.6163102690 -0.3157575163
H -1.0761111633 -1.5900158579 0.5248260025
H -1.0309969119 -1.2217145667 -1.1860318774
H -2.0454784574 -0.2314575686 -0.1036116397
H -0.9716832149 1.9633668492 0.4066660925
H 0.8798911238 2.0457883307 0.4697528131
H 2.2554972238 0.2636248382 0.1110842677
