46
CONF43
C 3.9564033742 0.4376661751 2.4818753741
C 2.9101836191 0.2624646791 1.3875547824
C 3.3715813623 0.8891331731 0.0281820078
N 2.1452076853 1.1902871670 -0.7009801521
C 1.0641593956 1.7871351154 0.1005311861
S 1.4022426114 1.2933888376 1.8428282435
C 0.0376582120 0.9745538115 -0.7631477947
C 1.2925832345 0.4017313072 -1.4547889505
O 1.5288345159 -0.4327486912 -2.3094647850
N -0.9426094542 1.6644638754 -1.5263581835
C -2.2895677327 1.3693529590 -1.5827630133
O -3.0436760894 2.0022131656 -2.2967977056
C -2.7579614651 0.2299984389 -0.7211142485
C -3.5762267129 0.4773608414 0.3871287357
C -4.1011530919 -0.5857269379 1.1277535470
C -3.7962423164 -1.8864317903 0.7440534968
C -2.9798754288 -2.1615993806 -0.3469393007
C -2.4612801607 -1.0908393670 -1.0791010676
O -1.6439234619 -1.2149419575 -2.1583618478
C -1.2164003960 -2.5234512376 -2.5343283594
O -3.7738955523 1.7886496384 0.6769216309
C -4.6363068850 2.1075659268 1.7662277140
C 4.4360288872 0.0194058358 -0.6637802424
O 5.5431997038 -0.0085491857 -0.1816826678
O 4.1262088829 -0.6939835094 -1.7436538991
C 2.5256698930 -1.2073037215 1.2242410907
H 4.8506599251 -0.1379500403 2.2281637691
H 4.2375020339 1.4873989316 2.5961761048
H 3.5676261609 0.0756456808 3.4382006018
H 3.8729193668 1.8386845305 0.2469565956
H 0.9806256369 2.8754261864 0.0229174983
H -4.7324071325 -0.4128134740 1.9890233710
H -4.2064230462 -2.7127184321 1.3158119279
H -2.7644876242 -3.1861838613 -0.6193988430
H -0.5273443613 -2.3770277762 -3.3655852534
H -2.0659945116 -3.1383823174 -2.8556791570
H -0.6892380587 -3.0182664976 -1.7091013752
H -4.2364274653 1.7284178762 2.7153288318
H -5.6445729270 1.7078337965 1.6022461293
H -4.6786212559 3.1966248392 1.7983204849
H 2.0850020785 -1.5828869108 2.1507822623
H 3.4168667698 -1.8051386942 0.9987101835
H 1.7953664671 -1.3596271380 0.4239505138
H 3.1801212614 -0.6125243993 -2.0358456697
H -0.4436325473 0.1990482270 -0.1602817056
H -0.6428808834 2.3672493856 -2.1886904136
