39
CONF605
C 2.9304009931 -0.5846364705 -0.5988124258
C 2.7652384932 -1.5089694376 -1.7866270912
O 1.4008408578 -1.6045401073 -2.2135879577
C 0.6817905947 -2.6937561314 -1.6304373184
C -0.7767518549 -2.3212076144 -1.5506929600
O -0.8988640723 -1.3775858034 -0.4762373489
C -2.0769997348 -0.7160703273 -0.3172147936
C -3.2243346914 -0.9140233928 -1.0777217389
C -4.3647706027 -0.1396855899 -0.8363543578
C -4.3578490595 0.8247305960 0.1602686129
C -3.2136456469 1.0192675064 0.9420764917
C -2.0808192123 0.2460174718 0.7202896793
O -0.9266395958 0.3192430139 1.4404368417
C -0.6917130519 1.4916279397 2.2289781956
C 0.7179304659 1.3760782892 2.7827028723
O 1.7156853503 1.1037751690 1.8028483251
C 1.8774384702 2.1397474380 0.8339071741
C 3.0088417641 1.7759837868 -0.1039364339
O 2.6745353927 0.7520031234 -1.0436840191
H 2.2446617449 -0.8675531161 0.2124115173
H 3.9632161995 -0.6648423164 -0.2227767584
H 3.3333699872 -1.1108376374 -2.6351195528
H 3.1672687974 -2.5012375625 -1.5398700093
H 0.7937594817 -3.5970234687 -2.2494833145
H 1.0528068850 -2.9180613981 -0.6207967279
H -1.1036317432 -1.8699508914 -2.4966535456
H -1.3888146178 -3.2097823389 -1.3450109877
H -3.2388751382 -1.6606093764 -1.8629846100
H -5.2523772422 -0.3007701201 -1.4395221998
H -5.2379937029 1.4319363183 0.3448920542
H -3.2172423508 1.7670470103 1.7268925568
H -1.3909234214 1.5510374948 3.0747267897
H -0.8251905706 2.3859751742 1.6064671685
H 0.9456637071 2.3060758475 3.3284808617
H 0.7659047538 0.5386795416 3.4856682592
H 0.9578192161 2.2804248551 0.2467352177
H 2.1175853774 3.0930118641 1.3347928212
H 3.2500068480 2.6658551073 -0.6969729528
H 3.9026706492 1.4926257648 0.4719218661
