47
CONF5
C -0.6205232990 2.8856088516 1.2132045897
C -1.4689141782 1.7364082461 0.7166034876
C -2.7621663336 1.4028450875 1.4172897034
C -1.5339783138 0.5141527328 1.6362117519
C -1.5660157020 -0.8454321749 1.0767259226
O -2.2921679017 -1.2519805209 0.1980991168
O -0.6052742032 -1.6186125746 1.6813437574
C -0.4924231810 -2.9759020920 1.1861236937
C -0.4690714458 -3.8559894146 2.3507914851
N -0.4687454486 -4.5687651656 3.2588123550
C 0.7322685704 -3.1161648956 0.2999647033
C 1.5970294483 -4.2035180557 0.4067358923
C 2.6739774474 -4.3138126508 -0.4686700395
C 2.9082977606 -3.3417588401 -1.4328657132
C 2.0410743441 -2.2578865963 -1.5203182703
C 0.9451951165 -2.1434066282 -0.6737150845
O 2.2645446008 -1.3380858273 -2.5253384302
C 2.2108894448 0.0081686515 -2.2198623385
C 1.7816176436 0.8613743866 -3.2322724311
C 1.7874553888 2.2345574812 -3.0137633879
C 2.2117211035 2.7546846724 -1.7938249436
C 2.6364337601 1.8878801181 -0.7900020548
C 2.6390331263 0.5115706704 -0.9924572040
C -3.2777074343 2.1888185934 2.5403806870
C -4.5652584767 2.4537867682 2.7699127525
Cl -5.0823404239 3.4064223486 4.1319726653
Cl -5.8658078568 1.8986619649 1.7607325729
C -1.4115830392 1.5520455395 -0.7820109665
H 0.4001270556 2.7767789946 0.8334777848
H -0.5723929453 2.9403663943 2.3028641464
H -1.0212734665 3.8345621787 0.8401143040
H -3.5084763730 0.9412020925 0.7780843939
H -1.0038464599 0.6095172216 2.5775121687
H -1.3962939928 -3.1977912708 0.6010591215
H 1.4357282043 -4.9572760619 1.1698586265
H 3.3475572325 -5.1600755525 -0.3854396934
H 3.7502443913 -3.4043683453 -2.1130010064
H 0.2727749255 -1.2997068516 -0.7827333207
H 1.4567646303 0.4378102007 -4.1761468154
H 1.4539909538 2.9005315491 -3.8030152405
H 2.2154053653 3.8265356821 -1.6277569560
H 2.9847239243 2.2829077729 0.1593510217
H 2.9790358874 -0.1638641767 -0.2152454503
H -2.5721200653 2.5992048644 3.2554456611
H -1.7400329175 2.4750501620 -1.2718050278
H -2.0482099690 0.7346780886 -1.1233150520
H -0.3812663216 1.3582666565 -1.1020671216
