38
CONF43
C -0.9943486407 4.3562925809 -1.7622222988
C 0.0378343871 4.1596261684 -0.6547046167
C 1.2643320987 5.0504580702 -0.8953459851
N 0.3381939659 2.7253436943 -0.5531715197
C 1.2041672554 2.3499424852 0.5593771493
C 1.4218356980 0.8444433610 0.5857428065
O 2.1399465333 0.5003683858 -0.6040148805
C 0.1161603577 0.0734558674 0.6590558128
O 0.4839332913 -1.3122939147 0.7132383012
C -0.5159073217 -2.2401952708 0.6697315474
C -1.8740950078 -1.9515725973 0.6368365578
C -2.8220328554 -2.9923157872 0.5961339696
C -2.4539724221 -4.3257140743 0.5883833914
C -1.0841129421 -4.5978693530 0.6250331196
N -0.4127640388 -5.7997698201 0.6295598097
C 0.9484442320 -5.5704119019 0.6738660666
C 1.1789976433 -4.2208067326 0.6976328622
C -0.0992186478 -3.5827932440 0.6667790923
H -1.2949402890 5.4057586953 -1.8360169915
H -0.5739460960 4.0615593607 -2.7314612581
H -1.8811409305 3.7450221505 -1.5758860362
H -0.4204434440 4.4511294273 0.3025507972
H 1.7535482589 4.7750023686 -1.8374434414
H 2.0009159812 4.9633535863 -0.0916076104
H 0.9718769000 6.1036165509 -0.9630396637
H 0.7741262319 2.4101989095 -1.4163743633
H 2.2029610568 2.8214652486 0.5386353681
H 0.7228579277 2.6536710696 1.4994481439
H 2.0259186560 0.5929512640 1.4736010073
H 2.1335602351 -0.4633053585 -0.6648018163
H -0.4482273832 0.3536069415 1.5606004216
H -0.4929849026 0.2745567631 -0.2288761001
H -2.2231818370 -0.9269444745 0.6416418979
H -3.8746969596 -2.7304350169 0.5698310380
H -3.1949468370 -5.1169942335 0.5562510956
H -0.8475460299 -6.7046275496 0.6056719664
H 1.6453174305 -6.3955636142 0.6860402794
H 2.1435783439 -3.7402094982 0.7389929887
