56
CONF3777
C -3.3908676631 0.2676744480 -0.7096012818
N -3.0895915957 -0.3854077973 0.5641686027
C -4.1715581179 -1.1643647684 1.1724387439
C -5.0741142956 -0.3627709039 2.1251907698
C -4.3309384187 0.2053576332 3.3271410368
O -3.7423616798 -0.8322817891 4.1183038914
O -6.1354529486 -1.2241564206 2.5523607922
C -1.8672288609 -0.4136233297 1.1189340009
O -1.6082368015 -0.9323584461 2.2159642648
C -0.7195975798 0.1625257669 0.3244457400
C -0.2496190401 1.4577969178 0.5391221509
C 0.8907607921 1.9447536937 -0.1112942303
C 1.5526082857 1.0928127864 -1.0044196771
C 1.1012055693 -0.2017258814 -1.2576807260
C -0.0303574374 -0.6493266193 -0.5781376132
I -0.7312080181 -2.6240148473 -0.9309115507
C 1.7880680951 -1.0727325586 -2.2857693962
O 1.4422992172 -1.0237463051 -3.4666249693
N 2.7704186332 -1.8440985590 -1.7968625846
C 3.5237725699 -2.7746703930 -2.6277139836
C 2.8587133246 -4.1440869290 -2.7034437171
C 3.5957514286 -5.0824297961 -3.6518881988
O 4.9502632655 -5.3000157716 -3.2479505238
O 2.8674542854 -4.6796387174 -1.3684445439
I 3.2914236475 1.8040119800 -1.9815977260
N 1.3688480132 3.2459477049 0.1297032907
C 2.0767229059 3.5677894870 1.2508585335
O 2.2813348055 2.7935915728 2.1783783521
C 2.6540939305 4.9789539789 1.2496251938
O 2.1664904137 5.8112642611 0.2127959529
C 0.9268468247 6.4480831195 0.5613060827
I -1.3407543734 2.7478951656 1.8078693472
H -3.5527203417 -0.4840200233 -1.4909366048
H -4.2983615123 0.8683607746 -0.6004186715
H -2.5738215774 0.9253526317 -1.0060105275
H -4.7890526370 -1.5608582653 0.3604397861
H -3.7328357223 -2.0105510556 1.7116754641
H -5.5443590933 0.4658187857 1.5816294267
H -5.0500270576 0.7280783720 3.9665404165
H -3.5754649385 0.9296205214 2.9947006528
H -2.9377288637 -1.1004204230 3.6394032309
H -5.7504887049 -1.8218516999 3.2106698110
H 2.9303791952 -1.8459949767 -0.7998341258
H 3.6048928143 -2.3549402649 -3.6342053964
H 4.5280949382 -2.8733139425 -2.2065096605
H 1.8251023398 -4.0241410971 -3.0615797288
H 3.0461087221 -6.0347044029 -3.7059757642
H 3.6277351203 -4.6484067889 -4.6569347579
H 4.9174408259 -5.6003829906 -2.3289416386
H 2.2600309323 -5.4305464710 -1.3444339390
H 1.3830318936 3.9187212732 -0.6298250857
H 3.7365767645 4.8702000407 1.1076576074
H 2.4838723962 5.4138233683 2.2443088254
H 0.1515011489 5.7083866340 0.8021269385
H 0.6158005025 7.0289526279 -0.3087741178
H 1.0691029845 7.1158068002 1.4206203407
