56
CONF3
C 2.6853938220 -1.2022356244 2.2384894049
C 2.4963895455 -1.2980728605 0.7181726640
C 1.2484076918 -0.5361818051 0.2110921579
C -0.0511488154 -0.9937577102 0.8711556703
C -1.2046851153 -0.1712426160 0.3171292220
C -2.5928285315 -0.6942353205 0.7174720056
C -3.7233931163 0.2647879690 0.2938552793
O -4.8906080708 -0.1390451691 0.3637722881
C -3.3703922849 1.5616981211 -0.2525422654
C -2.0752778740 2.0726672879 -0.1286127966
C -1.0732579621 1.2980383782 0.7269705495
C 0.3561208261 1.7870406425 0.6248145007
O 0.4930952276 3.0762224757 0.8986106319
C 1.4201789114 0.9557887048 0.3765134043
C 2.7357032359 1.5343096285 0.2685320109
C 3.8558097857 0.6709019824 -0.0635938330
C 3.7325538025 -0.7332199231 0.0441143030
C 4.7731190047 -1.5532110370 -0.3537017778
C 5.9462168496 -0.9849323371 -0.8619292541
C 6.1077056686 0.3855166727 -0.9468945926
C 5.0743179255 1.2297333435 -0.5310066123
O 5.2695664791 2.5532811890 -0.6103160466
O 2.9129275308 2.7908339090 0.4110007080
O -1.4702932574 1.4190186181 2.1081745825
O -1.7261149427 3.1896173034 -0.6692753252
C -4.3354159087 2.4205065216 -0.9395755317
O -3.9507471030 3.5123393926 -1.4643640185
N -5.6142892844 2.0441866142 -1.0137378239
N -2.7815204067 -2.0553590677 0.2165679989
C -3.1600916721 -2.1447192693 -1.1915677008
C -3.6386715753 -2.8976585892 1.0483046379
O 2.3946608088 -2.6720758334 0.3281705000
H 2.7137512670 -0.1596901768 2.5679446132
H 3.6272422325 -1.6827129927 2.5145135410
H 1.8675561975 -1.7042997133 2.7662313550
H 1.1911126048 -0.7827768809 -0.8616048410
H -0.0061805968 -0.8529568029 1.9577226351
H -0.2500925116 -2.0483373125 0.6589591216
H -1.1332048977 -0.1869892749 -0.7804255343
H -2.6301375270 -0.7371939147 1.8131601379
H 4.6720201057 -2.6267309253 -0.2636646939
H 6.7551295575 -1.6342522064 -1.1829670139
H 7.0223614481 0.8322839396 -1.3199558815
H 4.4649053702 2.9801062145 -0.2257358683
H 1.4842258206 3.2649952685 0.7831326999
H -1.2856403461 2.3287078065 2.3793670908
H -2.6714169790 3.5336842317 -1.1493270228
H -6.2678365311 2.6451000570 -1.4877274752
H -5.8800924110 1.1799782250 -0.5479608262
H -2.5218891437 -1.4978936769 -1.8027259790
H -3.0106349847 -3.1741250846 -1.5351895340
H -4.2119203130 -1.8673571392 -1.3770359491
H -4.7012654939 -2.6123669309 1.0077407735
H -3.5428663984 -3.9374616132 0.7130905303
H -3.3045950557 -2.8478629248 2.0901429482
H 1.7760377032 -3.1023890924 0.9284204240
