20
CONF9
C 0.1881415880 -0.6209740724 -0.3775997672
O 0.9031294935 0.3182605344 -1.2190079653
C 2.0741641039 0.6724921513 -0.6002810425
O 2.8528093068 1.4677080680 -1.0910508657
C 2.1882621346 -0.0470465604 0.6518865980
O 3.2354876036 0.0803105793 1.5027686037
C 1.0939220833 -0.8179246752 0.7967423609
O 0.7105365540 -1.6521801017 1.7693695260
C -1.1836518426 -0.0696229353 -0.0040514984
O -0.9967113021 1.1106066753 0.7704111295
C -2.0318204485 0.2143776662 -1.2399104530
O -3.2784847575 0.8080063651 -0.8589613084
H 0.0561789034 -1.5517252470 -0.9447199366
H 3.8751856315 0.6922852498 1.1070853148
H 1.3761642711 -1.6724056504 2.4745463577
H -1.6795479586 -0.8520838225 0.5964490906
H -1.8550711058 1.5588099703 0.7895390567
H -2.1833768896 -0.7121346214 -1.8101792334
H -1.5279235360 0.9478394928 -1.8757632073
H -3.8173936264 0.1254008387 -0.4372730514
