39
CONF130
C 3.2617331463 -1.0315428693 -2.8222022269
C 2.1650675817 -0.8910062997 -1.7682366237
C 2.5823494615 0.0390519068 -0.6309340643
C 1.5411978601 0.2276422473 0.4601595716
C 1.0270577402 -1.0670170275 1.1273150179
O -0.3066400422 -1.2220120539 0.6102554558
C -0.7669657238 0.1011485055 0.4185437854
C -1.9165658705 0.1198862309 -0.5958040648
N -1.5442499269 -0.4379809261 -1.8821857557
C -1.4389059476 -1.7336718750 -2.2378285978
N -1.0547490602 -1.8324616022 -3.5050961573
C -0.9330034148 -0.5282274417 -3.8827311287
N -1.2182276282 0.3547147038 -2.9343162328
O 0.3348030380 0.8042196419 -0.1145849863
C -1.2328781107 0.7384447592 1.7389064744
C -2.1002900532 0.1224306673 2.6478739758
Cl -2.7741695815 -1.4778500158 2.3630211413
C -2.4907435680 0.7406681260 3.8320078365
C -2.0064797220 2.0118588058 4.1057838068
Cl -2.4923481679 2.7965544107 5.5978729651
C -1.1560561935 2.6709598964 3.2296428393
C -0.7859346579 2.0232003833 2.0585694605
H 4.1765479287 -1.4470568394 -2.3852543688
H 2.9451909166 -1.6923472880 -3.6353801200
H 3.5113885929 -0.0573930553 -3.2573110024
H 1.9110999140 -1.8816170418 -1.3712824230
H 1.2559691522 -0.4984589105 -2.2338665501
H 2.8365241024 1.0264199577 -1.0380931090
H 3.4925271610 -0.3413906459 -0.1475289968
H 1.9250042709 0.9164281591 1.2233927286
H 0.9982641924 -0.9685077307 2.2197621709
H 1.5991586907 -1.9548443445 0.8531717567
H -2.7594075375 -0.4463400511 -0.1935293660
H -2.2275054323 1.1547894563 -0.7512569063
H -1.6562085851 -2.5469183000 -1.5584428970
H -0.6324887887 -0.2190669416 -4.8761192913
H -3.1591822793 0.2382430161 4.5203877849
H -0.7885412962 3.6656649619 3.4524460360
H -0.1223419814 2.5233862495 1.3628719453
