26
CONF106
C -2.9006138695 -0.1328994853 0.2140410186
C -1.6560931307 -1.0074829262 0.1598721557
C -0.3549557914 -0.1792532608 0.1328234384
C 0.9031449727 -1.0452641298 -0.0756920840
C 2.2653075188 -0.3344709465 0.0493462535
C 2.5393759099 0.8573917099 -0.8677074209
O 1.9133786431 2.0539280511 -0.4007428245
O 2.4826347123 0.0376099131 1.4170109230
O 0.9223854434 -2.1376751679 0.8673292501
O -0.4471260890 0.8036447967 -0.9144762319
O -1.7262538204 -1.8518646709 1.3120635633
O -2.9231735354 0.6968353911 1.3781687236
H -2.9399554293 0.5307526853 -0.6519250283
H -3.7794269527 -0.7946489003 0.1894174617
H -1.7025917184 -1.6079873326 -0.7681984561
H -0.2771542554 0.3868586184 1.0684608073
H 0.8397177331 -1.5031557538 -1.0734173242
H 3.0125526177 -1.1056492745 -0.1811356747
H 2.2414577061 0.6162233744 -1.8977345324
H 3.6165263414 1.0512783039 -0.8577657764
H 2.1486029649 0.9448487254 1.5036406343
H 1.3253292444 -1.7756040396 1.6743397670
H -0.4983834890 0.3462019609 -1.7662868410
H -0.8502383752 -2.2711270338 1.3858420900
H 0.9662488350 1.9427544942 -0.6034025552
H -2.8028568280 0.1082218833 2.1357170113
