33
CONF2
C -1.1846144834 -1.1356035080 2.7489646755
C -1.6578274706 -0.8220627076 1.3661904456
C -2.7808725163 -0.0362851972 1.1228769177
C -3.1403915578 0.2053203359 -0.2024445768
C -4.3349985192 1.0279280263 -0.5655495790
N -2.4139100512 -0.2883226973 -1.2183560252
C -1.3593538218 -1.0357446332 -0.8736697239
N -0.6409776642 -1.5635773894 -1.9511021720
S 1.0298923542 -1.9590861204 -1.8550132462
O 1.1701985148 -3.1789261354 -1.0501406137
O 1.4234309686 -1.9830132581 -3.2759964959
C 1.8287007064 -0.6185176511 -1.0311750532
C 1.9818165723 0.5957416212 -1.7082432248
C 2.5936678550 1.6581828284 -1.0734221242
C 3.0636243529 1.5291984456 0.2524836500
N 3.6272521215 2.5930350438 0.8956009487
C 2.8972461993 0.2945065301 0.9146609100
C 2.2808943649 -0.7675255135 0.2813471536
N -0.9433061153 -1.3430124431 0.3538110476
H -0.1422468254 -0.8197006936 2.8643335294
H -1.2131351504 -2.2176933994 2.9158200743
H -1.7982654966 -0.6414335817 3.5037469103
H -3.3597908822 0.3771731510 1.9403651077
H -4.8405018200 1.4102504549 0.3226484712
H -5.0395079246 0.4238914454 -1.1469940126
H -4.0318159633 1.8684164709 -1.1981084260
H -0.8718079790 -1.1418884892 -2.8464658070
H 1.6276307128 0.7058643591 -2.7283318057
H 2.7195828543 2.6020538884 -1.5951834744
H 3.9459533216 3.3718455384 0.3411554557
H 4.1558922723 2.4170340794 1.7354157999
H 3.2565533724 0.1829679669 1.9332737934
H 2.1509872853 -1.7110166668 0.7982232859
