47
CONF171
C -2.4783535413 -3.0642038130 2.0326035101
C -2.5875591203 -1.6356564201 1.5469270008
C -2.1895860821 -1.2885013302 0.1379161397
C -1.2549419875 -0.9255551476 1.3099980115
C -1.0655906264 0.5042664396 1.5796158324
O -1.8105851836 1.4154252717 1.2873642452
O 0.1279894722 0.7120449733 2.2241570433
C 0.5618614516 2.0924661247 2.3050189032
C -0.3495165531 2.8860756140 3.1332832967
N -1.0090313556 3.5181211362 3.8395545279
C 0.8106643138 2.6741635205 0.9245212378
C 1.5402686931 1.8769606123 0.0424832956
C 1.7594576087 2.3280457410 -1.2543363126
C 1.2992691564 3.5814420346 -1.6614008147
C 0.6055577182 4.3744658136 -0.7580044522
C 0.3443784279 3.9248310284 0.5362890218
O 2.4650105003 1.6071224728 -2.1900590923
C 2.7050412833 0.2548355418 -1.9642248735
C 1.6536615460 -0.6448248167 -1.8062958065
C 1.9468407640 -1.9953668216 -1.6419238687
C 3.2685084386 -2.4401000023 -1.6521175971
C 4.3050045182 -1.5264962711 -1.8252810661
C 4.0274848480 -0.1693134929 -1.9771377848
C -1.7438908181 -2.2846137419 -0.8363840758
C -1.8284247884 -2.1478939815 -2.1610277588
Cl -1.2973836088 -3.3924746982 -3.2619109412
Cl -2.4619098667 -0.7350324064 -2.9596014193
C -3.7507220202 -0.8796148792 2.1469148695
H -3.3528758208 -3.6362731765 1.7039251064
H -2.4544921724 -3.0773257848 3.1268901938
H -1.5783880299 -3.5657040620 1.6712629601
H -2.7010040678 -0.4214729232 -0.2686554586
H -0.3713380960 -1.5407200873 1.4405061704
H 1.5070691598 2.0249620464 2.8567319434
H 1.9119626844 0.9099511127 0.3603087581
H 1.4890555881 3.9154170116 -2.6759317631
H 0.2433200717 5.3481293448 -1.0715372154
H -0.2301661396 4.5394055574 1.2209649502
H 0.6271992643 -0.2903683355 -1.8021572701
H 1.1364710324 -2.7050134416 -1.5116172850
H 3.4870223545 -3.4955026993 -1.5269409882
H 5.3359860588 -1.8657355715 -1.8369394382
H 4.8212374901 0.5591859526 -2.1055771101
H -1.3092298878 -3.2109537180 -0.4734091430
H -4.6777632345 -1.4202523411 1.9291048987
H -3.8372071772 0.1318150529 1.7480116179
H -3.6403607741 -0.8201617566 3.2351646959
