44
CONF13
C -4.4542196976 -3.0295962399 0.3081199037
C -3.0569583130 -2.6785359464 -0.1404787686
C -2.5730500751 -3.3808427442 -1.4070438835
O -1.7178045837 -2.4198364155 -2.0418833390
C -1.8577819481 -1.1762334450 -1.3548588441
O -3.0197326401 -1.2974647113 -0.5549029316
C -2.1252740805 -0.0812359648 -2.4010248760
N -2.1968821564 1.2304998139 -1.7887324342
C -3.1954356819 1.7690071963 -1.0504490036
N -2.8219539549 2.9348730452 -0.5503429953
C -1.5472775274 3.0586377094 -1.0150915657
N -1.1181260849 2.0519452758 -1.7650298252
C -0.6340723833 -0.8469919639 -0.5007522283
C -0.8265442121 -0.3557445309 0.7926967303
C 0.2254653931 0.0757957105 1.5859191780
C 1.5160214551 0.0211785330 1.0768365871
C 1.7557555089 -0.4734215987 -0.2008022828
C 0.6811009876 -0.8870766479 -0.9759968488
Cl 1.0643553658 -1.4342034363 -2.5993047587
O 2.5427670100 0.4181690012 1.9046625988
C 3.6001941883 1.1292123308 1.3689393087
C 4.8552044035 0.8948423884 1.9194559615
C 5.9490317623 1.6310269483 1.4806361245
C 5.7708915987 2.5870522048 0.4878167398
C 4.5175798470 2.8251129112 -0.0650854210
C 3.4225223318 2.0952583232 0.3812068074
Cl 7.1506295839 3.5110063161 -0.0762321002
H -5.1707847095 -2.8371432241 -0.4955879643
H -4.7390026393 -2.4403590973 1.1834278297
H -4.5044659946 -4.0887230673 0.5783767508
H -2.3314043694 -2.8261074367 0.6745957266
H -2.0003544789 -4.2906555782 -1.1997170881
H -3.4141675470 -3.6173706338 -2.0736082939
H -1.3157539418 -0.0718470115 -3.1317449700
H -3.0709983965 -0.3130639650 -2.8993650677
H -4.1500885984 1.2791201050 -0.9151905790
H -0.9198521934 3.9149097110 -0.8052005102
H -1.8414628611 -0.2850261208 1.1667747431
H 0.0580065809 0.4694407491 2.5816678417
H 2.7634292213 -0.5203301569 -0.5953411454
H 4.9642706122 0.1409684715 2.6909878116
H 6.9325168248 1.4584440083 1.9015527314
H 4.3950411155 3.5798605005 -0.8330054122
H 2.4386642940 2.2754488947 -0.0384226284
