55
CONF189
C 4.4485281351 -1.0866749364 -5.4088103863
O 3.1217475042 -0.7571167105 -5.0118459702
C 2.8133439621 -0.8726109536 -3.6888564099
C 1.5008792028 -0.5360615823 -3.3413665270
C 1.0854075702 -0.6187599766 -2.0256019215
C 1.9655501057 -1.0362599830 -1.0196747052
C 3.2657674671 -1.3765288943 -1.3819497140
C 3.7027572124 -1.2986484690 -2.7020340028
C 1.5694632121 -1.1059645556 0.4305610419
S 0.0107803315 -2.1166030844 0.5728964421
C -0.5991978022 -1.6442321303 2.1804250155
C -0.6799817945 -2.6120366645 3.1856673773
C -1.2436228917 -2.3116266208 4.4189918362
C -1.7035993287 -1.0219000595 4.6707937338
C -1.6112497429 -0.0454949620 3.6889180829
C -1.0771805507 -0.3433327451 2.4320706229
N -1.0438599391 0.6677173618 1.4402481708
C -2.3063273398 1.3173398309 1.0568087348
C -2.9922274203 0.5355897233 -0.0665450104
N -4.3117588700 1.0873965093 -0.3676915689
C -4.7268252850 0.7426466628 -1.7248839774
C -5.3137868766 0.6299416522 0.5911167196
C 0.0719321487 0.9652861781 0.6972894702
O 0.0590999820 1.7697376023 -0.2206154234
C 1.3631004572 0.2530899122 1.1228824112
O 2.4930584159 1.0563863168 0.7641076254
C 2.5729264135 2.2481270583 1.4195978572
C 3.6772418178 3.0877380874 0.8525425244
O 1.8276407420 2.5619045336 2.3163360309
H 4.6807776816 -2.1379318081 -5.1932844020
H 5.1852222228 -0.4397970709 -4.9145190699
H 4.4872177367 -0.9214537861 -6.4863053572
H 0.8234318865 -0.2091429154 -4.1225076688
H 0.0653846673 -0.3530230808 -1.7744599552
H 3.9645053109 -1.7045784416 -0.6173297903
H 4.7228231088 -1.5728077101 -2.9398482576
H 2.3603062509 -1.6286285721 0.9794601399
H -0.3019892523 -3.6077319830 2.9797870222
H -1.3085210131 -3.0770812712 5.1848766372
H -2.1193765597 -0.7688758135 5.6404621477
H -1.9365792604 0.9687490201 3.8950715325
H -2.0881621005 2.3332846646 0.7221567780
H -2.9435672136 1.3681018214 1.9418923200
H -2.3615129789 0.6175986703 -0.9580435770
H -3.0373942923 -0.5392015228 0.2033273676
H -4.8161570574 -0.3503020081 -1.8838075762
H -4.0044593923 1.1374413976 -2.4460049930
H -5.7010775682 1.1956343220 -1.9373115011
H -5.0264685593 0.8988969567 1.6119514482
H -6.2733976722 1.1131760536 0.3804144023
H -5.4630533627 -0.4677364456 0.5569239671
H 1.3567622702 0.1119312190 2.2087186660
H 3.9365753537 3.8756398684 1.5586520115
H 4.5483536551 2.4787852069 0.6033315967
H 3.3107475058 3.5400054343 -0.0749823550
