46
CONF125
C -1.2442281393 -0.6493993464 -1.7556533541
C -2.6386321205 -0.4938603647 -1.1922493730
C -2.8390143038 -0.4047683039 0.3143633719
C -3.0150978522 0.8311416640 -0.5677798401
C -2.0589890940 1.9703176957 -0.6349071818
O -1.9406189905 2.6751077013 -1.6192134538
O -1.3628304101 2.1451495977 0.5035564770
C -0.3202756096 3.1715547962 0.4888696164
C 0.9520167235 2.6183961145 -0.0886974136
C 1.6074134038 1.5752379440 0.5689534592
C 2.7888964872 1.0693111878 0.0389199968
C 3.3383871000 1.5899426354 -1.1281131068
C 2.6834718104 2.6343775321 -1.7740211540
C 1.4917030928 3.1434260205 -1.2642055576
O 3.5072897367 0.0913735711 0.7113755720
C 2.8673535379 -1.0915470053 1.0371740369
C 1.8680750382 -1.6391801364 0.2358816448
C 1.3122351551 -2.8658970938 0.5901339397
C 1.7556624626 -3.5454766461 1.7222971256
C 2.7642593806 -2.9879489646 2.5068452401
C 3.3219682073 -1.7575350073 2.1728763123
C -1.7164423305 -0.5614996015 1.2429154699
C -1.8255202524 -0.8625321013 2.5361045322
Cl -0.4293614596 -1.0440181879 3.5698094869
Cl -3.3442201371 -1.0910763469 3.3650206732
C -3.7057767203 -1.2197773232 -1.9784918919
H -0.5013851917 -0.0360086785 -1.2384320999
H -0.9251155773 -1.6959426082 -1.6998435652
H -1.2404334625 -0.3476175927 -2.8083641132
H -3.7830842980 -0.8049230155 0.6719727905
H -4.0409719523 1.1554948858 -0.7275810805
H -0.1979302644 3.4304383434 1.5426141898
H -0.6696728704 4.0402909718 -0.0719431295
H 1.2088350123 1.1660073674 1.4935318136
H 4.2650727399 1.1782296737 -1.5138644054
H 3.1034335407 3.0469217118 -2.6858102725
H 0.9790851912 3.9521785105 -1.7753572949
H 1.5373797914 -1.1174513747 -0.6552977648
H 0.5299832424 -3.2912415021 -0.0315044997
H 1.3179612744 -4.5007464054 1.9925483803
H 3.1163661713 -3.5082172050 3.3923041796
H 4.1041671481 -1.3093731813 2.7768641594
H -0.7047496028 -0.4360111362 0.8721223790
H -3.4856867046 -2.2927042504 -2.0094388897
H -3.7372718379 -0.8485918862 -3.0087854990
H -4.6937057586 -1.0815526591 -1.5304763143
