52
CONF55
C 1.2816270294 -2.3656722543 -1.9299069499
C 1.5271898510 -0.9076809676 -1.6151073678
C 2.6377018769 -0.2838747923 -2.4629261766
C 2.9482227768 1.1430681824 -1.9968055645
C 3.2485706754 1.1681854305 -0.4977343701
C 2.1759673403 0.4168251787 0.3004303990
O 1.8864659006 -0.8497541138 -0.2039677522
O 0.9987967033 1.2835125840 0.3074037949
C 0.0381775677 0.8977868883 1.2138444799
C -1.1566323541 0.3968279656 0.7802406189
O -2.1021863998 -0.0449994199 1.6534869711
C -1.8864552355 -0.0010768210 3.0029073624
C -2.8883796769 -0.5123815523 3.8080653998
C -2.6963945957 -0.4542109825 5.1890542069
C -1.5418510745 0.1013714405 5.7549146963
C -0.5529028555 0.6062838252 4.9249860924
C -0.7062085628 0.5612731101 3.5123188841
C 0.3160798213 1.0529553029 2.6258177402
O 1.3869430297 1.5647971640 3.0474243005
O 0.5602998518 1.1351537611 5.4600442054
O -3.6872804661 -0.9621487546 5.9598183899
C -1.5707532881 0.2601155703 -0.6123997098
C -2.1207096765 -0.9537307772 -1.0498133074
C -2.4493759540 -1.1210373730 -2.3844045111
C -2.2551821258 -0.0676198556 -3.2975877670
C -1.7458340692 1.1474852955 -2.8521198528
C -1.4011012458 1.3131158318 -1.5167676041
O -2.5651957636 -0.2170060117 -4.6103521422
O -2.9550147935 -2.2718737502 -2.9147626065
O 4.5044162736 0.5131446896 -0.3278067558
O 1.8767856924 2.0300665492 -2.3418228596
O 2.2686888380 -0.2802876023 -3.8412332747
H 2.1912798866 -2.9522808401 -1.7640647216
H 0.4831524785 -2.7593902815 -1.2943444467
H 0.9774887233 -2.4724918332 -2.9737310763
H 0.6017324934 -0.3362532006 -1.7670441569
H 3.5439318553 -0.8940097122 -2.3743055264
H 3.8268338270 1.5118234995 -2.5371789317
H 3.2875116191 2.2090381373 -0.1481112291
H 2.5061432211 0.2603440482 1.3322385544
H -3.7889321263 -0.9376745894 3.3825799068
H -1.4129695463 0.1379072342 6.8321203660
H 1.1233500521 1.4235415784 4.6853288800
H -3.4547215167 -0.8748369053 6.8951245745
H -2.2554386661 -1.7787597883 -0.3561865576
H -1.6235863446 1.9572350599 -3.5638800074
H -1.0236578406 2.2691290768 -1.1704695226
H -2.9077431872 -1.1120066029 -4.7559182494
H -3.0414879051 -2.9496902685 -2.2303638154
H 4.7840165451 0.6272529892 0.5901277939
H 1.1654629595 1.9197307061 -1.6924590500
H 1.6431577674 0.4527772523 -3.9507237610
