64
CONF335
C 6.8792412317 3.4071228461 2.0607141261
C 6.6716960010 1.9117030693 2.1755665783
O 7.4004533452 1.2280765447 2.9109308881
N 5.6572457649 1.3605252227 1.4574541283
C 4.8172012827 2.0700973850 0.4922429269
C 5.0250965919 1.4837538139 -0.9098590632
N 4.7475177847 0.0393746277 -0.9315212406
C 5.6184657989 -0.6308366546 0.0387367209
C 5.4339937735 -0.0876004050 1.4612790762
C 3.3958864748 -0.3622442469 -1.0086966260
C 2.8853871762 -1.4600641061 -0.2897123364
C 1.5692113082 -1.8773571951 -0.4453341672
C 0.7067169205 -1.2097384082 -1.3113150882
O -0.5805202969 -1.6818165135 -1.3796546619
C -1.5378179188 -0.8514644303 -2.0380648349
C -2.9118191146 -1.4347527666 -1.7860013258
C -4.0135816530 -0.5406054278 -2.3537064153
O -4.2929443263 0.3365335365 -1.2495585995
C -4.2212645735 -0.4873772342 -0.1036557473
C -3.8011493228 0.3442836888 1.1188821635
N -2.5159345009 0.9889060791 0.9316106710
C -1.2827866158 0.4650359060 1.2563300751
C -0.3647688362 1.3951511699 0.8461345818
N -1.0020327036 2.4774022502 0.2702877897
C -2.2917154605 2.1949542679 0.3351826393
O -3.2002469208 -1.4442945077 -0.3692568277
C -5.5530736263 -1.2028127209 0.1633344903
C -5.5555735794 -2.5849216067 0.3686193407
C -6.7203448264 -3.2988444741 0.6182013085
C -7.9207845971 -2.6053382165 0.6666482245
Cl -9.4131218170 -3.4743868387 0.9770662329
C -7.9755936917 -1.2319940246 0.4759628276
C -6.7886417614 -0.5483311218 0.2307253509
Cl -6.9421370994 1.1910536512 0.0083828408
C 1.1917794659 -0.1256119807 -2.0425847598
C 2.5131495365 0.2828492757 -1.8920969842
H 7.6770678427 3.6880447827 2.7476439115
H 5.9722362938 3.9627766327 2.3173266936
H 7.1701641971 3.6905151712 1.0441480911
H 3.7630557559 1.9497796624 0.7835269078
H 5.0485051637 3.1346409619 0.4888405464
H 6.0688983816 1.6339093735 -1.2130234244
H 4.3940594876 2.0145062384 -1.6229268531
H 5.4615579422 -1.7116599377 0.0122273126
H 6.6546110582 -0.4456787722 -0.2719478714
H 6.1440566515 -0.5510064490 2.1475164372
H 4.4139889177 -0.2852828847 1.8168444980
H 3.5023558537 -2.0025577588 0.4151529353
H 1.1955707541 -2.7191973881 0.1298281589
H -1.3539224824 -0.8330104178 -3.1224985962
H -1.4874550200 0.1739724871 -1.6451297946
H -2.9706975548 -2.4637071339 -2.1562835963
H -3.6948286570 0.0721073533 -3.1990123893
H -4.9050819178 -1.1209826783 -2.6226150842
H -4.5591017420 1.1031066342 1.3237448879
H -3.7421304929 -0.3283269036 1.9786492217
H -1.1833271177 -0.4991395094 1.7305258569
H 0.7127255269 1.3426568281 0.9248852950
H -3.1043211860 2.8184938177 -0.0150218907
H -4.6105946212 -3.1124672872 0.3225221311
H -6.6903030286 -4.3713761471 0.7695642830
H -8.9182495100 -0.7001420654 0.5163354383
H 0.5587105200 0.4125299880 -2.7382924285
H 2.8552596689 1.1110650160 -2.5017291850
