52
CONF111
C 1.2640921320 3.2577556099 0.8387807499
C 1.7545316357 2.1268270967 -0.0370786746
C 3.0919366216 2.4102037500 -0.7088318924
C 3.4889118434 1.2522677148 -1.6322071241
C 2.3632093300 0.9217909288 -2.6181208488
C 0.9804938909 0.8919640414 -1.9633146266
O 0.7537505833 1.9449773309 -1.0720120482
O 0.8464882842 -0.4009375710 -1.3227805395
C -0.4298986999 -0.6866247775 -0.9095897994
C -0.7057384859 -0.7933726975 0.4280747530
O -1.9669684244 -1.0621138690 0.8697219305
C -3.0027549313 -1.2230600018 -0.0050209716
C -4.2517302485 -1.4517570406 0.5459785390
C -5.3168371687 -1.6461295840 -0.3337234403
C -5.1464533296 -1.6180225699 -1.7235753056
C -3.8841509700 -1.3873620640 -2.2494851307
C -2.7737759961 -1.1777165810 -1.3874011509
C -1.4544085504 -0.9206833675 -1.9039145181
O -1.2113720351 -0.8908190517 -3.1403276296
O -3.7104542273 -1.3563239457 -3.5807006268
O -6.5313702539 -1.8682905240 0.2268475368
C 0.2394143943 -0.6453954432 1.5283900786
C 1.5570709886 -1.1134325484 1.4086459683
C 2.4540227329 -0.9285308739 2.4449114911
C 2.0530055820 -0.2751357013 3.6232783797
C 0.7417282252 0.1728462907 3.7484244807
C -0.1636749977 -0.0152923814 2.7135898846
O 2.9250633432 -0.0757060290 4.6446555075
O 3.7570812405 -1.3422656132 2.4122107280
O 2.2740520671 1.9440196430 -3.6145362345
O 3.7899709392 0.0811539142 -0.8761269492
O 4.0709853068 2.5482119995 0.3319600215
H 1.1780087486 4.1837643733 0.2605080377
H 0.2840639929 3.0073177484 1.2551942735
H 1.9613782200 3.4193496195 1.6637081614
H 1.8392312522 1.2025473164 0.5467351492
H 3.0096390218 3.3344818854 -1.2974125996
H 4.3732568396 1.5565463952 -2.2198546867
H 2.5530040379 -0.0606655008 -3.0715768148
H 0.2128233408 0.9935463276 -2.7355089930
H -4.3955006225 -1.4848678659 1.6188000818
H -5.9880017923 -1.7735752630 -2.3914386121
H 1.8872373138 -1.6055494450 0.5015607770
H 0.4467897991 0.6762443962 4.6632384213
H -1.1782883043 0.3520436246 2.8140397999
H 3.7864810502 -0.4465508431 4.4013270504
H 3.9436747184 -1.7802888781 1.5708897440
H 3.0846066504 1.9174740579 -4.1387083405
H 4.2903613661 0.3859069883 -0.1038048904
H 4.8620254346 2.9469281017 -0.0537424510
H -7.1961905022 -1.9893408947 -0.4652087075
H -2.7343491397 -1.1785656886 -3.7202585409
