29
CONF87
C 3.1124537042 0.5234516829 1.1327435129
C 2.8243757421 -0.0469939218 -0.2272909535
C 1.6453781911 0.0385676534 -0.8606847459
C 0.3813795507 0.6862802042 -0.3799061345
C -0.7012997378 -0.3628540586 -0.0850525831
C -2.1105410732 0.2106757176 0.1813606331
C -2.1145795165 1.2139718653 1.3355608416
C -3.0283961029 -0.9405741336 0.5223017676
C -4.1338936349 -1.2763934842 -0.1374310047
O -2.5767049344 0.9362562737 -0.9681783066
C 3.9943486719 -0.7495738635 -0.8612804158
H 3.9147952506 1.2698070908 1.0701283629
H 3.4770791200 -0.2667708841 1.8010126098
H 2.2444816454 0.9915838833 1.5993879700
H 1.5704883612 -0.4361130647 -1.8409132609
H 0.0061424700 1.3641655592 -1.1578140837
H 0.5639714215 1.2938566739 0.5097524433
H -0.3967908639 -0.9670273805 0.7785987870
H -0.7802262882 -1.0530512145 -0.9369245299
H -1.4907640931 2.0788025513 1.0950974695
H -1.7302489314 0.7449915031 2.2456891458
H -3.1350339880 1.5598295088 1.5240752584
H -2.7164570838 -1.5237871608 1.3890125596
H -4.4768271585 -0.7121833575 -1.0002410632
H -4.7329563153 -2.1266484730 0.1739880788
H -2.5382682318 0.3393691671 -1.7280931256
H 4.8462496499 -0.0652749305 -0.9659136159
H 3.7441490946 -1.1453850220 -1.8492347064
H 4.3376935669 -1.5789783801 -0.2296486076
