45
CONF42
C -4.3701402842 3.8910076327 1.7536935880
C -4.3643248584 2.4054820531 1.5858501143
C -3.3694966432 1.7065376872 1.0278410714
C -3.4220924543 0.2458798586 0.8544427559
C -2.2155571485 -0.6770324066 1.1458459766
C -2.7509243066 -0.4798138254 -0.2768057624
C -1.9352354994 0.2765624167 -1.2990420174
C -3.4746019390 -1.6790800188 -0.8503313553
C -0.9144199442 -0.1436008316 1.5640300023
O -0.4338638682 0.9451552785 1.3118417044
O -0.2523080156 -1.0768147410 2.3114652887
C 1.0881770818 -0.7099662339 2.7272270544
C 2.0405073314 -0.7457288036 1.5657475563
C 2.2686499415 -1.9319119205 0.8745724322
C 3.1160814140 -1.9878270193 -0.2207392080
C 3.7988513111 -0.8633612507 -0.6716467137
C 3.5723727352 0.3204904771 0.0204962951
C 2.7203772756 0.3803061378 1.1146160722
F 2.5653660156 1.5595428841 1.7379986849
F 4.1920294687 1.4482148412 -0.3716555899
C 4.6956381272 -0.9116273000 -1.8723026526
O 3.9062405036 -0.5858857256 -3.0188377176
C 4.7023794562 -0.6035954896 -4.2064252722
F 3.2820719197 -3.1663097698 -0.8468936492
F 1.6499220137 -3.0575947182 1.2730532354
H -4.4720867476 4.1662141037 2.8106911822
H -5.2230458412 4.3423944025 1.2320534024
H -3.4509481792 4.3400659645 1.3663583751
H -5.2442429245 1.8711784990 1.9480342113
H -2.4873748192 2.2316175503 0.6725307382
H -4.3543287590 -0.2020501117 1.1935977199
H -2.4638994532 -1.6294516883 1.6012948131
H -1.3883562355 1.1155829815 -0.8708657945
H -2.6009698038 0.6569694061 -2.0817597764
H -1.2123487486 -0.3987280785 -1.7700150982
H -4.0554814415 -2.2018310237 -0.0852304234
H -2.7595314940 -2.3852092695 -1.2869156689
H -4.1600957099 -1.3558878592 -1.6419869206
H 1.0821242232 0.2771536630 3.1910201695
H 1.3577973621 -1.4662415753 3.4663945043
H 5.1294664385 -1.9154114811 -1.9779397571
H 5.5168619968 -0.1906995063 -1.7556565280
H 5.5153897360 0.1337654296 -4.1463690894
H 5.1346506037 -1.5999408552 -4.3760907119
H 4.0407209571 -0.3485200762 -5.0365201366
