47
CONF202
C -1.6118103543 3.1574773587 2.6666364883
C -2.0240342476 2.3505903205 1.4551167599
C -1.9300728892 0.8491051648 1.4854570768
C -0.8796128144 1.6677287894 0.7075820852
C -0.8729047547 1.5083570597 -0.7512855375
O -1.7890910504 1.1473442349 -1.4590919844
O 0.3652833120 1.8167370019 -1.2557178815
C 0.5920630878 1.4334817014 -2.6352793726
C -0.2778750008 2.1854163043 -3.5428593784
N -0.9036343073 2.8133042830 -4.2826894307
C 0.5162133032 -0.0732870173 -2.8077991306
C -0.2003433798 -0.6822440265 -3.8313998135
C -0.2288040365 -2.0749974507 -3.9039607931
C 0.4252655386 -2.8514608658 -2.9576635699
C 1.1393043665 -2.2228229538 -1.9361993298
C 1.2092600447 -0.8358370994 -1.8673525125
O 1.7887977500 -3.0511185782 -1.0499709650
C 2.2696139888 -2.5203584474 0.1437001096
C 1.4079038570 -1.9261672242 1.0623467935
C 1.9288036303 -1.4618890941 2.2664127954
C 3.2861859471 -1.6043960233 2.5528679073
C 4.1289545373 -2.2139349976 1.6269824017
C 3.6240140702 -2.6716126675 0.4114843923
C -1.5048919821 0.0991580982 2.6672227203
C -1.8281412635 -1.1693099022 2.9255724304
Cl -1.3003984361 -1.9884709525 4.3725907591
Cl -2.7979859081 -2.1648618727 1.8752891516
C -3.1730641417 2.9592333766 0.6848558430
H -1.4106628160 4.1905198537 2.3657826783
H -0.7130315948 2.7676828664 3.1490133511
H -2.4256271723 3.1681649906 3.3998334243
H -2.6323038709 0.3448754375 0.8287439894
H 0.0992019037 1.7682627250 1.1635805879
H 1.6156225950 1.7784965672 -2.8239196201
H -0.7454198975 -0.0877495535 -4.5566859179
H -0.7873476821 -2.5602110564 -4.6977706080
H 0.3913251231 -3.9350680092 -2.9955603544
H 1.7766912869 -0.3501089521 -1.0821650898
H 0.3521231674 -1.8211772547 0.8311964910
H 1.2682096013 -0.9918779597 2.9876248909
H 3.6830041294 -1.2423686030 3.4956296565
H 5.1860012837 -2.3304643500 1.8443205958
H 4.2658019735 -3.1418988809 -0.3262099700
H -0.8798678960 0.5967724707 3.4024302520
H -4.0249920622 3.0913668901 1.3601271937
H -3.4884134836 2.3347178927 -0.1519550581
H -2.8893128420 3.9449006910 0.3001813143
