45
CONF59
C 3.5242006507 -1.9068256632 4.1853350112
C 3.6968037818 -1.6644055759 2.8767431001
C 2.7057909556 -1.0958737708 1.9753935893
C 2.9882415274 -0.8969021026 0.6560006183
N 2.1260156424 -0.1775047120 -0.1627841746
C 0.9278264853 0.5577535888 0.2479825928
C 0.4452741064 0.4859888578 -1.2356020501
C 1.7640392192 -0.2771842470 -1.4990479024
O 2.2887537108 -0.7965730982 -2.4541016981
N 0.2450762574 1.6983412869 -1.9722787160
C -0.9612423663 2.2816050380 -2.1870850729
O -1.1007710792 3.3525572673 -2.7659639562
C -2.1605656104 1.5093561701 -1.6620970612
N -2.6850788153 0.7420208723 -2.5522150688
O -3.8226969376 0.0767486836 -2.0809789107
C -4.1402657845 -0.9740106437 -2.9792117509
C -3.1699124451 -2.1319885312 -2.8415765326
O -2.2583856732 -2.1923121029 -2.0478161556
O -3.4743758556 -3.0952370614 -3.7270966857
C -2.5049557675 1.7368768799 -0.2699763028
C -3.5238091347 1.1760368761 0.4612121854
S -3.4573224158 1.7442866463 2.0978229183
C -2.0339499018 2.7169884851 1.6680741349
N -1.6757122370 2.6108530985 0.4187094507
N -1.3684404643 3.4347785909 2.6087944352
S -0.0168791232 -0.4266232417 1.4584072675
C 1.4126086128 -0.6263944137 2.5970942020
C 4.2604253442 -1.2796552860 -0.0312100840
O 4.8902394761 -0.5082786428 -0.7238875079
O 4.6064756986 -2.5581960983 0.1831327240
H 2.5938169645 -1.7240480097 4.7120119248
H 4.3454979264 -2.3061071575 4.7706432795
H 4.6708235715 -1.8782501619 2.4487206431
H 1.1440715734 1.5616479099 0.6253206692
H -0.4076299552 -0.1904104884 -1.3575767088
H 1.0583661309 2.2523331643 -2.2158046529
H -5.1445172963 -1.3172748303 -2.7101476385
H -4.1545352826 -0.6243469297 -4.0185332573
H -2.8551765591 -3.8366485689 -3.6098170041
H -4.2922944284 0.4889123576 0.1475360530
H -1.8651399069 3.6973225650 3.4464565365
H -0.7312843596 4.1343115301 2.2541604591
H 1.5773768614 0.3138050896 3.1372888684
H 1.0751796064 -1.3647861628 3.3293730620
H 5.4580387832 -2.7226868911 -0.2605441083
