76
CONF395
C 3.4752931811 2.0744329521 -0.5799998279
C 3.2668730241 1.6806046187 0.8887746195
C 4.5553312080 1.0907431607 1.5037352547
C 4.9181860585 -0.3541478985 1.1001669362
C 5.1553520688 -0.5680179596 -0.3628657801
O 6.2052007277 0.0839072218 -0.9269279724
N 4.4198774560 -1.3345834149 -1.0669533214
C 4.7083702610 -1.4646919231 -2.4848875676
C 3.6320743355 -2.2957066319 -3.1628109722
O 2.6109833200 -2.6579071207 -2.3765331656
O 3.6745488137 -2.6079515166 -4.3347933058
C 2.0715064799 0.7427343442 1.1191746141
C 1.8371348281 0.4575166337 2.6319189436
C 0.3192391717 0.1967215732 2.8110123906
C -0.2097681884 0.1399153809 1.3776626170
C -1.7086957754 0.3035903528 1.1497593912
C -2.5239749044 -0.6850783018 1.9871200655
O -1.9730598023 -2.0046539230 1.7893951268
C -4.0129136874 -0.6224658698 1.6458420716
C -4.3291733412 -0.7009519563 0.1457970646
C -4.1523577207 -2.1274902625 -0.4090070901
C -4.4966045521 -2.2241219625 -1.8884151079
O -4.3614197936 -3.5750988143 -2.3723170575
C -3.6492078038 -1.2440538150 -2.6882198056
C -3.8645137363 0.1732975782 -2.1590800570
C -3.5327735863 0.3612858022 -0.6616591821
C -4.0264545645 1.7709612116 -0.2889950288
C -2.0146940081 0.1842982390 -0.3610061063
C -1.1225134898 1.1313691331 -1.1778707369
C 0.3791458531 1.0086085937 -0.8844804918
O 0.8843296203 -0.2735915036 -1.3095404712
C 0.6613137377 1.1693300404 0.6176983360
C 0.3684120262 2.6173237762 1.0385421847
H 2.7009392685 2.7682383298 -0.9158198785
H 3.4506415642 1.2060353781 -1.2449214893
H 4.4406290510 2.5763132227 -0.7091401649
H 3.0765217608 2.6064160968 1.4516120949
H 5.3915498784 1.7625333386 1.2692994150
H 4.4696641628 1.0901569925 2.5955912896
H 4.1378468424 -1.0498234536 1.4132885226
H 5.8369115249 -0.6360062369 1.6324019835
H 6.6645675308 0.6189195102 -0.2633010657
H 5.6742366881 -1.9508414364 -2.6815050696
H 4.7393153835 -0.4942510786 -3.0033836757
H 2.8064976269 -2.2764390064 -1.4872143676
H 2.2906720244 -0.2058971378 0.6167660042
H 2.4327920249 -0.3972787513 2.9676696314
H 2.1588946627 1.3175054442 3.2311425471
H -0.1573788032 1.0143063759 3.3653956938
H 0.1170620338 -0.7269439091 3.3607666370
H 0.0702022307 -0.8384688307 0.9683417540
H -2.0071027052 1.3005734530 1.5011326288
H -2.4022100874 -0.4146755004 3.0490254350
H -2.5676872831 -2.6311813322 2.2195906337
H -4.4011909575 0.3202596412 2.0509097034
H -4.5410642129 -1.4242654001 2.1808106205
H -5.3945282281 -0.4486934387 0.0249229127
H -3.1191240450 -2.4646778083 -0.2717281648
H -4.7910203970 -2.8139584752 0.1616882834
H -5.5580779768 -1.9816978528 -2.0372430899
H -3.4382806370 -3.8322115611 -2.2461388439
H -2.5924055263 -1.5367617636 -2.6074149519
H -3.9209417025 -1.2974972160 -3.7490154891
H -4.9264616204 0.4278759224 -2.2897343885
H -3.3068023164 0.8972771328 -2.7623243011
H -3.7899981460 2.0590445175 0.7381056700
H -3.5927343691 2.5246809489 -0.9539751455
H -5.1151462998 1.8201383277 -0.4048210129
H -1.7398654179 -0.8386678880 -0.6484321596
H -1.2625461535 0.9480053622 -2.2503093154
H -1.4168903599 2.1730620386 -1.0072858856
H 0.8960040522 1.7972421602 -1.4495454594
H 0.6176798034 -0.4013008108 -2.2282485102
H 0.6397516029 2.7835810701 2.0844686743
H 0.9493750556 3.3194251905 0.4314133585
H -0.6853465176 2.8838205363 0.9265386463
