41
CONF57
C -3.0129927270 2.0382601881 -0.6970681496
C -2.2763874788 2.8630080656 0.3638989601
C -2.0376467566 4.2891390978 -0.1229239952
N -0.9834767336 2.2808679281 0.7686475828
C -1.0730141888 0.9479290013 1.3740047791
C 0.1914937739 0.6716533727 2.1851521367
O 0.3905114890 1.6841785603 3.1730388325
C 1.4513166882 0.6234622767 1.3096778007
O 1.2871324893 -0.1800980452 0.1326653335
C 1.2119166494 -1.5404111399 0.2553031328
C 1.5849846649 -2.2454715675 1.4010360025
C 1.5084326863 -3.6365734869 1.4119448295
C 1.0596029251 -4.3276282999 0.2927894146
C 0.6833431925 -3.6118734187 -0.8419344298
C 0.7462746294 -2.2215318276 -0.8841960787
C 0.3542515907 -1.4622349201 -2.1207638103
C 1.5021669923 -1.0509044573 -3.0065054186
C 2.7858528545 -1.3367500118 -2.8086326861
H -3.2204528783 1.0222216701 -0.3481282672
H -3.9688410238 2.5052700150 -0.9567276710
H -2.4088520569 1.9715555927 -1.6104916740
H -2.8954186114 2.9016805146 1.2718067026
H -1.5409206874 4.8857055927 0.6474757700
H -2.9842655322 4.7714277547 -0.3844957861
H -1.4050746153 4.2880519439 -1.0190983186
H -0.3888783727 2.2319160818 -0.0557666880
H -1.9224949405 0.9436813723 2.0681738806
H -1.2304694552 0.1307072305 0.6518902401
H 0.0630064538 -0.2744959491 2.7223190773
H 0.1518305647 2.5115236649 2.7210121879
H 2.3176984974 0.3015403667 1.8996687258
H 1.6632791864 1.6279451217 0.9312387541
H 1.9377412997 -1.7262213205 2.2839277152
H 1.8027272937 -4.1753308922 2.3073013375
H 0.9971516855 -5.4105791363 0.3020524489
H 0.3272875969 -4.1410573788 -1.7221331005
H -0.3362528018 -2.0752610348 -2.7152129563
H -0.2071793398 -0.5592854855 -1.8451343806
H 1.2138767531 -0.4738340404 -3.8852618491
H 3.1135945231 -1.9082897698 -1.9441322135
H 3.5471442390 -1.0032528330 -3.5064181451
