41
CONF1
C -5.2584639485 -0.9627145721 2.4108590344
C -4.1250164554 -0.6871250047 1.4745150181
C -4.0214269808 -1.3522581309 0.2504957504
C -2.9391370402 -1.0603259981 -0.5682225527
N -2.0213658663 -0.1510452812 -0.1898706960
C -2.2162753539 0.4478977257 0.9867165730
N -3.2176365421 0.2256208808 1.8477701018
N -1.3102105926 1.4180693450 1.4061784326
C -0.1901341573 1.9574781891 0.7863195631
O 0.4744281730 2.8246835592 1.3372423557
N 0.0918081026 1.4473032361 -0.4620119069
S 1.5086123691 1.8355367064 -1.3051906781
O 1.5084306752 3.2726805046 -1.5888460209
O 1.5297538115 0.8673726947 -2.4113523942
C 2.8973962548 1.4912814649 -0.2128579891
C 3.5329871055 2.5817178953 0.3717979538
C 4.6885805446 2.3779840745 1.1179027266
C 5.2151593579 1.0970433196 1.2501840682
C 4.5850632708 0.0147858409 0.6457748732
C 3.4073772476 0.1941157044 -0.0806164728
C 2.7859682004 -1.0307992659 -0.6735060994
O 3.3810858640 -1.7991474932 -1.3976351172
O 1.5333758941 -1.2047194991 -0.2350644674
C 0.8431444082 -2.3685648555 -0.7607119601
C -2.7254984089 -1.7432660720 -1.8803923340
H -6.2116909202 -0.7259683145 1.9264665334
H -5.2851336083 -2.0264660544 2.6685083710
H -5.1609072997 -0.3714587068 3.3217704795
H -4.7668544973 -2.0790739054 -0.0519217319
H -1.5114180966 1.8294022636 2.3082089038
H -0.4630600188 0.6327609169 -0.7787371780
H 3.1294071938 3.5770279611 0.2341639852
H 5.1816460275 3.2252166835 1.5819550170
H 6.1237846695 0.9374327033 1.8208966505
H 4.9956483475 -0.9850616697 0.7394472388
H 1.4226163578 -3.2715987493 -0.5583069617
H 0.6932707442 -2.2504307484 -1.8368877998
H -0.1106881687 -2.3931565747 -0.2367241781
H -3.6800688695 -1.9738906233 -2.3587227576
H -2.1999258876 -2.6921079871 -1.7201523134
H -2.1146317798 -1.1262326395 -2.5422835168
