27
CONF7
C -4.6244175435 0.2883649678 -0.2208685810
C -3.2576078018 0.3581151762 -0.9045068262
C -2.0734134247 0.1800875758 0.0893728452
C -0.6754979082 -0.0668102729 -0.5754109516
C 0.5292044795 0.2162592600 0.3900369573
C 1.8710432771 -0.4418805595 -0.0902089168
C 3.1401191381 0.1932051866 0.5732101089
C 4.4247793353 -0.6923224931 0.4607755889
F 4.3463174524 -1.7582509893 1.2634481557
F 4.5979317079 -1.1044115073 -0.8031568964
F 5.4854303153 0.0400939075 0.8263940218
F 2.9040464400 0.4043841967 1.8891340695
F 3.4025764358 1.3731915347 -0.0262985416
F 1.9785855343 -0.2990266686 -1.4303760063
F 1.8396050777 -1.7599396690 0.2115182616
F 0.2323129152 -0.2697814102 1.6167066870
F 0.7087247680 1.5537590665 0.4737294947
F -0.6163444343 -1.3601256205 -0.9712539827
F -0.5521069603 0.7319900747 -1.6565820481
F -2.0123201325 1.2972877608 0.8595928545
F -2.3510031084 -0.8798947684 0.8934727314
F -3.1133320441 1.5445825383 -1.5448905143
F -3.1758325674 -0.6377037205 -1.8484217020
O -5.6577416714 0.5058116909 -1.1557519602
H -4.6811190406 1.0899481537 0.5212036440
H -4.7119931559 -0.6780859338 0.2917242729
H -5.6602370070 -0.2272383424 -1.7830674094
