65
CONF166
C -1.8340329206 4.6215899092 0.3702179469
C -1.4599006097 4.2524726661 -1.0632093390
C -1.4648508207 2.7359136301 -1.3206919456
C -1.1130071536 2.4172982693 -2.7782823102
C -0.4627088982 2.0744054279 -0.3993412275
O 0.7374743950 2.2766081790 -0.4361003861
O -1.0524060710 1.2297384440 0.4683409330
C -0.1828220112 0.5383517554 1.4236977594
C 0.1186150990 1.4485218328 2.6031900714
C 1.0557295183 0.7443122355 3.5954579884
C 0.5876597143 -0.6560671580 3.8592621506
C -0.3065797417 -1.3151092476 3.0987023016
C -0.9364257701 -0.7053382929 1.8630431102
C -1.0899824416 -1.7789848306 0.7621211723
C -2.0721352911 -2.8456586440 1.2993297122
C -1.5990492631 -3.3492982808 2.6383648477
C -0.7652863380 -2.6546331414 3.4308847488
C -2.3298100162 -4.0042251458 0.3314221926
C 0.2600572315 -2.3949322231 0.3265521240
C 0.3877133322 -2.5962139172 -1.1896334841
C 0.6810935192 -1.3047108662 -1.9385895626
C 2.1196508627 -0.8393228702 -1.8418624277
C 2.3253439068 0.3648799598 -2.7451438345
C 2.0604409424 -0.0499339216 -4.1795451590
C 0.8321236811 -0.9036719465 -4.3840411296
O 0.3379575499 -1.0721280731 -5.4818101097
O 0.2915390463 -1.5580986175 -3.3385304591
O 3.6676569157 0.8642409809 -2.6990762528
C 2.5234936483 0.7638881910 3.1321699662
H -1.1113134166 4.2166315748 1.0878545321
H -1.8571695651 5.7074896148 0.5005873678
H -2.8221734236 4.2272559857 0.6306869825
H -2.1671262305 4.7094280233 -1.7653601199
H -0.4651820508 4.6432067234 -1.3096759155
H -2.4576638161 2.3381758910 -1.0850828822
H -0.1240645555 2.8141749720 -3.0271547717
H -1.1119418633 1.3384968616 -2.9660577925
H -1.8487485119 2.8795718715 -3.4427931323
H 0.7414651128 0.2798797408 0.8993394150
H 0.5711378620 2.3809892954 2.2521589727
H -0.8286959464 1.6954704885 3.0984281242
H 1.0123649443 1.2963142432 4.5449035746
H 1.0055576059 -1.1609603136 4.7301933478
H -1.9531288846 -0.3815926865 2.1374638697
H -1.5594834310 -1.2973045250 -0.1056083889
H -3.0380459316 -2.3366019347 1.4505511463
H -1.9418402069 -4.3341775941 2.9510959936
H -0.4208619278 -3.0813482162 4.3710315672
H -2.7013896634 -3.6345523156 -0.6295974248
H -1.4220316564 -4.5886173887 0.1495100119
H -3.0816979374 -4.6814138112 0.7495441119
H 1.0963602155 -1.7834216286 0.6861996403
H 0.3900760465 -3.3635580675 0.8198483773
H 1.1830396352 -3.3169891720 -1.4144285674
H -0.5459587687 -3.0108815989 -1.5827796386
H 0.0083177252 -0.5083757766 -1.5910389996
H 2.8004356179 -1.6487443373 -2.1367185330
H 2.3351612441 -0.5719626510 -0.8015385293
H 1.6242021919 1.1573041891 -2.4510018502
H 2.9055733549 -0.6598825012 -4.5297428090
H 1.9850686101 0.8088146789 -4.8516699562
H 3.8012101691 1.2598277146 -1.8281374634
H 2.8763524033 1.7945681928 3.0216558161
H 2.6396034963 0.2523899119 2.1708066528
H 3.1650386266 0.2564992515 3.8596276295
