68
CONF18
C 2.9162325177 -1.0411260370 -2.0355610409
C 2.5606755735 -2.5101902853 -1.8132475114
C 1.1499589318 -2.7529973096 -1.2430440681
C 0.9342779664 -4.2718621018 -1.0687777135
C 1.0713154164 -2.1690225728 0.1661436611
O -0.1729004751 -1.7714261682 0.4867699290
C -0.4026386661 -1.3066212821 1.8567673177
C -0.7270900838 -2.5276103989 2.7014091346
C -0.9750532241 -2.1412147444 4.1579435138
C -1.9197013668 -0.9799937131 4.2161554726
C -2.2009388326 -0.1711282465 3.1778087460
C -3.1493955359 0.9240796580 3.3184959943
C -3.3047438962 1.8771285429 2.3868040212
C -2.4644615386 1.9567952620 1.1458094010
C -1.1839645864 1.1046237334 1.3031279215
C -1.5606224001 -0.3132320838 1.8065318015
C -0.3122865782 1.1115201947 0.0441522244
C 0.0664931989 2.5157058021 -0.4306373563
C 1.1250244270 2.4918560286 -1.5171229779
C 1.5771837073 3.8638434157 -1.9707041202
C 2.5511494689 3.7105041794 -3.1196237084
C 1.8366891693 3.0221829224 -4.2773524269
C 0.9719308072 1.8413744836 -3.9001801298
O 0.5493651818 1.7140709590 -2.6299660502
O 0.5841172435 1.0319899093 -4.7202947740
O 3.0116679209 5.0121769336 -3.4972260764
C -3.3053452726 1.6135549441 -0.0970754926
C -1.4997114664 -3.3316919146 4.9676495011
O 2.0126946458 -2.1127278523 0.9360103692
C 0.0714823177 -2.1898205843 -2.1762299443
H 2.8102614801 -0.4660553365 -1.1092006078
H 3.9533604734 -0.9445580558 -2.3711524418
H 2.2763471359 -0.5814067134 -2.7944410276
H 2.6216148346 -3.0533583684 -2.7644137339
H 3.2908847324 -2.9674288099 -1.1374055432
H 0.9821010330 -4.7556549088 -2.0499187979
H 1.7085569580 -4.7057571477 -0.4283735869
H -0.0461663043 -4.4811160782 -0.6289983259
H 0.5114416500 -0.8212796810 2.2179355777
H 0.0925882052 -3.2508082770 2.6312204432
H -1.6311909455 -3.0003026206 2.2939533200
H -0.0154205169 -1.8329917951 4.6052161837
H -2.4113418763 -0.7885900169 5.1703304312
H -3.7505674556 0.9441347430 4.2256871050
H -4.0600885491 2.6489277761 2.5238311386
H -2.1523503577 3.0054872037 1.0401922554
H -0.5967373080 1.5719727727 2.1096195177
H -2.3159944178 -0.7339242407 1.1253975165
H -0.8091983093 0.5649849630 -0.7632648617
H 0.6195041713 0.5730095529 0.2525230852
H -0.8037756529 3.0663557093 -0.8063364896
H 0.4766325793 3.0935162329 0.4081705914
H 1.9917220711 1.9102643207 -1.1741425151
H 2.0594061241 4.3658036422 -1.1256953060
H 0.7161014749 4.4669977886 -2.2867294643
H 3.4024984556 3.0948727830 -2.7889807217
H 1.1511229129 3.7479676846 -4.7378644617
H 2.5287285361 2.6932124151 -5.0578336120
H 3.6601414758 4.9059996546 -4.2052399904
H -3.6192539320 0.5651694421 -0.0879690222
H -2.7534055518 1.7988351413 -1.0234573004
H -4.2101019641 2.2296206794 -0.1168491089
H -2.4626199746 -3.6708044421 4.5696532989
H -1.6416851524 -3.0574167708 6.0178243667
H -0.7953743714 -4.1686585668 4.9233362788
H 0.1112433725 -1.0990453947 -2.2349608700
H 0.2288437317 -2.5921629536 -3.1828326314
H -0.9292331225 -2.4765526309 -1.8448053810
