51
CONF233
C 5.0813387287 0.0819236799 4.1938619073
C 4.2296757459 0.1360096515 2.9551031442
C 4.6957669683 -0.3466733079 1.7303700022
C 3.8912249080 -0.3156600441 0.5929923295
C 2.5997546427 0.2037362404 0.6478118340
C 2.1289141485 0.6918164454 1.8687157282
C 2.9313678424 0.6572282690 3.0033332567
C 1.7511064526 0.2793427734 -0.6089056184
C 1.7907210824 1.6791587446 -1.2222765857
N 0.3587213966 -0.0826602960 -0.3505116371
C -0.0275904356 -1.3538804627 -0.1212503727
O 0.7516013241 -2.3087342992 -0.1273185254
C -1.5158423470 -1.5505519235 0.2111782410
C -1.7911499488 -1.3016532219 1.7115944971
C -3.2140724310 -1.7392710121 2.0721509861
C -0.7757448354 -2.0205891512 2.6004331133
N -2.3792900525 -0.6902973334 -0.5829504006
C -2.4037026656 -0.7812063790 -1.9371886321
O -1.7743494015 -1.6098861456 -2.5814451165
O -3.2227536163 0.1606615161 -2.4663176778
C -3.2601739490 0.2466722909 -3.9305599478
C -2.0548880821 1.0317674502 -4.4158732199
C -4.5787667287 0.9130625738 -4.2660607768
H 6.1191529212 -0.1582016407 3.9502126584
H 5.0617006288 1.0376538480 4.7270809481
H 4.7126548685 -0.6826475868 4.8875063300
H 5.6989110857 -0.7601861839 1.6662852118
H 4.2719100438 -0.7066979257 -0.3475401799
H 2.5451200419 1.0393658012 3.9451759016
H 2.1519624929 -0.4427726276 -1.3304806905
H 1.3845797295 2.4154141239 -0.5198687419
H 2.8241562410 1.9551492777 -1.4452246679
H 1.2091504727 1.7116931024 -2.1493199414
H 1.1218859952 1.0954539952 1.9348986044
H -1.7269871128 -2.6025695842 -0.0190249115
H -1.6933450537 -0.2189805488 1.8837800145
H -3.9752370822 -1.2319760740 1.4727717660
H -3.3243356168 -2.8190066651 1.9198381500
H -3.4160015290 -1.5226793743 3.1255122823
H -0.7815669426 -3.0980636809 2.4019380113
H 0.2418455260 -1.6517825715 2.4452254673
H -1.0367091124 -1.8657940073 3.6516294692
H -2.8880337256 0.0600891152 -0.1397254622
H -3.2345920980 -0.7748523474 -4.3220748950
H -1.1234888330 0.5395860740 -4.1242823458
H -2.0793814919 1.1042858681 -5.5075469334
H -2.0711364761 2.0448093677 -4.0006914674
H -4.6789200275 0.9930538589 -5.3522226879
H -4.6198548972 1.9204758961 -3.8398640815
H -5.4199386662 0.3299703123 -3.8815790847
H -0.3373764898 0.6490197205 -0.3386177610
