49
CONF49
C -1.4057308092 -1.3350196900 -1.3368518862
C -2.6408863188 -0.9789651965 -0.5372502717
C -2.4985421810 -0.1807110591 0.7808471773
C -2.9224201442 -1.6637495633 0.7672720852
C -4.3542833639 -1.9267184930 1.1944564780
C -1.9838641802 -2.7299089050 1.2924390386
C -1.2017120811 0.2725429390 1.2787345257
O -0.1318441081 -0.3012603227 1.2615197819
O -1.3328694224 1.5343188406 1.8233092732
C -0.1110083392 2.1907724037 2.2490857063
C 0.6206696270 1.3955223413 3.2397510854
N 1.1953319871 0.8460437469 4.0776665867
C 0.7381175186 2.6413916629 1.0785157059
C 1.8478946196 1.9180184676 0.6524365339
C 2.5536993068 2.3590441496 -0.4630963187
C 2.1838543735 3.5173308700 -1.1389788223
C 1.0832842704 4.2414107702 -0.6909258064
C 0.3550766648 3.8077789493 0.4115657619
O 3.6865196518 1.7045896543 -0.9050135511
C 3.6879070030 0.3182783340 -0.9398128377
C 4.8951938083 -0.3125697088 -0.6567396196
C 4.9743719795 -1.6991886152 -0.7503363727
C 3.8570729207 -2.4476146614 -1.1149368289
C 2.6560644290 -1.7987741857 -1.3961781601
C 2.5627443132 -0.4123669656 -1.3163069629
C -3.7842328150 -0.5472568907 -1.4348487638
H -1.6218791840 -2.2090036269 -1.9621663126
H -0.5375349244 -1.5560542068 -0.7192552043
H -1.1431633644 -0.5050036652 -2.0023758936
H -3.3019807461 0.5232049838 0.9708687642
H -5.0332797929 -1.1103021464 0.9460441646
H -4.7239339872 -2.8402906400 0.7143654412
H -4.3932380704 -2.0775894647 2.2784599973
H -2.0594431312 -2.7864869702 2.3838264620
H -0.9403766252 -2.5590802387 1.0374959381
H -2.2886957769 -3.7013142832 0.8861713922
H -0.4812869291 3.0735977082 2.7807163174
H 2.1537382442 1.0149799573 1.1676385488
H 2.7580607682 3.8383720562 -2.0014908366
H 0.7911774874 5.1486456126 -1.2094691257
H -0.5068944897 4.3708668090 0.7554571747
H 5.7543953924 0.2846309034 -0.3699153774
H 5.9146378331 -2.1947781847 -0.5298797021
H 3.9216733228 -3.5285182796 -1.1816877910
H 1.7820739388 -2.3722130238 -1.6895338830
H 1.6296061530 0.0932373631 -1.5408783367
H -4.1055485936 -1.3912073947 -2.0565652987
H -4.6495753267 -0.1814838403 -0.8811739939
H -3.4489398978 0.2528526991 -2.1033064935
