37
CONF288
C -3.4756063905 -2.0917035699 0.8402464589
C -2.0958913526 -1.6769748661 1.2958488044
O -1.7458762964 -0.3688823478 0.7289308466
P -1.0500861333 -0.2803355905 -0.7055688373
O -1.1148112347 -1.4785032064 -1.5617030360
O -1.6675597929 1.0270324574 -1.3594831759
C -1.6181978283 2.3182457146 -0.6793063735
C -0.6010156061 3.2133409998 -1.3506339398
O 0.4665568886 0.2416749061 -0.3829771347
P 1.6378628257 -0.6271812307 0.3663547156
O 1.0827537466 -1.7182704753 1.1967874946
O 2.6491746524 -0.9861546756 -0.7987343769
C 2.2133469001 -1.9301734905 -1.8393571745
C 2.0712776388 -1.1986516390 -3.1525719758
O 2.4814828025 0.4997965480 1.1064576021
C 2.2243005167 0.7492030528 2.5212792633
C 0.9388345481 1.5226321792 2.7280886060
H -4.2209793442 -1.3385509273 1.1111326097
H -3.7473885544 -3.0371121537 1.3214682561
H -3.4918124308 -2.2396961198 -0.2427452789
H -2.0479746303 -1.5216596092 2.3765290058
H -1.3284265600 -2.4013329493 1.0153198534
H -1.3914100147 2.1721069530 0.3823239292
H -2.6305172981 2.7243505802 -0.7599357922
H 0.4044585068 2.7966860599 -1.2545513025
H -0.8348039983 3.3315099191 -2.4119026247
H -0.6163416538 4.2020883182 -0.8802644921
H 1.2710884529 -2.4029063766 -1.5432311662
H 2.9964962747 -2.6918958764 -1.8762975318
H 3.0092685367 -0.7104852719 -3.4306945486
H 1.8022779120 -1.9151603746 -3.9351394491
H 1.2780373109 -0.4493527619 -3.0954950215
H 2.2038812429 -0.2101940949 3.0481751016
H 3.0945965709 1.3215605043 2.8506515506
H 0.9515648054 2.4540481603 2.1541372082
H 0.0693092400 0.9299914391 2.4277586820
H 0.8321305402 1.7709095191 3.7891036409
