49
CONF36
C -5.2429905643 2.0488527995 -3.0654673721
C -4.8912125320 1.4632311009 -1.7269255009
C -3.8542639048 0.6227126766 -1.5957835987
C -3.3857167312 -0.0081514028 -0.3511091718
C -1.9095882744 -0.3841968375 -0.2114098651
C -2.9951931252 -1.4607843905 -0.2514219931
C -3.0172361819 -2.3270698252 -1.4909921844
C -3.3588859933 -2.2070199982 1.0115631195
C -1.2169347013 -0.0382383551 1.0420514201
O -1.7303270215 0.1942879012 2.1168917947
O 0.1310426698 -0.0073033487 0.8490443042
C 0.8936352814 0.3316760594 2.0370692211
N 2.2737917734 0.2621378290 1.6977310870
C 3.0442310964 -0.9153679135 1.7338273259
O 2.6762327948 -1.9833619558 2.1679586177
C 4.3698483229 -0.5534730257 1.1550849547
C 4.3447630255 0.7356620562 0.7812136172
C 3.0021483752 1.3044214997 1.0940640855
O 2.5914140107 2.4246813997 0.8928892165
C 5.4727668970 1.4607177436 0.1422638904
C 6.5241119080 0.4480781895 -0.3373200635
C 6.7987271155 -0.6260883208 0.7241031419
C 5.5420997755 -1.4569086883 1.0268771155
C -5.7840748506 1.9037271442 -0.6035906940
H -4.5642939107 1.7078488421 -3.8511443267
H -6.2673346931 1.7795697732 -3.3529742182
H -5.2063293570 3.1452318502 -3.0309603019
H -3.2884199621 0.3855568775 -2.4949310088
H -3.7878170402 0.3891050957 0.5760248578
H -1.2947625089 -0.3118338835 -1.1026519792
H -2.3661626510 -3.1967739303 -1.3520317917
H -4.0343259030 -2.6904519785 -1.6763096086
H -2.6832363962 -1.7944805973 -2.3835913592
H -3.3535040559 -1.5562289614 1.8869236073
H -4.3599307443 -2.6387803836 0.9017209088
H -2.6555874966 -3.0290127285 1.1885510163
H 0.6397302850 1.3477486721 2.3507876519
H 0.6715524147 -0.3884640309 2.8286587702
H 5.9089927278 2.1638030035 0.8659930319
H 5.0996760584 2.0788617813 -0.6825006435
H 6.1604168979 -0.0364944354 -1.2526133616
H 7.4507065490 0.9687031455 -0.5979778026
H 7.1344268995 -0.1381969500 1.6482987283
H 7.6100085550 -1.2839150010 0.3974989014
H 5.3507598028 -2.1849153959 0.2257592233
H 5.6594599672 -2.0493148522 1.9416087682
H -5.7308710567 2.9925533761 -0.4782757802
H -6.8295639719 1.6682750123 -0.8384884266
H -5.5419794854 1.4393830604 0.3526903079
