43
CONF16
C 3.1887731920 3.8071263134 -2.6446252712
O 3.2965971327 2.6415792242 -3.4698141176
C 3.0329731895 1.4354133138 -2.8896432631
C 2.6623487842 1.2815978739 -1.5552772460
C 2.4236400567 -0.0283862657 -1.1406355937
C 2.5448435004 -1.1512827597 -1.9913824896
C 2.9252217136 -0.9646109662 -3.3243815770
C 3.1630144961 0.3257695423 -3.7581965059
N 2.2447640975 -2.3168491054 -1.2967802466
C 1.9408348535 -1.8946309433 -0.0956834271
N 2.0464904194 -0.5437949904 0.0787188241
S 1.4320130998 -2.9331975414 1.2885994864
O 1.4669913812 -1.9940649876 2.4929748939
C -0.3779086358 -3.1253062912 0.7617989367
C -1.0665411643 -1.8105940488 0.6165480843
N -0.9858029264 -1.2558771957 -0.6032159705
C -1.5258248115 -0.0509128342 -0.7885415771
C -2.1914351813 0.6684011570 0.2018759335
C -2.7650426954 2.0279064394 -0.0561826468
C -2.2958352612 0.0542200789 1.4538085213
O -2.9374549681 0.7365271524 2.4612300633
C -4.3014647963 0.3097979733 2.6657007771
C -1.7186960122 -1.1978881297 1.7013511349
C -1.8162079464 -1.8426762645 3.0549730326
H 2.1679318715 3.9240408530 -2.2612429987
H 3.8953909236 3.7619503118 -1.8071946757
H 3.4371784287 4.6506977873 -3.2890875455
H 2.5569663171 2.1148591168 -0.8729833025
H 3.0270085820 -1.8081088377 -3.9991639528
H 3.4558903589 0.5187125842 -4.7848817820
H 1.8389145666 -0.0474279277 0.9341238100
H -0.3206782561 -3.6609725280 -0.1897972146
H -0.8012471992 -3.7722103313 1.5336202845
H -1.4343370196 0.3744085903 -1.7879562040
H -3.8459558235 2.0445641033 0.1163090872
H -2.5746297124 2.3330156933 -1.0877770996
H -2.3231560322 2.7707758986 0.6155088642
H -4.6943008373 0.9193207074 3.4808542876
H -4.8942268002 0.4750361267 1.7584323161
H -4.3441941571 -0.7496548770 2.9419996239
H -0.8629322157 -2.2871911034 3.3446247184
H -2.0944095030 -1.1059600057 3.8103056440
H -2.5755063119 -2.6341223353 3.0568136598
