22
CONF1
C 0.0000095226 0.8030973592 -1.0575924449
C 0.0000501622 -0.7967001567 -1.0598540118
C -1.1127244103 -1.1364494797 -0.0017090191
C -0.0000014117 -0.7996293804 1.0573920812
C 1.1127839148 -1.1364129447 -0.0016691589
C 2.1262872029 0.0017668327 -0.0000778108
C 1.1127376408 1.1398861207 0.0015359759
C -0.0000321917 0.8001063373 1.0596534553
C -1.1127704455 1.1398513253 0.0014833444
C -2.1262728755 0.0016717541 -0.0001817927
Cl -3.1296467691 0.0037458628 -1.4737935067
Cl -3.1299596913 -0.0004417032 1.4732254182
Cl -1.7595422745 2.7606941779 0.0037819368
Cl -0.0000298809 1.5969515623 2.6084106711
Cl 1.7594212828 2.7607708769 0.0038958537
Cl 3.1297714469 0.0039015507 -1.4736106449
Cl 3.1298529569 -0.0003342813 1.4734133140
Cl 1.7595551647 -2.7572564547 -0.0038969926
Cl -0.0000699491 -1.6008371384 2.6038962733
Cl -1.7594087674 -2.7573330052 -0.0039106245
Cl 0.0000996984 -1.5935779212 -2.6085831673
Cl 0.0000291443 1.6043364218 -2.6040682179
