50
CONF27
C 5.2664485264 -0.7521334472 -0.8617021218
C 4.0153144933 0.0867587132 -1.1215284074
C 3.1303143566 0.2166422892 0.1221212755
C 2.0258958998 1.2872522024 0.0137222729
C 1.2717029653 1.2380588035 1.3458405322
C 0.3961343064 -0.0478070460 1.3317711874
C -1.0378442078 0.3539523582 0.9563626400
N -2.1523143855 -0.5477443206 1.3178530429
C -2.3893122971 -0.7539262439 2.7414288120
C -3.2286899784 -0.1002946627 0.5385390267
C -4.5902678252 -0.3044073624 0.7533309955
C -5.4913464185 0.2003043955 -0.1892746624
C -5.0498349515 0.8879119809 -1.3171501616
C -3.6784970778 1.0889864058 -1.5260669922
C -2.7734825465 0.6215367056 -0.5875487902
C -1.2712523075 0.5607040117 -0.5598554368
C -0.7579441726 -0.6800101465 -1.3124932896
C 0.7222406911 -0.5889095654 -1.0118877946
C 1.0584667177 0.9315750432 -1.1362347396
C -0.3194317238 1.6558277079 -1.0859380938
O -0.6434812118 2.0729613589 -2.4219176271
N 0.9663852387 -1.0438611436 0.3795667662
C 2.4399447191 -1.1282571839 0.5194224897
O 2.8012037891 -1.5970683907 1.8130478766
H 5.8829276332 -0.2946185290 -0.0801209874
H 5.8765673854 -0.8430817649 -1.7656616149
H 5.0089682458 -1.7647920669 -0.5321641187
H 4.3104198804 1.0935641518 -1.4443974561
H 3.4435294869 -0.3497689218 -1.9495327748
H 3.7861742939 0.5175623125 0.9520057372
H 2.4756213681 2.2728515755 -0.1484853341
H 1.9889965380 1.2124261055 2.1743380152
H 0.6570264045 2.1280352791 1.5039438315
H 0.3896940380 -0.5005199583 2.3281757118
H -1.2283116144 1.3214720293 1.4592481102
H -3.1705883226 -1.5051097072 2.8840794306
H -1.4804840927 -1.1310847875 3.2158298964
H -2.6954228670 0.1767059180 3.2488488985
H -4.9533564944 -0.8377576400 1.6254632645
H -6.5559043420 0.0538066635 -0.0315274510
H -5.7673776388 1.2700588900 -2.0360374535
H -3.3400661492 1.6086261632 -2.4166544770
H -0.9547319727 -0.5576208383 -2.3825373417
H -1.2078450318 -1.6124601903 -0.9645212879
H 1.3295157970 -1.2098006346 -1.6783570487
H 1.5209629334 1.1538251663 -2.1021640228
H -0.3104331587 2.5338767287 -0.4280336866
H -1.3816891931 2.6917980134 -2.3623633407
H 2.7522717930 -1.9205066889 -0.1732208482
H 2.9131824008 -0.8405388457 2.4024380504
