26
CONF58
C -2.9432409780 0.1600525944 0.1490126225
C -1.6157024767 0.4772489134 0.8240389358
C -0.4043179490 -0.0957244122 0.0635421525
C 0.8920163322 0.0124451158 0.8911960362
C 2.1989678064 -0.3707773557 0.1745741753
C 2.3513402950 -1.7909919627 -0.3460771473
O 1.5526314841 -2.0519365121 -1.5155279411
O 2.4429696665 0.4968303209 -0.9373823195
O 1.1359593767 1.3636293882 1.3188254473
O -0.7176978320 -1.4593793826 -0.2030163956
O -1.4811201253 1.9069594148 0.9705407822
O -3.0047306692 0.7262128245 -1.1679111129
H -3.1139141259 -0.9208098807 0.1295924035
H -3.7432063795 0.6353088133 0.7256223674
H -1.6339852283 0.0672029025 1.8422760375
H -0.2829783396 0.4755186606 -0.8731365906
H 0.7787109603 -0.6512837505 1.7652922371
H 2.9869186357 -0.2367530661 0.9358221632
H 2.0449751823 -2.5109105534 0.4180532301
H 3.4083633139 -1.9627477662 -0.5855600696
H 2.2235839534 1.3897234376 -0.6318384334
H 0.2780666759 1.8309202309 1.3157082774
H -0.0178739079 -1.7958951427 -0.8026156134
H -1.6626088565 2.2893417239 0.0977978987
H 1.7464182648 -1.3410433141 -2.1445334196
H -2.4999575163 0.1506830056 -1.7566063697
