45
CONF2
C -3.6599615508 -2.1936018199 1.0356140302
C -3.2401981604 -0.7835288302 0.7672333003
N -3.9207993232 -0.1186671454 -0.0935398349
O -3.4278212751 1.1886603056 -0.2693836429
C -4.1690494224 1.8252796720 -1.3191552170
C -2.0908838741 -0.2353071159 1.5392022719
C -0.9233845436 0.2332222133 0.9101957878
C 0.1011481944 0.7531058442 1.7107778848
C -0.0210500530 0.8242404542 3.0916635680
C -1.1861914072 0.3749543368 3.6981454001
C -2.2132572925 -0.1581710396 2.9271320529
O 1.2653107266 1.2972234900 1.1821109963
C 2.0687872980 0.5416014721 0.3798712003
N 1.8389219776 -0.7595121874 0.3125543174
C 2.6587596071 -1.4388977200 -0.5022903742
C 3.6938960679 -0.8347822047 -1.2061139269
C 3.8258894501 0.5386365192 -1.0128459710
N 3.0132168478 1.2514774169 -0.2226227001
O 4.8168434996 1.1576519740 -1.6666157586
C 4.9554151398 2.5864953150 -1.4828977696
O 2.4860256623 -2.7574389101 -0.6517296335
C 1.3965229167 -3.3766372273 0.0757994332
C -0.7942007676 0.0922077741 -0.5679970571
O -1.1310897884 -0.8996588986 -1.1835539504
O -0.2635682566 1.1850091053 -1.1349061128
C -0.0364605577 1.0984167675 -2.5654167552
H -2.8275038829 -2.8710272943 0.8132240587
H -4.5220192856 -2.4630745290 0.4225181618
H -3.9129932335 -2.3285996638 2.0927011580
H -5.2333036028 1.8838495775 -1.0654862391
H -3.7503133515 2.8305100103 -1.3998317514
H -4.0392531535 1.2910525251 -2.2669177542
H 0.8014967289 1.2281998889 3.6715684329
H -1.2908941619 0.4339545700 4.7762817246
H -3.1249875678 -0.5025162628 3.4032880794
H 4.3515265945 -1.3911579907 -1.8601930327
H 5.1471303769 2.8213974380 -0.4331834520
H 4.0552315612 3.1050840155 -1.8216677486
H 5.8102730413 2.8650438205 -2.0981956460
H 1.5526769698 -3.2783084223 1.1529848604
H 1.4254502089 -4.4250475228 -0.2190171285
H 0.4429232675 -2.9232207191 -0.2057253916
H -0.9863837365 0.9641081533 -3.0880015843
H 0.6329614793 0.2628414596 -2.7858027137
H 0.4251596161 2.0457917444 -2.8397754616
