44
CONF11
C 2.5182675623 1.9186738547 -2.7046289321
C 2.7804100664 1.2989299687 -1.3752848263
N 2.0418362928 0.2254370094 -1.0398929608
C 2.3241875852 -0.3110097053 0.1502998299
N 3.2738756572 0.1146443695 0.9939591337
C 3.9441199595 1.1751391705 0.5477570389
N 3.7426844122 1.8174653063 -0.6154000662
O 4.9160809450 1.6968185743 1.2871060044
C 5.2027700727 1.0731217607 2.5642750341
N 1.5980909415 -1.3969755856 0.5914643200
C 0.4667998583 -2.0208625442 0.0510679306
O -0.0757869228 -2.9338602821 0.6523849195
N 0.0374847862 -1.5141350625 -1.1514988756
S -1.3646092155 -2.0765615917 -1.9363183068
O -1.4961429180 -1.1652073134 -3.0823558462
O -1.2397794117 -3.5163923374 -2.1763533739
C -2.6922159474 -1.8004414984 -0.7560530499
C -3.4053233823 -2.9357831606 -0.3709440809
C -4.4849895801 -2.8057533702 0.4911529508
C -4.8405046715 -1.5439963585 0.9593098784
C -4.1162278552 -0.4249045874 0.5688065535
C -3.0213225970 -0.5156242864 -0.2975563274
C -2.2784813674 0.7568053518 -0.6311488550
C -1.4294683124 1.2204000840 0.5631362413
C -0.7916120605 2.5616792333 0.3223398681
F -1.7130711655 3.5500583117 0.1821335767
F 0.0169664393 2.9217399297 1.3517911354
F -0.0283684208 2.5867043162 -0.8012386300
H 3.1872911035 1.4593836939 -3.4427595090
H 1.4903269560 1.7362422853 -3.0209593976
H 2.7320412351 2.9881328671 -2.6776281474
H 5.5044866561 0.0336312044 2.4186934366
H 6.0227469212 1.6572699867 2.9793498511
H 4.3262592065 1.1224900942 3.2140577490
H 1.8677620594 -1.7642162370 1.4954914885
H 0.5628182127 -0.7207025071 -1.5591643040
H -3.1110390859 -3.9086289862 -0.7454016388
H -5.0429722044 -3.6857084388 0.7920997696
H -5.6865309448 -1.4293656378 1.6291589009
H -4.4033003103 0.5563343091 0.9368835342
H -3.0204865728 1.5288167166 -0.8610870773
H -1.6487956660 0.6429259481 -1.5130473988
H -2.0398273795 1.3173344113 1.4661980475
H -0.6264519534 0.5099507279 0.7787482131
