22
CONF3
Cl 5.2350198587 -0.0051654247 0.5490160197
C 3.5053057765 0.0056094518 0.3588758811
C 2.7669064962 0.9763595012 1.0265432427
C 1.3872642846 0.9958610687 0.8814879770
Cl 0.4781996955 2.2065018697 1.7574934497
C 0.7181025800 0.0690364190 0.0770743553
C 1.4770208917 -0.9020651888 -0.5744497160
C 2.8596649873 -0.9394628904 -0.4410784653
Cl 3.7563408468 -2.1723476896 -1.2823585703
C -0.7545759054 0.0701847427 -0.0815049491
C -1.5148550907 -0.9009142845 0.5684319530
C -2.8975482572 -0.9361799586 0.4349665924
Cl -3.7959585363 -2.1691458619 1.2742746681
C -3.5418562690 0.0110614199 -0.3634965086
Cl -5.2715740790 0.0029484471 -0.5537530497
C -2.8020957379 0.9818687281 -1.0295681760
C -1.4224328721 0.9992338587 -0.8844376170
Cl -0.5116768182 2.2100174069 -1.7584846668
H 3.2673134597 1.7018305370 1.6563434575
H 0.9792457607 -1.6334365034 -1.2015912351
H -1.0181195010 -1.6339872536 1.1944096348
H -3.3014759385 1.7090367047 -1.6582230135
