45
CONF23
C -1.0940216214 2.7869282599 -0.7760829953
C -1.8480853834 2.0086626501 0.2528135389
C -2.0997280966 0.6966386152 0.1784097045
C -2.8583538181 -0.0333029325 1.2050039865
C -2.3417481000 -1.3767201169 1.8097549591
C -3.5933413917 -1.3192740782 0.9458455605
C -3.6532415518 -1.9190987614 -0.4420662685
C -4.8803767787 -1.5218777506 1.7224365614
C -1.0071718610 -1.9014002032 1.4854243809
O -0.1746640081 -2.1551985130 2.3394668824
O -0.7658329714 -2.0650453063 0.1614323490
C 0.5863386759 -2.4604382235 -0.2003698369
C 1.4881156074 -1.2606898788 -0.2226106624
C 1.3179578957 -0.2728563919 -1.1880724351
C 2.1082147286 0.8656326647 -1.2186389422
C 3.1109608481 1.0809930522 -0.2798680988
C 3.2893858358 0.0866700850 0.6750160419
C 2.5053522947 -1.0578662010 0.7050684457
F 2.7571109944 -1.9790313463 1.6482382396
F 4.2517355176 0.2297188799 1.6044302678
C 4.0140770695 2.2917666659 -0.3118476172
O 5.3147446514 1.9733467621 -0.8026204384
C 5.3136690471 1.6659399715 -2.1995222187
F 1.8985415721 1.7678144187 -2.1953876579
F 0.3687169010 -0.4293851920 -2.1291139763
H -1.6895555502 3.6291357629 -1.1487388884
H -0.8140547673 2.1580782359 -1.6258454542
H -0.1789866618 3.2177531229 -0.3493960495
H -2.2094241205 2.5656356894 1.1187284851
H -1.7340824355 0.1398228435 -0.6804320367
H -3.2906769308 0.6066392428 1.9717125071
H -2.5218195245 -1.4591777464 2.8768148014
H -3.7905429046 -3.0036721081 -0.3728296496
H -2.7647884579 -1.7291460121 -1.0400823931
H -4.5206748715 -1.5036374267 -0.9667863500
H -4.8244431627 -1.0726398444 2.7181038315
H -5.0926825249 -2.5907850172 1.8362167681
H -5.7170471738 -1.0629861921 1.1842676100
H 0.9562191871 -3.2158663499 0.4926397330
H 0.4858668119 -2.8838186636 -1.2004797232
H 4.1559270941 2.6654321765 0.7050541808
H 3.5528209877 3.0810456769 -0.9187176656
H 4.7369017755 0.7547126200 -2.4118530928
H 4.8983411590 2.4994225198 -2.7830932649
H 6.3543468021 1.5021240286 -2.4857560037
