20
CONF27
C 2.7816384951 0.9185811450 -0.3520426729
C 4.1908781094 0.4717605907 -0.7079916630
O 5.0968871535 1.2600573143 -0.7278474131
O 4.3626809480 -0.8333945131 -0.9934502954
O 1.9062532434 -0.2213663103 -0.4045762690
C 0.5977272230 -0.0245221839 -0.1310690425
N 0.1789645802 1.1955129234 0.1765073816
C -1.1017296933 1.3514852369 0.4339493775
C -2.0428698539 0.3411390247 0.4107121264
C -1.6175219852 -0.9684524438 0.0904902029
C -0.2487553780 -1.1281836510 -0.1891330629
Cl 0.3724138874 -2.7061778179 -0.6040894103
N -2.4786974274 -2.0127700649 0.0895594206
Cl -3.7183555757 0.6546956300 0.7645111530
F -1.4908745364 2.5919524709 0.7369017315
H 2.4627819568 1.6896210628 -1.0604369355
H 3.5078789390 -1.2892254060 -0.9192219840
H -3.4656922753 -1.8207406250 0.1195181706
H -2.1789077745 -2.8844822496 -0.3128298715
H 2.7906371890 1.3578948578 0.6505604256
