26
CONF12
C -3.5729582754 -0.5096957898 1.5862936360
N -2.7792610583 -1.2857031945 0.6279458849
C -1.3481410612 -0.9735199778 0.6684211688
C -1.0659999724 0.3066591100 -0.1398173794
O -1.6685718863 0.1854725863 -1.4261279795
C 0.4174668630 0.5319111176 -0.2703274486
C 1.1138838586 1.2110207647 0.7283977775
C 2.4969979039 1.3591123579 0.6568440919
C 3.1986411087 0.8384569023 -0.4223395398
O 4.5538595171 1.0019118460 -0.4898302511
C 2.5002993537 0.1616815765 -1.4319619253
O 3.2682014834 -0.3126114483 -2.4685634046
C 1.1238866212 0.0058772650 -1.3542639483
H -3.2005076783 -0.5886010257 2.6219131747
H -4.6117349764 -0.8516646554 1.5613963588
H -3.5679016056 0.5489853619 1.3069116431
H -2.9124948133 -2.2742768339 0.8009195082
H -0.9584283496 -0.8437783420 1.6936219767
H -0.7975347684 -1.7960786252 0.1956862035
H -1.4980381999 1.1694264837 0.3949015741
H -2.4699374600 -0.3438624639 -1.2640968551
H 0.5737123681 1.6341708190 1.5705752289
H 3.0457740328 1.8901635608 1.4278975570
H 4.8695582048 0.5905202307 -1.3062178020
H 2.7000902951 -0.7344355164 -3.1242811561
H 0.5891386059 -0.5144609106 -2.1438979937
