51
CONF162
C -0.3861694686 -3.0651069193 -0.6720943873
N -0.8015407379 -2.6093058711 0.6563509767
C -1.5471574050 -3.7023861960 1.3059275873
C -1.9898561970 -3.3371890444 2.7148044425
C -2.8582589051 -2.0845164249 2.6761843426
C -2.0987416630 -0.9651156919 1.9709154312
C -1.6266414095 -1.3857959497 0.5734000815
C -0.8886715484 -0.2374531128 -0.1389270898
C 0.5196875310 0.0426488415 0.4186864557
N 1.0993191851 1.3510119937 0.0712738329
C 0.7218349187 2.4689074116 0.8417970564
C -0.3742207419 2.4247258972 1.7171729355
C -0.7275515492 3.5270724130 2.4916408162
C -0.0182866953 4.7176184347 2.3986463270
C 1.0720247969 4.7837167250 1.5351444980
C 1.4547117987 3.6706084258 0.7931545181
S 2.9821190646 3.7334648425 -0.1079164141
C 2.5660062835 2.6178368283 -1.4225508474
C 1.7371020315 1.5095634435 -1.1717136142
C 1.5882030008 0.5608776428 -2.1965503560
C 2.2344605040 0.7152541565 -3.4248780038
C 3.0213535456 1.8440940994 -3.6695156754
C 3.1683731257 2.7898283047 -2.6651430654
S 2.0921930273 -0.4510615778 -4.7603446672
C 1.0947603993 -1.8038656465 -4.0559573839
H 0.1390070078 -4.0207789961 -0.5769888886
H 0.3048207138 -2.3575048292 -1.1352564455
H -1.2429041641 -3.2104877425 -1.3582355227
H -0.8954636081 -4.5837556705 1.3296272262
H -2.4407512944 -3.9731543928 0.7048618744
H -2.5354600521 -4.1820997443 3.1501282672
H -1.1051969923 -3.1580546629 3.3397858736
H -3.1462535799 -1.7730861667 3.6864012121
H -3.7842303697 -2.3017083527 2.1258028437
H -2.7340461674 -0.0774997673 1.8664980337
H -1.2344654143 -0.6827217578 2.5860197735
H -2.5367666979 -1.5981292085 -0.0292376197
H -1.5110246131 0.6584261135 -0.0474572440
H -0.8402319207 -0.4439643681 -1.2114721973
H 0.5148564112 -0.0186798696 1.5102552890
H 1.2252997176 -0.7216745277 0.0805233051
H -0.9646344932 1.5253494254 1.8126047009
H -1.5759955323 3.4438264344 3.1633846787
H -0.2983180128 5.5825999233 2.9900328971
H 1.6574074002 5.6950216625 1.4572154613
H 0.9600640297 -0.3006774755 -2.0369840920
H 3.5170754385 1.9814634346 -4.6249527243
H 3.7916810273 3.6627454684 -2.8343561042
H 0.9973391584 -2.5419756755 -4.8554305607
H 1.6042136052 -2.2621975947 -3.2046312166
H 0.0989243093 -1.4567146913 -3.7676462371
