46
CONF57
C -0.4258244746 2.8741056651 0.3493907125
C -1.2297247639 1.9617860224 -0.5745380262
C -2.7320946168 2.2252272359 -0.4737604147
C -3.5896516878 1.3168818257 -1.3327392780
O -3.5925878894 -0.0454288299 -0.7860332454
C -2.8203703412 -0.9687585128 -1.3673888518
O -2.0799976172 -0.7874101377 -2.3100026552
C -3.0441023997 -2.3351105727 -0.7121638261
C -4.0878579828 -3.1092199504 -1.5010544172
O -1.8343063710 -3.0973324729 -0.7594289965
C -0.7530320335 -2.6173558065 -0.0694945991
C -0.8142383511 -1.5815742424 0.8664830961
C 0.3497950294 -1.1659212746 1.5089184110
C 1.5516169687 -1.7841568674 1.2092216335
C 1.6246850361 -2.8237850261 0.2914786324
C 0.4664262820 -3.2417688489 -0.3482747474
O 2.7184838318 -1.3966605294 1.8831437924
C 3.3115477785 -0.2363789453 1.5032926544
C 4.3802823273 0.2010579421 2.2989270865
C 5.0787290940 1.3512137094 2.0229112553
C 4.7007488976 2.1099285926 0.9022546768
C 3.6380277092 1.6912525966 0.0919460975
C 2.9488491105 0.5258383529 0.3922394633
C 5.4044480837 3.3030231368 0.5929188593
N 5.9762273421 4.2793736049 0.3396536080
F 4.7223853632 -0.5438783812 3.3691091540
H -0.6059090836 3.9290527761 0.1143343820
H -0.7058609967 2.7117023483 1.3962743949
H 0.6483460785 2.6857070031 0.2564841636
H -0.9093632348 2.1021780174 -1.6145835293
H -1.0192106994 0.9159510889 -0.3225805353
H -3.0607861962 2.1422489201 0.5704063519
H -2.9447862686 3.2557346610 -0.7884899708
H -4.6387592634 1.6188200020 -1.3046066225
H -3.2415672234 1.2811273237 -2.3680364954
H -3.3773997462 -2.2014366151 0.3233332279
H -5.0352881986 -2.5643864690 -1.4951049919
H -3.7577104187 -3.2440741926 -2.5346430571
H -4.2418204763 -4.0875936709 -1.0394512092
H -1.7472991647 -1.0906894856 1.1144509545
H 0.3180613571 -0.3592861279 2.2344889338
H 2.5795417040 -3.2919547089 0.0769653098
H 0.4944197908 -4.0462495002 -1.0754662235
H 5.8974330233 1.6549785397 2.6650876803
H 3.3534353392 2.2789414377 -0.7731336546
H 2.1260596330 0.2042802600 -0.2357164817
