34
CONF6
C -1.6110660032 -0.6269232327 2.6036789693
C -1.4473611399 -0.0762977772 1.3407953918
C -0.2272423325 -0.1097583317 0.6560248433
C 0.8383534441 -0.7377081958 1.3067366536
C 0.7164693232 -1.3018402614 2.5739537435
C -0.5160292837 -1.2337678651 3.2054087670
Cl -0.6878033099 -1.9371242613 4.8044681004
Cl 2.4208603969 -0.8597783549 0.5449848773
C -0.1108214621 0.5280409886 -0.7096211114
C -0.4580395549 2.0292892572 -0.6693067349
N 0.3683123043 2.7272522026 0.3018888537
C 0.0292240662 3.1841505983 1.5230671169
N 1.0978242700 3.6721463988 2.1438190059
C 2.0896346053 3.4708611690 1.2317124743
N 1.6976437440 2.8967499715 0.1004943278
C -1.0190628568 -0.1480354142 -1.7343793519
O -0.7095460573 -1.5741431797 -1.8062838273
C 0.0366055043 -1.9779962383 -2.8446194693
C 0.3322205974 -3.4813874308 -2.6902468834
F 1.0981849639 -3.8835322487 -3.7441976038
F 1.0557802743 -3.6717103722 -1.5491787134
F -0.6006598420 -1.7928740067 -4.0524625677
F 1.2181885484 -1.2819997021 -2.9556013826
H -2.5690633912 -0.5827790344 3.1079413675
H -2.3035784556 0.4004070331 0.8731084469
H 1.5632141260 -1.7806151936 3.0499362825
H 0.9181530265 0.4418932399 -1.0629987128
H -1.5015635044 2.1908193514 -0.3840814304
H -0.2945904548 2.4758388683 -1.6546700712
H -0.9841846971 3.1468987028 1.9015830319
H 3.1211063527 3.7560610288 1.3972123115
H -2.0697791718 -0.0987605639 -1.4394361503
H -0.9050903751 0.3128653178 -2.7197426922
H -0.5862933640 -4.0762425639 -2.6499874600
