44
CONF28
C 0.2940473304 1.2212112679 3.4295514078
C 0.2794523256 0.3350981394 2.1872832506
C 0.4967908097 1.1666839406 0.9099778801
C 0.5060472822 0.3028066252 -0.3316091225
C -0.5637017007 -0.5423122123 -0.7161494600
C -0.3496401825 -1.6090605188 -1.6339687525
C 0.8620825529 -1.7174088249 -2.2994780588
C 1.8907245100 -0.8211846409 -2.0553039389
C 1.6955479432 0.1475276955 -1.0509445449
O 2.7208855321 0.9835361310 -0.6954258445
C 3.9053637669 0.9056390721 -1.3320309978
C 4.1770374117 0.0337289432 -2.3257220634
C 3.1722209251 -0.9145928862 -2.7686711260
O 3.3814956827 -1.7361561589 -3.6671532704
C 4.8605903927 1.9157200194 -0.7793724543
O 4.5799648266 2.6695839661 0.1251963871
O 6.0399291621 1.8695542256 -1.4089979428
C -1.3779318215 -2.6450610280 -1.8425041504
O -1.2575938577 -3.5433133705 -2.6900108458
C -2.5009268164 -2.5619099508 -0.9449478960
C -2.7001742342 -1.4501724459 -0.1851346134
N -1.8328113751 -0.3855921652 -0.1615079411
C -2.3976039079 0.9932671594 0.0030940654
C -3.6926217926 1.1862353417 -0.7757386500
C -3.8313881262 -1.4109518612 0.7995140896
O -3.7615136451 -0.8477809963 1.8710244556
O -4.8894355580 -2.1165707733 0.3797478298
H 1.2451164153 1.7575549541 3.5183345064
H -0.5092580281 1.9648424638 3.3856052546
H 0.1547437040 0.6260247046 4.3369479421
H 1.0695733068 -0.4226173612 2.2518757275
H -0.6718171336 -0.2050692391 2.1286740500
H -0.2522862180 1.9593959668 0.8656110607
H 1.4586450461 1.6748354316 0.9904092193
H 1.0066112983 -2.5220659709 -3.0116179400
H 5.1531701348 0.0301571060 -2.7928871015
H 6.6263936080 2.5400731326 -1.0174331052
H -3.1999464817 -3.3867721234 -0.8962622539
H -2.5231748853 1.2252024985 1.0638732349
H -1.6581193998 1.6681679067 -0.4217283929
H -3.5598765796 0.9039452718 -1.8243356897
H -4.5375331055 0.6297586538 -0.3639114715
H -3.9531151075 2.2478279604 -0.7348931692
H -5.5559643166 -2.1197871295 1.0894985264
