40
CONF2
C 1.0948756731 -1.9222993735 -0.5109165010
O 2.4048209913 -1.2360964124 -0.5610312215
C 2.1736974231 0.0737479941 -0.2019749063
C 3.1492573162 0.9946661541 0.1483665413
O 4.4903354738 0.7291796027 0.0811790865
C 2.7033964558 2.2259093352 0.6395273806
C 1.3452588210 2.4876565594 0.8186179364
C 0.3728323988 1.5466255993 0.4532268085
C 0.8356080574 0.3812133259 -0.1239471196
C 0.0198609044 -0.8093602314 -0.5357513433
C -0.5952818422 -0.6369906915 -1.9341805133
C -1.5704722932 0.5335384183 -1.9750336059
N -2.5555969559 0.4216193138 -0.8985607069
C -3.5876254884 1.4414645156 -1.0160729419
C -1.9265813917 0.3785172837 0.4329332747
C -1.0903577900 1.6398480580 0.8093608288
C -1.1086040321 -0.9305334390 0.5104355987
C -0.5156075583 -1.2211424959 1.8591683251
C 0.5100906777 -2.0658984666 1.9637433455
C 1.0305838184 -2.8045547525 0.7559974583
O 2.2712270418 -3.4545578719 0.9892758101
H 1.0743938580 -2.5573928718 -1.4006504176
H 4.6065491615 -0.1460491102 -0.3079760141
H 3.4493249070 2.9580277127 0.9312496435
H 1.0466539965 3.4269687535 1.2755255326
H 0.2026942467 -0.4788265708 -2.6692232910
H -1.1236945234 -1.5621783887 -2.1988817822
H -1.0105619095 1.4887981179 -1.9286132395
H -2.1076770641 0.5294767277 -2.9311722793
H -4.1306247416 1.2985908939 -1.9569388238
H -4.3043912740 1.3408081439 -0.1938341015
H -3.2029556755 2.4794009350 -1.0115166732
H -2.7493575444 0.3001034972 1.1560995568
H -1.1627587455 1.7971394099 1.8934260224
H -1.5556162838 2.5234175150 0.3551514639
H -1.7934897803 -1.7408301589 0.2170992628
H -0.9264625467 -0.7272293707 2.7372353643
H 0.9652617749 -2.3134569598 2.9184425421
H 0.3168649386 -3.6110415938 0.5249013021
H 2.9541294040 -2.7782789221 0.8853120793
