29
CONF2
C 2.5155310686 -1.0744062188 -0.5763887026
C 1.9121376829 0.0485570239 0.2780798725
C 2.4097088507 1.3992724441 -0.2537690383
C 0.3868103338 -0.0302283709 0.3641967340
C -0.2081296535 -1.3647789170 0.8808039576
C -1.6122988585 -1.3654847200 0.2251366723
C -1.6099239828 -0.0279812942 -0.5421432825
O -0.2187481959 0.0787416139 -0.9551163530
C -1.7259987799 1.1227945035 0.4759928924
C -0.3257519285 1.1078031373 1.1399883114
C -2.5286286409 0.0495674640 -1.7336595851
H 3.6052352668 -0.9747079496 -0.6010568189
H 2.1489242650 -1.0118617934 -1.6061675962
H 2.2848888347 -2.0703001824 -0.1911608124
H 2.2732680920 -0.0714397063 1.3099512547
H 3.5018289407 1.3885852576 -0.3255922996
H 2.0087345604 1.5883541511 -1.2551694883
H 2.1311490827 2.2361485982 0.3905827554
H 0.3776210417 -2.2193055318 0.5392676609
H -0.2402278195 -1.3892974302 1.9733586566
H -2.4312837029 -1.4162288937 0.9479565188
H -1.7220516345 -2.1974734463 -0.4773727661
H -2.5462543002 0.9614943218 1.1809822165
H -1.9047007312 2.0660534219 -0.0494389957
H -0.3578292394 0.8973542719 2.2123788748
H 0.1792429901 2.0639535113 0.9967009748
H -2.4097611488 1.0052696732 -2.2538087851
H -2.3249088131 -0.7665359624 -2.4339699459
H -3.5685844855 -0.0339187655 -1.4022632761
