37
CONF724
C 0.0758166303 -4.6439358054 -1.3621597780
C 0.4100954520 -3.1736950940 -1.4214627974
O -0.7552817218 -2.4382685985 -0.9257548933
P -0.7591618357 -0.8467982082 -1.0217648738
O -0.4947411656 -0.2381564946 -2.3378367862
O -2.1605471020 -0.4471183359 -0.4065372221
C -2.5868609909 -0.9171025590 0.9144429942
C -3.7134970850 -0.0212465604 1.3663145152
O 0.3539452717 -0.4949460284 0.1278352961
P 0.9493314127 0.9091529616 0.6752042520
O 2.0469247221 0.6812868731 1.6385929449
O 1.3080634083 1.7797278769 -0.6087554758
C 2.6543750649 1.7156327118 -1.1846989062
C 2.9335935486 0.3806247679 -1.8392147660
O -0.3822877035 1.5939998295 1.2193241473
C -0.2912345406 2.6590006590 2.2219804395
C 0.1667338413 3.9674015113 1.6174127142
H -0.1468320483 -4.9497395573 -0.3363983282
H 0.9323538481 -5.2236709814 -1.7188556544
H -0.7857459083 -4.8707339403 -1.9955401072
H 1.2668874379 -2.9287630358 -0.7835150693
H 0.6175584349 -2.8457361100 -2.4457254529
H -1.7365488773 -0.8666117599 1.6019206478
H -2.9062922205 -1.9587253881 0.8100086082
H -3.3691157732 1.0127790062 1.4505835134
H -4.5478908254 -0.0607178751 0.6611861976
H -4.0694632586 -0.3538363289 2.3461268525
H 3.3763600158 1.9392579719 -0.3926307540
H 2.6597265516 2.5262379451 -1.9162530516
H 2.9819633704 -0.4230231770 -1.0976559424
H 2.1601860929 0.1422436035 -2.5737497446
H 3.9032412676 0.4305502839 -2.3450240968
H -1.3075500655 2.7342632966 2.6149501480
H 0.3767110535 2.3228911221 3.0215924305
H -0.4731124531 4.2522898798 0.7779318185
H 0.1115045143 4.7499044490 2.3810475083
H 1.2007924352 3.9055807875 1.2670790635
