38
CONF18
C 2.8999671798 -0.7089287566 -2.1360825062
C 2.7628828023 -0.5927222323 -0.6568141834
N 1.5555176865 -0.8843438903 -0.1371692127
C 1.4612144033 -0.7615494270 1.1869779248
N 2.4548107692 -0.3980746811 2.0119491816
C 3.6018533355 -0.1524590286 1.3849830657
N 3.8216138720 -0.2222472589 0.0593177263
O 4.6716641246 0.2055136414 2.0863774753
C 4.5317630518 0.3040675177 3.5262321021
N 0.2562853496 -1.0115362848 1.8085649519
C -0.9899870609 -1.3694933540 1.2856741616
O -1.9650787635 -1.4312710519 2.0164744865
N -1.0024329979 -1.6520902634 -0.0637717356
S -2.4574999323 -1.8624749382 -0.9117338330
O -3.1928811114 -2.9781300477 -0.3133387276
O -2.0572660414 -1.9304222885 -2.3186904138
C -3.4185147445 -0.3860592534 -0.5930422039
C -3.0615851913 0.9167484286 -0.9015059109
S -4.3459548100 1.9971615158 -0.4533868974
C -5.3191459035 0.7032077903 0.1247845049
C -4.6993389583 -0.5104635557 -0.0084356247
C -1.8161224547 1.4338872584 -1.4806080879
O -0.8495726901 0.7509888005 -1.7576018813
O -1.8790044793 2.7650927100 -1.6578497632
C -0.6846257871 3.3758692048 -2.2091018212
H 2.0991350034 -0.1482328235 -2.6271872312
H 3.8730055276 -0.3470315668 -2.4661424533
H 2.7825872220 -1.7583979430 -2.4280733855
H 5.5187117498 0.5974585588 3.8808306598
H 4.2423363710 -0.6622245019 3.9449985607
H 3.7882229305 1.0618631077 3.7826477191
H 0.2447231662 -0.8622670595 2.8098444065
H -0.1724759536 -1.3651344338 -0.6093789475
H -6.2987655386 0.9037424959 0.5389194171
H -5.1316596342 -1.4530082415 0.2981769312
H 0.1633707535 3.2041706970 -1.5420026826
H -0.9136556317 4.4379276101 -2.2786086307
H -0.4740989216 2.9583989499 -3.1962271468
