40
CONF164
C 3.0427864782 0.1430093339 -1.4605941993
C 1.8905254553 1.1169721486 -1.4286964865
O 1.5635364920 1.3446153075 -0.0221333196
P 0.2769709465 2.1854347852 0.4308092916
S -0.7543980633 3.1186136984 -0.9008225289
O 0.8231240756 3.1306736410 1.5898338499
C 1.7385217389 2.6268741619 2.6227839302
C 3.1142767841 3.2081319792 2.3976991686
O -0.5358720012 1.1033596849 1.3923035348
C -1.1652081698 -0.0076279134 0.9140759976
C -1.9860932770 -0.6973179919 1.8029855406
C -2.6170025330 -1.8248526855 1.2998697859
N -2.4501194818 -2.2103833730 0.0173140161
C -1.6434284583 -1.4717520245 -0.7439837114
N -0.9712403860 -0.3770679151 -0.3383024545
C -1.4526034380 -1.8921652428 -2.1810669043
C -1.7831620432 -0.7428121452 -3.1394091345
C -0.0230756384 -2.4054135479 -2.3995166630
C -3.5241463070 -2.6668556640 2.1399898193
H 3.3118636955 -0.0613575506 -2.5014393003
H 2.7654219998 -0.8005641181 -0.9821337672
H 3.9180356734 0.5540567775 -0.9498929521
H 1.0031581666 0.7178687509 -1.9270130396
H 2.1534995449 2.0785901880 -1.8803419486
H 1.3059626351 2.9569551335 3.5709707024
H 1.7525482303 1.5329869302 2.6073818869
H 3.5256295815 2.8689692287 1.4433195241
H 3.7824190391 2.8819669063 3.2013973661
H 3.0765520058 4.3006697872 2.3996228747
H -2.1188345357 -0.3584620946 2.8229105318
H -2.1514030638 -2.7169859173 -2.3529025929
H -1.1048888969 0.1010480113 -2.9821078431
H -2.8066708031 -0.3854557556 -2.9902043061
H -1.6836538469 -1.0809657462 -4.1755725557
H 0.0959621153 -2.7551864975 -3.4297665970
H 0.7011286895 -1.6046555412 -2.2228096927
H 0.2087074336 -3.2350512607 -1.7242988901
H -3.5791228998 -2.3001474834 3.1665345658
H -4.5292990543 -2.6732254807 1.7063499526
H -3.1704090956 -3.7024905314 2.1435615572
