39
CONF31
C 4.8163373950 0.8061776721 -2.1705415175
C 3.4976645018 0.8958316465 -1.4052987917
C 3.0391011124 -0.4679982110 -0.8895876598
C 1.7487441195 -0.4052162165 -0.1054139537
C 1.2431664386 -1.7501297247 0.4361795922
O -0.1837984441 -1.7255000245 0.1996063048
C -0.5027031531 -0.4469202449 -0.3379116552
C -1.5809011439 -0.6472865746 -1.4134234220
N -2.8267755974 -1.1112522803 -0.8326801972
C -3.1829828854 -2.3684098348 -0.4998532977
N -4.3734932992 -2.3668245362 0.0878393736
C -4.7026477754 -1.0438440044 0.0949118747
N -3.7962904496 -0.2422673385 -0.4490325333
O 0.6668398813 -0.0008358339 -0.9815102264
C -0.9455329548 0.5010106259 0.7842583866
C -1.1115695189 1.8794730398 0.6148716445
Cl -0.8170001147 2.6695756285 -0.9292868909
C -1.5344012663 2.7075105469 1.6492565816
C -1.8070218081 2.1344145576 2.8837033909
Cl -2.3444196496 3.1706383260 4.1942496067
C -1.6669282551 0.7714309107 3.1004340770
C -1.2380205808 -0.0234761402 2.0451662625
H 4.7194839496 0.1417876737 -3.0362008136
H 5.1326810422 1.7887609606 -2.5335275312
H 5.6126076341 0.4089329310 -1.5314214728
H 2.7209184208 1.3179732681 -2.0537819320
H 3.6050012167 1.5821168774 -0.5553511970
H 3.8077227540 -0.8916000563 -0.2293436150
H 2.9095814089 -1.1697962034 -1.7240428312
H 1.8292781973 0.3288984198 0.7104003590
H 1.4437571218 -1.8655807805 1.5064148490
H 1.6633045606 -2.5969555530 -0.1169513925
H -1.7733193442 0.2882071524 -1.9397573119
H -1.2147011335 -1.3978228712 -2.1181950026
H -2.5610594849 -3.2281820900 -0.7106384125
H -5.6298372772 -0.6606784476 0.5024039610
H -1.6512644142 3.7723456740 1.4896185781
H -1.8861490970 0.3360893718 4.0681742676
H -1.1253718901 -1.0905975064 2.1962624524
