88
CONF24
C 1.5685604060 -1.8326121755 0.4231108046
C 0.0439769645 -1.7063855393 0.3416790249
C -0.3671574415 -1.3367489172 -1.0732805157
O -1.8086013353 -1.1536290465 -1.1068885228
C -2.5370127269 -1.8859238864 -1.9823178975
O -2.0746916047 -2.7809888186 -2.6759581843
C -3.9485254076 -1.5019838002 -2.0165095774
C -4.4566365664 -0.4385344760 -1.3619326928
C -5.8361152485 0.0210076260 -1.3808047547
C -6.8563637944 -0.6906481632 -2.0309099124
C -8.1547979494 -0.1903346964 -2.0253709908
O -9.2183686261 -0.7925849360 -2.6167170173
C -8.9767338267 -2.0259292145 -3.3106791096
C -8.4479097792 1.0194613716 -1.3667670879
O -9.7342738716 1.4839509286 -1.3226189360
C -10.0834673417 2.3053986402 -2.4607534617
C -7.4247006183 1.7285163963 -0.7198953489
O -7.8069994846 2.8868907002 -0.1231174850
C -6.7930048597 3.6457142097 0.5534927479
C -6.1238736735 1.2246999351 -0.7192588120
C 0.2641884257 -0.0305799816 -1.5430316643
O -0.0601928429 0.1950473186 -2.9199139883
C -1.0283978879 1.2263027871 -3.1309588283
C 1.7853145301 -0.1265416795 -1.4327031127
C 2.4298494890 1.1833686664 -1.8304198912
O 1.8922582212 2.2724431559 -1.8132970697
O 3.7229564106 0.9979434316 -2.1524054068
C 4.4774084128 2.2004231355 -2.4497715896
C 2.2694502808 -0.5384073175 -0.0198427147
C 2.0718069498 0.5576853832 1.0296514446
C 2.5257708840 0.1057725641 2.4196816235
N 1.8584023930 -1.1589056624 2.8035720537
C 2.3192714779 -1.5865705119 4.1366756980
C 3.8190117475 -1.9531862227 4.2047093809
C 4.6089998872 -0.9689527168 3.4048443196
C 4.0132430712 -0.0494172383 2.5776804162
N 4.9899324850 0.7125344298 1.9551517437
C 6.2287021319 0.2831505079 2.3695077602
C 6.0260789039 -0.7854491315 3.2849448042
C 7.1532449779 -1.3987437151 3.8512943914
C 8.4170854432 -0.9506350479 3.5062725030
C 8.5872646820 0.1140093188 2.5938692216
O 9.8928019645 0.4530520314 2.3450624037
C 10.1268460697 1.5223937055 1.4242335081
C 7.4955303954 0.7504201517 2.0086916262
C 2.0678945612 -2.2254090526 1.8124215327
H 1.8750672297 -2.6334607438 -0.2643155629
H -0.4221791523 -2.6601753309 0.6133228432
H -0.3260786766 -0.9501269724 1.0418440808
H -0.0996546754 -2.1337372014 -1.7743379133
H -4.5564945756 -2.1348451059 -2.6545410507
H -3.7774940323 0.1641150943 -0.7634561214
H -6.6337222326 -1.6248548934 -2.5281771332
H -8.6035129960 -2.7944894771 -2.6244413144
H -9.9437177882 -2.3290970119 -3.7121415503
H -8.2641766189 -1.8806505469 -4.1306525756
H -9.9878817102 1.7327520674 -3.3897452191
H -11.1222931990 2.6058279112 -2.3150446094
H -9.4408179626 3.1921605479 -2.5005220756
H -7.3034265262 4.5207580158 0.9558747882
H -6.0096641636 3.9625357863 -0.1443463343
H -6.3512595582 3.0661643303 1.3718933264
H -5.3208079794 1.7557240025 -0.2233129400
H -0.1115039390 0.7998728139 -0.9302662039
H -1.1771782435 1.2986519510 -4.2110896919
H -1.9866581040 0.9871501463 -2.6521075772
H -0.6617781677 2.1880646330 -2.7495377933
H 2.1264112382 -0.8972555230 -2.1357730556
H 4.0522642874 2.7057447428 -3.3200477117
H 5.4905868088 1.8605457986 -2.6599257855
H 4.4671519824 2.8721701634 -1.5879529185
H 3.3442904608 -0.7491012654 -0.0945763235
H 1.0183170066 0.8471002213 1.0968667916
H 2.6182131067 1.4659127751 0.7507741153
H 2.1804142330 0.8682495312 3.1351521212
H 1.7108361946 -2.4411745593 4.4551614611
H 2.1202885871 -0.7594518854 4.8299043045
H 3.9854491539 -2.9747506198 3.8342733865
H 4.1353183535 -1.9570809220 5.2554635712
H 4.8283273850 1.4692977165 1.3103732761
H 7.0416574112 -2.2184944916 4.5554607214
H 9.3049950089 -1.4083263060 3.9307714857
H 9.7264225362 1.2835479400 0.4311589483
H 9.6805987385 2.4581257881 1.7831435797
H 11.2101507743 1.6335389857 1.3644698841
H 7.6039874900 1.5681465944 1.3066184088
H 1.5286013077 -3.1140188576 2.1644369662
H 3.1329245899 -2.5031505615 1.7189249117
