33
CONF28
C -3.0118303428 -0.7425239362 -1.2215230720
C -3.1338359585 0.3461366556 -0.1554259722
C -4.5898288490 0.5234029636 0.2769224542
C -2.2555306160 0.0315624582 1.0744098460
C -0.7883540627 -0.0549791296 0.7533851205
C -0.1305056467 -1.2831929245 0.6694680168
C 1.2204045421 -1.3541574789 0.3340175986
C 1.9491936216 -0.1943280336 0.0705090033
C 1.2964601967 1.0406974954 0.1587112258
C -0.0492694240 1.1068598752 0.4957900966
C 3.4146421120 -0.2617758371 -0.3182334066
C 3.6584700128 0.1779840636 -1.7619411144
C 4.2735025024 0.5369090238 0.6556881902
O 5.1111885408 1.3509840530 0.3374174583
O 4.0806526618 0.2723807568 1.9683274310
H -3.3312461951 -1.7104061066 -0.8151992906
H -1.9806320150 -0.8488874008 -1.5730080733
H -3.6441312449 -0.5126284296 -2.0853960584
H -2.7788119348 1.2943529890 -0.5836815228
H -4.6892084323 1.3195894439 1.0223523491
H -4.9716931916 -0.4049602482 0.7190018469
H -5.2244447210 0.7742555564 -0.5793851940
H -2.4180585671 0.8145915534 1.8257375477
H -2.5947693820 -0.9162876041 1.5111740689
H -0.6827935274 -2.1982882157 0.8663328311
H 1.7124198084 -2.3215996166 0.2744941491
H 1.8486843428 1.9581938979 -0.0311075166
H -0.5373982439 2.0757444923 0.5658203193
H 3.7420376339 -1.3048367905 -0.2011892775
H 3.3683475823 1.2228595406 -1.9024784973
H 3.0627102164 -0.4424037217 -2.4363119316
H 4.7136073553 0.0739613907 -2.0262143926
H 3.3600206064 -0.3692107302 2.0822571590
