51
CONF93
C 5.7906301515 1.7207010254 0.8920204009
C 5.4324224961 0.3142378116 1.2867571661
C 6.3376905765 -0.5542627180 1.8054407021
C 7.7777650742 -0.2551991149 2.0817925852
O 7.9679329144 0.5446941540 3.2779661872
C 4.0655238350 -0.1238471648 1.1116979737
C 3.0457688309 0.6275951086 0.6122531546
C 1.7195556867 0.1244116091 0.4526757763
C 0.6233822072 0.7853034511 -0.0410382573
C 0.6667063408 2.2153126469 -0.5009888810
C -0.6241898292 0.0643361544 -0.1175290678
C -1.7882833518 0.5801147363 -0.5987471968
C -3.0927574129 -0.0346701851 -0.7726927037
C -4.0429673002 0.6772341051 -1.4529642033
C -3.8536087670 2.0993270390 -1.9241433809
C -5.3761245979 0.1084882863 -1.8521540853
C -5.4733283051 -1.3988788763 -1.6861416694
C -4.8922422867 -1.7672520119 -0.3321732804
C -3.3884082633 -1.4383183224 -0.2163819562
C -3.0626335469 -1.5099978961 1.2904223366
C -2.5916701828 -2.5172682117 -0.9774175886
H 5.5353875124 1.9067211078 -0.1570341650
H 5.2234423142 2.4406624588 1.4928961262
H 6.8508335563 1.9292239849 1.0342813577
H 5.9855110302 -1.5469734461 2.0835208733
H 8.3403764358 -1.1936398497 2.1717971708
H 8.2330422389 0.3293396364 1.2768960941
H 7.4976096685 0.0979489857 3.9935070881
H 3.8514548957 -1.1513796961 1.4073481979
H 3.2495978526 1.6537599738 0.3200789400
H 1.5698169356 -0.9118708673 0.7587167753
H 1.6548838165 2.6608911142 -0.3926373197
H 0.3765348553 2.2913361738 -1.5554652289
H -0.0437213230 2.8252893964 0.0688827830
H -0.5736692685 -0.9611194549 0.2304378109
H -1.7282242134 1.6033967557 -0.9529585184
H -3.3559319058 2.7371664207 -1.1892787840
H -4.8276334098 2.5451890059 -2.1457344457
H -3.2655494291 2.1393480908 -2.8505381965
H -6.1592081936 0.6068588261 -1.2572627038
H -5.5749651478 0.4052778354 -2.8917063388
H -6.5157484867 -1.7258506665 -1.7663029088
H -4.9189600301 -1.8984616538 -2.4894375313
H -5.0265005985 -2.8336419470 -0.1141527963
H -5.4375559133 -1.2105993046 0.4431461038
H -3.5567894349 -0.6915932511 1.8249092089
H -3.4414623762 -2.4565178558 1.6930971790
H -1.9956982900 -1.4603361663 1.5093479651
H -1.5155476091 -2.3372701820 -0.9509897765
H -2.7821760866 -3.5003302463 -0.5315563985
H -2.8903156602 -2.5548877951 -2.0293552841
