47
CONF61
C 1.1005520704 4.7692648502 1.0131464602
C 0.9947951887 3.3258341793 1.4505821133
C 0.4278224744 2.9846051579 2.8080399999
C -0.4267041457 2.7677060851 1.5562624042
C -0.7281732038 1.3906861592 1.1446269205
O -0.1540850400 0.3763078008 1.4779730263
O -1.7877695865 1.3886374349 0.2743438869
C -2.1017121035 0.0881136810 -0.2859225575
C -3.4857507673 0.1895687492 -0.7487009186
N -4.5731032694 0.2367509462 -1.1342861003
C -1.1672156822 -0.2684993506 -1.4218572776
C -0.4752151619 -1.4755405238 -1.3827920835
C 0.3969769578 -1.8049190362 -2.4164048889
C 0.5649316495 -0.8988787979 -3.4640271427
C -0.1101152189 0.3071886698 -3.5069339103
C -0.9931177221 0.6222897382 -2.4809579265
F 1.4187132367 -1.2193220042 -4.4588935846
O 1.1627140392 -2.9396684488 -2.4388295829
C 0.6471651648 -4.1003528989 -1.8649548525
C 1.4915185926 -4.8232696668 -1.0325202947
C 1.0414109188 -6.0299934239 -0.5014465371
C -0.2373079341 -6.4966533078 -0.7969091782
C -1.0683002627 -5.7555994058 -1.6362834748
C -0.6303281592 -4.5523184193 -2.1813201705
C 0.0061178527 4.0084896685 3.7662074170
C 0.1663981314 3.9370465932 5.0879796481
Cl 0.9178538912 2.5981085909 5.9122065289
Cl -0.3673894505 5.2066971747 6.1599548413
C 2.1099473967 2.4510293147 0.9258538275
H 2.0065325381 5.2190124695 1.4341547213
H 0.2408746791 5.3686431843 1.3188495227
H 1.1741908776 4.8162267523 -0.0781891477
H 0.8148467216 2.0632344012 3.2324557693
H -1.2169867262 3.4860615441 1.3665899140
H -2.0558203125 -0.6756802171 0.4984749750
H -0.6025468608 -2.1591833765 -0.5498961880
H 0.0511465021 0.9770163797 -4.3445777791
H -1.5369297728 1.5608612635 -2.5057775541
H 2.4824175273 -4.4411327033 -0.8109793482
H 1.6944045296 -6.6019958776 0.1500471197
H -0.5851173565 -7.4349528012 -0.3776343796
H -2.0624302153 -6.1183589034 -1.8778566926
H -1.2669852605 -3.9738376630 -2.8429457161
H -0.4826426481 4.9012769561 3.3879360881
H 2.0484097759 1.4293690027 1.3027686283
H 3.0715456278 2.8765672793 1.2314660172
H 2.0844607705 2.4235629000 -0.1693924302
