59
CONF274
C 6.7251116085 -1.0861021103 -1.8529866003
C 7.2401787008 -2.4347342925 -1.3428343357
C 7.0059811971 -2.3218252456 0.1665870624
C 5.6512829835 -1.5791570680 0.3148190360
C 5.4139740608 -0.9031809695 -1.0754323716
C 5.6941514313 -0.5518099862 1.4425646615
C 4.3739913897 0.1329080372 1.6888294330
O 4.3061703107 1.2651963027 2.1458138016
N 3.2073749839 -0.5759217329 1.3825453593
C 3.1918290562 -1.8606334234 0.8278128005
O 2.1325124555 -2.3906209542 0.5249607250
C 4.5200958588 -2.5483360458 0.6574162899
C 1.9132060243 0.1051864152 1.5716518576
C 1.5106148009 0.8860056079 0.3205647103
C 0.1826982603 1.6309198624 0.4835677653
C -1.0095615090 0.6860839193 0.6318131046
N -2.2958762150 1.3868976251 0.7500678275
C -3.3308151773 0.4603941362 1.2300451865
C -4.6669952910 1.1784938087 1.3932808917
N -5.0723148592 1.7741849281 0.1197646044
C -4.0511967726 2.6924187937 -0.3848090150
C -2.7164907800 1.9666922659 -0.5329158307
C -5.9369373370 1.1342271095 -0.7246902592
N -6.6579383052 0.1032841352 -0.2191943065
C -7.5380715186 -0.4634918385 -1.0416826305
C -7.7290280478 -0.0513899729 -2.3556124157
C -6.9312593492 1.0062837962 -2.7769366766
N -6.0380473224 1.6051544433 -1.9920343638
H 6.5815494631 -1.0506475995 -2.9369960051
H 7.4381433733 -0.2975499583 -1.5814720823
H 6.6340105663 -3.2477170204 -1.7626463930
H 8.2866012065 -2.6282906598 -1.5973078169
H 7.8027174577 -1.7109186729 0.6088951048
H 7.0024939982 -3.2853690586 0.6860675363
H 5.1225216075 0.1483757195 -0.9800584547
H 4.6010700260 -1.4175273227 -1.6021642560
H 5.9858099849 -1.0400197137 2.3842993635
H 6.4275711003 0.2359630732 1.2464683302
H 4.3918262541 -3.3181811364 -0.1081479948
H 4.7406879304 -3.0579421041 1.6068504172
H 2.0163286079 0.7790689423 2.4248258028
H 1.1814338995 -0.6665714825 1.8123581542
H 2.3036044442 1.6070229158 0.0921876344
H 1.4464922218 0.1944358193 -0.5289775962
H 0.0474302685 2.2723145458 -0.3933752950
H 0.2286088716 2.2925515853 1.3583176032
H -0.8876100312 0.0903829406 1.5438530943
H -1.0208815062 -0.0289603233 -0.2160617608
H -3.4662912913 -0.3922471169 0.5334678525
H -3.0190327609 0.0552915688 2.1999006031
H -4.5612140937 1.9889928188 2.1256065488
H -5.4328640822 0.4868497760 1.7409567824
H -4.3667331078 3.1082314840 -1.3404624807
H -3.9447754977 3.5089354240 0.3405904991
H -2.8153117076 1.1836685551 -1.3127488172
H -1.9659482220 2.6858703642 -0.8748028389
H -8.1154138439 -1.2905376300 -0.6290170979
H -8.4476006136 -0.5279070738 -3.0104011872
H -7.0084537875 1.3898316148 -3.7940485094
