53
CONF11
C 2.0822679419 0.8378530727 -0.7985540879
C 0.5958714609 1.1481779158 -0.7220579253
N -0.1737558973 -0.0782657804 -0.4717341725
C 0.2789845290 -0.6551612310 0.8017741430
C 1.7628755159 -0.9732299803 0.7358701552
N 2.5424044436 0.2440015374 0.4612972031
C 3.9938389795 -0.0163905266 0.4791737101
C 4.6333453934 0.4196861784 1.7889322167
O 4.0597165659 -0.3022445518 2.8794770491
C 3.6565534116 0.4931601834 3.9977171091
C 2.2204423761 0.9803526923 3.8645704771
O 2.0312963927 1.8750421507 2.7808883146
C -1.6152943138 0.2067497096 -0.4489321897
C -2.4262660986 -1.0339360311 -0.1065403338
C -2.2081883052 -2.2404999112 -0.7753645845
C -2.9789449650 -3.3580207250 -0.4807369041
C -3.9848534425 -3.2839318311 0.4809585930
C -4.2075805871 -2.0861534988 1.1506110355
C -3.4282722948 -0.9692205540 0.8593828545
C -2.0960327197 0.7509452818 -1.7848000843
C -3.0970711629 1.7197112279 -1.8186257945
C -3.6054140589 2.1902025445 -3.0248362349
C -3.0933956881 1.6819266985 -4.2110431675
C -2.0891023610 0.7203649233 -4.2085376856
C -1.5987572278 0.2594744910 -2.9931608067
Cl -3.7170175063 2.2711643332 -5.7421239542
H 2.6315415648 1.7705935982 -0.9728110997
H 2.2695508034 0.1621682189 -1.6554166490
H 0.4214925345 1.8972433883 0.0762879185
H 0.2744948755 1.5900588742 -1.6700347565
H -0.2726229685 -1.5791594726 0.9975554120
H 0.0863044143 0.0395705742 1.6439406916
H 1.9341963434 -1.7322790374 -0.0515564738
H 2.0975290731 -1.3886383884 1.6909105583
H 4.2009469816 -1.0831558854 0.2979575984
H 4.4788815644 0.5429781108 -0.3314267621
H 4.4895364008 1.4991354584 1.9219419225
H 5.7159994182 0.2160415088 1.7470732940
H 4.3360436069 1.3485794486 4.1263964695
H 3.7427018455 -0.1505718998 4.8828030684
H 1.9461166128 1.5162912674 4.7830268262
H 1.5551840513 0.1034163256 3.7812610557
H 2.1642689063 1.3590137020 1.9503026050
H -1.8457167642 0.9706772446 0.3215084416
H -1.4193678272 -2.3004815173 -1.5179549065
H -2.7965772947 -4.2914384614 -1.0040745064
H -4.5883635355 -4.1568715263 0.7074677514
H -4.9847159277 -2.0201131094 1.9054757634
H -3.5982496574 -0.0370550056 1.3915357616
H -3.4923599018 2.1154001901 -0.8870479356
H -4.3832812624 2.9445033227 -3.0446256280
H -1.6969636193 0.3417048842 -5.1454188226
H -0.8042200217 -0.4793702071 -2.9784099482
