44
CONF13
C -5.3584887018 -0.9810507387 1.2965521856
C -3.9771174675 -0.4455631799 1.6176435967
C -2.8894251305 -1.5152376474 1.6621159777
O -2.4618959259 -1.5756856647 0.2884590772
C -2.4665876746 -0.2341890017 -0.1609444100
O -3.5196827368 0.4206308244 0.5390523210
C -2.8245003705 -0.2546280790 -1.6586613871
N -1.7485020918 -0.8156415093 -2.4567387336
C -1.4253051853 -2.1118314672 -2.6397681651
N -0.3023833427 -2.2103324120 -3.3417355072
C 0.0307654777 -0.9062151143 -3.5580023354
N -0.8123655480 -0.0233837948 -3.0386455653
C -1.1134025436 0.4330259203 0.1006151039
C -0.0111132979 -0.3685531512 0.4119050645
C 1.2603137510 0.1521592294 0.6024028182
C 1.4485301203 1.5237262363 0.4649842429
C 0.3836726247 2.3599061756 0.1505885764
C -0.8765651338 1.8046042153 -0.0287570641
Cl -2.1554897852 2.9279171323 -0.4855841718
O 2.6627781070 2.1360221356 0.6887686357
C 3.8210421828 1.4797554596 0.3055546614
C 4.9039423491 1.5484995711 1.1742824069
C 6.1178515064 0.9772728623 0.8057613751
C 6.2168839348 0.3408368536 -0.4253081583
C 5.1379167709 0.2702894769 -1.2997143666
C 3.9291162226 0.8500988866 -0.9319592711
Cl 7.7484309073 -0.3924563854 -0.8932512500
H -5.3248234779 -1.6208616458 0.4088403535
H -6.0525008953 -0.1563681869 1.1123801467
H -5.7348254461 -1.5673489688 2.1411308970
H -3.9888492289 0.1539304920 2.5338553821
H -2.0539155814 -1.2224225858 2.3112875322
H -3.2578970046 -2.5035039040 1.9420396690
H -3.7239481693 -0.8632138894 -1.7829565097
H -3.0153394075 0.7599909423 -2.0093117877
H -2.0300211533 -2.9251157961 -2.2610700432
H 0.9066816340 -0.5972487110 -4.1147134504
H -0.1641381877 -1.4371827038 0.5096270680
H 2.0902006824 -0.4991317911 0.8521515560
H 0.5474608985 3.4251394002 0.0381971091
H 4.7961579282 2.0481519426 2.1308817459
H 6.9695444005 1.0238516323 1.4746937174
H 5.2369315476 -0.2211196351 -2.2608644648
H 3.0808614312 0.8124767598 -1.6073069803
