49
CONF61
C -0.7832620762 1.4915440456 4.8982406030
C -0.7951664878 0.1001203473 4.8244620639
C -0.5284097918 -0.5449058261 3.6218267194
C -0.2602071469 0.2201124310 2.4861590225
C -0.2630339795 1.6131083013 2.5414327835
C -0.5125447029 2.2425012652 3.7568671377
N 0.0265356567 -0.4096622160 1.2427978583
C 1.2179430380 -0.2606150688 0.5540219357
O 1.9812725028 0.6818560346 0.6658555166
C 1.4028427781 -1.4994380521 -0.2970281584
C 0.1728820053 -2.3348108807 -0.0124248347
O -0.1749426440 -3.3587493348 -0.5707777190
N -0.5534494863 -1.6789991987 0.9706460860
C -1.9646463958 -1.8206628373 1.1172441808
C -2.8136159128 -0.7374720139 0.8900831534
C -4.1858005455 -0.9132185820 1.0321782915
C -4.7061925502 -2.1572892002 1.3832577926
C -3.8464421255 -3.2310116947 1.6025381657
C -2.4700049388 -3.0659840743 1.4842579823
C 1.5984062709 -1.1986564859 -1.7890789559
C 0.3788173164 -0.5054441681 -2.3815553966
S 0.6540427377 0.0640322807 -4.1259278076
O -0.6347176736 0.7995503691 -4.5005330929
C 1.9029361958 1.3295666607 -3.7395417678
C 1.5003066432 2.5425257209 -3.1894343264
C 2.4656338260 3.5022381197 -2.9033859372
C 3.8105798101 3.2457550000 -3.1720968293
C 4.1961938949 2.0313544063 -3.7339158035
C 3.2371218131 1.0640684134 -4.0295775138
H -0.9901027555 1.9881315762 5.8405050638
H -1.0063909022 -0.4915926958 5.7092959899
H -0.5268361798 -1.6278942728 3.5665289427
H -0.0756525312 2.1896656656 1.6435357463
H -0.5101053140 3.3266329519 3.8048000299
H 2.2908238560 -2.0226370324 0.0823124178
H -2.4078559293 0.2273381585 0.6059188651
H -4.8502029372 -0.0727666058 0.8592536289
H -5.7780358440 -2.2876077280 1.4902503243
H -4.2446312567 -4.2007943666 1.8828573172
H -1.7906714639 -3.8882451475 1.6764208404
H 2.4854703356 -0.5630488963 -1.8754469528
H 1.8011158738 -2.1367484715 -2.3137872496
H -0.4807471030 -1.1810000911 -2.4551740596
H 0.0874060012 0.3927894770 -1.8230540428
H 0.4486277210 2.7306498596 -2.9950228216
H 2.1686246642 4.4523885919 -2.4708537439
H 4.5588836374 3.9991145945 -2.9476311170
H 5.2415910825 1.8372965697 -3.9511671697
H 3.5256100343 0.1169152013 -4.4764720569
