47
CONF68
C -2.9987594183 1.3260200999 -0.8736797499
C -2.2431084283 0.9697053307 0.3865234404
C -2.4297949223 1.7868402384 1.6424286984
C -1.1562738429 1.9623392899 0.8113196330
C 0.1148867627 1.4855676100 1.3682877810
O 0.2731186409 0.7034138183 2.2797794592
O 1.1585437453 2.0417469598 0.6654065393
C 2.4834539398 1.6108099425 1.0471503219
C 3.2698836668 2.8227548709 1.2704951273
N 3.8876041962 3.7789386070 1.4610618549
C 3.0758541242 0.6971487757 -0.0119558851
C 2.2384565416 -0.2458648787 -0.6049847982
C 2.7713664281 -1.1336689109 -1.5344858710
C 4.1194850544 -1.0866635495 -1.8828415600
C 4.9384302188 -0.1372070118 -1.2862072389
C 4.4267675609 0.7558476275 -0.3472894086
O 1.9914807333 -2.0446245085 -2.2131596795
C 0.9007195274 -2.6270862514 -1.5839575522
C 0.9727483841 -3.1012926881 -0.2760390131
C -0.1295237240 -3.7581536873 0.2629664988
C -1.2832413304 -3.9488667758 -0.4955173692
C -1.3342988819 -3.4737056267 -1.8037820035
C -0.2440153397 -2.8046852147 -2.3538959881
C -3.3675294447 2.9090986722 1.7205588323
C -4.1240016806 3.2067470637 2.7775030603
Cl -5.2187285347 4.5653816915 2.7838858120
Cl -4.1272551019 2.2989738530 4.2641443512
C -2.0119661807 -0.5137981320 0.5523597734
H -2.4886930751 0.8923761631 -1.7401773713
H -3.0771173380 2.4032884339 -1.0321900395
H -4.0098384294 0.9065256885 -0.8301655460
H -2.2727263060 1.2291388314 2.5604445994
H -1.0814392310 2.8530068946 0.1969185532
H 2.4143546659 1.0731512195 2.0037417604
H 1.1829400876 -0.2906450840 -0.3622459666
H 4.5050697313 -1.7857472114 -2.6169333254
H 5.9887442352 -0.0911008080 -1.5544386258
H 5.0788370964 1.4904653817 0.1131681986
H 1.8774298084 -2.9635015090 0.3067388721
H -0.0793116270 -4.1306703218 1.2813305298
H -2.1372386178 -4.4636032974 -0.0678881598
H -2.2291857453 -3.6156859842 -2.4015344134
H -0.2665191144 -2.4267515863 -3.3706436663
H -3.4650104181 3.5626211956 0.8590030603
H -1.5205572355 -0.7567932768 1.4953877149
H -1.3982836292 -0.8988302551 -0.2701389587
H -2.9757560547 -1.0329609650 0.5205944129
