44
CONF23
C 3.1223374517 -2.2869295834 -2.6526389956
C 3.5822818124 -0.8658285865 -2.3476979121
N 2.6126201992 -0.1329829173 -1.5122204633
C 2.9762403909 0.1934899436 -0.1207614987
C 3.2998812152 -1.0604029020 0.6953162504
C 3.6126142208 -0.6794231137 2.1449872015
C 4.7507726945 0.3400138470 2.2205835883
C 4.4265316455 1.5842495451 1.3918900334
C 4.1185169002 1.2167972307 -0.0630663068
C 1.5171475807 0.3097612376 -2.1662809996
O 1.3181776203 0.2398437874 -3.3611848978
N 0.4840785826 0.8975144791 -1.3131896902
C -0.2228840539 0.2778686014 -0.2792332927
O 0.0231235100 -0.7374849971 0.3394212259
N -1.2882974536 1.1668431695 -0.1346857440
N -1.1959833582 2.1988747232 -1.0336437440
N -0.1652457784 2.0231664214 -1.7443473919
C -2.3335197171 1.0670037185 0.8083452704
C -2.0077626816 0.9955461535 2.1612926867
C -3.0070819127 0.8802871663 3.1164193480
C -4.3406022736 0.8487479793 2.7203647090
C -4.6763659260 0.9095503164 1.3733213208
C -3.6739271271 1.0014130354 0.4136511387
Cl -4.1077119442 0.9979837689 -1.2716674557
H 2.9860256648 -2.8609989979 -1.7321365125
H 2.1778135158 -2.2735279657 -3.2011374662
H 3.8698693706 -2.7931190306 -3.2711867149
H 4.5332130549 -0.8786946378 -1.8106799371
H 3.7293503885 -0.3073358477 -3.2775616022
H 2.1038504513 0.6605203565 0.3412771177
H 4.1711992868 -1.5723084771 0.2648596644
H 2.4470335020 -1.7437226629 0.6494309476
H 3.8639994081 -1.5791122459 2.7170926303
H 2.7095808845 -0.2562177083 2.6067234205
H 4.9447542198 0.6185851233 3.2624866327
H 5.6733219385 -0.1184307442 1.8373904588
H 5.2567213040 2.2983318166 1.4259325607
H 3.5557194753 2.0934846425 1.8282453744
H 5.0211914640 0.8004240825 -0.5288070032
H 3.8385254234 2.1071794539 -0.6381752883
H -0.9621495285 1.0262342704 2.4460297023
H -2.7449785186 0.8238664467 4.1668670163
H -5.1293701381 0.7692100042 3.4607056336
H -5.7113238556 0.8691685902 1.0547498514
