34
CONF140
C -4.0813000956 -2.9806540257 -0.1004715584
C -3.8400943819 -1.5398492013 -0.4716327368
O -2.3947203457 -1.2904426130 -0.3244645043
P -1.7998018541 0.1477971897 -0.6463520913
S -2.0078145887 0.8908255663 -2.4219355580
O -2.3136659690 1.0083039853 0.5923741600
C -2.1899032472 2.4740346571 0.6340059248
C -0.7649721183 2.9026764507 0.8963737420
O -0.1854071346 -0.1303843885 -0.3940601633
N 0.1092603184 -0.5654297382 0.9087248213
C 1.3866187635 -0.6329349265 1.1077197701
C 1.6802726089 -1.0361233462 2.4557883246
N 1.9508004448 -1.3664133200 3.5306989064
C 2.5273342781 -0.3488184068 0.2212816938
C 2.5008271589 -0.6508776834 -1.1483442103
C 3.6134888550 -0.3777179272 -1.9331748127
C 4.7486463158 0.2055207784 -1.3727389129
C 4.7803970719 0.5007154941 -0.0117153015
C 3.6819609669 0.2125917450 0.7869483077
H -3.7862333872 -3.1710145061 0.9347893470
H -5.1486808918 -3.1975521934 -0.2031177581
H -3.5257292713 -3.6505527188 -0.7620957012
H -4.1143909529 -1.3335381749 -1.5110447677
H -4.3738446388 -0.8520913737 0.1916677055
H -2.8568332413 2.7628982831 1.4481549910
H -2.5752738458 2.8758836479 -0.3081564605
H -0.3799306901 2.4389622618 1.8090767418
H -0.7440072785 3.9895155122 1.0238891790
H -0.1075437117 2.6459381524 0.0601276427
H 1.6306256436 -1.1170621289 -1.5907133728
H 3.5936189373 -0.6241486374 -2.9896728069
H 5.6107151381 0.4222049789 -1.9953352688
H 5.6633950031 0.9495315503 0.4307865723
H 3.7121859495 0.4382057502 1.8485297621
