39
CONF227
C 4.0989833110 -0.6356653868 -2.6563926354
C 2.9458147506 -1.0042187305 -1.7239010870
C 2.9476255394 -0.1325190764 -0.4669323238
C 1.7816147140 -0.3341121041 0.4821736326
C 1.5515117784 -1.7294049221 1.0390747679
O 0.1374818956 -1.7375793868 1.3343621923
C -0.4815596251 -0.7154460385 0.5477524206
C -1.4637158763 -1.3808035491 -0.4367342933
N -2.1347477939 -0.3982428565 -1.2678341745
C -1.6911592862 0.1920882485 -2.3957128996
N -2.5586684119 1.1106947697 -2.8044834242
C -3.5358963418 1.0424680718 -1.8563354838
N -3.3236185089 0.1451453315 -0.9022583196
O 0.5343228394 -0.1158289020 -0.2248746651
C -1.1584533474 0.3147981700 1.4558344142
C -2.0746086152 -0.0086230141 2.4614460851
Cl -2.5270748468 -1.6734138479 2.8067868758
C -2.6941857028 0.9629500121 3.2405218378
C -2.3914242162 2.2953273628 2.9977814692
Cl -3.1711186872 3.5295992796 3.9724348536
C -1.4952263423 2.6686805441 2.0069566537
C -0.8952708346 1.6709023920 1.2496094867
H 5.0643796976 -0.7619703406 -2.1537903426
H 4.1004768948 -1.2641251391 -3.5521760419
H 4.0233013036 0.4092611546 -2.9768584157
H 3.0259873838 -2.0624430510 -1.4510760699
H 1.9917381515 -0.8847691767 -2.2496977956
H 2.9600846607 0.9253484616 -0.7587459929
H 3.8678152028 -0.3040374034 0.1067226471
H 1.8480579379 0.3861392613 1.3118508490
H 2.0961853428 -1.9155839855 1.9677480818
H 1.7794251328 -2.5094637027 0.3038092204
H -0.8863664738 -2.0537926188 -1.0763320856
H -2.2204391445 -1.9495206513 0.1040981893
H -0.7591021710 -0.0832577376 -2.8712527752
H -4.4259001664 1.6591598560 -1.8695915662
H -3.3981243741 0.6820956419 4.0142432624
H -1.2701004054 3.7127638866 1.8244958256
H -0.1980451904 1.9473999873 0.4672775152
