39
CONF5
C -3.7885416415 1.5427247926 -2.6543422690
O -3.8301793785 0.8132478303 -1.4324404202
C -2.6898456605 0.7706209770 -0.6900304731
C -1.4719220534 1.3444619807 -1.0721801904
C -0.3596653137 1.2338852053 -0.2380299611
C -0.4502345222 0.5397237948 0.9669436756
C -1.6640534852 -0.0358510483 1.3480252571
C -2.7960653703 0.0879373739 0.5285379964
O -4.0012010493 -0.4223827638 0.9295687846
C -4.1979167090 -1.7877472750 0.5370466369
O -1.8561273177 -0.7412908831 2.4947712145
C -0.7376381812 -0.8867402144 3.3669103134
C 0.9564774845 1.8772075840 -0.6418845968
C 2.1714482828 1.0504507289 -0.3352341920
C 3.1807050689 1.4782434819 0.5084706038
N 4.2897321310 0.7840803537 0.7855470507
C 4.3734503041 -0.4070020366 0.1713154190
N 3.4713385172 -0.9511913437 -0.6606973529
C 2.3765543944 -0.2272926454 -0.9089240481
N 1.4699889150 -0.7535047647 -1.7909552400
N 5.4760209140 -1.1713163177 0.4586195193
H -3.5350611707 2.5964948634 -2.4810547942
H -3.0706280265 1.1041787674 -3.3601157187
H -4.7936590719 1.4760560217 -3.0727939855
H 0.4344603940 0.4464607926 1.5850843798
H -4.1850862961 -1.8814977699 -0.5563829973
H -3.4270177209 -2.4331075440 0.9763970876
H -5.1790331703 -2.0794378420 0.9171760046
H 0.0859547489 -1.4212270065 2.8761273760
H -0.3809815893 0.0882469692 3.7221026791
H -1.0986900870 -1.4718055747 4.2136374399
H 1.0542621450 2.8427190276 -0.1281583863
H 0.9184416462 2.1047138744 -1.7160989850
H 3.0929289612 2.4529322131 0.9919508337
H 1.5978301503 -1.7335509359 -1.9908552561
H -1.3797516629 1.8832052585 -2.0079768797
H 5.6810990321 -1.9164127958 -0.1854638052
H 6.2573445269 -0.6792887415 0.8584755482
H 0.5118267251 -0.4480479813 -1.6978130501
