60
CONF912
C 5.7753134851 3.4404185784 -2.7633284243
C 6.0408405909 2.9181557231 -1.3520299352
N 6.0846590745 1.4541954406 -1.2778179215
C 7.3920553060 0.8200047808 -1.4731417161
C 8.1814562549 0.6942109991 -0.1728343328
C 5.0138573845 0.6568575421 -0.9941686798
O 5.1171006123 -0.5665464892 -0.8330044992
N 3.7890674397 1.3128711863 -0.8899801102
C 2.5678179437 0.6702366215 -0.6194002758
C 1.4117812582 1.1393623720 -1.2328922190
C 0.1462511048 0.6095231171 -0.9514026232
C 0.0553900877 -0.4761048632 -0.0513058106
C 1.2180737612 -0.9505791205 0.5656911803
C 2.4537390869 -0.3766471358 0.3029944512
O -1.1675182009 -1.0307280671 0.1563891396
C -1.2614562931 -2.1948049258 1.0003050741
C -2.6958731162 -2.6869825814 0.9300275264
C -3.6956029025 -1.6650994688 1.4625662038
N -5.0380128033 -2.2510764414 1.4737669443
C -6.1602374869 -1.3003736271 1.6852939003
C -7.4367767189 -2.1467456437 1.7227981653
C -6.2788854414 -0.2636572547 0.5532478204
C -5.9805591276 -0.5852684222 3.0267552484
O -3.0289491444 -3.1033116149 -0.4038895232
C -1.0078853942 1.2510475406 -1.6479729945
O -0.8096696433 1.9077405513 -2.6677577367
C -2.3992378281 1.1464812335 -1.0850379402
H 4.7998020154 3.1142444055 -3.1384702807
H 6.5426100671 3.0822443027 -3.4564238896
H 5.7941815639 4.5345868688 -2.7664160968
H 5.3009692775 3.3032050386 -0.6423909984
H 7.0110811476 3.2860613935 -1.0006609257
H 7.2374610753 -0.1648466406 -1.9201813060
H 7.9456350721 1.4288889609 -2.1965874029
H 7.6476401950 0.0590199801 0.5397925076
H 8.3411528309 1.6750542160 0.2863029031
H 9.1610988557 0.2472038951 -0.3697766089
H 3.6994435881 2.2077643965 -1.3460370725
H 1.4680199827 1.9605154342 -1.9411056919
H 1.1714124215 -1.7668275048 1.2751605378
H 3.3308196063 -0.7431098768 0.8197942050
H -0.5853255421 -2.9746091783 0.6293448822
H -0.9945522838 -1.9369752150 2.0336530845
H -2.7540389430 -3.5962238130 1.5410791267
H -3.3965826336 -1.4007444093 2.4848816883
H -3.6171084791 -0.7505107002 0.8519990850
H -5.1805722802 -2.6822787054 0.5626539890
H -8.3163064784 -1.5089706694 1.8557425444
H -7.3964750603 -2.8651271052 2.5478941470
H -7.5582084116 -2.7028166187 0.7858222451
H -5.3987622039 0.3852723842 0.5015126836
H -7.1528296648 0.3765690168 0.7137310972
H -6.3965194432 -0.7662245859 -0.4138831575
H -5.1226945828 0.0945003620 3.0103266791
H -5.8360584479 -1.3111851605 3.8342610118
H -6.8717018073 0.0093370011 3.2500778079
H -2.9138276270 -2.3350320685 -0.9806871637
H -2.4016246237 1.1859686716 0.0065213476
H -2.8367790606 0.1832869522 -1.3702001375
H -3.0080990078 1.9485791373 -1.5061866494
