48
CONF21
C 3.9707985763 0.4387762817 -1.6944418930
C 4.3448106344 -0.7090777502 -0.7596007830
C 3.1856228610 -1.2281248350 0.0940036719
C 2.0651531840 -1.7644876106 -0.8027300020
O 2.2049153429 -2.8353854615 -1.3892661213
N 0.9786641957 -0.9632566951 -0.9210797225
C -0.1645021299 -1.3045436807 -1.7003034496
C -1.5852606710 -1.2181316791 -1.0380186275
N -1.9844688289 -0.3029360174 -2.1213076169
C -0.6985399632 -0.1896241081 -2.6393041772
O -0.2247694848 0.5461992101 -3.4711937025
C -2.8770791344 0.7869574889 -1.7824418139
C -2.4744174045 1.2694006497 -0.3376761683
S -1.8205656063 -0.2746090889 0.5214312346
C -1.3614965804 2.3131375998 -0.4422592288
C -3.6441981491 1.8192081188 0.4722323549
C -4.3434675712 0.3991632877 -1.8875373470
O -5.2111334767 1.1742359437 -2.2242743989
O -4.5645807054 -0.8777691038 -1.5404175781
O 2.7580721308 -0.1470481479 0.9336998866
C 1.9549790045 -0.4244227428 2.0155705914
C 1.4965554754 -1.6976595016 2.3567237577
C 0.6646274744 -1.8431990297 3.4678359003
C 0.2870121263 -0.7432690732 4.2303685972
C 0.7530557526 0.5239969076 3.8767900592
C 1.5839963590 0.6876447137 2.7766386370
H 3.2320695574 0.1245179571 -2.4391751625
H 3.5565838163 1.2855330322 -1.1395427660
H 4.8574890674 0.7875396631 -2.2310381324
H 4.7278979489 -1.5600562283 -1.3322684007
H 5.1383787524 -0.4007540658 -0.0703977284
H 3.5411738737 -2.0673076580 0.7040027909
H 0.9561870704 -0.1101351660 -0.3780111840
H 0.0134921738 -2.2575718751 -2.2060388945
H -2.1418000509 -2.1557200065 -0.9934664560
H -2.7191472833 1.6109677993 -2.4845960258
H -1.7531485790 3.2201924654 -0.9164364038
H -0.5138946489 1.9502585002 -1.0300975966
H -0.9972806792 2.5690063434 0.5564064931
H -3.2964718084 2.1250501556 1.4627833436
H -4.0532296068 2.7022370334 -0.0297368296
H -4.4408954256 1.0815982819 0.5999059285
H -5.5193958767 -1.0575419692 -1.6066750294
H 1.7588578084 -2.5731384448 1.7747702814
H 0.3073462698 -2.8348782575 3.7280759229
H -0.3637809908 -0.8685531915 5.0892541910
H 0.4670742857 1.3933750454 4.4609151846
H 1.9487119141 1.6683038187 2.4879246144
