16
CONF4
C -1.1937574472 -0.6061157513 -0.2198180557
C 0.2227886004 -0.6735674740 -0.2739704462
C 0.9877258038 0.4333025613 0.0494069621
N 0.4463871081 1.6056208417 0.4110771011
C -0.8648428313 1.6845112261 0.4874476476
C -1.7284850920 0.6357236604 0.1951425236
Cl -3.4552185562 0.8044392602 0.3022777313
Cl -1.5161523698 3.2324929258 0.9897907538
C 2.4921617670 0.4605930228 -0.0108031589
O 3.1087630165 1.3050656925 -0.6186814976
O 3.0499852457 -0.5171468758 0.7153079421
Cl 0.9491840331 -2.1628990750 -0.8241085228
N -1.9733532688 -1.6473624120 -0.5453740186
H 4.0180457564 -0.4461340941 0.6350856098
H -2.9751059665 -1.5807911938 -0.4765724936
H -1.5681253969 -2.5277321085 -0.8162080834
