45
CONF12
C -1.6873961209 -1.3680323235 1.6761010683
C -1.9442737770 -1.2972005907 0.2054264264
C -1.7972125674 -0.1964478862 -0.5406191929
C -2.0588399254 -0.1633794617 -1.9872453957
C -1.1128711734 0.6225599679 -2.9486717719
C -2.5431353611 1.0591198455 -2.7280386608
C -2.8863836619 2.3274967528 -1.9778191889
C -3.4642150904 0.7987279826 -3.9032687785
C 0.0645443641 1.2563471193 -2.3369571705
O 0.0936877669 2.1417803540 -1.5055417739
O 1.1995323731 0.6427123396 -2.7867514891
C 2.4070386773 0.9678515801 -2.0488290573
C 2.3076761546 0.4405665267 -0.6444554950
C 2.3163897061 1.2705656249 0.4713724790
C 2.1249131932 0.7645737928 1.7485885908
C 1.9125603059 -0.5898785312 1.9795221200
C 1.9250384902 -1.4208557552 0.8654500206
C 2.1205065380 -0.9184060705 -0.4118732286
F 2.1121321141 -1.7720559604 -1.4507831545
F 1.7421906766 -2.7453026689 1.0132478227
C 1.7291908643 -1.1158594551 3.3714183517
O 3.0204043798 -1.2298528561 3.9714218570
C 2.9162948459 -1.6957887033 5.3180374027
F 2.1326294186 1.6180920863 2.7878985923
F 2.5039118339 2.5920126531 0.3282489760
H -2.6044616325 -1.6148094251 2.2256476085
H -1.2970983726 -0.4205172350 2.0600638533
H -0.9657508071 -2.1608983598 1.9084907950
H -2.2800617463 -2.2174769015 -0.2750536563
H -1.4566758038 0.7202024006 -0.0631148739
H -2.3707650022 -1.1183512769 -2.4050361519
H -0.8953019042 0.0962256183 -3.8725562708
H -2.7823344359 3.1929154571 -2.6412336137
H -2.2556761688 2.4934622304 -1.1073717858
H -3.9315980958 2.2754129380 -1.6533180998
H -3.1982510036 -0.1241121664 -4.4271656868
H -3.4125380640 1.6278500263 -4.6178498793
H -4.4997372387 0.7117193386 -3.5565045726
H 3.2041799420 0.4673062423 -2.6007432484
H 2.5743679104 2.0456988472 -2.0473612356
H 1.2302313210 -2.0939509420 3.3442128750
H 1.0994015712 -0.4232455645 3.9492141347
H 2.3312680024 -0.9968677657 5.9329099281
H 2.4438443070 -2.6878166900 5.3564929743
H 3.9326439954 -1.7620934574 5.7110646718
