63
CONF290
C 7.9768232681 0.7516589707 -3.7908512382
C 7.5289320901 -0.6234796102 -3.3032058314
N 6.4729195930 -0.5275292260 -2.2888267760
C 6.8345021996 -0.1170404015 -0.9308999535
C 5.9026555543 -0.7637734126 0.0636832391
N 4.5080151743 -0.3832461514 -0.2391961296
C 4.1207413135 -0.2765949591 -1.5515010186
O 2.9939627749 0.0259910104 -1.9282164136
C 5.1786834168 -0.5817392966 -2.6496356916
O 4.7685377286 -0.8311564548 -3.7817724388
C 3.6209200559 -0.3268951583 0.8922898007
O 4.0342080086 -0.6622229300 1.9973448650
N 2.3767448195 0.1218928947 0.6501963245
C 1.3768270910 0.0999508725 1.6969851026
C 0.9419566130 -1.3054405779 2.0943691772
C 0.7024947767 -1.6084724719 3.4343280646
C 0.2607815993 -2.8783923482 3.7972296751
C 0.0566492946 -3.8515843105 2.8216261204
C 0.2961871043 -3.5503839157 1.4818616421
C 0.7358585979 -2.2809992318 1.1176444960
C 0.1447784730 0.8352640860 1.1476314153
O -0.0969631055 0.8851546391 -0.0567665344
N -0.6681939827 1.3663296503 2.0869309364
C -1.9318152505 1.9463981005 1.7486113755
C -3.0418779440 1.0843244571 1.0688200515
N -3.0905850993 2.0816379958 -0.0147405494
C -2.0611890026 2.8549601442 0.5017252067
O -1.5362111405 3.8703932114 0.1091012823
C -4.3836354547 2.4761827858 -0.5416869674
C -5.4081378391 1.4370553191 0.0478337818
S -4.7369020554 1.0467551031 1.7569229348
C -5.3939239447 0.1825501235 -0.8267035593
C -6.8248092200 1.9799352614 0.1814363881
C -4.7305213648 3.9018251373 -0.1240954092
O -5.4458410968 4.5145400276 -1.0811981369
O -4.4318291345 4.4075675904 0.9339088617
H 8.3772481319 1.3523635695 -2.9688290779
H 7.1393419207 1.2909170636 -4.2432656419
H 8.7626323005 0.6358092560 -4.5427573870
H 7.1371310394 -1.2182234841 -4.1306777570
H 8.3662808592 -1.1674965442 -2.8538618395
H 6.8109999652 0.9769178578 -0.8329726334
H 7.8540893215 -0.4570045930 -0.7308368825
H 6.0028732468 -1.8555971680 0.0419637468
H 6.1338863178 -0.4128306931 1.0688745230
H 2.0832569592 0.2869444096 -0.3096041405
H 1.7524441972 0.6192761024 2.5857899374
H 0.8704398326 -0.8510985725 4.1957437714
H 0.0844679940 -3.1092261645 4.8432278557
H -0.2835450492 -4.8428891251 3.1041462519
H 0.1406443121 -4.3059478590 0.7179883233
H 0.9250436971 -2.0498486462 0.0732113475
H -2.3296969535 2.4816406274 2.6149811991
H -2.7071643705 0.0945215364 0.7450684328
H -4.4252854417 2.4071877576 -1.6340959296
H -4.3847000087 -0.2193376694 -0.9510876353
H -5.7897911012 0.4302085998 -1.8180543411
H -6.0263341130 -0.5888858504 -0.3807381767
H -6.8752041798 2.8511856677 0.8403966827
H -7.4772005159 1.2012542901 0.5857164953
H -7.2044128420 2.2588591154 -0.8066474298
H -0.4121158221 1.3017736407 3.0615052484
H -5.7013944996 5.3971404851 -0.7598143828
