45
CONF43
C -4.5708044844 4.6610437416 -0.8515651556
O -4.2397033676 3.4461698851 -1.5384771968
N -3.2783403097 2.7777011561 -0.8232575853
C -2.8952978255 1.6459565391 -1.3323228734
C -3.3260969477 0.9931582162 -2.5433163100
C -3.0720787715 -0.2592252772 -3.0586162103
C -3.7835233706 -0.3503638675 -4.2799228300
C -4.4222358104 0.8427411863 -4.4410321949
O -4.1639153706 1.6707128696 -3.4024449789
C -1.8438569371 0.9459345021 -0.4968659024
O -1.2551205639 -0.0595989256 -0.8706009473
N -1.5819711544 1.5191579983 0.7121303100
C -0.6501585512 0.9272429360 1.6138512905
C 0.8376364875 0.7099760358 1.1980991492
N 0.6850196241 -0.7004213183 1.5365893474
C -0.6752273631 -0.6102931176 1.8633506604
O -1.4775838801 -1.4042549950 2.2630861687
C 1.6961679205 -1.5840682489 1.8840935390
C 2.9697526575 -1.1648128462 2.0494773164
C 3.3872316707 0.2690530029 1.8562281550
S 2.0922241221 1.5161372181 2.2603120055
C 4.0994832068 -2.0951431414 2.3693853930
O 5.1608068534 -1.9531132702 1.3791450931
C 4.9141826823 -2.6119775721 0.2072220580
O 3.9518432417 -3.3188109564 0.0005032265
N 5.8936512906 -2.3230355007 -0.7029136000
C 1.2905227333 -3.0185560740 2.0157852345
O 1.6778429813 -3.7703387543 2.8803495543
O 0.4458316040 -3.3683718471 1.0294161276
H -4.9764232102 4.4439287395 0.1424248894
H -3.6908027543 5.3072090698 -0.7657855619
H -5.3307782784 5.1407367929 -1.4704728341
H -2.4440632655 -1.0043131069 -2.6015668498
H -3.8160344309 -1.1926328728 -4.9536083164
H -5.0695416082 1.2420960894 -5.2060346786
H -2.0991984019 2.3464611387 0.9673159441
H -0.7105487950 1.4391058787 2.5798383165
H 1.0501663190 0.8694382765 0.1369585238
H 4.2358087162 0.4936691321 2.5107927551
H 3.7316619360 0.4380487290 0.8282631653
H 4.5791155253 -1.8005103525 3.3079998095
H 3.7867820419 -3.1351398165 2.4310986682
H 5.9345444185 -2.9292886521 -1.5042136125
H 6.7582953330 -1.9307111937 -0.3694709526
H 0.1947333719 -4.2917290343 1.1887717046
