55
CONF203
C 5.0612368960 -2.3340856383 -3.2982467588
O 4.8980738776 -2.9118084147 -1.9961079641
C 3.7802136252 -2.5775301526 -1.2942234519
C 3.6634487148 -3.1533479227 -0.0238544680
C 2.5587130256 -2.8725813314 0.7629749826
C 1.5480633475 -2.0132326668 0.3146005568
C 1.6735695717 -1.4550810071 -0.9575284403
C 2.7759151097 -1.7263137016 -1.7637882476
C 0.3938628806 -1.7084755074 1.2328668112
S -1.1980557770 -1.9261486949 0.2888007354
C -2.3578216336 -0.9807755391 1.2594207733
C -3.4279298077 -1.6398095100 1.8711899919
C -4.4046051119 -0.9233322200 2.5526322113
C -4.3008089263 0.4618968133 2.6552035704
C -3.2319843410 1.1269265737 2.0679409900
C -2.2611840914 0.4202534829 1.3538185382
N -1.2051469859 1.1389930959 0.7282166041
C -1.5557246037 2.1898653979 -0.2422913474
C -1.6890163103 1.5889313657 -1.6433162200
N -2.0601119591 2.5994703068 -2.6353376955
C -3.4780721923 2.9556382402 -2.5268245351
C -1.7831178170 2.1022104709 -3.9857487721
C 0.1139856962 0.8190051010 0.8808960716
O 1.0144031164 1.4052501562 0.2878611238
C 0.4158742230 -0.3082273123 1.8738445184
O 1.7371522330 -0.1420804091 2.4116813806
C 1.9058988640 0.9377199427 3.2184168683
C 3.3110199134 1.0112314811 3.7264073393
O 1.0071117045 1.7071251692 3.4840339146
H 4.2473619051 -2.6366251614 -3.9674457088
H 6.0084444471 -2.7201874224 -3.6755564773
H 5.1056719266 -1.2403427251 -3.2395005833
H 4.4449021371 -3.8192882130 0.3275818628
H 2.4798175693 -3.3235973349 1.7482253314
H 0.9008137796 -0.7952978585 -1.3373614692
H 2.8354855126 -1.2736909544 -2.7457636422
H 0.4002451179 -2.4313229058 2.0548598767
H -3.4898727944 -2.7205342662 1.7994339709
H -5.2351159059 -1.4473421117 3.0138853245
H -5.0453140329 1.0273464092 3.2059246624
H -3.1386875125 2.2033428611 2.1689806439
H -0.7732140218 2.9514918367 -0.2303670972
H -2.4920122935 2.6448775697 0.0840654937
H -0.7169672564 1.1670192994 -1.9228791602
H -2.4155414826 0.7515184598 -1.6147430336
H -3.7007750287 3.3736311765 -1.5410883488
H -4.1400451418 2.0836992230 -2.6911623155
H -3.7206849847 3.7170448899 -3.2748069383
H -2.0468154431 2.8701277669 -4.7202928621
H -0.7165365092 1.8776475171 -4.0881169730
H -2.3561410158 1.1860639357 -4.2259908844
H -0.3045264452 -0.2792343518 2.6965795716
H 4.0203063203 0.8545929257 2.9103479328
H 3.4790294105 1.9759600996 4.2031897229
H 3.4652066854 0.2114130562 4.4584616067
