53
CONF344
C 0.2806613881 4.5897980840 -1.5651850358
C -0.0443141707 4.4769302883 -0.0899051064
O -0.2648865572 3.0880703892 0.2735781328
C 0.8233055485 2.3470427652 0.5891738226
O 1.9546122855 2.8183682540 0.6508128178
C 0.4542720157 0.9619919392 0.8543812539
C 1.4238516378 0.0362839273 1.0954679332
N 1.0750747411 -1.2371381859 1.4510867538
C -0.2056231302 -1.6377680645 1.7426409515
C -1.2396562667 -0.7794691945 1.4989702946
C -1.0123048957 0.5477781173 0.7782582684
C -1.4512301319 0.4516322231 -0.6841243831
C -0.8057459216 -0.4809679110 -1.5068489827
C -1.1261772187 -0.6343392466 -2.8486873817
C -2.1219955619 0.1595682247 -3.4128821919
C -2.7848960398 1.0946394270 -2.6274268585
C -2.4457560992 1.2295748374 -1.2823262277
Cl -3.3463476198 2.4454494765 -0.3700518747
C -2.5995654370 -1.1527606861 1.8722534428
O -2.9532970679 -2.1709367159 2.4552566657
O -3.4898350850 -0.2012578693 1.4896521891
C -4.8693061382 -0.4679199246 1.8143095840
C -0.2970194014 -3.0149170277 2.3244831021
C 2.9283846223 0.2526027404 1.0368795139
O 3.6299844192 -0.9829867699 0.9493583792
C 3.6647970290 -1.4972335685 -0.3962602842
C 4.2882404048 -2.8814838162 -0.3659956381
N 3.5419345566 -3.8977402998 0.3895721690
H 1.2203246964 4.0815749566 -1.7985002724
H 0.3805604875 5.6450839155 -1.8377492046
H -0.5200514741 4.1508567805 -2.1682815415
H -0.9894338264 4.9703249435 0.1485820903
H 0.7506444814 4.8912912456 0.5355685831
H 1.8425365549 -1.8783724159 1.6117067910
H -1.6188049116 1.3150758833 1.2595754659
H -0.0267039025 -1.0995667588 -1.0699920313
H -0.6015093292 -1.3684723172 -3.4514439039
H -2.3869356578 0.0562608876 -4.4601418912
H -3.5625836356 1.7199046759 -3.0518784234
H -5.2076467529 -1.3841955283 1.3232108686
H -4.9973446752 -0.5642171083 2.8957620245
H -5.4247591340 0.3918728643 1.4398435663
H -0.5992418284 -2.9688610089 3.3744625514
H -1.0483610973 -3.6098831503 1.8038615430
H 0.6715874319 -3.5174553281 2.2611221849
H 3.1790083196 0.9075417168 0.1975021571
H 3.2598015596 0.7463832391 1.9570276561
H 2.6432358238 -1.5504543574 -0.8070611471
H 4.2568364214 -0.8182964459 -1.0284760763
H 4.3954958936 -3.2164500716 -1.4051721111
H 5.2994043009 -2.8097832671 0.0531161816
H 2.5807097042 -3.9284552664 0.0596704235
H 3.4960685647 -3.6245179261 1.3664312686
