33
CONF160
C 4.5653045772 0.2907647920 -0.3958654775
C 6.0290002634 0.7048567554 -0.2121540171
O 6.6072315613 0.2388544745 1.0086464158
C 3.6083157992 1.0466066997 0.4952398487
C 2.1096931996 0.7382618773 0.1814137150
C 1.0783447499 1.2402268986 1.2420569872
C -0.4343104417 1.3052947320 0.7950397355
C -1.0711970886 -0.0139371992 0.2455169877
C -2.6423547889 0.0226729743 0.2081954282
C -3.2559012461 -1.0631744789 -0.7417604564
C -4.7729393536 -1.3490796849 -0.4870192222
F -5.4666826097 -0.2027529551 -0.4617416319
F -5.2369766764 -2.1152387212 -1.4831372718
F -4.9519857512 -1.9968964401 0.6685761069
F -2.5894143511 -2.2301576438 -0.5852824134
F -3.1273464604 -0.6466634546 -2.0195732510
F -3.1082393728 -0.1821499738 1.4605771972
F -3.0533804336 1.2374645912 -0.2183249989
F -0.6954192219 -1.0479959632 1.0291839941
F -0.6123830765 -0.2184688193 -1.0116326033
F -1.1282662605 1.6727657174 1.9026806472
F -0.5618572072 2.2747254465 -0.1348010377
F 1.3962114962 2.5099556446 1.5973357078
F 1.1555268919 0.4564224111 2.3397691271
F 1.8147123132 1.2989163180 -1.0196052312
F 1.9601331187 -0.6083539073 0.0753511846
F 3.8205117782 0.7543318451 1.8222704782
F 3.7842817946 2.3982743767 0.3581873249
H 4.2732099108 0.4834317805 -1.4346126975
H 4.4522328561 -0.7796952712 -0.2045307646
H 6.1371511958 1.7919577555 -0.3123759308
H 6.6005819094 0.2357276899 -1.0175142225
H 6.2926122986 0.7973029936 1.7295777640
