33
CONF2
C -0.7348229886 -1.7914155238 -1.4468536170
C -0.1900742260 -1.1347755652 -0.1646219544
C 0.0574796814 -2.2523647473 0.8662984816
C 1.1431725200 -0.4175556988 -0.3975949288
C 1.9000981377 -0.5649664560 -1.5577906477
C 3.1323448554 0.0706957775 -1.7075132622
C 3.6305384413 0.8690531587 -0.6834589334
C 2.8891929010 1.0330016113 0.4867431218
C 1.6660343580 0.3963446562 0.6161380923
O 4.8316751781 1.5216956877 -0.7653392863
C -1.2341696210 -0.1221745180 0.3160494521
C -1.4063917921 1.0721155780 -0.3961924364
C -2.3649980183 2.0061705165 -0.0395091034
C -3.1877413611 1.7630818675 1.0603739937
C -3.0356045789 0.5869782372 1.7869891743
C -2.0668643954 -0.3429692137 1.4110668215
O -4.1170854821 2.7181981081 1.3756678254
H -0.0731933829 -2.5895373235 -1.8003180606
H -1.7125761218 -2.2334954870 -1.2349799391
H -0.8658026654 -1.0601338939 -2.2499094687
H -0.8376314906 -2.8660716069 1.0128295113
H 0.3671608708 -1.8443011063 1.8327796045
H 0.8577618439 -2.9047011055 0.5052715763
H 1.5387713128 -1.1786858211 -2.3750030013
H 3.7001265884 -0.0577963788 -2.6262767819
H 3.2815630463 1.6643853155 1.2766426645
H 1.0873366832 0.5475781618 1.5230926312
H 5.2356469764 1.3272247730 -1.6183064376
H -0.7560509116 1.2812998937 -1.2409735375
H -2.4852467889 2.9297661074 -0.5953866662
H -3.6686931722 0.3912114096 2.6494687692
H -1.9717674958 -1.2484051584 1.9993257545
H -4.6101890927 2.4305493371 2.1520122770
