65
CONF314
C -4.1787523649 2.9538791355 -0.9874296767
C -2.8719241879 3.7301603568 -0.8425413960
C -1.6398657124 2.9191581269 -1.2712487608
C -0.3519390723 3.7445662331 -1.1551019839
C -1.5151331248 1.6913468965 -0.3954637634
O -1.3877568453 1.7281420037 0.8149090332
O -1.5443749861 0.5508246270 -1.1116460978
C -1.4153582961 -0.7055223745 -0.3703911643
C -2.7803153240 -1.1462315088 0.1311512519
C -2.6458711371 -2.4212749896 0.9769425160
C -1.7132426739 -3.3975757427 0.3248561055
C -0.8880478024 -3.1089750381 -0.7000363458
C -0.8233302967 -1.7271295078 -1.3286742247
C 0.6223024117 -1.4061988240 -1.7698774463
C 1.0514529533 -2.4612417507 -2.8101400575
C 0.8704261660 -3.8451334031 -2.2499093503
C -0.0097039656 -4.1177278214 -1.2720302987
C 2.4637283721 -2.2428024977 -3.3597474992
C 1.5691452683 -1.3005310966 -0.5525669083
C 1.9356755300 0.1511017534 -0.2359528342
C 2.5585178705 0.3582127519 1.1282796887
C 3.0209233324 1.7948823834 1.3555974854
C 3.1033084592 2.1634831592 2.8471948089
C 3.0864378344 0.9008610911 3.7053695661
C 1.8164206904 0.1478328168 3.4146390742
O 1.0402112950 -0.2683244917 4.2517399302
O 1.5249489528 -0.0165844732 2.1091211493
O 1.9537056522 2.9187603930 3.2708027063
C -2.1954052116 -2.1174490606 2.4175629151
H -5.0349836587 3.5710145328 -0.6995916304
H -4.3279678621 2.6292262837 -2.0229592097
H -4.1850638428 2.0605808346 -0.3518597427
H -2.9041665154 4.6368556306 -1.4581167438
H -2.7337992439 4.0526402272 0.1965805680
H -1.7709272125 2.5886982045 -2.3071947027
H -0.1998251219 4.0693448192 -0.1210775266
H 0.5224519781 3.1656698375 -1.4690356397
H -0.4249072462 4.6312822959 -1.7915381184
H -0.7403156342 -0.5304297715 0.4719874002
H -3.2380490219 -0.3474302953 0.7236216986
H -3.4232450393 -1.3362138959 -0.7371245138
H -3.6374052310 -2.8911830771 1.0423584465
H -1.7022895012 -4.4088808434 0.7317866193
H -1.4508920955 -1.7377482780 -2.2340042583
H 0.6076829951 -0.4358327524 -2.2826884509
H 0.3620878878 -2.3512203320 -3.6636654574
H 1.4865005124 -4.6435162610 -2.6602871341
H -0.0945295737 -5.1286900784 -0.8775220628
H 3.2307348197 -2.4143826829 -2.5983351682
H 2.6580221566 -2.9354865440 -4.1850447414
H 2.5770047302 -1.2210811427 -3.7371839057
H 1.0946309132 -1.7572789375 0.3237662227
H 2.4888070858 -1.8687744333 -0.7230684651
H 2.6396884997 0.5295996425 -0.9879885638
H 1.0508478343 0.7967930134 -0.2929500624
H 3.3933219848 -0.3390102387 1.2776085444
H 2.3333266763 2.4870296996 0.8553018029
H 4.0015364705 1.9074662105 0.8820771238
H 4.0168602897 2.7348134717 3.0531720687
H 3.1224448571 1.1382719747 4.7694163715
H 3.9530630790 0.2773173149 3.4548574725
H 1.9191385943 3.7268123831 2.7430944334
H -2.0934150471 -3.0416560342 2.9953132409
H -2.9271049854 -1.4760608435 2.9198316163
H -1.2254491976 -1.6090500669 2.4250538441
