40
CONF64
C 3.5609544832 2.3911702339 -3.0313698511
C 2.4780156462 1.7922734914 -3.8993850349
O 1.7955935060 0.6737535991 -3.2412462322
P 0.8010021475 0.9105477637 -2.0161136208
S -0.3180038062 2.4967119111 -2.0628653968
O 1.7564728718 0.7049702583 -0.7559180922
C 1.5553806826 1.3206693765 0.5576136305
C 2.9056455180 1.7435181421 1.0830670983
O 0.0387822171 -0.5365383620 -2.2233034574
C -0.9427737086 -1.0056457168 -1.3977337943
N -1.1585328422 -0.4035010093 -0.2419004691
C -2.1509444322 -0.9120624573 0.5130226691
N -2.8980013099 -1.9700277656 0.1925629767
C -2.6458794555 -2.5791499800 -0.9848957564
C -3.4881139974 -3.7665484728 -1.3251716424
C -1.6560097286 -2.1143104517 -1.8394304867
C -2.4145732632 -0.2592692003 1.8480720053
C -2.3284737582 1.2660471113 1.7859626900
C -1.4398674194 -0.8302678962 2.8911140402
H 4.1055089616 3.1391966677 -3.6163664263
H 4.2679905597 1.6241288321 -2.7031412628
H 3.1403273207 2.8873606075 -2.1519884556
H 1.7249446189 2.5346439307 -4.1820837313
H 2.8911170390 1.3402593429 -4.8031407767
H 1.0834826056 0.5662192775 1.1908714270
H 0.8751770095 2.1703105112 0.4468253120
H 3.5855697382 0.8895353575 1.1478001267
H 2.7796759241 2.1612023691 2.0868271757
H 3.3530307509 2.5077646097 0.4418412467
H -4.5453810645 -3.4828710707 -1.3300818564
H -3.3652618370 -4.5389181908 -0.5588126934
H -3.2215642866 -4.1813259848 -2.2985572150
H -1.4461243692 -2.5766195994 -2.7958885898
H -2.6170335601 1.6896917568 2.7528106464
H -1.3098410924 1.5919487044 1.5589791021
H -2.9954261485 1.6714887664 1.0186861229
H -1.6560406432 -0.4038607668 3.8756669046
H -1.5246936567 -1.9191494184 2.9587186536
H -3.4301184059 -0.5520769600 2.1353563263
H -0.4074099042 -0.5784157252 2.6272172970
