25
CONF3
C 2.9732215360 0.6660200979 0.7241711921
C 2.2655921550 1.2700717131 -0.4863621583
N 1.8976692285 0.2679572285 -1.4834749475
C 0.8148636433 -0.5190402008 -1.3988633308
N -0.0596264276 -0.3188987260 -0.4022248025
C -1.1209959913 -1.1384515113 -0.4027192210
N -1.3504684842 -2.1261548098 -1.3253247913
C -0.4035186284 -2.1891237661 -2.2330388978
N 0.6870733957 -1.4718547512 -2.3761448070
Cl -0.6358250866 -3.4497004528 -3.4691142293
N -2.0359758305 -1.0186587055 0.5705171349
C -2.0222841212 0.0307147934 1.5866833363
C -2.6049206170 1.3486969630 1.0824640675
H 3.2380182548 1.4566186959 1.4330230088
H 2.3229808402 -0.0509780604 1.2334508029
H 3.8904501106 0.1526271548 0.4205798892
H 1.3593779786 1.7976791293 -0.1758227637
H 2.9168692394 1.9921513925 -0.9873718002
H 2.5619129183 0.0365782085 -2.2067705336
H -2.8510606962 -1.6081630662 0.4930413443
H -2.6024593659 -0.3420747137 2.4358306520
H -0.9913927067 0.1721180112 1.9232151790
H -3.6430339380 1.2167531666 0.7631056088
H -2.0246743687 1.7296525937 0.2371841736
H -2.5817933186 2.0954594090 1.8821033956
