33
CONF25
O -3.4516477728 -0.7185232625 4.1121106102
C -3.1641396118 -0.6414961724 2.7920774675
C -4.1277546809 -0.9094725199 1.8159709275
C -3.7676729995 -0.8089236093 0.4798875320
O -4.6959744655 -1.0355445953 -0.4633567061
C -2.4424440112 -0.4502607658 0.1008703437
C -2.1008563323 -0.2222100510 -1.2752154571
O -2.9129820349 -0.3867754261 -2.2097902876
C -0.7065246685 0.2830999473 -1.5373025221
C 0.2599051693 -0.2350357070 -0.4817131470
O -0.2178100656 0.1391070651 0.8509238349
C -1.4979487091 -0.2066036175 1.1313630554
C -1.8487226214 -0.2934473795 2.4665234106
C 1.6557866021 0.2957697538 -0.6229921478
C 1.9214521265 1.6604026339 -0.5003275704
C 3.2198070756 2.1389117677 -0.6451111612
C 4.2632849100 1.2625049135 -0.9228071900
O 5.5286007626 1.7531333451 -1.0644613083
C 4.0000684077 -0.1097698909 -1.0485238555
O 5.0835244264 -0.9013958659 -1.3162730236
C 2.7044284865 -0.5864501828 -0.8929598578
H -4.3766123431 -0.9755508244 4.2357096744
H -5.1429575923 -1.1803456263 2.0879495765
H -4.2457881895 -0.8637317805 -1.3380936603
H -0.3814979708 -0.0298484880 -2.5333497924
H -0.7333091588 1.3815618836 -1.5214426011
H 0.2758854573 -1.3330357315 -0.5154870311
H -1.1164002932 -0.1152120731 3.2448041330
H 1.1180344794 2.3562526801 -0.2812691981
H 3.4398177018 3.1971605191 -0.5453899731
H 6.1301115908 1.0177720689 -1.2528302586
H 4.8150774954 -1.8284802963 -1.3662208978
H 2.5152597403 -1.6535634054 -0.9832731248
