44
CONF34
C -4.3371661348 -1.7113200109 1.0958698913
C -2.9968192136 -1.8106007813 0.4084224650
C -3.0180389221 -2.3876816269 -0.9977373162
O -1.8605481129 -1.7989475501 -1.6010887731
C -1.6084125193 -0.5592163389 -0.9472130346
O -2.4941148785 -0.4818245085 0.1573625414
C -1.9262204912 0.5978845327 -1.9207852967
N -3.3119983772 0.5730751707 -2.3362448326
C -4.3999129507 1.0021044650 -1.6543349541
N -5.5069488239 0.6847828725 -2.3050311635
C -5.0246890055 0.0373095062 -3.4041566014
N -3.7034309273 -0.0613880816 -3.4690749137
C -0.1430520346 -0.5115129708 -0.5194062916
C 0.7497635681 -1.4708487890 -1.0082518094
C 2.0940788152 -1.4701795588 -0.6733848729
C 2.5791746842 -0.4874953645 0.1826554726
C 1.7269738579 0.4853888152 0.6953844146
C 0.3855742992 0.4661433616 0.3305318164
Cl -0.6108865052 1.7432323019 1.0184278262
O 3.9055321420 -0.5719159259 0.5338378863
C 4.5799790657 0.5718980694 0.9237062006
C 4.5666230592 1.7255181773 0.1446251812
C 5.3201600048 2.8245929596 0.5364375546
C 6.0845552347 2.7494848644 1.6964456218
C 6.1086213937 1.5953748001 2.4698720469
C 5.3455343502 0.5001524660 2.0804713756
Cl 7.0372956794 4.1356615838 2.1875154277
H -4.7394815188 -2.7134396869 1.2740902632
H -5.0433517064 -1.1535937236 0.4735064317
H -4.2381418473 -1.2062496212 2.0598311140
H -2.2697721619 -2.3564407639 1.0306855175
H -2.9016033444 -3.4744421398 -1.0289987471
H -3.9293058810 -2.0911802993 -1.5377271297
H -1.7115407806 1.5548851705 -1.4396334375
H -1.2996716135 0.4864871893 -2.8082673440
H -4.3266636795 1.5261833161 -0.7113277631
H -5.6599213046 -0.3633510763 -4.1832579802
H 0.3619074000 -2.2354303516 -1.6696523781
H 2.7722013083 -2.2214746700 -1.0612789861
H 2.0940783367 1.2456428039 1.3735467778
H 3.9724362692 1.7624722238 -0.7620704341
H 5.3224577928 3.7296440371 -0.0595397607
H 6.7117852006 1.5538635482 3.3691223304
H 5.3429592990 -0.4132481946 2.6645932457
