25
CONF4
C -1.4980170876 0.4293160756 1.0282800750
C -2.9117495000 0.4633587000 0.4642405019
S -3.3656092146 -1.3080780358 0.2328688098
C -1.6475684369 -1.7498101402 0.0985113895
N -1.1838249934 -2.9185006694 -0.2192131803
C -2.0072658853 -3.8960117612 -0.5492425941
N -2.6565221795 -4.8171253021 -0.8483250267
N -0.8342566160 -0.6955988281 0.3769675751
C 0.6049688004 -0.8688539122 0.5477525229
C 1.3759887973 0.2589485618 -0.0891551225
C 1.1213549994 0.6410712246 -1.4057441403
N 1.7750374540 1.6243485142 -2.0309368274
C 2.7148590583 2.2529864289 -1.3544394170
C 3.0704964494 1.9668659064 -0.0385016912
C 2.3747379467 0.9486359304 0.5964736280
Cl 3.5654731570 3.5444977117 -2.1894665482
H -0.9572405742 1.3550037461 0.8047072475
H -1.5108779456 0.2817265592 2.1203682096
H -2.9460530893 0.9660560091 -0.5062601845
H -3.6179378457 0.9353340924 1.1490049315
H 0.8683075003 -1.8276080374 0.0901775629
H 0.8515171829 -0.9360141325 1.6183769026
H 0.3499116747 0.1336103993 -1.9833937389
H 3.8528728653 2.5241760730 0.4614645202
H 2.6113972708 0.6916652776 1.6254847002
