46
CONF77
C -1.1807329427 -1.5443697989 0.5298199369
C -2.0287833169 -1.4195682723 -0.7119377465
C -3.3397320528 -0.6766321668 -0.6799761911
C -2.1368374232 -0.0794202798 -1.4389858909
C -1.4414933994 1.1231288996 -0.9521934421
O -1.4227285454 1.5593642407 0.1829162608
O -0.7759152161 1.7093278708 -1.9844747209
C -0.0177300637 2.8959685528 -1.6745748322
C 1.3598434555 2.5946372943 -1.1393877259
C 1.7583478428 1.3087643150 -0.7918137814
C 3.0409532582 1.1037484492 -0.2881137326
C 3.9429359258 2.1468595230 -0.1416008758
C 3.5397921319 3.4314517465 -0.5051326066
C 2.2590761720 3.6575785374 -0.9941159574
O 3.4676793917 -0.1822619749 0.0155846065
C 2.7694799553 -0.8926727634 0.9748479040
C 2.8657528023 -2.2812680619 0.9066632405
C 2.2389774720 -3.0554619645 1.8775955934
C 1.5159555064 -2.4527909981 2.9061391872
C 1.4288108081 -1.0638622232 2.9591020611
C 2.0538779141 -0.2730170749 1.9981371453
C -3.8559550031 -0.0690299911 0.5486635228
C -5.1338252025 0.2460433065 0.7609839593
Cl -5.6879940418 0.9148798734 2.2764926802
Cl -6.4058286682 0.0426043154 -0.4148891104
C -1.9648219299 -2.6327332158 -1.6139946917
H -1.5477362052 -2.3755404441 1.1418895591
H -0.1458585673 -1.7671572131 0.2479338695
H -1.1683143587 -0.6424599311 1.1410766116
H -4.0993199133 -1.0494919597 -1.3602020916
H -2.2003353928 -0.1440863832 -2.5197758014
H -0.5761579621 3.5104712946 -0.9604296258
H 0.0552494717 3.4363715892 -2.6218884611
H 1.0943180796 0.4580691646 -0.9037283407
H 4.9354830882 1.9518341464 0.2499866570
H 4.2323638167 4.2604342577 -0.3995466693
H 1.9529536294 4.6625119626 -1.2709594374
H 3.4290834714 -2.7367157278 0.0987388263
H 2.3122105038 -4.1373403732 1.8236130351
H 1.0235651357 -3.0606275436 3.6579908567
H 0.8701153927 -0.5830638473 3.7563461063
H 1.9860686037 0.8084588039 2.0445908447
H -3.1701954932 0.1316566845 1.3631042479
H -2.3046128657 -3.5197278107 -1.0680971741
H -0.9336402334 -2.8066978674 -1.9403023244
H -2.5943437406 -2.5081669149 -2.4990718898
