54
CONF17
C -2.8728820073 1.4730564537 -3.4015740134
C -1.6282233367 0.8567755705 -2.7807490385
C -1.6429852433 0.9167456985 -1.2709988794
O -2.5342389685 1.3817818889 -0.6004066703
O -0.5094613764 0.3603818781 -0.7826354500
C -0.3132172280 0.2263626532 0.6640427023
C -1.4270930142 -0.6976857901 1.2349718532
C -1.6803489497 -1.9455307348 0.4283194878
C -0.9135211331 -3.1010382303 0.6100507068
C -1.1415033294 -4.2405728304 -0.1550815977
C -2.1492342987 -4.2485445849 -1.1145965366
C -2.9369439520 -3.1146671100 -1.2885000014
C -2.7060754919 -1.9769700433 -0.5215980841
C -0.3092611935 1.5966807339 1.3277589811
C -0.6491896384 1.7452312047 2.6743829574
C -0.5821732520 2.9886907058 3.2962653921
C -0.1748740410 4.1093044233 2.5828725435
C 0.1656477743 3.9737404036 1.2405243452
C 0.1018316289 2.7310777543 0.6225167147
C 1.0844683359 -0.4504488763 0.7544857965
C 1.5270291620 -0.7466646044 2.1873945548
C 2.1856346887 0.3597442591 0.0497544320
N 3.3903264364 -0.4501191918 -0.1729627666
C 4.5555108460 0.4073047212 -0.3671857591
C 3.2302999587 -1.3331785387 -1.3257914389
H -3.7731046053 0.9530654167 -3.0646095869
H -2.8247548195 1.4131917988 -4.4921177321
H -2.9746288785 2.5220328142 -3.1131367524
H -0.7132249425 1.3521834536 -3.1282328038
H -1.5160641344 -0.1986604289 -3.0586393502
H -1.1407716578 -0.9800546046 2.2505456724
H -2.3439554075 -0.1091597762 1.3046967094
H -0.1359110833 -3.1154990615 1.3682285441
H -0.5351558108 -5.1266861625 0.0049587154
H -2.3296044772 -5.1373652110 -1.7105558396
H -3.7413760488 -3.1179827598 -2.0177046480
H -3.3385619018 -1.1032150937 -0.6471057363
H -0.9742360660 0.8889821884 3.2538337636
H -0.8559893020 3.0782813257 4.3427660191
H -0.1279949991 5.0800274814 3.0654700547
H 0.4787818521 4.8410710167 0.6678272728
H 0.3640799869 2.6460318787 -0.4262563125
H 0.9693702774 -1.3983089461 0.2163463018
H 1.5796704240 0.1731904627 2.7793207291
H 2.5270266649 -1.1862540779 2.1530839421
H 0.8680554836 -1.4477649360 2.7064393866
H 2.4585932540 1.2063144622 0.6918836986
H 1.8155986101 0.7792525635 -0.9022647783
H 4.4568912971 1.0784732017 -1.2442885563
H 5.4476340732 -0.2106097274 -0.5155063878
H 4.7151775182 1.0272776134 0.5210168267
H 3.0830782038 -0.7725576320 -2.2708892363
H 4.1211394599 -1.9605979441 -1.4348018628
H 2.3707154566 -1.9961184474 -1.1915684859
