58
CONF45
C -1.5407290017 -0.2980667359 -2.9637066456
C -0.8006732391 -1.1387233087 -1.9364514296
O 0.0472187858 -0.2377412736 -1.1993530332
C 1.0420831765 -0.8932043468 -0.4405914012
O 2.0444655838 -1.4548906049 -1.2670184929
C 2.7752593093 -0.4314089491 -1.9723477193
C 3.4107047785 0.5292473736 -0.9928692068
N 2.3855469343 1.1569130492 -0.1397549309
C 3.0349189561 2.0664997377 0.8143047037
C 3.5616170435 3.2668477489 0.1131161093
N 4.7650382539 3.7527370380 0.2510967367
N 4.7731016884 4.8707950053 -0.5527448334
C 3.5876035770 5.0820001000 -1.2118588830
O 3.2821807470 5.9721979615 -2.0030285773
N 2.8112151635 4.0229597401 -0.7498862962
C 1.6308922472 0.1118423701 0.5703310473
C 0.5250886409 0.6580615030 1.4430537606
C -0.2428799030 1.7609821543 1.0586486861
C -1.2941080251 2.2086847037 1.8513584062
C -1.5683345025 1.5257743355 3.0252433985
F -2.5990528465 1.9541147868 3.8016399759
C -0.8359859795 0.4294145517 3.4413040010
C 0.2199568429 0.0050252216 2.6380594921
C -1.7557755411 -1.8507391767 -1.0008594703
C -2.4839399620 -1.1207247855 -0.0565123475
C -3.3978167983 -1.7679290114 0.7640098531
C -3.5913369832 -3.1476853604 0.6810035968
C -2.8544604994 -3.8651837993 -0.2487898939
C -1.9413068669 -3.2244805073 -1.0890097705
C -3.0126276028 -5.3520975106 -0.3749092193
F -3.3936644146 -5.7116090752 -1.6286323560
F -1.8425662016 -6.0003728695 -0.1324774786
F -3.9288458805 -5.8568833471 0.4778695642
C -4.1909188035 -0.9993667157 1.7815800078
F -3.7090473786 -1.1807878716 3.0409254072
F -5.4884393063 -1.3955924058 1.8102051538
F -4.1872182970 0.3304630709 1.5464960458
H -0.8251517815 0.1841112504 -3.6354495695
H -2.1369709712 0.4720596580 -2.4641249648
H -2.2095707172 -0.9312588450 -3.5528889179
H -0.1795246651 -1.8859972715 -2.4472651239
H 0.6156728652 -1.7409999375 0.1136737167
H 3.5435773573 -0.9515989040 -2.5489722278
H 2.1044987743 0.0978533541 -2.6609412706
H 3.9405304006 1.3105690260 -1.5508442013
H 4.1543626402 -0.0108740384 -0.3757753800
H 3.8682725690 1.5911988550 1.3607876337
H 2.2919097365 2.3883194816 1.5533906172
H 5.6050223535 5.4331982840 -0.6426399507
H 1.8652284424 3.8306309918 -1.0430071821
H 2.3094395988 -0.4871052136 1.2085990700
H -0.0136019785 2.2764239565 0.1322182396
H -1.8959538143 3.0647628809 1.5656281309
H -1.0833611382 -0.0740589683 4.3693079561
H 0.8132753229 -0.8499067147 2.9502583731
H -2.3281647331 -0.0505102038 0.0295221792
H -4.3035243151 -3.6440790999 1.3295344647
H -1.3731299276 -3.7998104387 -1.8147196199
