40
CONF1
C -5.7196390345 -1.5380230332 1.7338150463
N -4.4367826667 -1.7406218946 1.0537156354
C -4.4496419619 -1.1666858214 -0.2955841474
C -3.1325713163 -1.4087303026 -1.0221430320
C -1.9252238824 -0.7783783668 -0.3272853880
O -0.7948822149 -1.1427161171 -1.1633017163
C 0.4639200199 -0.9183353538 -0.7091664575
C 0.7814593844 -0.4373295994 0.5657654508
C 2.1152937631 -0.2640572191 0.9197801000
C 3.1324279359 -0.5671349422 0.0190100943
C 2.8124941880 -1.0430593398 -1.2565684748
C 1.4893166586 -1.2178979057 -1.6178032559
C 4.5599585054 -0.3293200611 0.3784846685
F 5.0207373722 0.8710074061 -0.0892680621
F 5.3896109194 -1.2710104950 -0.1421280849
F 4.7687953940 -0.3158544914 1.7175658969
C -2.0490568721 0.7213226645 -0.1984698146
C -2.4048909282 1.2944416667 1.0233059584
C -2.5705902207 2.6729368316 1.1351079441
C -2.3726772865 3.4914539920 0.0253275887
C -2.0118227466 2.9245638674 -1.1963249959
C -1.8552659215 1.5459900411 -1.3090531663
H -5.7085557468 -2.0425777157 2.7049799260
H -6.5862110629 -1.9099631099 1.1586374894
H -5.8724689828 -0.4668235031 1.9108598115
H -4.6295940799 -0.0869577450 -0.2034839085
H -5.2706408477 -1.5722197500 -0.9153436419
H -2.9494427476 -2.4868273346 -1.1144031874
H -3.2026455249 -0.9985141354 -2.0365089963
H -1.7990707337 -1.2290636060 0.6637054212
H 0.0108597242 -0.1933548209 1.2848366734
H 2.3538953055 0.1093773261 1.9096374016
H 3.5982710456 -1.2784892285 -1.9668486116
H 1.2262679804 -1.5897846654 -2.6023799044
H -2.5496544443 0.6559544642 1.8909486210
H -2.8470354367 3.1080030870 2.0906754851
H -2.4949891809 4.5666264709 0.1121515566
H -1.8527584572 3.5582478280 -2.0635475122
H -1.5728239413 1.1067095460 -2.2613607221
H -4.2705935075 -2.7399756165 0.9699784278
