74
CONF101
C -0.5790606175 -1.9602092599 -0.7408086246
C 0.0090648732 -3.3003973629 -1.1628711672
O -0.8177328892 -4.2812202895 -0.4480621464
C -1.4173658019 -3.7058133119 0.6297436600
O -2.0920337952 -4.3550731129 1.3935973549
C -1.0264827062 -2.2500439967 0.6837705871
C -2.0149397042 -1.2005007803 1.1973280313
C -3.4058022883 -1.3302193122 0.5843349664
C -3.7409014237 -0.6625864534 -0.5957278331
C -5.0048132883 -0.8245095515 -1.1662882050
O -5.4244122751 -0.2177002047 -2.3146576184
C -4.4868873822 0.6359637229 -2.9803917440
C -5.9471292056 -1.6542491511 -0.5496993889
O -7.1820157317 -1.7990844802 -1.1157569386
C -5.6088101155 -2.3080022690 0.6409480586
O -6.6171411492 -3.0793534394 1.1516407292
C -6.3339454210 -3.8342013374 2.3372409153
C -4.3482344979 -2.1475878587 1.2110625309
C -1.4226732412 0.1784102815 0.9264014137
C -2.0158363327 1.2612621659 1.6066997202
C -1.6009433813 2.5295065569 1.2851141496
C -0.6365368763 2.7598845206 0.3090773664
O -0.3892943766 4.1056818110 0.2071001122
C -1.4252524580 4.7386551155 0.9869308421
O -1.9992371073 3.7195602314 1.8345936268
C -0.0375761627 1.7273569726 -0.3660046647
C -0.4281013148 0.4084726960 -0.0385665354
C 0.2918887913 -0.7226812007 -0.7489299017
O 1.5257983897 -1.1124486814 -0.0704499489
C 2.4437297462 -0.1091503779 0.1929327553
O 2.9332367093 0.3921821137 -1.0605295534
C 3.8749196552 1.4386859185 -0.8411921840
C 4.3057692575 2.0395023971 -2.1683256908
O 5.3433407422 2.9960742815 -1.9072198180
C 6.4618165977 2.4022453047 -1.2591950674
C 7.5044405865 3.4650282688 -1.0429354872
O 6.0900629580 1.8715545224 0.0149509917
C 5.0998880985 0.8515427124 -0.1493921278
C 4.7135917530 0.2937714480 1.2073152573
O 5.8025728147 -0.3703931547 1.8428117630
C 3.5804845239 -0.7216175008 1.0292162713
O 3.0911615946 -1.1932613297 2.2792100171
H -1.4618429537 -1.7546908998 -1.3582657170
H -0.0837467882 -3.5181294329 -2.2275460819
H 1.0434256320 -3.4301672916 -0.8335266225
H -0.1368085937 -2.2249061803 1.3340497675
H -2.1219187235 -1.3245751144 2.2809637304
H -3.0215742133 0.0034313114 -1.0549715667
H -5.0043107970 1.0078114748 -3.8652928003
H -4.1972062504 1.4792717617 -2.3417748592
H -3.5919741083 0.0788927218 -3.2833348298
H -7.6886268157 -2.4074910527 -0.5572022321
H -5.5003589170 -4.5251500767 2.1677514378
H -6.1005710759 -3.1691253072 3.1764311869
H -7.2425096906 -4.3960094143 2.5544286030
H -4.0857261147 -2.6604864492 2.1270090653
H -2.7939179754 1.0902966181 2.3436891487
H -0.9851570447 5.5211479570 1.6080246152
H -2.2019682513 5.1243589541 0.3130276898
H 0.7182069104 1.9072312344 -1.1240370512
H 0.5469877902 -0.4150972595 -1.7698495597
H 1.9860739330 0.7286446087 0.7519204230
H 3.4376843800 2.2290575694 -0.2078719182
H 3.4881997269 2.5771107946 -2.6548988209
H 4.6708482903 1.2449223742 -2.8380431394
H 6.8310888904 1.5692338881 -1.8850337935
H 7.8159632160 3.8778802344 -2.0049065472
H 8.3743093593 3.0326477622 -0.5436217500
H 7.0937231499 4.2665787348 -0.4227607191
H 5.5050193276 0.0379440692 -0.7762692148
H 4.3486662522 1.1250162782 1.8369315528
H 6.5088618490 0.2796722075 1.9538035498
H 3.9642994047 -1.6015817748 0.4991820109
H 2.8162519818 -0.4287758197 2.8044507426
