21
CONF1
C 2.5241046932 0.5092776004 0.0469184185
C 1.2214139680 -0.2358754969 -0.0797594502
C 1.2376037910 -1.6085738255 -0.3320074892
C 0.0548628492 -2.3272225317 -0.4423869158
C -1.1603163102 -1.6731806087 -0.2907459595
C -1.2094743646 -0.3012859513 -0.0378944364
C -0.0107769566 0.4282050544 0.0582307155
C -0.0451121942 1.9074661938 0.3405147988
C -2.5450297232 0.3727903900 0.1352088950
H 3.3683209151 -0.1829338240 0.0084373009
H 2.5844802371 1.0628729534 0.9901663689
H 2.6551097631 1.2375960005 -0.7621961262
H 2.1919754151 -2.1164647837 -0.4392519032
H 0.0802028163 -3.3943544241 -0.6391987593
H -2.0890479899 -2.2319277606 -0.3653530590
H 0.8144764671 2.4223296991 -0.0931857626
H -0.9480803268 2.3750273818 -0.0570389661
H -0.0281626479 2.1045862526 1.4208282481
H -2.7420343049 1.0946695673 -0.6662076934
H -3.3518526866 -0.3635343361 0.1228671689
H -2.6026635105 0.9205326494 1.0820548063
