47
CONF155
C -2.7537553077 -2.8172632152 3.2996176692
C -3.3177289400 -1.4796218972 2.8757967646
C -4.1857118093 -1.4125665394 1.6646192878
C -2.7337389210 -0.9300481862 1.5619563438
C -2.5034520550 0.5005888504 1.3482448961
O -3.2463356423 1.4216905537 1.6204732350
O -1.2811860384 0.6979567329 0.7556560489
C -0.9300651220 2.0833807903 0.5069678593
C -1.8004268514 2.6320148387 -0.5410007574
N -2.4583856689 3.0686082037 -1.3838302676
C 0.5214667202 2.1196421882 0.0966750276
C 0.9103914935 1.5615847627 -1.1198961679
C 2.2558315778 1.5661586561 -1.4684971843
C 3.2131874927 2.1276669990 -0.6216956040
C 2.8073468178 2.6768814978 0.5888457050
C 1.4639603824 2.6767563159 0.9578107846
O 2.5683218942 1.0608616815 -2.7114106129
C 3.8116373503 0.4711886683 -2.9054397323
C 4.2887708192 -0.5068103488 -2.0364436525
C 5.5054902678 -1.1207288140 -2.3181360171
C 6.2291506000 -0.7689393933 -3.4571698406
C 5.7300971589 0.2045786411 -4.3195426260
C 4.5176673123 0.8341210000 -4.0460486517
C -4.5965270121 -2.6120373789 0.9072316933
C -4.9096231454 -2.5751477215 -0.3865739958
Cl -5.4378297666 -3.9742486607 -1.2790773455
Cl -4.8154213667 -1.1162953556 -1.3317749334
C -3.6069807661 -0.5424035390 4.0246974906
H -3.4860502713 -3.3507797775 3.9159714868
H -1.8501090517 -2.6672041735 3.8985583634
H -2.4971392602 -3.4474930444 2.4441701654
H -4.8947072501 -0.5858611840 1.6476872928
H -2.0335044624 -1.5886379359 1.0602569950
H -1.0893501392 2.6716456673 1.4169809973
H 0.1845469703 1.1227770175 -1.7976083121
H 4.2584231407 2.1388068096 -0.9103382694
H 3.5479904329 3.1171980187 1.2483308119
H 1.1518926335 3.1056486422 1.9043174971
H 3.7150631574 -0.7819783405 -1.1572599352
H 5.8839054072 -1.8851616918 -1.6467886107
H 7.1755551442 -1.2540840873 -3.6719831127
H 6.2866075748 0.4829479466 -5.2089284906
H 4.1155428954 1.5970573503 -4.7043754680
H -4.6724861972 -3.5687850036 1.4163018205
H -4.3006388263 -1.0318832700 4.7167004736
H -4.0556166935 0.3939245618 3.6905214011
H -2.6860751866 -0.3157061484 4.5724761773
