47
CONF77
C -5.9602129965 0.5120114593 -2.0276525619
O -5.2516075794 -0.2405714356 -1.0168112846
P -5.7579100148 -0.2089416976 0.5046217689
S -6.3745156747 1.4796045943 1.2104819462
O -6.7936525317 -1.4353177853 0.5122474574
C -7.6057706458 -1.6763368239 1.6824978360
O -4.4953825032 -0.9077837610 1.2480237698
C -3.3362220552 -0.1724109123 1.5169442871
C -3.2001822731 0.4586699778 2.7445514552
C -2.0161091307 1.1246244407 3.0352047573
C -0.9868917507 1.1746078479 2.0912018270
C -1.1458515349 0.5440537892 0.8552961329
C -2.3209900339 -0.1398787915 0.5705791353
S 0.4700508629 2.1226856378 2.5111049462
C 1.7355008811 1.3290244146 1.5317213525
C 2.0444519256 -0.0219689120 1.7148643480
C 3.0470642278 -0.6144046528 0.9629236203
C 3.7638130698 0.1536278992 0.0503328790
C 3.4852958149 1.5029746865 -0.1281526137
C 2.4570877135 2.0839738757 0.6079049246
O 4.7937517457 -0.4831913889 -0.6280780208
P 5.0674939713 -0.2766299031 -2.2359224496
S 3.5166946116 -0.2537063395 -3.3646626822
O 6.1686315135 -1.4295345289 -2.4309541743
C 5.7430812345 -2.8098826308 -2.4801320599
O 5.9741212114 1.0392324209 -2.3365844795
C 7.1566275705 1.1771750051 -1.5078522527
H -5.3623668312 0.4233010959 -2.9352836553
H -6.0470788976 1.5601275634 -1.7280617664
H -6.9540195720 0.0838861385 -2.1910498415
H -8.2971633022 -2.4729869488 1.4057916129
H -6.9778234563 -2.0019626771 2.5179809821
H -8.1559017737 -0.7712137060 1.9564576675
H -4.0122753557 0.4197275341 3.4611046599
H -1.8907365901 1.6051135840 4.0001408712
H -0.3540060494 0.5832386649 0.1154366694
H -2.4605770260 -0.6390965876 -0.3815326236
H 1.4871574318 -0.6088506980 2.4371952246
H 3.2916152980 -1.6642019145 1.0807464036
H 4.0438186765 2.0890332059 -0.8496280692
H 2.2091610485 3.1289622950 0.4571097463
H 6.6387941717 -3.3911855234 -2.7004794958
H 5.3285074946 -3.1123019118 -1.5133529616
H 4.9980320456 -2.9466755627 -3.2694379227
H 7.9119497481 0.4451102518 -1.8041130562
H 7.5229206144 2.1888272986 -1.6843962217
H 6.9016235954 1.0494416119 -0.4512820883
