40
CONF198
C -4.1359756436 2.1408747426 1.8904975918
C -3.9099629052 0.6538615635 2.0007799390
O -3.1301148913 0.2507670886 0.8212620162
P -2.5201025838 -1.2275954414 0.7325832748
S -3.7034634441 -2.7485078696 1.0113164119
O -1.8523740475 -1.0505748920 -0.7160285904
C -1.1751272941 -2.1891734513 -1.3510592313
C -0.8316106231 -1.7793844924 -2.7611383721
S -0.9585753946 -1.3528861889 2.1504617486
C -0.0838612764 0.2902782916 1.8731984148
C 0.6703566270 0.5708332462 3.1660747525
Cl 1.5241062091 2.1781020379 3.0330009387
N 0.7443112521 0.2934292733 0.6998815226
C 0.5304081440 1.1775050947 -0.3808532048
O -0.3427506228 2.0178042781 -0.4274817899
C 1.5779536433 0.8510620250 -1.3740842062
C 1.8213399758 1.4025710616 -2.6189626512
C 2.8835518236 0.8711082778 -3.3561429539
C 3.6639589552 -0.1718085600 -2.8513109130
C 3.4124007528 -0.7195938998 -1.5897587735
C 2.3592565241 -0.1875732851 -0.8681104534
C 1.8457652049 -0.5516747323 0.4732880377
O 2.2481805648 -1.3924961020 1.2516966204
H -4.7221894920 2.4746865729 2.7517108004
H -3.1836885995 2.6785612488 1.8882175998
H -4.6880076996 2.3843564194 0.9788057455
H -4.8477219999 0.0903435823 1.9935145264
H -3.3394624703 0.3975830219 2.9005187267
H -1.8522958434 -3.0487611521 -1.3313127580
H -0.2794538508 -2.4224873625 -0.7638694707
H -0.1729809423 -0.9066735937 -2.7666670214
H -1.7353741382 -1.5500268450 -3.3318435592
H -0.3104515311 -2.6075771711 -3.2505186639
H -0.8571996824 1.0487281652 1.7175655607
H -0.0326593633 0.6479073894 3.9959796370
H 1.4345168066 -0.1780337725 3.3743464639
H 1.2099861689 2.2093271269 -3.0089911404
H 3.1061606713 1.2737776414 -4.3386562692
H 4.4800945015 -0.5624718778 -3.4499057317
H 4.0164918756 -1.5288225290 -1.1937421661
