47
CONF68
C -3.5714640585 0.2313112212 2.0721550458
C -2.4942804981 -0.5089217483 1.3119319655
C -2.8292895270 -1.7804468107 0.5686812322
C -2.6195357597 -0.4815927327 -0.2135674653
C -1.4261064387 -0.3664837172 -1.0633445339
O -0.4234240549 -1.0468933490 -1.0166852002
O -1.5825324372 0.6685919416 -1.9474965188
C -0.4116089128 0.9531740020 -2.7675061428
C -0.9298747826 1.5638381433 -3.9895821187
N -1.3120432042 2.0588948763 -4.9598835882
C 0.5483733251 1.8592354419 -2.0335894829
C 1.7135044177 1.3114006794 -1.5026207581
C 2.5703015017 2.1046706963 -0.7469501537
C 2.2478549756 3.4485431839 -0.5590330478
C 1.1020733532 4.0084018111 -1.0954246661
C 0.2406543109 3.2056210320 -1.8331348311
F 3.0850708898 4.2153602900 0.1679156624
O 3.7522617152 1.6544459456 -0.2207601636
C 3.8018244560 0.3544852560 0.2756731125
C 2.7759746882 -0.1645884834 1.0604162753
C 2.9130917237 -1.4483061375 1.5798069779
C 4.0626884553 -2.1954950553 1.3281424182
C 5.0827196063 -1.6518706189 0.5504969141
C 4.9564877274 -0.3725496956 0.0147676744
C -4.1672005206 -2.3749632850 0.5894412075
C -4.4278678963 -3.6824552611 0.6140329847
Cl -3.2051294814 -4.9234402581 0.6250453437
Cl -6.0576601136 -4.3049249520 0.6426035089
C -1.1297448269 -0.4247770149 1.9560252389
H -3.2619248885 1.2696129748 2.2292822121
H -3.7177208813 -0.2318355265 3.0542082264
H -4.5292020271 0.2410828904 1.5481681923
H -1.9988101307 -2.4742953188 0.4825219176
H -3.5035436319 0.0189870259 -0.5935367191
H 0.0805369973 0.0110504410 -3.0340832568
H 1.9503090298 0.2645900800 -1.6568943754
H 0.8935177439 5.0586890350 -0.9234930713
H -0.6671629023 3.6313895390 -2.2483565038
H 1.8869679327 0.4242384454 1.2604332141
H 2.1169608098 -1.8603565226 2.1921190360
H 4.1629314588 -3.1948951651 1.7381296652
H 5.9818011053 -2.2262002477 0.3509680569
H 5.7379739420 0.0648589892 -0.5974283595
H -5.0277795416 -1.7129338850 0.5821750975
H -0.3820667899 -1.0071469822 1.4157255758
H -1.1920501459 -0.8052755826 2.9810015182
H -0.7958564069 0.6181745149 2.0011327797
