37
CONF76
C -6.2301734228 1.7525145226 0.5913754485
C -5.4690840414 0.4388329794 0.7050978661
N -4.3592916597 0.4881716204 1.6750266914
S -2.8697220776 1.0787522415 1.2373735343
O -2.2996622581 1.7684129114 2.3919652357
O -2.9180267637 1.6301916590 -0.1163976663
C -1.9184436522 -0.5747048724 1.0654295659
C -0.5357610942 -0.3865980788 0.3629254390
C 0.4577945267 -1.5663784808 0.6197378166
C 1.7086133659 -1.6693194800 -0.3362921718
C 2.6245197100 -0.4054940387 -0.4343386676
C 4.0348926530 -0.7086669304 -1.0581412031
C 4.7522160204 0.5759619707 -1.5965653431
C 6.2900190352 0.3981652649 -1.8200607255
F 6.5349658235 -0.7132989603 -2.5284181107
F 6.9394764347 0.3275146535 -0.6538174672
F 6.7495127065 1.4559888450 -2.5016529910
F 4.5837509764 1.5889591474 -0.7155795241
F 4.2031880175 0.9186662368 -2.7806303708
F 4.8142038241 -1.2738621749 -0.1086905730
F 3.8945133159 -1.5768434775 -2.0843331320
F 1.9977460498 0.5148386253 -1.2034784279
F 2.8121749409 0.1012380238 0.8030898864
F 2.4552003118 -2.6932366953 0.1497681207
F 1.2745973132 -1.9966406551 -1.5698343633
F 0.8997255082 -1.5044787604 1.8916322606
F -0.2220852908 -2.7296375029 0.4506408892
F -0.7492676277 -0.2730094454 -0.9651151188
F 0.0291464770 0.7533604156 0.8240192546
F -1.7556449007 -1.0850700514 2.3008512218
F -2.6828868447 -1.4140710833 0.3378708937
H -5.5729300142 2.5479188198 0.2309396103
H -7.0613752333 1.6445717350 -0.1122482118
H -6.6455567562 2.0523176612 1.5590462768
H -6.1289405007 -0.3755240171 1.0256477015
H -5.0473131979 0.1497967803 -0.2610506458
H -4.5900919766 0.7606605009 2.6242073182
