45
CONF52
C -4.7490721506 -0.8062535401 1.1582711072
C -3.8677576772 -1.0469842408 -0.0247472979
C -3.2772403714 -0.0843380969 -0.7417167505
C -2.4348357282 -0.3664825873 -1.9134664214
C -1.0957989553 0.3795541949 -2.1699212696
C -2.3025296173 0.5612701785 -3.0875950927
C -3.0568790568 1.8702370447 -3.1226683453
C -2.1563210131 -0.0848218316 -4.4492565420
C -0.6307594653 1.4112449606 -1.2349094869
O -1.2994355376 2.2331404881 -0.6399938125
O 0.7298461021 1.3171048886 -1.1015977876
C 1.3638836813 2.1993754217 -0.1409622923
C 2.1254528823 1.3568380450 0.8368742569
C 1.4549878819 0.5242607326 1.7269719738
C 2.1341241523 -0.2813080378 2.6278027533
C 3.5231737566 -0.2903007966 2.6946979958
C 4.1922363167 0.5407977595 1.8031410233
C 3.5149704954 1.3415263738 0.8947407091
F 4.2316238326 2.1195287972 0.0639633035
F 5.5364407304 0.5754064162 1.8132030810
C 4.2914976808 -1.1875826086 3.6370265471
O 4.8726877995 -2.2986215468 2.9583773244
C 3.8938673051 -3.2374186313 2.5064287421
F 1.4161190351 -1.0665684717 3.4521415824
F 0.1102219433 0.4923028135 1.7084410603
H -5.7510417604 -1.2214669883 0.9940253989
H -4.8480561379 0.2620454632 1.3711218249
H -4.3499105553 -1.3022411433 2.0515687432
H -3.7077615263 -2.0883625151 -0.3088550488
H -3.4256676656 0.9540100734 -0.4585807555
H -2.3520230420 -1.4251939073 -2.1515547949
H -0.2999122615 -0.2440897001 -2.5618969430
H -3.1298813700 2.3453934718 -2.1458785882
H -4.0683470906 1.6913232612 -3.5040662899
H -2.5581175007 2.5673695181 -3.8048907678
H -3.1462197613 -0.2786694411 -4.8774143312
H -1.6168155681 -1.0342772556 -4.3879912047
H -1.6140584472 0.5786128885 -5.1321614497
H 2.0350799309 2.8602091898 -0.6907382761
H 0.5997430063 2.7919759900 0.3680630355
H 3.6308993379 -1.5281804619 4.4443926891
H 5.1234412177 -0.6291225361 4.0726042485
H 3.2882749785 -3.6066508095 3.3462102262
H 3.2295780189 -2.7957448630 1.7502790287
H 4.4402929787 -4.0688482670 2.0571839927
