44
CONF19
C 3.3944600042 -1.3383696479 -2.2280707186
C 2.8209148133 -0.3923946742 -1.1776671688
C 3.7641763616 -0.1700403640 0.0642406251
N 2.9013536504 0.0932819524 1.1963073813
C 1.6385173555 -0.6605078925 1.2702333088
S 1.2675940935 -1.1748158910 -0.4550182420
C 0.9637176529 0.6251012712 1.8711740240
C 2.3171602675 1.3074463828 1.5395669396
O 2.7399258728 2.4388915228 1.5265521107
N -0.1826769771 1.1704784542 1.2280485669
C -1.3727572849 1.3527495768 1.8508239254
O -1.5698493088 1.1373603336 3.0457777768
C -2.5125635667 1.8120985475 0.9252227552
C -3.3461972918 0.5899129095 0.5927682761
C -2.8850874417 -0.3642769918 -0.3206835381
C -3.6318528782 -1.4987664681 -0.6072865283
C -4.8587600890 -1.6989703665 0.0296659001
C -5.3303277937 -0.7605753101 0.9483272138
C -4.5723889716 0.3744712509 1.2215946399
O -5.5542919311 -2.8302432769 -0.2898157293
N -1.9913275073 2.4351380663 -0.2987164447
C 4.6402169958 -1.3787151557 0.3523531091
O 5.8188791726 -1.2853877477 -0.2822143381
O 4.3114451597 -2.3119293097 1.0507034999
C 2.4808708155 0.9583218418 -1.8080663820
H 4.3055749227 -0.9056630084 -2.6536961235
H 2.6730840434 -1.4687388131 -3.0394823241
H 3.6266980312 -2.3229128860 -1.8135113343
H 4.3979593326 0.7021283943 -0.1233299634
H 1.6578264739 -1.5355214132 1.9218390771
H -0.1651870095 1.3642080088 0.2320368589
H -3.1263076016 2.4864580033 1.5397329113
H -1.9301464661 -0.2201266585 -0.8168888463
H -3.2747752689 -2.2360944899 -1.3193139734
H -6.2871793027 -0.9145194403 1.4400992719
H -4.9475332656 1.1050756575 1.9327197853
H -6.3800570092 -2.8552414423 0.2125034149
H -2.7497547699 2.5389773683 -0.9647000144
H -1.6585702897 3.3715862747 -0.0890117022
H 3.3844021012 1.3929430780 -2.2508273203
H 1.7360622130 0.8233494776 -2.5967644984
H 2.0783389150 1.6639559900 -1.0768276638
H 0.7695669059 0.5361074910 2.9440870217
H 6.3297460721 -2.0970173181 -0.1130524417
