60
CONF18
C -1.0277901816 3.6764763924 -1.9011081701
Si -1.4576828389 2.9571687137 -0.2383083643
C -2.8464691488 3.8625235733 0.6112874714
O -0.1609993360 3.0165056875 0.7756557471
Si 1.4662960540 2.7918912758 0.8941304519
C 1.9706825425 3.3614609815 2.5911142167
C 2.3541850313 3.7235745373 -0.4571546259
O 1.8015976221 1.1848662434 0.7902287817
Si 2.2446176896 -0.0352705419 -0.2216165662
C 1.3099316002 0.0772455524 -1.8302137629
C 4.0892120657 0.0186717323 -0.4785307024
O 1.8564981676 -1.4125481527 0.5919018566
Si 1.4201690358 -2.9911319552 0.4308244260
C 1.9562048187 -3.8809287048 1.9732383932
C 2.1932490513 -3.7173232936 -1.1042882365
O -0.2225866017 -3.0972570041 0.3602987466
Si -1.5445417619 -2.8262320535 -0.5849310399
C -1.2208052754 -3.3483720279 -2.3429343983
C -2.9633272998 -3.7473326643 0.1951245782
O -1.8802636236 -1.2151720955 -0.6211789434
Si -2.3564300122 0.0415504500 0.3309546458
C -1.5072628617 -0.0272720401 1.9874091094
C -4.2137357217 0.0249345809 0.4826924549
O -1.8972601196 1.3908085740 -0.4973606390
H -0.2621023621 3.0695591168 -2.3966130140
H -1.9110035667 3.7021914597 -2.5487321794
H -0.6451067690 4.6980049737 -1.8039841156
H -3.7655307375 3.8152362538 0.0172588873
H -2.5927206798 4.9168371305 0.7659303338
H -3.0520285395 3.4172315596 1.5915680752
H 1.7413242608 4.4229680881 2.7327543351
H 3.0457008291 3.2205620133 2.7460911219
H 1.4377389701 2.7917894481 3.3605228748
H 2.1027352792 4.7893118328 -0.4216395333
H 3.4390044513 3.6269597201 -0.3355318626
H 2.0893833788 3.3473778707 -1.4508826889
H 1.5412992432 1.0158439120 -2.3466215026
H 0.2298242349 0.0396678174 -1.6538865990
H 1.5793927551 -0.7471179203 -2.4997557405
H 4.3873759636 0.9488228951 -0.9751966908
H 4.6152263235 -0.0400196726 0.4807478714
H 4.4209059678 -0.8191191498 -1.1021437322
H 1.6669024320 -4.9366082345 1.9351180788
H 1.4910274672 -3.4317421335 2.8576160645
H 3.0432432025 -3.8291086840 2.0962538090
H 1.8876042657 -4.7611394214 -1.2354473683
H 1.9044490733 -3.1656706056 -2.0045381667
H 3.2860066827 -3.6908772153 -1.0256228172
H -2.1319517278 -3.2476756714 -2.9429302610
H -0.4461852232 -2.7220037752 -2.7982398458
H -0.8917957805 -4.3916430617 -2.3934267778
H -3.8947433776 -3.5656205286 -0.3519189388
H -3.1091109111 -3.4240371036 1.2322077499
H -2.7751408822 -4.8264695810 0.2007358190
H -1.8020145476 0.8248751288 2.6106641677
H -1.7668589659 -0.9475865669 2.5231769415
H -0.4202520295 0.0046745866 1.8575969405
H -4.6828154603 0.0557035484 -0.5070045607
H -4.5661898063 0.8909658882 1.0541147383
H -4.5570821353 -0.8809806843 0.9945237430
