46
CONF47
C -4.3971092322 -1.6828002574 0.8859931791
C -3.2045669363 -1.9584203200 1.7710958824
C -1.8424416792 -2.1680819386 1.1816968529
C -2.1435060980 -0.8849137544 1.9985239776
C -2.1442006699 0.4102201355 1.3022569108
O -2.4777455613 0.6258817631 0.1530781410
O -1.6748989449 1.3821581974 2.1320017474
C -1.4937370958 2.6838526288 1.5304703358
C -0.2963401862 2.7323006451 0.6155547029
C 0.7501183750 1.8214569254 0.7519696546
C 1.8537897788 1.9147563743 -0.0878165496
C 1.9476047180 2.9116797352 -1.0554379640
C 0.8964372610 3.8134874363 -1.1853507856
C -0.2236713713 3.7249476050 -0.3626744646
O 2.8884791044 1.0236616906 0.1420430742
C 3.5005401426 0.4056679093 -0.9338426218
C 4.8375710089 0.0541502085 -0.7674971675
C 5.4900258502 -0.6397914030 -1.7820497245
C 4.8168102104 -0.9747171398 -2.9555753859
C 3.4781184492 -0.6169704109 -3.1043728104
C 2.8097030210 0.0719984721 -2.0966224076
C -1.5981530936 -2.1083484888 -0.2659553462
C -0.3959646033 -2.2526072171 -0.8229848489
Cl -0.1598592453 -2.2657462897 -2.5507098295
Cl 1.0728963847 -2.4360645385 0.0941608383
C -3.5393144064 -2.7818299560 2.9971313595
H -5.1838508745 -1.2002933820 1.4752667397
H -4.1637210317 -1.0348892951 0.0416268019
H -4.7939817198 -2.6307569428 0.5063108698
H -1.1859758132 -2.8429445086 1.7248513918
H -1.7025241756 -0.8592028584 2.9889531649
H -1.3528344751 3.3541577740 2.3835550618
H -2.4003015172 2.9772763230 0.9935110483
H 0.7180036558 1.0339458937 1.4975426150
H 2.8213193972 2.9743614818 -1.6950825765
H 0.9520471727 4.5922449394 -1.9394968828
H -1.0438522186 4.4266475138 -0.4826668420
H 5.3479823209 0.3231033669 0.1514664043
H 6.5324467860 -0.9144251927 -1.6537553519
H 5.3296382466 -1.5127022680 -3.7458981629
H 2.9396074405 -0.8840491930 -4.0084865407
H 1.7637048591 0.3351909208 -2.2075594191
H -2.4335455412 -1.9646071521 -0.9422802149
H -3.9591408888 -3.7470545866 2.6935562947
H -4.2830953761 -2.2635489882 3.6115962389
H -2.6525101255 -2.9683818476 3.6089262112
