41
CONF40
C 4.5839983889 -4.6185849084 1.5181222020
C 4.1809497194 -4.4015669307 0.0813549203
O 3.3675700286 -3.1848239449 0.0582857721
C 2.9065883777 -2.8042003134 -1.1142897181
N 3.1272269612 -3.4442355783 -2.2327678224
C 2.5969247960 -2.9458345905 -3.3577098028
C 1.8309166546 -1.8182237053 -3.4747237143
C 1.5972566580 -1.1328589450 -2.2714719029
N 0.9254919492 -0.0285245525 -1.9625461437
C 1.1054793478 0.0497986007 -0.6250534461
N 1.8332344470 -0.8846135450 -0.0288990932
N 2.1564617734 -1.6602092791 -1.1009272001
S 0.4925936387 1.4509187170 0.3341594667
O 1.2488634951 2.6103316584 -0.1390554753
O 0.4287707372 1.0654661553 1.7389565012
N -1.0939807138 1.6465851843 -0.2914053847
C -2.2064233475 1.4691437420 0.5440227624
C -3.0614568467 2.5535688570 0.8664446355
C -4.1742319337 2.3495369346 1.6887747479
C -4.4558525458 1.0959274255 2.2041141844
C -3.6397532361 0.0187958689 1.8809374688
C -2.5441408532 0.2040851637 1.0509175748
Cl -1.6103847323 -1.1973029054 0.5983950712
C -2.8052786002 3.9011693233 0.3027761862
O -2.0737063612 4.1424539616 -0.6435903179
O -3.4917891776 4.8644238185 0.9453894825
C -3.3030861009 6.1971917899 0.4199503825
F 2.8742298309 -3.6605048849 -4.4539230254
H 5.1679193632 -3.7739959455 1.8917361645
H 5.1966877468 -5.5220181180 1.5852666732
H 3.7053616128 -4.7463639437 2.1549966222
H 5.0398872006 -4.2501700972 -0.5793569664
H 3.5774926013 -5.2232632127 -0.3160287891
H 1.4325705585 -1.4694464769 -4.4164205832
H -1.1304479965 2.5492759225 -0.7768912350
H -4.8156021896 3.1909576824 1.9162962294
H -5.3175724603 0.9471000699 2.8448153945
H -3.8573248137 -0.9760492432 2.2518262900
H -3.9140840063 6.8423191409 1.0501595949
H -2.2493805173 6.4799898359 0.4784719681
H -3.6319798458 6.2443913582 -0.6211101668
