55
CONF10
C -6.4758625762 -2.3500590444 1.4655597983
C -5.7311421488 -3.0664059944 0.3595964822
O -5.1367322410 -2.1150961491 -0.5723202278
C -3.9488664624 -1.5832932442 -0.1970718196
O -3.3346089541 -1.8884349239 0.8107824908
N -3.5573365813 -0.6645549190 -1.1352525781
C -2.3762840915 0.0874786958 -1.1495474174
C -1.5571091757 0.2430670901 -0.0290273097
C -0.3844773539 0.9863728835 -0.1352431526
C -0.0726698676 1.6685072818 -1.3133050319
C -0.9141183339 1.5416269654 -2.4181980327
C -2.0391254399 0.7366036020 -2.3469206879
S 1.3700932349 2.7051198602 -1.3720156209
C 1.3293856066 3.2910288842 0.3101907224
C 1.7480789251 4.5866789506 0.6135961305
C 1.7138618834 5.0284290597 1.9316501535
C 1.2270308770 4.1960578975 2.9384693311
C 0.7945648943 2.9093832259 2.6356094247
C 0.8731139716 2.4439097578 1.3251618248
N 0.4928311894 1.1094389825 0.9810977176
C 1.1336259052 0.0330777061 1.5951429611
O 1.8753781633 0.2102027832 2.5553898259
C 0.9074574915 -1.3526411488 1.0349113940
C 2.2280276175 -2.1336847240 0.8250546260
N 3.0562399458 -1.7451790312 -0.3127692241
C 2.3697085798 -1.8342341491 -1.6024694039
C 3.3679969827 -1.5944942536 -2.7239456251
O 3.9859620390 -0.3087302419 -2.5938093809
C 4.6548960022 -0.2120874517 -1.3298907758
C 3.6876328889 -0.4310361174 -0.1770356796
H -5.7925671830 -1.7560162014 2.0778272416
H -6.9613440964 -3.0898224947 2.1099044806
H -7.2475313033 -1.6948515031 1.0515193936
H -6.4076133882 -3.6543034383 -0.2640521171
H -4.9439315975 -3.7154126940 0.7514770318
H -4.1546399799 -0.5807244690 -1.9456718890
H -1.8075167564 -0.2275457454 0.9109823026
H -0.6846985574 2.0695331302 -3.3379935750
H -2.6797273137 0.6279031783 -3.2167723667
H 2.0932223297 5.2415935511 -0.1800354690
H 2.0474875053 6.0336756631 2.1674365028
H 1.1794744930 4.5497152368 3.9629873931
H 0.4136779274 2.2540236866 3.4094442585
H 0.3196390712 -1.8963678154 1.7850401192
H 0.3238922908 -1.3499785644 0.1156670371
H 2.8354082353 -2.0572480147 1.7334758500
H 1.9554258655 -3.1877076120 0.6916183954
H 1.9299418287 -2.8338341154 -1.7107388016
H 1.5537736342 -1.0901404392 -1.7006920427
H 4.1414052043 -2.3794811655 -2.7113303198
H 2.8638998856 -1.6018860363 -3.6947270504
H 5.4668781958 -0.9560053774 -1.2847998551
H 5.0851645020 0.7925051713 -1.2814299560
H 2.9489414713 0.3924973344 -0.1853193208
H 4.2337853618 -0.3871743882 0.7727933505
