50
CONF17
C 7.2202163033 1.4776413682 -0.7505979275
C 6.4281534703 0.7105795538 0.2872580626
O 5.0988103668 0.3826672392 -0.2044005571
C 4.1675020250 1.3666611281 -0.1080827003
O 4.3713434929 2.4401050291 0.4508111186
N 3.0017752559 1.0278912369 -0.7314380190
C 1.8122554889 1.8353811503 -0.4694591442
C 0.9614543352 1.2045168002 0.6494335727
C 0.6389105597 -0.2271135247 0.3128436062
C -0.6155050012 -0.7104405589 0.2172019676
C -1.8335617150 0.0658715458 0.5714484763
C -2.9274410382 0.2415858374 -0.2992806609
C -3.0180380798 -0.2570757547 -1.7300989865
C -1.8273223429 -1.0324515183 -2.3064068685
C -1.5068270879 -2.2563215001 -1.5018996763
C -0.8974541497 -2.0980356528 -0.2476196041
N -0.5877262628 -3.1246513346 0.5572209937
C -0.8740689091 -4.3621934214 0.1257820883
C -1.4753757924 -4.6237693236 -1.0993011483
C -1.7957329132 -3.5498900526 -1.9244887413
C -4.0462608011 0.9501513035 0.1601086524
C -4.0819094440 1.4605934486 1.4455837479
C -3.0240270900 1.2840343156 2.3280923317
C -1.9175981149 0.5815472273 1.8758042618
Cl -5.5104926247 2.3473684561 1.9794140555
C 1.8559891942 -1.0425493730 -0.0358536746
C 2.6793769431 -0.3430237045 -1.1322656972
H 8.2333664192 1.6542726886 -0.3754799651
H 6.7571257156 2.4454949376 -0.9603220160
H 7.2922293732 0.9072431646 -1.6812296207
H 6.3357546211 1.2685806536 1.2224911801
H 6.8794115681 -0.2629669646 0.4918311493
H 2.1162650706 2.8465007420 -0.1972904433
H 1.2241658349 1.8820786639 -1.3945048019
H 1.5387773126 1.2475969054 1.5838809167
H 0.0587567482 1.8039547410 0.7848615168
H -3.2106143360 0.6093774347 -2.3747217467
H -3.9128840762 -0.8891120111 -1.8034362907
H -2.0734468058 -1.3170957113 -3.3339122535
H -0.9465428989 -0.3804782392 -2.3468013844
H -0.6094407058 -5.1790083381 0.7948623291
H -1.6848351443 -5.6450263129 -1.3994577870
H -2.2602408631 -3.7141392523 -2.8931836375
H -4.8903186107 1.1006457072 -0.5060748829
H -3.0648180211 1.6720333382 3.3393052625
H -1.0874114770 0.4130952656 2.5546416601
H 2.4922553225 -1.1443085794 0.8548941279
H 1.5903734148 -2.0465580193 -0.3727908238
H 3.5930146997 -0.8962914897 -1.3440463916
H 2.0875177612 -0.2896393610 -2.0548984897
