39
CONF76
C 4.7762678191 -1.7452013031 3.4332058454
C 4.7075664653 -0.6016944487 2.4230152722
C 3.2868293172 -0.3622847883 1.9140932671
C 3.2359116325 0.7781570630 0.8987478459
N 1.8854536879 1.0272091226 0.3929115113
C 1.3743761951 0.2975084357 -0.6105000939
O 1.9732215894 -0.5966979995 -1.2082551797
N 0.0367854481 0.6366484656 -0.9735420836
C -0.6519192454 1.8490107338 -0.8023269566
C -0.2468081429 3.1259294624 -0.4329307063
C -1.2268897891 4.1192141836 -0.4202726758
C -2.5519360629 3.8474218225 -0.7806916264
C -2.9423829701 2.5730254295 -1.1819261506
C -1.9773062447 1.5696458079 -1.1964828785
N -2.1078484242 0.2487612697 -1.6067349345
C -0.9176344541 -0.2691625708 -1.4717568069
N -0.5270751642 -1.5532063626 -1.7565375372
C -1.3683602830 -2.6262544674 -1.9844115015
O -2.5787885597 -2.6221543296 -1.9390476790
O -0.6033239820 -3.7041663413 -2.2654633107
C -1.3445575578 -4.9230144903 -2.5116189728
H 4.4275153718 -2.6820808888 2.9853127786
H 4.1454189428 -1.5355707323 4.3039137983
H 5.7995559936 -1.9015273080 3.7880851207
H 5.3637949089 -0.8207759492 1.5707082254
H 5.0886897528 0.3204747249 2.8811118681
H 2.9002687859 -1.2758813522 1.4453329650
H 2.6249406500 -0.1258244807 2.7573494191
H 3.8789626868 0.5548457039 0.0421687737
H 3.5898587650 1.7098543251 1.3523136909
H 0.7793359969 3.3683259050 -0.1831191314
H -0.9467342637 5.1266690642 -0.1310468601
H -3.2836833560 4.6484505994 -0.7584046629
H -3.9617888747 2.3596953414 -1.4860842626
H -0.5876056283 -5.6791719748 -2.7152336814
H -2.0034717603 -4.7966556668 -3.3737818218
H -1.9308177017 -5.1935586192 -1.6303239745
H 1.2596273661 1.5716306999 0.9688122015
H 0.4772969331 -1.7118193453 -1.7702728973
