51
CONF32
C 3.3810383641 -2.2546961293 3.0135040100
C 3.1679101384 -1.9483528600 1.5235742538
C 2.6617349033 -0.5513796975 1.2860312139
N 3.4554860220 0.4757408259 1.3274156880
O 4.7889778673 0.1682052807 1.5819177939
C 5.5638115650 1.3897759779 1.6012782687
C 6.9957595140 0.9910569750 1.8728134898
C 1.2736661691 -0.2585749513 0.8934082275
C 0.9448307710 0.9474858719 0.2843249868
C -0.4134541612 1.2598811036 -0.2504350387
C -1.1596087613 -0.0243233203 -0.6165628966
C -1.1775587856 -0.9520453994 0.6001663531
C 0.1942659060 -1.1907921430 1.2085222673
O 0.3385126720 -2.1373852716 1.9873600198
C -2.5244665617 0.1448962682 -1.2620452032
C -3.5569260728 0.9371692635 -0.7123512872
C -4.7885114393 1.0136253423 -1.3688193103
C -5.0481557245 0.3289844924 -2.5534899758
C -4.0292766634 -0.4609670942 -3.0773955809
C -2.7832226583 -0.5678465215 -2.4546439777
C -1.7522792050 -1.4651508674 -3.0974116539
C -6.3931822553 0.4215378862 -3.2207873188
C -3.4190372473 1.7452739906 0.5567729373
O 1.8106758539 1.9340726181 0.1446255517
H 3.7674799682 -3.2713461974 3.1313313797
H 4.0995820009 -1.5611056241 3.4575731608
H 2.4348817115 -2.1802757957 3.5538212304
H 4.1227491240 -2.0416931972 0.9946510034
H 2.4669493637 -2.6636200999 1.0952716072
H 5.4609971464 1.8934373365 0.6314275226
H 5.1727610723 2.0485458020 2.3867364245
H 7.6204648779 1.8881280477 1.9047602564
H 7.0807588008 0.4770179567 2.8345944709
H 7.3750459303 0.3336689724 1.0852521221
H -0.9340440589 1.8414789447 0.5177963228
H -0.2954992194 1.9171196260 -1.1185979364
H -0.5180249817 -0.5136143475 -1.3542276435
H -1.5892412722 -1.9332341531 0.3412154477
H -1.8134595856 -0.5506148432 1.3993449210
H -5.5720506515 1.6296624181 -0.9323123159
H -4.2058593753 -1.0153732033 -3.9961181490
H -2.1815270619 -1.9617432465 -3.9704677548
H -0.8728026101 -0.9037657385 -3.4330389013
H -1.3988969391 -2.2422860701 -2.4108885053
H -6.3664066352 -0.0085004747 -4.2251858947
H -7.1526785422 -0.1184087207 -2.6434040478
H -6.7253132499 1.4617720537 -3.2967919621
H -4.4095989561 1.9844321158 0.9515634637
H -2.9081183064 2.6966866636 0.3685395408
H -2.8663008305 1.2248515489 1.3404630981
H 2.6771601484 1.6225880824 0.6012674404
