26
CONF23
C -2.8111649368 -0.2503455213 0.5245488679
C -1.5621860161 -1.1096243057 0.3452172729
C -0.2788774348 -0.2582550665 0.2471121963
C 0.9828100711 -1.1017202378 -0.0076706815
C 2.3310124247 -0.3539463324 0.0341396878
C 2.5207413706 0.8368985364 -0.9044023484
O 1.8720974534 2.0137241939 -0.4171182070
O 2.6124471721 0.0385540577 1.3855775020
O 1.0777078508 -2.1686062237 0.9582961483
O -0.3854131039 0.6408437258 -0.8712642238
O -1.5534213869 -1.9606660260 1.4878221064
O -3.0552349766 0.4832789708 -0.6917470537
H -3.6560292788 -0.9139969055 0.7485416148
H -2.6650516732 0.4351666938 1.3708297633
H -1.6606657146 -1.6926685237 -0.5879660057
H -0.1692876958 0.3053104342 1.1900676569
H 0.8744617248 -1.5772865541 -0.9908214030
H 3.0853531916 -1.1073074211 -0.2294054005
H 2.1836811136 0.5754326348 -1.9166105653
H 3.5898968854 1.0684152181 -0.9444761262
H 2.2540941387 0.9354850811 1.4819272604
H 1.5074696927 -1.7768456138 1.7370650521
H -1.3261065404 0.8966860455 -0.9575499359
H -0.6622082264 -2.3552386984 1.5096778289
H 0.9190879449 1.8565511955 -0.5681702150
H -3.7073746861 1.1696276282 -0.5040324492
