27
CONF109
C -3.0345618562 -0.0396802004 -0.4981736612
C -4.3292553253 0.0573114997 0.2940189808
O -4.5756827847 -1.2032306863 0.9112238845
C -1.7946506203 -0.1742194007 0.3700930601
C -0.4863998832 0.0660538790 -0.4462044872
C 0.8422579200 -0.3287845503 0.2834737150
C 2.1196467699 0.3141875445 -0.3643088773
C 3.4482298605 -0.4132531247 0.0349983979
C 4.7390778804 0.4281881781 -0.2332898635
F 4.8451338965 1.4385539624 0.6358548219
F 4.7263861652 0.9196827349 -1.4807247905
F 5.8085317853 -0.3675105054 -0.0938851550
F 3.5520716744 -1.5556086290 -0.6768144345
F 3.4245217513 -0.7111782988 1.3546710514
F 2.0061559652 0.2689926577 -1.7118455026
F 2.2012801383 1.6073206783 0.0258741392
F 0.7801053340 0.0664110046 1.5733920142
F 0.9733657978 -1.6749956478 0.2390237128
F -0.5657265699 -0.6593755288 -1.5920307354
F -0.4304847877 1.3839516868 -0.7781200537
F -1.7003906947 -1.4110842057 0.9331873487
F -1.8235679511 0.7425222814 1.3853563340
H -3.0732407219 -0.8971031963 -1.1754710088
H -2.9223378505 0.8662861944 -1.1032687444
H -4.2552616929 0.8626017628 1.0380789874
H -5.1333332247 0.3166883327 -0.4119959012
H -5.3418713835 -1.1133520310 1.4868868519
