39
CONF6
C 0.3766633147 -1.8598294026 -2.8257406321
C 0.0262046645 -0.8734561142 -1.7075169985
C -1.5048537750 -0.7704661672 -1.6018599592
C -2.0556675618 -0.1575112062 -0.3143956153
C -1.3853793998 1.1691521126 0.0909489417
C -0.0428335082 0.9508347560 0.7587203457
C 0.7976094961 -0.0767468141 0.6033494520
C 0.6742637183 -1.2495092354 -0.3633790050
C 2.1223307021 -1.7724056787 -0.4498774478
C 2.6602152631 -1.5613193861 0.9663926873
C 2.1289217266 -0.1666221191 1.3495079955
C 3.0972556128 0.9475084941 0.9292859005
C -2.2848096194 1.9740543027 1.0120583290
C -2.6893120091 3.2051638072 0.6863007869
C -2.6863741333 1.3155527724 2.3006146455
H -0.1617974538 -1.5988443152 -3.7436525332
H 0.0835837346 -2.8784566285 -2.5440998463
H 1.4461747347 -1.8634537639 -3.0531844789
H 0.4254856716 0.1132838729 -1.9843369638
H -1.8714516632 -0.1973833170 -2.4638532404
H -1.9261322864 -1.7809059396 -1.7017019540
H -1.9516978159 -0.8679263104 0.5141466762
H -3.1316350089 0.0117596403 -0.4466404047
H -1.2405798611 1.7739110283 -0.8179529200
H 0.2541014569 1.7383084437 1.4542471002
H 0.0710017542 -2.0449231802 0.1057245229
H 2.1762943408 -2.8125555804 -0.7829405608
H 2.6929591204 -1.1641475450 -1.1636077226
H 3.7511122066 -1.6271663135 1.0316211147
H 2.2358128497 -2.3209774502 1.6344278476
H 1.9648684466 -0.0876915342 2.4309980856
H 4.0458184216 0.8572217480 1.4703088359
H 3.3072686060 0.8976054838 -0.1446584162
H 2.6721499428 1.9331130129 1.1419745063
H -2.3904214184 3.6658371387 -0.2518631040
H -3.3291497183 3.7839714072 1.3475066428
H -1.8024844024 0.9697217265 2.8501824463
H -3.2545276161 1.9974875771 2.9376939175
H -3.3009891478 0.4278115717 2.1095115331
