43
CONF4
C 2.6773391315 -3.1434187246 2.6743252754
C 4.0300268071 -2.4642019112 2.6282583776
O 4.0036796951 -1.3423010406 1.6977655105
C 4.1699636261 -1.6467955224 0.4036011462
O 4.4231498871 -2.7458232295 -0.0354352973
C 4.0696063276 -0.4065877263 -0.4874844579
C 5.4379497258 0.2478987699 -0.6038965531
O 3.1810918714 0.5824004378 0.0244082588
C 1.8604101170 0.2501460153 0.1551447632
C 1.2978478722 -0.9536199047 -0.2704077727
C -0.0653591212 -1.1788826062 -0.0797939650
C -0.8433943477 -0.2118823480 0.5263653438
C -0.2926216954 0.9903268258 0.9538809479
C 1.0593657980 1.2193188825 0.7674181868
O -2.1902054073 -0.5058037777 0.7820037280
C -3.1399559861 0.1631555050 0.0786230025
C -4.4861539204 -0.1365282181 0.4523979955
N -5.5027830849 0.4251097860 -0.1430262124
C -5.2199427772 1.3144761636 -1.1422686702
C -6.2831358102 1.9485498188 -1.8149602771
C -5.9929752533 2.8407140800 -2.8189142414
C -4.6676407920 3.1362925697 -3.1923248633
C -3.6223660012 2.5235442816 -2.5414907395
C -3.8721223245 1.6020425927 -1.5043133619
N -2.8273284936 1.0016881568 -0.8665453365
Cl -7.2973130266 3.6434458320 -3.6699797252
H 2.4442024709 -3.6078285719 1.7131539258
H 1.8922793735 -2.4228255006 2.9197282779
H 2.6862314750 -3.9247395451 3.4406996031
H 4.8217839654 -3.1548358646 2.3250885953
H 4.2859993494 -2.0062462803 3.5861727757
H 3.7331170633 -0.7551578946 -1.4732129987
H 5.3795846561 1.1003282914 -1.2847304780
H 5.7699032058 0.5981515232 0.3767248364
H 6.1607287762 -0.4725443299 -0.9943946773
H 1.8926154959 -1.7258091418 -0.7433262244
H -0.5200202788 -2.1092299666 -0.4017653273
H -0.9210987784 1.7361831082 1.4275526882
H 1.5203295725 2.1443766761 1.0950854455
H -4.6737282138 -0.8501908246 1.2530420110
H -7.3015386376 1.7180285742 -1.5260657643
H -4.4849077146 3.8458270095 -3.9909738621
H -2.5926142225 2.7332479183 -2.8099140957
