46
CONF146
C 4.9989633986 2.7855590691 4.4132504191
C 4.5271271455 1.7214438022 3.4523275270
O 3.3882793993 2.2821152666 2.7321315600
C 2.7949742518 1.5243219319 1.8110286797
N 3.2469572309 0.2999049421 1.5747727438
C 2.5662330081 -0.3652134659 0.6127830852
N 1.5096470221 0.1371845114 -0.0619600246
C 1.1639706887 1.3780194646 0.2896840021
N 1.7596077337 2.1376257506 1.2098793992
N 0.0890490535 1.9730031146 -0.3496959599
C -0.8071840688 1.4663932657 -1.2877940074
O -1.7063762465 2.1607934181 -1.7345338869
N -0.6107506267 0.1436319375 -1.6266783036
S -1.5198594385 -0.6510298300 -2.8115204539
O -1.4534973934 0.0793540099 -4.0810140328
O -1.0323798305 -2.0354167625 -2.7606252364
C -3.2110515463 -0.5336412033 -2.2027935859
C -4.1887532791 -0.3320328698 -3.1723449639
C -5.5203741785 -0.2210761945 -2.7885856582
C -5.8614415217 -0.2729759614 -1.4411686451
C -4.8753889161 -0.4472229905 -0.4770602493
C -3.5375980662 -0.6046408574 -0.8442822436
C -2.5589665156 -0.7813757685 0.2763802634
O -2.4176192272 0.0352867638 1.1631522436
O -1.9372375237 -1.9626056386 0.2198509361
C -1.0092816683 -2.2285625363 1.3073985734
N 2.9660754873 -1.6051655340 0.3100088755
C 2.3803645418 -2.4007436818 -0.7602615498
H 4.2104215344 3.0497775844 5.1232364706
H 5.8560187779 2.4031753610 4.9749230033
H 5.3111497698 3.6861470483 3.8773491769
H 5.3000416448 1.4515400158 2.7264404633
H 4.1996360209 0.8152402023 3.9707380050
H -0.1157707196 2.9210626240 -0.0607874867
H 0.2034265587 -0.3433339520 -1.2081216797
H -3.9071705458 -0.2475538844 -4.2155005012
H -6.2841237456 -0.0734447725 -3.5443291681
H -6.8968667748 -0.1676575010 -1.1354499724
H -5.1358504304 -0.4726433783 0.5759892541
H -0.2236956340 -1.4691419795 1.3167998905
H -0.5966694078 -3.2136764335 1.0956873681
H -1.5449032124 -2.2264621852 2.2591672228
H 3.7777389457 -1.9511091016 0.7973608975
H 2.8883466972 -3.3654607594 -0.7821899989
H 1.3126797506 -2.5692065141 -0.5880978955
H 2.5021015544 -1.9101867141 -1.7326018550
