59
CONF610
C 5.9015803892 2.1766567466 4.7062206968
C 5.4432073966 0.6913547399 4.6361110451
C 5.3511092755 0.3553800510 3.1342426437
C 5.1191376190 1.7138507389 2.4417067584
C 6.0588380456 2.6290092920 3.2414745626
C 3.6633102101 2.1629558767 2.5793476778
C 2.6976001944 1.3321459872 1.7771987942
O 1.5276297459 1.1923247889 2.1073170659
N 3.1763404642 0.7309032975 0.6091673064
C 4.4761773909 0.8945865924 0.1216339689
O 4.7990957845 0.4050366286 -0.9522764857
C 5.4378263587 1.7012582861 0.9535169202
C 2.2269155424 -0.0593788662 -0.1966786748
C 1.4685605454 0.8201734869 -1.1901778794
C 0.5316401652 0.0181011110 -2.0969989754
C -0.5685012065 -0.7037471211 -1.3189533394
N -1.5623522827 -1.3512506599 -2.1881335328
C -2.3331609733 -2.3408154684 -1.4217566463
C -3.3551194742 -3.0393170298 -2.3138248275
N -4.2538613060 -2.0526540855 -2.9151460123
C -3.5053100062 -1.0511556796 -3.6760432981
C -2.4820659861 -0.3659408110 -2.7743396612
C -5.4689027004 -1.7623592605 -2.3577149610
N -5.9582768035 -2.6285240247 -1.4366701721
C -7.1695904213 -2.3584768356 -0.9535081846
C -7.9171911850 -1.2537290126 -1.3443006195
C -7.3193456645 -0.4243811952 -2.2862417733
N -6.1115689953 -0.6527956582 -2.7985990365
H 6.8362896174 2.2934572984 5.2611014243
H 5.1491389438 2.7851769321 5.2173477920
H 6.1375041861 0.0209209832 5.1496750581
H 4.4685045127 0.5688241031 5.1183052012
H 4.5726080114 -0.3823574914 2.9101333400
H 6.3045901598 -0.0523659049 2.7773018190
H 5.8367528525 3.6903048148 3.0881733201
H 7.0851675015 2.4486063690 2.8982255417
H 3.3133487684 2.1444602258 3.6146029790
H 3.5624056845 3.1989059805 2.2235975550
H 5.4082951879 2.7276038080 0.5579912434
H 6.4398706284 1.3091980316 0.7553623076
H 1.5461883033 -0.5463538360 0.5029245221
H 2.8010451457 -0.8242749164 -0.7240883192
H 0.8927490158 1.5720129489 -0.6364733374
H 2.1967354310 1.3576075907 -1.8080084276
H 1.1065276503 -0.7194502316 -2.6717808046
H 0.0886247855 0.7095510467 -2.8213034989
H -1.0564919615 0.0053442156 -0.6194669480
H -0.1177624223 -1.4919728881 -0.7048592642
H -1.6420092178 -3.0876320585 -1.0139958140
H -2.8646912468 -1.8693723750 -0.5698261265
H -3.9296807367 -3.7651343892 -1.7403581319
H -2.8365771527 -3.5611717337 -3.1281067476
H -4.1892550142 -0.3179772653 -4.1006252474
H -1.9165993107 0.3557341687 -3.3721105373
H -3.0190171632 0.1965305971 -1.9831866632
H -7.5580538356 -3.0589657171 -0.2147156179
H -8.8990306761 -1.0487504116 -0.9367083562
H -7.8313256752 0.4680643450 -2.6453321389
H -2.9873262238 -1.5674204189 -4.4941009321
