27
CONF286
C -2.8455557029 0.6469552126 -0.3678205945
C -3.8262442757 -0.2773270716 0.3455697132
O -5.1206077781 0.2637253602 0.0689525957
C -1.3994183422 0.5670946444 0.0719695383
C -0.6773961876 -0.7676498998 -0.2538588852
C 0.8025201462 -0.9738509578 0.2389706922
C 1.8696008667 0.0843361501 -0.1922436597
C 3.3435686733 -0.4355330235 -0.0514922382
C 4.4141735600 0.7053101298 -0.0309618456
F 4.2104977695 1.5575344993 -1.0455659012
F 5.6296239418 0.1565068021 -0.1648123624
F 4.3774714854 1.3798250828 1.1226960654
F 3.6274496382 -1.2406594620 -1.0969151805
F 3.4767404574 -1.1359251331 1.0983361800
F 1.6717059619 0.4226681317 -1.4851354966
F 1.7294214993 1.1819577664 0.5863708396
F 0.7911437516 -1.0466845632 1.5866409790
F 1.1902567942 -2.1783991755 -0.2578802954
F -1.3787643950 -1.7780023690 0.3341321368
F -0.7162842009 -0.9552815778 -1.5951115468
F -1.2874001122 0.7804683234 1.4185615258
F -0.7029776395 1.5637452608 -0.5599153816
H -2.8895542533 0.5012043744 -1.4508889333
H -3.1450904743 1.6810623629 -0.1624258146
H -3.7443579281 -1.3040623475 -0.0316802236
H -3.6206245368 -0.2838085537 1.4255085678
H -5.7798991318 -0.3258335741 0.4489996367
