55
CONF535
C -1.0114354943 -2.3933709817 -2.0405829062
C 0.1852132137 -1.7225639626 -1.4024328934
O -0.2535860881 -0.6845666728 -0.4698958692
C -0.4344809586 0.5553150231 -0.9683305329
O -0.2358743141 0.8617713351 -2.1268485205
C -0.8536942070 1.5289526081 0.1356317476
C -1.8509419389 2.5534296707 -0.3983131463
C -3.1414009014 1.9262012722 -0.9522822382
C -3.8666912386 1.0862515040 0.0685976879
C -3.8710948396 -0.3082469522 -0.0190521063
C -4.5042527426 -1.0851281324 0.9495405112
C -5.1472603460 -0.4748437026 2.0233429839
C -5.1543810051 0.9164083418 2.1193547435
C -4.5191379615 1.6878409203 1.1505784110
N 0.3061813070 2.2308915060 0.7054073924
C 1.2933670516 1.3909853675 1.3804487685
C 2.1013840227 2.2393354524 2.3741093140
C 2.3079814146 0.7679144343 0.4186131434
O 2.7169603930 1.4424038673 -0.5557152815
N 2.8007742653 -0.4493688951 0.6822350630
C 2.3508052998 -1.3629359405 1.7587627880
C 3.1646948199 -2.6294846138 1.4972919101
C 4.4789463283 -2.0881373563 0.9295848786
C 4.0262557238 -0.9553407090 0.0137730690
C 3.7388225829 -1.4094404726 -1.4301775255
O 3.2987471250 -0.4466909690 -2.2416817904
O 3.9229721041 -2.5392268223 -1.8311809100
H -1.5793360057 -1.6813099683 -2.6461126894
H -0.6659680178 -3.2017413934 -2.6924819699
H -1.6710864666 -2.8204311335 -1.2796818130
H 0.7562669977 -2.4176701775 -0.7819248414
H -1.3142947144 0.9458448245 0.9416273918
H -2.0935460419 3.2340909771 0.4248793837
H -1.3696433973 3.1433787090 -1.1871257683
H -3.7934437803 2.7389226905 -1.2921290508
H -2.9085100710 1.3149239049 -1.8308464926
H -3.3711384327 -0.7897619725 -0.8554448271
H -4.4964524711 -2.1676615553 0.8626790795
H -5.6432212893 -1.0769617668 2.7783365990
H -5.6595868373 1.4009783570 2.9496291080
H -4.5304913412 2.7720997984 1.2307621446
H 0.7712728116 2.7752100338 -0.0188588619
H 1.4277488819 2.6577566572 3.1255817073
H 2.8651725608 1.6370915253 2.8761387082
H 2.5980596899 3.0596654726 1.8467836531
H 1.2722288148 -1.5277298473 1.6926430807
H 2.5916860069 -0.9341007897 2.7394376605
H 3.3009789891 -3.2178510097 2.4067552413
H 2.6610334712 -3.2532849329 0.7514837854
H 5.0971680957 -1.6726120332 1.7316223619
H 5.0572789436 -2.8355819302 0.3857446081
H 4.7577754322 -0.1390450176 -0.0485031722
H 0.8437972673 -1.2713562753 -2.1468405581
H 0.7565445442 0.6113629204 1.9284614012
H 3.1491034361 0.3948256830 -1.7057940569
