43
CONF23
C -0.3555060573 3.1413212319 1.6812320405
C -0.5773518642 2.1157524675 0.5698215476
C 0.0779917798 2.5656683090 -0.7348742729
C -0.0363252906 0.7455203309 1.0370322577
C -0.2328269654 -0.3689573933 0.0455853835
C 0.8664286574 -1.0448219587 -0.5244594981
C 0.6182179006 -2.0227909303 -1.4912786348
N -0.5990869846 -2.3678000952 -1.8983242518
C -1.6389382021 -1.7567648368 -1.3507776898
C -1.5129918440 -0.7548957980 -0.3832041477
C -2.7596262877 -0.0876191488 0.1172736334
O -3.5666962787 0.4391132665 -0.6219670864
O -2.8708955619 -0.1671594499 1.4420143094
C -4.0371927758 0.4894992648 2.0153034991
C -3.0136608620 -2.2126600088 -1.8171696987
F -3.7726294473 -2.5265656544 -0.7025906088
F -2.9180257257 -3.3488342301 -2.5630744363
C 1.7257804683 -2.7732110083 -2.2231533888
F 1.3230157735 -3.9971804248 -2.6094088414
F 2.0903530492 -2.1012298784 -3.3452614253
F 2.8354849934 -2.9389771479 -1.4751195665
C 2.2427542325 -0.7107996173 -0.0783902460
N 2.7243326816 -1.1155966411 1.0253817700
C 4.0490302117 -0.5388340553 1.2856136383
C 4.6869540620 -0.0735618104 -0.0336664337
S 3.2509197326 0.3558534123 -1.1064214803
H -0.8498507759 2.8339934603 2.6088030952
H 0.7153690657 3.2575695009 1.8861091213
H -0.7523144117 4.1180471380 1.3872475142
H -1.6584335640 2.0365162867 0.4007031633
H -0.3333856151 3.5275381276 -1.0564565639
H -0.0833695785 1.8423271143 -1.5421216255
H 1.1587606971 2.6836942164 -0.5980893831
H -0.5266435362 0.4714201442 1.9770501833
H 1.0286730114 0.8574152130 1.2530769196
H -4.0098827001 1.5557290333 1.7788635730
H -4.9481321159 0.0371500472 1.6181590130
H -3.9555274853 0.3261978878 3.0882106045
H -3.5555170426 -1.4574794113 -2.3947271352
H 3.9079447053 0.3076274343 1.9731590956
H 4.6872333112 -1.2733343197 1.7858663963
H 5.2519295593 -0.8721328185 -0.5222238898
H 5.3236370751 0.8032522528 0.0962538525
