33
CONF315
C 4.6375739225 -3.2686950272 0.1423273471
C 5.5386972270 -2.0376894124 -0.0262942981
C 4.8703929400 -0.9468754955 -0.8176382573
C 5.1984547122 -0.6476897131 -2.0799071340
C 3.8027158048 -0.1973667282 -0.1008652689
O 3.5894622738 -0.3015799761 1.0933922807
O 3.0927788981 0.6253021074 -0.9087622171
C 2.0659384932 1.4202354324 -0.2737570229
C 0.7933416810 0.5860277900 -0.1362803012
C -0.3253649698 1.4046820562 0.4596944385
C -1.6293188963 0.5855714004 0.7014117488
C -2.9019271607 1.4376259324 1.0235326945
C -4.0625258645 0.6315158153 1.6926557182
F -3.7599679918 0.3144303660 2.9567782961
F -5.1694040983 1.3885467603 1.6978529366
F -4.3126594430 -0.4924791255 1.0058345791
F -2.5843876575 2.4534373478 1.8593318623
F -3.3808120423 1.9554916603 -0.1306384623
F -1.8979348306 -0.1441648393 -0.4105801649
F -1.4034866963 -0.2733042861 1.7293180521
F -0.6503021512 2.4617690492 -0.3546624137
F 0.0560937696 1.9333807559 1.6652673330
H 5.1447755595 -4.0340247855 0.7372237704
H 4.3900760419 -3.6994207681 -0.8328999631
H 3.7038017212 -3.0076064144 0.6489881102
H 5.8135741447 -1.6506817711 0.9608961611
H 6.4615475842 -2.3231623212 -0.5397694651
H 4.6951458520 0.1351235777 -2.6350672385
H 5.9966920160 -1.1884832494 -2.5800863580
H 1.9117837256 2.2651357194 -0.9466852195
H 2.4213831737 1.7751809793 0.6958181665
H 0.4771826068 0.2245693528 -1.1182779320
H 0.9714225099 -0.2753147522 0.5144930428
