46
CONF110
C -0.6284970101 -0.8507572633 1.9554720970
C -0.9892482368 -1.8941407290 0.9252805582
C -2.4260322210 -2.3171492166 0.7257383763
C -1.7122723013 -1.4963090285 -0.3619510801
C -2.0381607676 -0.0871053577 -0.6371929854
O -2.5854699901 0.7072043866 0.1021350956
O -1.5939465619 0.2427446752 -1.8813879049
C -1.6928032802 1.6353706505 -2.2408704534
C -0.5933293229 2.4709498083 -1.6307773467
C 0.4446666488 1.8928954735 -0.9053259897
C 1.4467971345 2.7052896910 -0.3777747873
C 1.4286183295 4.0840857540 -0.5638119484
C 0.3833454738 4.6508221290 -1.2867037119
C -0.6245165510 3.8547931854 -1.8210509770
O 2.4640684108 2.2098110427 0.4148385203
C 2.8902711018 0.9003252494 0.2618427498
C 3.1555489614 0.3530492795 -0.9917812414
C 3.6535391005 -0.9443041268 -1.0694534297
C 3.8962509420 -1.6820704410 0.0884200467
C 3.6383109924 -1.1142360840 1.3338511807
C 3.1299929355 0.1786393454 1.4268403153
C -3.5184778339 -1.7546115081 1.5210671712
C -4.6109543192 -2.4211932089 1.8945277289
Cl -5.8585562560 -1.6858002772 2.8708885405
Cl -4.9468880458 -4.0817101131 1.4774184810
C 0.0636081825 -2.9675993238 0.7587799111
H 0.3385208823 -0.4051131051 1.6977374551
H -1.3607857684 -0.0477480202 2.0358346899
H -0.5272167883 -1.3307834935 2.9349043046
H -2.5586713318 -3.3540273369 0.4331574701
H -1.4225708371 -2.0582795389 -1.2431251773
H -2.6743648014 2.0248958434 -1.9536593604
H -1.6147859729 1.6440997074 -3.3317459386
H 0.4791813999 0.8214239841 -0.7472422996
H 2.2193579096 4.6925035431 -0.1382736995
H 0.3582832639 5.7259877565 -1.4339721255
H -1.4368345407 4.3057573217 -2.3836355908
H 2.9756679544 0.9346553005 -1.8897770557
H 3.8614262452 -1.3757072939 -2.0436602493
H 4.2857951170 -2.6923786387 0.0192071722
H 3.8251147788 -1.6802678865 2.2410973614
H 2.9189509768 0.6345900442 2.3885859362
H -3.4514836997 -0.7217926329 1.8416331683
H 0.2334516228 -3.4762798624 1.7141942494
H 1.0110267263 -2.5178041499 0.4399073757
H -0.2359273612 -3.7127255240 0.0168370149
