51
CONF58
C 0.3585360901 -0.3316317242 2.1529225527
C -0.4666077396 0.7665497124 1.5467433013
C -1.6716821655 0.5083791544 1.0106967032
C -2.5685149618 1.5038119249 0.3960593824
C -2.8516760792 1.4975301806 -1.1473419347
C -3.9323278065 1.1696196873 -0.1303388428
C -4.4943218654 -0.2291966158 -0.0112676411
C -4.9898370710 2.2457389842 0.0179504049
C -2.1237786337 0.5084394351 -1.9487435830
O -1.9993026949 -0.6817537456 -1.7282997199
O -1.5085152379 1.1268973305 -3.0020090791
C -0.5075810177 0.3292438420 -3.6833098783
C 0.7217989601 0.2222969236 -2.8411828742
C 1.7063261730 -0.8195245776 -2.8686728842
C 2.6293617967 -0.5155852179 -1.9140796135
O 2.2765688751 0.6529075149 -1.2890208800
C 1.1145521130 1.0901792911 -1.8708430280
C 3.8533805410 -1.1941311026 -1.4121228499
C 3.7004766440 -1.6639756880 0.0219789455
C 2.9326314549 -2.7954168777 0.3121779524
C 2.7714834164 -3.2245872777 1.6261659151
C 3.3724367569 -2.5226882193 2.6703823498
C 4.1343461293 -1.3914514404 2.3904032792
C 4.2969717508 -0.9654015881 1.0727761379
C 0.1778149555 2.1216384567 1.5817731173
H 1.3074859448 -0.4407224867 1.6108390730
H -0.1620439762 -1.2928057203 2.1334657189
H 0.6225823255 -0.0962186366 3.1921665917
H -2.0170775448 -0.5214922258 1.0270488075
H -2.4588394312 2.5209101941 0.7618572905
H -2.8991253817 2.4835109372 -1.5975328644
H -4.9366428852 -0.3574052467 0.9831067402
H -5.2886459994 -0.3693507754 -0.7526022518
H -3.7463547915 -1.0040589362 -0.1689703505
H -4.5569270878 3.2469586744 -0.0636212701
H -5.7583714358 2.1367889576 -0.7553148771
H -5.4755891925 2.1593325058 0.9963096652
H -0.3192056981 0.8665447087 -4.6167799425
H -0.9059020280 -0.6616733837 -3.9193091606
H 1.7188088851 -1.6885538461 -3.5109773654
H 0.6937843861 1.9994517140 -1.4711535350
H 4.7119782197 -0.5163239712 -1.4860893644
H 4.0474071713 -2.0477852748 -2.0685270917
H 2.4605100041 -3.3429487056 -0.4999004197
H 2.1761759554 -4.1081394704 1.8363363248
H 3.2463285889 -2.8562097101 3.6958071473
H 4.6052625147 -0.8384702731 3.1976740186
H 4.8958296184 -0.0843318843 0.8577949191
H 0.2975961623 2.4607541562 2.6188938214
H -0.3797949211 2.8808687412 1.0308308392
H 1.1882302029 2.0634812885 1.1575554974
