26
CONF319
C -2.3149948312 -1.3829431427 0.0161776861
C -1.5167479659 -0.7304096160 1.1412088332
C -0.2127151132 -0.0383982037 0.7021582880
C 0.7205663088 -0.9522668926 -0.0998698104
C 2.1628186546 -0.4486240544 -0.2992755325
C 2.3435439943 0.8675152711 -1.0545412638
O 2.0801258125 2.0040046523 -0.2270551053
O 2.8350772951 -0.3897371679 0.9653186707
O 0.7867911844 -2.2320844516 0.5395892678
O -0.5173303680 1.1053299288 -0.1297381783
O -2.3302029801 0.2410853047 1.8200290010
O -2.9155909960 -0.4109029796 -0.8531800409
H -1.6834623946 -2.0865653790 -0.5407295927
H -3.1455820736 -1.9454304473 0.4539726340
H -1.2541948936 -1.5059108228 1.8678089065
H 0.2990769475 0.3028776300 1.6160782640
H 0.2815033749 -1.1174289802 -1.0928064274
H 2.6630078010 -1.2352405275 -0.8797850697
H 1.7183570348 0.8712809817 -1.9583677010
H 3.3915783420 0.9473802125 -1.3595290616
H 2.7157733115 0.5174943981 1.2882127012
H 1.3853482332 -2.1235787902 1.2942826246
H -1.1075559587 1.6718130594 0.3907846701
H -2.9811772733 0.5546009485 1.1737036790
H 1.1115708598 2.0239861954 -0.1189153936
H -2.1977449795 0.1216198429 -1.2259437168
