63
CONF99
C 2.7818039485 -0.7019360005 -0.0027706916
C 1.9954592995 -0.2586614616 -1.2332844437
N 1.3222903505 1.0229084583 -0.9942385470
C 2.3169122769 2.0627324500 -0.7035280611
C 3.1121617158 1.7275495253 0.5541082762
C 3.7987073434 0.3739921620 0.3757884585
N 4.6058507480 -0.0011067822 1.5359440912
C 4.1881615053 -0.2316596017 2.8442899510
C 2.9400520148 -0.2002015978 3.4548447033
C 2.8768857875 -0.4895937549 4.8212042979
C 4.0224133398 -0.8013021159 5.5555181925
C 5.2795016410 -0.8358159507 4.9469723537
C 5.3407123665 -0.5487753043 3.5934947080
N 6.4103402898 -0.5005280000 2.7189875978
C 5.9875287126 -0.1646958203 1.4465616535
O 6.6854700627 -0.0358792457 0.4423768091
C 0.5068486180 1.4267684626 -2.1481535710
C -0.6702007887 0.4965099322 -2.4391161386
C -1.5704382770 0.2719506994 -1.2266598570
C -2.7811811667 -0.6311050728 -1.5229472863
C -3.5236937519 -0.9378564918 -0.2308558518
C -3.3180557150 -2.1549003984 0.4235589254
C -3.9434404121 -2.4398270180 1.6360103680
C -4.7770918715 -1.4796885814 2.1805386100
C -5.0099586708 -0.2593305329 1.5690396019
C -4.3759955920 0.0011600567 0.3576478453
F -5.3970951629 -1.7453829630 3.3629617085
C -3.7238110872 -0.0994914547 -2.5882420275
C -4.4272105707 -1.0093650355 -3.3844384221
C -5.3423246907 -0.5836571087 -4.3426710850
C -5.5406199584 0.7780803754 -4.4927849345
C -4.8654570951 1.7170062694 -3.7338858604
C -3.9550110723 1.2653061024 -2.7806832950
F -6.4296527450 1.2109102426 -5.4279222002
H 3.2984832647 -1.6442439912 -0.2157968716
H 2.0851880125 -0.8806678328 0.8235629807
H 1.2469699729 -1.0211773203 -1.4691741048
H 2.6799501120 -0.1877933714 -2.1046504583
H 3.0155743684 2.1924463750 -1.5565344358
H 1.7937516351 3.0158519463 -0.5658188348
H 2.4333999383 1.7044720656 1.4135118547
H 3.8623830084 2.5047607592 0.7369021822
H 4.5206734824 0.4631247200 -0.4453942501
H 2.0383714350 0.0389288083 2.9056276545
H 1.9117073490 -0.4696040390 5.3166767528
H 3.9388670820 -1.0204874413 6.6149010173
H 6.1759658397 -1.0772341324 5.5081358974
H 7.3765749792 -0.6759503565 2.9449252117
H 1.1309463170 1.5174648263 -3.0602921612
H 0.1134072088 2.4285643325 -1.9302158038
H -1.2457020135 0.9493254501 -3.2550935974
H -0.3206863970 -0.4717487932 -2.8189813158
H -0.9932757201 -0.2041365734 -0.4266558876
H -1.9074885683 1.2352247970 -0.8205371912
H -2.3870506510 -1.5852842034 -1.8953748060
H -2.6575259581 -2.8957856026 -0.0182239692
H -3.7907479494 -3.3847648747 2.1463610536
H -5.6735836840 0.4644069104 2.0300938341
H -4.5561458514 0.9521543952 -0.1344702575
H -4.2588235586 -2.0747218285 -3.2510765915
H -5.8870887413 -1.2878381396 -4.9623775931
H -5.0452329406 2.7755215808 -3.8886155604
H -3.4187199884 2.0001146051 -2.1890797387
