45
CONF5
C -1.9926430843 -3.7985095701 -0.7259442228
O -2.4948523855 -2.4598320967 -0.5354403612
C -1.6424873922 -1.4995814988 -0.9563917957
O -0.5721851226 -1.7050555151 -1.4976912831
N -2.1267070478 -0.2421741333 -0.6853975928
C -1.5343130881 0.9626887891 -1.1436265596
C -1.1875271305 1.1012418065 -2.4878257048
C -0.6302057992 2.2894091993 -2.9387000106
C -0.4458773888 3.3477922318 -2.0530658468
C -0.8019791355 3.2064167897 -0.7175110320
C -1.3363323190 2.0113527758 -0.2374929761
C -1.6589871340 1.8613718732 1.2285266743
O -0.7033810406 2.5603991722 2.0548970063
C 0.5165749638 1.9869344065 2.1065506031
N 0.7932091033 0.8354500955 1.5120521739
N 2.0986124943 0.6037556253 1.8148825428
C 2.6248839462 1.6027564397 2.5806042656
C 1.6267625984 2.5240022266 2.7966505356
C 2.7389616513 -0.5380845991 1.2935432266
C 2.1863287685 -1.1837638677 0.1864420727
C 2.8011256848 -2.3139151417 -0.3325399835
C 3.9734910915 -2.7839685526 0.2474698712
C 4.5332731095 -2.1480259759 1.3490626747
C 3.9073217433 -1.0274013638 1.8803187756
Cl 4.7572480470 -4.2095385877 -0.4118791615
O -3.3693316886 -0.1084853431 -0.0456425517
C -4.4215555149 -0.0118160244 -1.0236522884
H -2.7708694265 -4.4522691039 -0.3326149355
H -1.8194250081 -3.9976666448 -1.7866705257
H -1.0586531094 -3.9371836368 -0.1752543292
H -1.3374698052 0.2653584978 -3.1614576187
H -0.3507305261 2.3912904312 -3.9820506851
H -0.0197607209 4.2826328983 -2.4020850574
H -0.6343320255 4.0192192921 -0.0183004941
H -1.6910404504 0.8070033409 1.5145114545
H -2.6198291120 2.3237085798 1.4711408470
H 3.6597569945 1.6047907035 2.8852265699
H 1.6810039245 3.4443150829 3.3547409543
H 1.2773448496 -0.8099127956 -0.2670238374
H 2.3673044582 -2.8144945112 -1.1903018898
H 5.4388917625 -2.5345270181 1.8013916590
H 4.3240736153 -0.5579721891 2.7641200269
H -4.2604888198 0.8494325852 -1.6835147320
H -4.4900580155 -0.9367610327 -1.6074898781
H -5.3351463829 0.1304771634 -0.4425670037
