48
CONF5
C 3.9576043153 -4.9898041128 -1.1377207659
O 4.4590719497 -3.6487341173 -1.2275686337
C 3.5517625213 -2.6359318468 -1.2389800480
C 4.0838241000 -1.3427121231 -1.3282845882
C 3.2432438344 -0.2445959008 -1.3479383507
C 1.8503769761 -0.3995070713 -1.2645511416
C 1.3345250077 -1.6982771308 -1.1947842404
C 2.1658014480 -2.8124499418 -1.1786396617
C 0.9372959028 0.7483415161 -1.2549800967
Cl 1.3145273056 1.9577360507 -2.5154078772
C -0.1118647381 0.9538406133 -0.4251212672
C -1.1326398455 2.0052088574 -0.6221264651
C -1.8248292164 2.1466444707 -1.8273084144
C -2.8151752954 3.1111990096 -1.9914191509
C -3.1240834860 3.9661772864 -0.9294943965
O -4.0649986229 4.9491271737 -0.9786442387
C -4.7801242360 5.1231145889 -2.2092269943
C -2.4489877447 3.8307560791 0.2903790172
C -1.4782503411 2.8559218334 0.4396291186
C -0.2763378779 0.1149667841 0.7868504262
C -1.5372833609 -0.4032559415 1.1215063363
C -1.7147505910 -1.1844592428 2.2502605351
C -0.6299864508 -1.4545587715 3.0941975787
O -0.9028288007 -2.2287423051 4.1806950521
C 0.1801385340 -2.5268236124 5.0718017099
C 0.6288126441 -0.9245524241 2.7947769742
C 0.7902621790 -0.1503934525 1.6499873563
H 4.8374930524 -5.6333484082 -1.1330767010
H 3.3888891420 -5.1337852982 -0.2118275811
H 3.3277782141 -5.2314430957 -2.0016485868
H 5.1608378256 -1.2200861412 -1.3807251698
H 3.6710170155 0.7505088755 -1.4151327380
H 0.2595475194 -1.8398900090 -1.1501252444
H 1.7248403446 -3.8003995078 -1.1303090720
H -1.5992833132 1.4806096665 -2.6539936817
H -3.3361278390 3.1787431991 -2.9385774866
H -5.3515318118 4.2224154610 -2.4622737086
H -5.4637907652 5.9548456621 -2.0377697122
H -4.0958112984 5.3704353132 -3.0291412731
H -2.7027888225 4.4965738683 1.1090456813
H -0.9683996873 2.7516215536 1.3928832693
H -2.3865909483 -0.1971334579 0.4768243377
H -2.6888622207 -1.5942917320 2.4976769988
H -0.2463250300 -3.1547894109 5.8543808841
H 0.9764738969 -3.0734288218 4.5531399171
H 0.5874710328 -1.6108658014 5.5155610918
H 1.4804336603 -1.0961115782 3.4415776603
H 1.7696236153 0.2615831986 1.4277208678
