44
CONF129
C -4.0387600184 -3.4325127877 -1.4858642294
S -3.5503960113 -1.8198489694 -2.1250521109
O -4.4396578742 -0.7809656774 -1.5575244849
O -3.4546325398 -1.9239060133 -3.5952413768
C -1.8513872333 -1.5829884184 -1.4925386195
C -1.5721141690 -1.3187016303 -0.1419354618
C -0.2151564230 -1.2009939701 0.1887575694
C 0.8037549775 -1.2836707723 -0.7584737749
C 0.4735270438 -1.5586977714 -2.0843900709
C -0.8524484264 -1.7170568309 -2.4523332598
C 2.2526713723 -1.0497636081 -0.4468001863
O 3.0981382025 -1.8530039255 -0.7805248962
C 2.6300730338 0.2985755201 0.1237850840
C 3.1753637051 1.2116401112 -0.9934008861
O 3.1656938802 0.8686137862 -2.1561061676
C 3.7005074904 2.5452089620 -0.5239395922
C 3.5335084765 2.7767753383 0.9765483091
C 4.1073731966 1.6029186468 1.7678059107
C 3.5844843739 0.2563961657 1.3269134500
O 3.8773858094 -0.7809201687 1.8788666436
Cl 0.2526666813 -1.0130048016 1.8692051378
C -2.6171190616 -1.1240432332 0.9359422033
O -2.5712713488 0.1972505865 1.4962829825
C -2.9939085716 1.2403124986 0.6313025339
C -1.8834170150 2.2646822107 0.5039671817
F -1.4689834556 2.7233703684 1.7075146739
F -2.3096431196 3.3311814214 -0.2135896223
F -0.7862526807 1.7716977508 -0.1243497376
H -5.0442200322 -3.6150403490 -1.8760683783
H -3.3299552597 -4.1729924709 -1.8626512364
H -4.0446978730 -3.4062790642 -0.3944012793
H 1.2643868938 -1.6340096024 -2.8228264172
H -1.1144034063 -1.9313359227 -3.4810614636
H 1.7469301539 0.8477390021 0.4883771266
H 4.7641067353 2.5629537812 -0.8014159888
H 3.2123551611 3.3224825239 -1.1222388500
H 2.4742284629 2.9169497234 1.2215181223
H 4.0466426426 3.6979823141 1.2636576923
H 3.9181112449 1.6954519460 2.8428490890
H 5.1991611902 1.5557201510 1.6485825563
H -3.6222522948 -1.3347531894 0.5680483212
H -2.4050952989 -1.7933404691 1.7739239253
H -3.2502141656 0.8900080822 -0.3740158377
H -3.8650833537 1.7499192530 1.0613727067
