41
CONF2
C 3.5584998447 3.0944212945 -3.7886829483
C 3.0272637183 2.1814691969 -2.7355971523
N 2.1093031034 1.2792442482 -3.1201506170
C 1.6806099137 0.4725319147 -2.1445222870
N 2.0880318354 0.5036733788 -0.8700935033
C 2.9965188587 1.4440446778 -0.6092354308
N 3.5059682092 2.3106490180 -1.4929336410
O 3.4693065835 1.5703959604 0.6240658762
C 2.9645674867 0.6607063771 1.6370254603
N 0.7337279521 -0.4559703076 -2.5230101922
C 0.0411953010 -1.4251117754 -1.7923726548
O -0.8192891125 -2.1017991186 -2.3316324534
N 0.4130818613 -1.5520876033 -0.4717002425
S -0.4965633792 -2.4768852142 0.6304597182
O 0.0891029570 -2.1325386729 1.9328422271
O -0.5098998181 -3.8660783651 0.1713692928
C -2.1778303019 -1.8446407669 0.5674001030
C -3.1346083669 -2.6243865045 -0.0710517453
C -4.4672277229 -2.2247466464 -0.0426267303
C -4.8326656982 -1.0698101312 0.6399651895
C -3.8700291774 -0.3033152826 1.2906201959
C -2.5257047047 -0.6727270484 1.2513336388
C -1.5165448964 0.2489003317 1.8589004351
O -0.6050867700 0.7561935198 1.2367205714
O -1.7899457449 0.4887987063 3.1435912081
C -0.8941539757 1.4225911443 3.8070710436
H 2.7374850892 3.4929898215 -4.3900222840
H 4.2057987666 2.5225170947 -4.4635399627
H 4.1355301794 3.9057435322 -3.3457743588
H 3.4802731264 0.9511005873 2.5511137200
H 3.2073118916 -0.3713886075 1.3714283036
H 1.8838641416 0.7797384057 1.7473924910
H 0.4580270624 -0.4142249953 -3.4962095296
H 1.0069404691 -0.8117291547 -0.0731964014
H -2.8384241079 -3.5369207993 -0.5735148011
H -5.2166738434 -2.8261146999 -0.5454747283
H -5.8724880235 -0.7623507051 0.6726725100
H -4.1548974149 0.5983541453 1.8220768783
H 0.1273509224 1.0367676798 3.7787203538
H -1.2566110219 1.4861519363 4.8315219548
H -0.9411156801 2.3964837185 3.3150505720
