45
CONF9
C 5.4469454091 -1.2291150746 -1.0045142582
C 4.4387744654 -1.3673596292 0.1344348021
C 3.0067101239 -1.0865184084 -0.3175888206
C 2.0046839225 -1.2522524168 0.8271985237
N 0.6273269945 -0.9346931875 0.4623503026
C 0.2039007620 0.3415034450 0.2205578145
C -1.0601043960 0.5556965487 -0.3792577811
C -1.5230636347 1.8421469553 -0.6293825221
C -0.7815477350 2.9664829514 -0.2907865127
C 0.4550361377 2.7657003435 0.3269164541
C 0.9410488932 1.4827281203 0.5739258123
C 1.3117686208 3.9097005782 0.7293041855
O 2.3955226312 3.7989796529 1.2703604346
O 0.7610326358 5.1048425308 0.4326477000
S -3.1412915281 2.0650323378 -1.3949778710
O -4.1362156711 1.3311686816 -0.6003824881
O -3.3066079430 3.5048281421 -1.6376670422
N -3.1066801746 1.3318183157 -2.9054923869
O -1.7913031050 -0.5277404211 -0.8173013835
C -2.4640393483 -1.3045923675 0.1269018211
C -3.0068480087 -2.4919827892 -0.3514747537
C -3.7075803329 -3.3129394969 0.5258584798
C -3.8572950734 -2.9526328226 1.8643865972
C -3.3042707174 -1.7588551237 2.3205566730
C -2.6043521993 -0.9212306980 1.4548734292
H 6.4666407295 -1.4285864746 -0.6607880044
H 5.2204307584 -1.9315297698 -1.8141067613
H 5.4240713153 -0.2171777795 -1.4236165327
H 4.7012221679 -0.6761670939 0.9461865345
H 4.4932708124 -2.3791187618 0.5576342409
H 2.7311777401 -1.7686401979 -1.1326001136
H 2.9423427392 -0.0675877796 -0.7211064473
H 2.2991690024 -0.6344342877 1.6843100491
H 2.0110314730 -2.2899125097 1.1775464262
H 0.1340929328 -1.6581898707 -0.0400826377
H -1.1628356119 3.9567743181 -0.4970333225
H 1.9155032985 1.3850154626 1.0355570411
H 1.3762162623 5.7961313758 0.7292274535
H -2.9289836321 0.3324742754 -2.8150792058
H -2.4038951734 1.7657818826 -3.5019267098
H -2.8789465539 -2.7568453208 -1.3959095079
H -4.1366802688 -4.2398113024 0.1585272218
H -4.4026884652 -3.5968832564 2.5457764210
H -3.4184313306 -1.4668007378 3.3597362839
H -2.1842586282 0.0147918829 1.8071613459
