70
CONF189
C -2.7908881791 0.3959051439 -0.8841007322
C -4.2741602624 0.1221371100 -0.5303917861
C -4.4431748737 -1.3100141081 -0.1390661569
C -5.4857185557 -2.2040777995 -0.1735050275
N -5.0477744848 -3.4356940628 0.3056470983
C -3.7157576161 -3.3517044469 0.6413041133
C -2.7838043240 -4.2659084941 1.1390686639
C -1.4883860936 -3.7924225880 1.3336205587
C -1.1071996117 -2.4605755274 1.0512889796
C -2.0366990868 -1.5474057416 0.5653958820
C -3.3301353011 -2.0237512590 0.3692155292
C -1.8230778306 -0.0832366961 0.2414509399
C -0.3685634159 0.2138222942 -0.1123001068
C -0.1938899372 1.6952871154 -0.4563678523
C -1.1670154064 2.0634527136 -1.5656861525
N -2.5535257984 1.8351574646 -1.1291276820
C -3.4660897570 2.3988894340 -2.1409848300
C -3.3052219997 3.8830118166 -2.2766258205
C -3.2059700946 4.5294718368 -3.4356126618
C 1.2363762130 1.9987522247 -0.8744898251
O 1.5097650664 2.3616294978 -2.0190069790
N 2.2483038756 1.7742865134 0.0386042637
C 3.6384795898 1.9723645258 -0.4377514631
C 4.1735119840 0.8859359673 -1.3817760808
C 4.8499782706 -0.3074884107 -0.7108891963
N 3.9721081099 -1.0998539434 0.1643141711
C 4.7590261777 -2.0661127780 0.9382519733
C 2.9215396447 -1.7937299106 -0.5860011612
C 1.9990552514 1.6119610289 1.4539286593
O 1.1818761754 2.3132813919 2.0499312364
N 2.7675013072 0.6671514121 2.0130233258
C 2.6390453272 0.3287430024 3.4257664446
C 1.5022758068 -0.6597432615 3.6791920397
H -2.5489255616 -0.1919501386 -1.7960351729
H -4.5636076044 0.7968262625 0.2888702386
H -4.9205305868 0.3503397001 -1.3814053318
H -6.5099178153 -2.0839320213 -0.4990148430
H -5.6220669154 -4.2594922211 0.3768778248
H -3.0443670385 -5.2957054892 1.3617002414
H -0.7358982274 -4.4758968403 1.7159268090
H -0.0763302566 -2.1703568909 1.2264485499
H -2.0793129407 0.5045209974 1.1386494849
H 0.2767716038 -0.0724356469 0.7237659369
H -0.0738035328 -0.3967253924 -0.9774166616
H -0.4323541694 2.2899725780 0.4300458932
H -1.0531875160 3.1205850753 -1.8206097945
H -0.9360855115 1.4824566460 -2.4794749601
H -3.3417886511 1.9131746068 -3.1288894009
H -4.4963084200 2.2209124729 -1.8164519108
H -3.3138318288 4.4406063004 -1.3393345848
H -3.1854549764 3.9920502256 -4.3811257171
H -3.1450867825 5.6127556146 -3.4765939423
H 4.2765943367 2.0596666964 0.4459252337
H 3.6570318100 2.9336711810 -0.9601194046
H 3.3791793735 0.5684403943 -2.0627652969
H 4.9359148857 1.3557317580 -2.0145636788
H 5.6764028903 0.0626630332 -0.0902294777
H 5.2958652784 -0.9520268376 -1.4923593560
H 4.0968590985 -2.6191366164 1.6128205414
H 5.5067072748 -1.5372589997 1.5383031071
H 5.2798648324 -2.7921921387 0.2891505242
H 2.3053072089 -1.0765570460 -1.1334512630
H 3.3400435975 -2.5184171174 -1.3071099691
H 2.2730409494 -2.3331647570 0.1124442348
H 3.2461182870 -0.0047595923 1.3688721509
H 3.5935087796 -0.1001251585 3.7499086852
H 2.4762200728 1.2507294194 3.9924953874
H 1.4442034469 -0.9105083295 4.7430460310
H 1.6635498493 -1.5839337039 3.1144168306
H 0.5438830807 -0.2300497966 3.3709634102
