43
CONF36
C 3.8106942246 3.4573438484 -4.0980288457
O 3.3332633668 3.1712360459 -2.7780682225
C 3.1537836554 1.8627681797 -2.4299367967
C 2.6795547365 1.6567589859 -1.1329346841
C 2.4812852002 0.3385106935 -0.7500933096
C 2.7396250042 -0.7623842086 -1.6057907795
C 3.2171746763 -0.5304001587 -2.8936815384
C 3.4208921516 0.7831980073 -3.2996060966
N 2.4499470797 -1.9564523164 -0.9527643041
C 2.0213951040 -1.5729353887 0.2217341157
N 2.0331804129 -0.2222037558 0.4260601402
S 1.4760711565 -2.6681290263 1.5503439431
O 1.2966509684 -1.7404522066 2.7501298569
C -0.2422336183 -3.0261328224 0.8365017950
C -1.0588492355 -1.7859720632 0.7023981467
N -0.9266464978 -1.1354041742 -0.4641022913
C -1.5887647435 0.0109464060 -0.6280348418
C -2.4298849781 0.5723301842 0.3306610475
C -3.1378382309 1.8723817238 0.1010436681
C -2.5765373523 -0.1399454140 1.5250609114
O -3.3876325007 0.3888908139 2.5017941984
C -4.7012830026 -0.2084946861 2.5430651159
C -1.8775595829 -1.3321445695 1.7516470519
C -2.0160356134 -2.0806026308 3.0470542012
H 3.1123036980 3.0906455759 -4.8594245626
H 3.8763261370 4.5442038187 -4.1565641880
H 4.8027158994 3.0210058053 -4.2637725281
H 2.4797062308 2.4973340941 -0.4780658355
H 3.4235321347 -1.3548667315 -3.5681684429
H 3.7895821707 0.9690116974 -4.3002164232
H 1.7233129672 0.2444486556 1.2669576957
H -0.0359743081 -3.4871042271 -0.1333631503
H -0.6591699278 -3.7649160811 1.5244407297
H -1.4533812076 0.5181221257 -1.5832525799
H -4.2230707978 1.7558837094 0.1836408170
H -2.9054152216 2.2630097419 -0.8922211011
H -2.8388337522 2.6150913567 0.8476933802
H -5.2411850901 0.2934886874 3.3473029654
H -5.2220669347 -0.0530384607 1.5909817501
H -4.6380053652 -1.2820268577 2.7534676610
H -2.4615308649 -1.4429875047 3.8122521058
H -2.6565912851 -2.9621370541 2.9230538868
H -1.0425081653 -2.4178792258 3.4065326202
