14
CONF5
C 0.8607196879 0.5976107177 0.3112801544
C -0.2744287540 0.8189998056 -0.6708088123
C -1.5524450879 0.1587637649 -0.2277836909
O -1.7605701097 -0.3011642776 0.8761340194
O -2.4757826547 0.1560802464 -1.2116155101
C 1.2610243375 -0.8502381896 0.4070509031
O 0.8901578285 -1.7333972349 -0.3386211996
O 2.1198124284 -1.0600865628 1.4262409148
H 1.7475850705 1.1604989722 -0.0034597348
H 0.6049380654 0.9577370530 1.3120741235
H -0.0191911079 0.4565820029 -1.6707427639
H -0.4814319247 1.8911727705 -0.7721618845
H -3.2878276089 -0.2519687277 -0.8654062302
H 2.3674398349 -2.0005903669 1.4278194042
