42
CONF20
C -2.8504419197 -1.4200730614 1.6861130610
C -2.3740135088 -0.7373255589 0.4516586210
C -3.1330736425 -0.0808780725 -0.4675290665
C -2.2607179854 0.4825963961 -1.4939418550
C -0.9186168544 0.1629712326 -1.1719646266
C -0.9524138908 -0.5934071058 0.0943344387
C 0.0447631655 -1.1029299621 0.8570078744
C 1.4835598370 -0.8873956432 0.7517666958
C 2.3656624109 -1.9481157798 1.0099643071
C 3.7413817953 -1.7690335844 0.9467331720
C 4.2418887449 -0.5061916824 0.6629394097
C 3.3939389252 0.5712692245 0.4196916241
C 2.0216308339 0.3804344450 0.4748052086
S 6.0537725409 -0.3060040178 0.5516847786
O 6.6592664031 -1.6855173659 0.7127880540
C 6.2415446391 0.5291962518 2.1909088632
C 0.0948813721 0.4736615242 -2.0680496857
C -0.2088785961 1.1613532947 -3.2461646565
C -1.5256918925 1.5077037412 -3.4995401581
C -2.5775310083 1.1758740159 -2.6544478350
F -1.8088290044 2.1873921420 -4.6345782250
C -4.6110315267 0.1060451996 -0.4551654212
C -5.0601789897 1.2340103883 0.4568191534
O -4.4736849136 1.6321983174 1.4308458408
O -6.2628635216 1.7276802291 0.0585011311
H -2.5142103404 -0.8847596713 2.5813970587
H -3.9408199427 -1.4576606734 1.7251795880
H -2.4726929215 -2.4471520923 1.7512283989
H -0.2551536996 -1.7543162876 1.6768986369
H 1.9608810533 -2.9287824195 1.2434519637
H 4.4354557838 -2.5874050037 1.1137049385
H 3.7976329017 1.5558402762 0.1975731234
H 1.3500030279 1.2181984196 0.3206352263
H 7.3094767409 0.7148662899 2.3269815781
H 5.6853661052 1.4704933661 2.1909817983
H 5.8651863015 -0.1512347704 2.9585926466
H 1.1224342582 0.1891664563 -1.8757824070
H 0.5607026751 1.4252859401 -3.9618683893
H -3.5919915882 1.4463515630 -2.9261919679
H -5.1197172905 -0.7941842315 -0.0856411386
H -5.0059827698 0.2822845846 -1.4594644506
H -6.5108940208 2.4074941780 0.7051943847
