48
CONF2
C -2.9828608728 0.6825834601 3.1700521576
O -4.0487209733 0.5575138073 2.2235297069
C -3.7761887950 -0.0812867930 1.0549891917
C -4.8702459341 -0.1628221502 0.1581309032
C -4.7210522000 -0.7796642434 -1.0527632519
C -3.4780473990 -1.3436401611 -1.4375915542
N -3.3977584879 -1.9355432251 -2.6601263141
C -2.2366214504 -2.4565565140 -3.0064706227
C -1.0906066550 -2.4357405658 -2.1889486498
C -1.1414645056 -1.8418998833 -0.9475452785
C 0.0828201721 -1.7829825516 -0.0568699314
O 1.0552747949 -2.7654009597 -0.4229864831
C 0.7114638096 -0.3775774153 -0.1283898917
C 1.4915377075 -0.1068639171 -1.4411439169
C 2.7115729232 0.7566427662 -1.0879455169
C 3.6716014994 -0.0982547773 -0.2500616622
C 2.8796203399 -0.6710460219 0.9593054285
N 1.5349338519 -0.0621183573 1.0616511561
C 1.7062428599 1.4009803984 1.1027433542
C 2.2165487357 1.9710878564 -0.2636097970
C 3.2531784846 3.0266638745 -0.0655484127
C 3.1405796028 4.2922622648 -0.4680316457
C -2.3752948235 -1.2630366854 -0.5313226136
C -2.5508130496 -0.6218369856 0.7215587956
H -3.4009389022 1.2268748018 4.0170355720
H -2.6328013158 -0.3029538189 3.5003411876
H -2.1441237400 1.2476187763 2.7448195347
H -5.8174787347 0.2730712045 0.4583692042
H -5.5488076317 -0.8507206932 -1.7506975474
H -2.1851533267 -2.9247101079 -3.9889591127
H -0.1682896529 -2.8848527633 -2.5403232962
H -0.2208921667 -1.9467025520 0.9873123418
H 0.6594871571 -3.6337830805 -0.2788493351
H -0.1359463440 0.3169929551 -0.0765833131
H 0.8483266113 0.4032556721 -2.1662093849
H 1.8294574247 -1.0437920145 -1.8955561541
H 3.2052375172 1.1076711061 -2.0000610098
H 4.5272772685 0.4982160668 0.0839506595
H 4.0684885460 -0.9101627287 -0.8693561300
H 3.4029875150 -0.4694843117 1.9008862769
H 2.7581265242 -1.7518423986 0.8722718818
H 2.4251389357 1.6284779105 1.8994039978
H 0.7537608669 1.8725552873 1.3731394563
H 1.3746259971 2.4199556134 -0.8072850921
H 4.1555100654 2.7209685869 0.4666479897
H 3.9260204742 5.0191355788 -0.2849829906
H 2.2543921074 4.6393254183 -0.9947380967
H -1.7201063236 -0.5565782373 1.4112581106
