78
CONF246
C -1.0106366709 0.0076840457 -1.9751845567
C -0.4167106783 0.1119772637 -3.3740027917
O -1.1701641646 -0.8843031985 -4.1450671435
C -1.7154096812 -1.8173031395 -3.3177697631
O -2.3223732651 -2.7661012391 -3.7550629651
C -1.3606252385 -1.4703299375 -1.8933904851
C -2.3418249197 -1.7664731099 -0.7561933399
C -3.7700938184 -1.3254743657 -1.0587821489
C -4.6430680667 -2.2299863486 -1.6653977077
C -5.9385822633 -1.8298067988 -1.9836424703
O -6.8871787055 -2.6165117130 -2.5782819228
C -6.5029087628 -3.9466270489 -2.9495195442
C -6.3796621485 -0.5325758696 -1.6973272801
O -7.6491749764 -0.1288732928 -1.9992624802
C -5.5062532464 0.3660266812 -1.0755112170
O -6.0249472743 1.6026781976 -0.8214499593
C -5.1596663775 2.5544201431 -0.1923673779
C -4.2076291426 -0.0344153706 -0.7551043070
C -1.8158174246 -1.0985675463 0.5099333399
C -2.4070220762 -1.5033310292 1.7241959955
C -2.0457082596 -0.8407883480 2.8707952351
C -1.1409132389 0.2152115688 2.8527327146
O -0.9733908208 0.7128749225 4.1176411272
C -1.8139092846 -0.0867061223 4.9783536368
O -2.4878268485 -1.0579781220 4.1461180632
C -0.5518135355 0.6343977786 1.6876706444
C -0.8833867106 -0.0490708762 0.4946398980
C -0.1745629729 0.3889150024 -0.7727368391
O 1.1112634289 -0.2817533248 -0.9639158673
C 2.0001044725 -0.2709322859 0.1006916887
O 2.4353699939 1.0777430657 0.3229365425
C 3.3330395017 1.1108239162 1.4295703281
C 3.7335584979 2.5445092929 1.7243597623
O 4.7216367519 2.5270496456 2.7739719734
C 5.8558763597 1.7282464990 2.4896493173
O 5.5097809084 0.3830285613 2.1645448931
C 4.5874296730 0.3283855861 1.0646869516
C 4.2608209545 -1.1252694635 0.7745750458
O 5.3978383582 -1.8319221086 0.2837431827
C 3.1757314167 -1.1754818034 -0.2944940564
O 2.7366772661 -2.5244849464 -0.4130073513
C 6.7329837415 2.3534364808 1.4336948552
C 6.8297787821 3.6723824513 1.0795437456
C 7.8451045539 3.9188403729 0.1152418743
C 8.5206587487 2.7864297643 -0.2470252472
S 7.9159322367 1.3934231662 0.5885191198
H -1.9356079217 0.5958643981 -1.9415546603
H 0.6397995138 -0.1675241512 -3.4060135268
H -0.5710269953 1.0767817565 -3.8586472500
H -0.4327615213 -2.0310431579 -1.6936023439
H -2.3630918541 -2.8498535840 -0.5914537661
H -4.3009431627 -3.2306054479 -1.8951736547
H -5.6678806107 -3.9263202584 -3.6592021105
H -7.3805117499 -4.3865496373 -3.4235067991
H -6.2260062261 -4.5332115036 -2.0661328761
H -8.1007721095 -0.8757162770 -2.4198799686
H -5.7496399830 3.4655783462 -0.0888317063
H -4.8428530520 2.2062533610 0.7982495294
H -4.2771754784 2.7546770431 -0.8120755562
H -3.5418850927 0.6480312387 -0.2421213402
H -3.1444906280 -2.2993244390 1.7403061250
H -2.5597274819 0.5569911976 5.4563322176
H -1.1891720978 -0.6098132404 5.7102701072
H 0.1541672612 1.4583906767 1.6721567876
H 0.0140758744 1.4682272873 -0.7356389554
H 1.5353818176 -0.6531735105 1.0267510633
H 2.8630970008 0.6660149415 2.3229359937
H 2.8960192039 3.1317188657 2.1078240615
H 4.1264832334 3.0178408839 0.8142939472
H 6.3944576745 1.6536802704 3.4405033425
H 5.0398293358 0.7815614528 0.1679008901
H 3.8769453163 -1.5991946417 1.6932215573
H 6.0678306784 -1.8201317996 0.9799735073
H 3.5914846622 -0.8068378453 -1.2455852162
H 2.1000349501 -2.5559124204 -1.1394677838
H 6.1897848677 4.4391397145 1.4998782235
H 8.0637804885 4.8976165438 -0.2954687492
H 9.3280492353 2.6808989588 -0.9595542985
