34
CONF124
C -4.1936164528 -1.1121026594 1.0856980976
C -2.9398923449 -1.9523300132 1.0429258263
O -1.7368330069 -1.1207984729 0.8671259818
P -1.3933361683 -0.4353152281 -0.5223544650
S -1.8449651170 -1.3465557490 -2.1716773115
O -1.9107811591 1.0570660225 -0.3352285118
C -2.1333113172 2.0010378249 -1.4418477629
C -3.5188238130 2.5790698005 -1.2975830506
O 0.2467901696 -0.3423306774 -0.1940884901
N 0.8695717351 0.4966909305 -1.1115945326
C 2.1510957928 0.5606006252 -0.9321960705
C 2.7680814933 1.4036099302 -1.9192415716
N 3.2898413203 2.0864588944 -2.6933657720
C 3.0288394003 -0.0793185950 0.0606083010
C 2.6098090390 -0.3386776904 1.3748166791
C 3.4902790922 -0.9263205931 2.2738362654
C 4.7814261723 -1.2714648869 1.8784067227
C 5.2034775938 -1.0093463057 0.5769634734
C 4.3387004310 -0.4046055399 -0.3248752737
H -4.3813388683 -0.6246887295 0.1242462247
H -5.0440044372 -1.7644260620 1.3081214983
H -4.1272989799 -0.3496242119 1.8666496233
H -2.7577661283 -2.4614668704 1.9906076561
H -2.9635799582 -2.6898910760 0.2352096169
H -2.0101552822 1.4718877477 -2.3908364742
H -1.3535675701 2.7611549017 -1.3480842948
H -3.6390017165 3.0706309453 -0.3282728111
H -4.2773668204 1.7979223934 -1.3995578533
H -3.6767385549 3.3230400834 -2.0846475387
H 1.6160604355 -0.0622342046 1.6998076634
H 3.1647319636 -1.1137949625 3.2917754698
H 5.4597703364 -1.7367689345 2.5862539499
H 6.2091829280 -1.2698624178 0.2645297257
H 4.6747195749 -0.1972455263 -1.3362193845
