70
CONF305
C -0.9956840181 -1.7159708783 2.0438635599
C -2.1466431685 -2.2719447952 2.9192064408
C -1.9367466521 -1.8806821442 4.3447736919
C -2.3094243049 -2.4118766419 5.5526205715
N -1.7946825378 -1.6187928625 6.5766009512
C -1.0721223497 -0.5777358486 6.0349348496
C -0.3403832509 0.4776327519 6.5801581945
C 0.2836480355 1.3331268246 5.6783675652
C 0.1959190414 1.1683284504 4.2795040282
C -0.5414104937 0.1243369423 3.7358633514
C -1.1607491283 -0.7330349611 4.6397490764
C -0.7803987104 -0.1869526874 2.2728746790
C 0.3339506285 0.3566219988 1.3808119461
C 0.0640149455 0.0031263198 -0.0862736499
C -0.1095022392 -1.5037632579 -0.2003129760
N -1.2554478080 -1.9467723163 0.6077425556
C -1.5342901685 -3.3566201183 0.2905324783
C -1.9910429981 -3.5303608730 -1.1257645616
C -1.4815166367 -4.4049850828 -1.9875055602
C 1.2227498307 0.4685024194 -0.9540634138
O 2.0795046509 -0.3469594309 -1.2940899730
N 1.3376553810 1.8288503853 -1.2212216487
C 0.2047861524 2.7621118711 -1.0528985141
C -0.5647100572 3.0284653500 -2.3495343108
C -1.4302472166 1.8734532378 -2.8489859244
N -0.6980700341 0.6316825773 -3.1147271824
C -1.6372237610 -0.4494909820 -3.3950199914
C 0.2568430774 0.7724054401 -4.2096958934
C 2.4795778425 2.4447957050 -1.8521351386
O 2.4525073127 3.6469583504 -2.0950635360
N 3.5381557089 1.6496328476 -2.1153443395
C 4.6831166822 2.1818504782 -2.8427211398
C 4.4331744593 2.2786959825 -4.3466319297
H -0.0586298804 -2.2266120083 2.3553526841
H -3.0952925997 -1.8750739762 2.5286321588
H -2.1940271340 -3.3613170325 2.8416752380
H -2.8959029334 -3.2888319891 5.7877655028
H -1.9154954930 -1.8005055721 7.5567461586
H -0.2491805206 0.6319544443 7.6503625268
H 0.8668619885 2.1624650912 6.0657941660
H 0.7186309317 1.8753191496 3.6441683067
H -1.7235580533 0.2982651551 1.9710977991
H 0.4228695508 1.4402636502 1.5104931463
H 1.2938926643 -0.0822559603 1.6851368866
H -0.8739643334 0.4628264947 -0.4066391292
H -0.2888895909 -1.7720099708 -1.2444091678
H 0.8230859579 -2.0101627746 0.1090831004
H -0.6610230521 -4.0104324847 0.4889433504
H -2.3528059545 -3.7043948633 0.9283229048
H -2.8269769444 -2.8968924109 -1.4215178207
H -0.6402942672 -5.0391460835 -1.7191216041
H -1.8882218158 -4.5188786324 -2.9872339201
H 0.6180713306 3.7040103367 -0.6866851843
H -0.4658274043 2.3756359836 -0.2857330088
H -1.2348847936 3.8768560133 -2.1619973865
H 0.1369721892 3.3683695971 -3.1161183007
H -1.9839916806 2.2094028614 -3.7515405300
H -2.1900762151 1.6457724081 -2.0874957480
H -2.2657869335 -0.2499038935 -4.2858656430
H -2.2993470657 -0.5972000647 -2.5342508454
H -1.0911327305 -1.3834426819 -3.5635474954
H -0.2279001814 1.0632273150 -5.1625855791
H 1.0139824629 1.5238611010 -3.9690752319
H 0.7749128097 -0.1798587345 -4.3603241101
H 3.4025096564 0.6514634695 -1.9806168505
H 4.9190974252 3.1709094341 -2.4385512441
H 5.5331068334 1.5226954247 -2.6362406130
H 3.6000251488 2.9582727533 -4.5453220647
H 4.1932218720 1.2963380901 -4.7657398866
H 5.3206590482 2.6643750006 -4.8585761183
