45
CONF75
C -1.0468655058 -2.8249559605 0.7134124497
C -1.6318796510 -2.2751585269 -0.5478458847
C -1.5372891631 -0.9963373150 -0.9276089418
C -2.1359256796 -0.4771884088 -2.1690423498
C -1.3490001897 0.3687492046 -3.2097227687
C -2.4894498090 0.9664987940 -2.3828402466
C -2.2250899462 1.9988595865 -1.3103129937
C -3.7495138211 1.2503260366 -3.1750334905
C 0.0799955480 0.7004892594 -3.1029986078
O 0.8127827819 0.8346213869 -4.0686489654
O 0.5242773406 0.8189495970 -1.8311576999
C 1.9504247041 1.0370954507 -1.6610727126
C 2.2348035227 0.7202144219 -0.2268433384
C 2.4017053585 1.7062254304 0.7393976006
C 2.6112200751 1.3830033998 2.0720142336
C 2.6564310462 0.0640644618 2.5107562050
C 2.4791316489 -0.9195233643 1.5440330018
C 2.2774279575 -0.5998503419 0.2099750002
F 2.1075659058 -1.5934530556 -0.6788480954
F 2.4972349985 -2.2186427317 1.8954257039
C 2.8321094074 -0.2541874742 3.9777132190
O 1.6511714534 0.0239053542 4.7260509227
C 0.5825277634 -0.8739327685 4.4174497488
F 2.7714891544 2.3799856077 2.9594108831
F 2.3596150085 3.0028651874 0.3875641090
H -0.5416246746 -2.0434866613 1.2896286324
H -0.3188246852 -3.6162430279 0.4951293923
H -1.8198203340 -3.2774681024 1.3466881833
H -2.1608822876 -2.9810763305 -1.1900776423
H -1.0026502468 -0.3023971696 -0.2854896624
H -2.7923166018 -1.1898780890 -2.6651813211
H -1.6072728820 0.1584094948 -4.2424882453
H -2.1435383429 2.9920412259 -1.7652128241
H -1.3167556797 1.8125408103 -0.7396575736
H -3.0720499571 2.0161460125 -0.6154352219
H -4.6142994489 1.2736531572 -2.5024353562
H -3.9267714107 0.4849493665 -3.9358240795
H -3.6784712095 2.2238865276 -3.6726218487
H 2.5013622124 0.3716427396 -2.3298548844
H 2.1952669111 2.0736366317 -1.9012479612
H 3.6144065634 0.3830686259 4.3970622984
H 3.1287742640 -1.3042156493 4.0951481688
H -0.2450199896 -0.6171709775 5.0814728281
H 0.2520762747 -0.7638103233 3.3748707164
H 0.8835124039 -1.9168517572 4.5909665398
