28
CONF17
O -3.1743152475 2.2771848411 0.6464102246
C -2.6297524046 1.0134711700 1.0330054404
C -2.1434253067 0.2054638656 -0.1479300881
O -1.0242359242 0.8896099624 -0.7711643991
C -0.0857245554 -0.0487712343 -1.2604354635
C -0.6570259238 -1.4377782678 -0.9793096399
C -1.6042056823 -1.1789678164 0.1970354598
O -2.6903566835 -2.0897880268 0.2973660274
N 1.2269342965 0.1727783916 -0.5702008282
C 1.3312738603 0.8309627117 0.6211425843
C 2.5115484335 1.0034343318 1.2623808204
C 3.7249550364 0.4864465457 0.6907716432
O 4.8558802866 0.5756005455 1.1700023945
N 3.5305809309 -0.1706611710 -0.5327990407
C 2.3403371350 -0.3749650163 -1.1976373461
O 2.2642080826 -0.9917717222 -2.2545321477
H -2.4531506098 2.8050250431 0.2804395731
H -1.8160663327 1.1395127282 1.7624619605
H -3.4396809728 0.4565473801 1.5159269637
H -2.9512352194 0.1052892733 -0.8885540777
H 0.1047760847 0.1314812072 -2.3211193861
H 0.1183587964 -2.1771754976 -0.7724053908
H -1.2473710471 -1.7666890770 -1.8408382228
H -1.0456997929 -1.1363217448 1.1447709360
H -2.3560593244 -2.9113825741 0.6779599039
H 0.4002687035 1.2213656783 1.0135838131
H 2.5585235420 1.5344411486 2.2031775604
H 4.3506604471 -0.5643420887 -0.9795092799
