21
CONF68
C 0.9527232252 -0.9733988141 -0.5294586339
C -0.0906530867 0.0009374592 0.0298893143
C 0.4995262301 1.4234227990 0.1238461137
O 1.2236997795 1.8216022919 -1.0445522180
C -1.2958097557 0.0406152278 -0.9070398574
O -1.7665948900 -1.2983320998 -1.1315334799
C -0.5031583392 -0.4718324980 1.4342816275
O -1.4393705621 0.4029258577 2.0811972909
O 2.2213453025 -0.7015151461 0.0964181386
H 1.0301362388 -0.8428391883 -1.6183675804
H 0.6440574126 -2.0080868545 -0.3327055494
H -0.3140516499 2.1480615261 0.2372341779
H 1.1410328491 1.4932471732 1.0135850485
H 2.0294102725 1.2860835887 -1.0584898729
H -2.0837317307 0.6554984268 -0.4501776670
H -0.9956301138 0.5055833850 -1.8576695010
H -2.5436271979 -1.2424135029 -1.6999494499
H -1.0020680373 -1.4423779563 1.3519970881
H 0.3962871535 -0.5971926246 2.0524380531
H -0.9542828716 1.1584623154 2.4337974111
H 2.8507600675 -1.3584510697 -0.2247404644
