44
CONF77
C -5.4381317867 0.1263416118 1.3017200482
C -3.9701822169 -0.0337738826 1.6440263088
C -3.4438272040 -1.4572876534 1.4793425020
O -3.0346155907 -1.4756238668 0.0987022084
C -2.4439735762 -0.2122704915 -0.1251923691
O -3.1594476973 0.7117550916 0.6908434294
C -2.6836690294 0.1802330777 -1.5977099154
N -1.8063448043 -0.5308038171 -2.5085792627
C -0.6302845914 -0.1140602036 -3.0209990650
N -0.0535621885 -1.0939003038 -3.7058531321
C -0.9419560492 -2.1185650164 -3.5643432516
N -2.0176870698 -1.8281351979 -2.8435549181
C -0.9498361689 -0.2388064121 0.2171694037
C -0.3101596548 -1.4750190317 0.3548726044
C 1.0541610356 -1.5859714286 0.5759000216
C 1.8192230780 -0.4284587031 0.6590284885
C 1.2274131685 0.8248346320 0.5356873471
C -0.1412739902 0.8985607469 0.3089695818
Cl -0.7979691595 2.5234843700 0.1112915530
O 3.1609178806 -0.5784470697 0.9285746944
C 4.0572125315 0.3414196403 0.4064378906
C 4.0177555402 0.7104410027 -0.9357961519
C 4.9809476462 1.5808798516 -1.4325047913
C 5.9694322675 2.0558975917 -0.5770534637
C 6.0200247291 1.6815969135 0.7599040184
C 5.0487343323 0.8172698173 1.2556890431
Cl 7.1893580959 3.1585842411 -1.2068903486
H -5.7098789964 1.1852058829 1.2757064359
H -6.0528262077 -0.3695650927 2.0599494875
H -5.6532377894 -0.3187441227 0.3249023358
H -3.7507273499 0.3620389575 2.6411729972
H -2.5863712560 -1.6535692721 2.1362005532
H -4.2070351869 -2.2256362297 1.6129315921
H -3.7257826962 -0.0317465408 -1.8488581503
H -2.4903062282 1.2481457160 -1.7138541857
H -0.2535955709 0.8908136125 -2.8771709297
H -0.8008178520 -3.0968164176 -4.0066806350
H -0.9089620844 -2.3744214487 0.2695740561
H 1.5295430189 -2.5555509206 0.6740435103
H 1.8201360319 1.7287598163 0.6098046462
H 3.2451196879 0.3220926535 -1.5911472810
H 4.9642836794 1.8760347438 -2.4754235585
H 6.7986647523 2.0612479806 1.4114136000
H 5.0595335090 0.5115353887 2.2962306820
