40
CONF36
C 3.7853334839 -1.8287109932 -1.9034201569
O 4.4142641056 -0.5446047091 -1.6571133509
C 4.2809116418 -0.0607206673 -0.4122837890
O 3.7034856304 -0.6385138996 0.4878705367
C 4.9016049716 1.3020139418 -0.2776263609
S 3.6688947338 2.5881259366 -0.7779459014
C 2.4307774381 2.4030721724 0.4931306822
C 1.2060475825 1.8248869574 0.1497790856
C 0.1581538348 1.6915651438 1.0699315669
C 0.3959001814 2.1772631068 2.3624706761
C 1.5910404523 2.7524280120 2.7453221107
C 2.6059046165 2.8707565302 1.8018174032
Cl 4.1023240491 3.6268982875 2.3023775013
F -0.5832782426 2.0653759093 3.2828572036
N -1.0920958471 1.1806893830 0.7494407232
C -1.2052911156 0.0431348570 0.1679819058
N -2.4040569176 -0.4217985106 -0.3137276722
N -2.3997675515 -1.8047310822 -0.5765179549
C -1.1732550221 -2.3895153764 -0.6213418141
O -0.9201056255 -3.5203632334 -0.9918619880
S 0.0719225568 -1.1932817373 -0.0637886589
C -3.5123736387 -2.2972410071 -1.4075204839
C -4.8361094401 -1.8598105577 -0.7984204285
C -4.8418422494 -0.3457828275 -0.6071258989
C -3.6691815790 0.0858099086 0.2609988396
H 4.2137680948 -2.5889167569 -1.2462860697
H 3.9973105842 -2.0572963129 -2.9468077008
H 2.7082771949 -1.7549785633 -1.7356830770
H 5.7424393693 1.4327470487 -0.9630562812
H 5.2188273569 1.4710736639 0.7523792009
H 1.0545073725 1.4901112503 -0.8711616599
H 1.7196053182 3.1029638322 3.7627918505
H -3.3978430567 -1.8935352988 -2.4232944061
H -3.4134846285 -3.3831653937 -1.4414347121
H -5.6442578458 -2.1710242078 -1.4667385034
H -4.9819307206 -2.3628968645 0.1648472054
H -4.7817025219 0.1559302731 -1.5804106154
H -5.7648075551 -0.0185875442 -0.1193557759
H -3.7725442658 -0.3005707747 1.2854248807
H -3.5773739367 1.1712000032 0.3002068914
