53
CONF379
C 1.0039641671 5.0080202278 0.1215193344
C 0.1404296427 4.2497243745 -0.8653934400
O -0.1037521309 2.8913261859 -0.4079696359
C 0.8414391424 1.9670181890 -0.6968779362
O 1.8654515250 2.2367338455 -1.3160098202
C 0.4598168657 0.6456449341 -0.2070088106
C 1.3693154373 -0.3661375355 -0.2119860196
N 1.0101463488 -1.6111356575 0.2292495495
C -0.1645550821 -1.8893851976 0.8842813353
C -1.1296078520 -0.9256095526 0.9552305269
C -0.9868687823 0.3999295077 0.2105249913
C -1.8928458847 0.4248783117 -1.0210948207
C -1.6810634130 -0.5378809314 -2.0162434749
C -2.4457613647 -0.5885598982 -3.1736902391
C -3.4620039115 0.3439216869 -3.3680120763
C -3.7013852112 1.3135790060 -2.4021282397
C -2.9210034178 1.3437528278 -1.2478806298
Cl -3.3071193334 2.6098363507 -0.0778895691
C -2.3542385077 -1.1765727910 1.7066824451
O -2.6605163579 -2.2035084348 2.3010407010
O -3.1714851371 -0.0918012214 1.6850739309
C -4.4183329979 -0.2328404473 2.3954395449
C -0.2224403076 -3.2642587728 1.4764607185
C 2.8164460612 -0.2838032048 -0.6712485359
O 3.5878762317 -1.3806842042 -0.1951481124
C 4.0487548185 -1.1832353828 1.1552829293
C 4.7697622531 -2.4429874466 1.6016279660
N 3.9422412823 -3.6551478087 1.6748616561
H 0.5379028789 5.0210662170 1.1110752671
H 1.1193358359 6.0420241393 -0.2185484539
H 1.9964916653 4.5570873132 0.2008248546
H 0.5962726832 4.2133162169 -1.8584768151
H -0.8577821787 4.6873700082 -0.9396951026
H 1.7457490252 -2.3074671497 0.2306139159
H -1.3003479068 1.2093087168 0.8709444806
H -0.8887963770 -1.2662799530 -1.8664267957
H -2.2495847144 -1.3509273895 -3.9205899971
H -4.0705316990 0.3213925077 -4.2662511563
H -4.4899887049 2.0453195337 -2.5385166645
H -4.2364875820 -0.4320224601 3.4548861456
H -4.9312101301 0.7206226357 2.2692863324
H -5.0122945051 -1.0449711359 1.9677378773
H -0.3028303604 -3.2109451382 2.5650208855
H -1.1025861656 -3.8037648506 1.1214910157
H 0.6762587933 -3.8290776326 1.2155683926
H 2.8459200886 -0.3235078404 -1.7659685320
H 3.2541988651 0.6694693278 -0.3614691948
H 4.7274179167 -0.3172534196 1.1838126954
H 3.1944581954 -0.9776679642 1.8206276693
H 5.6076902034 -2.6337882860 0.9198126442
H 5.2003431099 -2.2448350475 2.5909087739
H 3.5730724561 -3.8661454111 0.7526778240
H 3.1346644225 -3.4791382897 2.2671477532
