45
CONF119
C 4.4498649054 -3.1851129356 2.1248433181
C 4.1150978898 -1.8236196140 1.5191223389
C 2.6153335237 -1.6469054895 1.2877327045
C 2.2848955685 -0.2849915974 0.6917938110
N 0.8468625384 -0.1688186356 0.4715599995
C 0.2730682058 0.9745953539 -0.0022417811
C -1.1366084869 1.1015085013 -0.0144199438
C -1.7388832646 2.2613069840 -0.4823851285
C -0.9999437324 3.3269065152 -0.9790410195
C 0.3904177356 3.1971610057 -0.9997785486
C 1.0163692139 2.0479646364 -0.5163647426
C 1.2593959861 4.2836164843 -1.5171988429
O 2.4742586566 4.2333079314 -1.5523276248
O 0.5589285785 5.3512087268 -1.9530277287
S -3.5341107108 2.3666867371 -0.5142671112
O -3.8988013697 3.7351912853 -0.9144092581
O -4.0360725777 1.2251376351 -1.2989389907
N -3.9410587379 2.2284060059 1.1170040845
O -1.9156581986 0.1131937780 0.5456740924
C -2.0428357675 -1.0986282596 -0.1342946748
C -2.5839522742 -2.1467307197 0.6021702731
C -2.7637671697 -3.3802956706 -0.0150606182
C -2.4008433328 -3.5626994190 -1.3486593907
C -1.8603711753 -2.4982499562 -2.0659747888
C -1.6796199207 -1.2541772351 -1.4662616334
H 5.5271317371 -3.2960502287 2.2813073874
H 3.9533195749 -3.3148468438 3.0926579928
H 4.1190625973 -3.9965284864 1.4674352857
H 4.6443346330 -1.7032546527 0.5651456593
H 4.4764417544 -1.0254194415 2.1801214319
H 2.0817024937 -1.7642660705 2.2411900596
H 2.2491785322 -2.4336988538 0.6151360094
H 2.8058395771 -0.1684432085 -0.2679884720
H 2.6460973454 0.5149426441 1.3591059706
H 0.2656344453 -0.7412750974 1.0670157416
H -1.4962632093 4.2173290621 -1.3393232367
H 2.0981141305 2.0040939670 -0.5306145557
H 1.1948276105 6.0117956556 -2.2747266988
H -4.7582032292 2.8076986192 1.3023100802
H -4.1266317674 1.2579884777 1.3620738886
H -2.8566148765 -1.9866817929 1.6401435430
H -3.1873208167 -4.2024069303 0.5531411001
H -2.5400462937 -4.5271417732 -1.8253878121
H -1.5789353274 -2.6288820695 -3.1061323227
H -1.2696346721 -0.4209148130 -2.0269988898
