35
CONF170
C -3.1156845500 -2.4901150465 2.3983481401
C -2.8818458661 -1.1812596847 1.6891256445
O -2.5088513940 -1.5042731220 0.2944512638
P -1.8979202060 -0.4050067482 -0.6709120982
S -1.3966484355 -1.1008736628 -2.4067052971
O -2.9468581356 0.7858321691 -0.5726517181
C -2.7583101440 2.0234369789 -1.3488513826
C -3.9340084900 2.9186391731 -1.0514132349
O -0.6448037835 0.2908178047 0.1609514959
C 0.5733371303 -0.3039346307 0.2030878582
N 0.7778606436 -1.5337124641 0.7293840301
C 2.0936420499 -1.6485179677 0.5990403678
N 2.6396456859 -0.5536932208 0.0377170862
N 1.6439377635 0.3368158698 -0.2320225788
C 4.0429104046 -0.2434465077 -0.2967319285
C 4.5054367191 0.9769875525 0.4911525913
C 4.1864723598 -0.0680141336 -1.8044856385
Cl 2.9971311607 -3.0205920769 1.0871500255
H -3.4098970603 -2.2831183707 3.4317306448
H -2.2049097373 -3.0947925391 2.4107145521
H -3.9173652052 -3.0564123128 1.9168869376
H -2.0634071979 -0.6139539332 2.1424807400
H -3.7830221801 -0.5631194415 1.6557142367
H -1.8111443533 2.4769846901 -1.0406124012
H -2.7064332597 1.7523533831 -2.4078415718
H -3.9788927408 3.1629010210 0.0132552984
H -4.8711741092 2.4419824124 -1.3509627551
H -3.8212467552 3.8486216181 -1.6164245323
H 4.6088745679 -1.1222476791 0.0249666538
H 4.3722494116 0.8236698185 1.5655226735
H 5.5666443732 1.1457542062 0.2903858175
H 3.9488284071 1.8670763183 0.1850520626
H 3.6274952167 0.8078940456 -2.1451738965
H 3.8253337624 -0.9518116841 -2.3374661651
H 5.2426231484 0.0791278527 -2.0448629216
