41
CONF51
C -5.9403568967 -2.1125624392 -0.9624911879
C -5.5595470445 -0.9127320440 -1.5612095952
C -4.5518557387 -0.1382633370 -0.9930055163
C -3.9105209699 -0.5524187351 0.1782372409
C -4.2988950560 -1.7554429884 0.7715513804
C -5.3083138345 -2.5314644214 0.2061753389
C -2.7987058597 0.2749382417 0.7669758770
C -1.4857939513 0.0923916410 0.0001673482
N -0.4799963057 1.0235496413 0.5151503887
C 0.8467597387 0.8886123392 0.2827280531
C 1.4175728298 -0.2563404927 -0.3144777115
C 2.7846092431 -0.3760737787 -0.5015865616
C 3.6462246786 0.6445255037 -0.1227100428
C 3.1042633965 1.8031582036 0.4847237372
C 1.7418543465 1.9073620780 0.6787948003
C 3.9379337696 2.9894449780 0.9229693322
F 5.0586969253 2.6174592585 1.5888890195
F 3.2544694828 3.7975463745 1.7628008980
F 4.3174088942 3.7548158930 -0.1235670725
S 5.3935037146 0.3450134852 -0.4740193094
O 6.0193180053 1.6068918935 -0.8881501392
O 5.4384640857 -0.8222182911 -1.3673987884
N 6.1713268762 -0.1408297505 0.9318461312
S 0.3512900830 -1.5959924053 -0.8073639216
O 0.9225435063 -2.8767900498 -0.3714207278
O -0.0349825549 -1.4178577075 -2.2148754237
N -1.0230366153 -1.2950662108 0.1253364155
H -6.7283245833 -2.7156173206 -1.4028761522
H -6.0516113871 -0.5769559127 -2.4689884176
H -4.2607736648 0.7997160050 -1.4594264125
H -3.8059759551 -2.0849134723 1.6821033519
H -5.6017554915 -3.4634540100 0.6796931029
H -3.0559034849 1.3393002987 0.7204585503
H -2.6320383133 0.0151435885 1.8183404394
H -1.6601239297 0.2766760347 -1.0696690793
H -0.8047450758 1.9022386205 0.8922664020
H 3.1860581337 -1.2752815607 -0.9553325641
H 1.3275184928 2.7934007733 1.1451311867
H 6.1517772727 0.5845125664 1.6453712197
H 5.7619186770 -1.0010991272 1.2923084271
H -0.8402532542 -1.5553234692 1.0971894900
