39
CONF11
N 2.3902219198 0.1857879948 1.0425588312
C 2.5038014870 -1.0445802075 0.4509865333
N 3.1129516434 -2.0022882749 1.1553595847
C 3.2562896793 -3.1919641724 0.5500678275
N 3.8419501280 -4.1863811375 1.2921581925
N 2.8480063926 -3.5238824719 -0.6852278486
C 2.2465629197 -2.5368999194 -1.3580124624
C 2.0373077109 -1.2603475210 -0.8679929234
C 1.3796182064 -0.1740923942 -1.6693566702
C 0.0984430509 0.3663451598 -1.0566666908
C -0.8144694408 -0.5120689244 -0.4762704980
C -1.9988463165 -0.0197760772 0.0756156582
O -2.9476652225 -0.7880867247 0.6744848271
C -2.7117703308 -2.1932199695 0.7269016610
C -0.1579558423 1.7372044452 -1.0758303233
C -1.3458764874 2.2316815135 -0.5253398200
O -1.6886464931 3.5486045816 -0.4840131149
C -0.7896284015 4.4781895611 -1.0793531922
C -2.2791903916 1.3546522739 0.0416760792
O -3.4668773772 1.8308677510 0.5277866444
C -3.4174053483 2.1615118234 1.9223583287
H 2.5656998817 0.1922355289 2.0355809224
H 1.6316410468 0.7748323235 0.7295849840
H 4.1825862546 -4.9772611014 0.7716451604
H 4.3844104035 -3.8888871049 2.0854705354
H 1.9104982237 -2.7809628129 -2.3674327426
H 1.1601222586 -0.5657226670 -2.6713144587
H 2.0775679493 0.6621069248 -1.8130923736
H -0.5786536093 -1.5689932384 -0.4499975785
H -2.6341257429 -2.6213485022 -0.2804520834
H -1.8012371013 -2.4250899006 1.2942635726
H -3.5772696059 -2.6183940694 1.2364872605
H 0.5673127565 2.4050407613 -1.5259504445
H 0.1862660060 4.4723256966 -0.5757871686
H -1.2536516224 5.4577703921 -0.9572314248
H -0.6515973586 4.2711618746 -2.1483427039
H -2.6803276635 2.9535131608 2.1064567875
H -3.1725928058 1.2763373420 2.5227500129
H -4.4134723551 2.5200781778 2.1897319099
