46
CONF95
C 5.5747897905 2.2346906783 2.9034750032
C 4.2496145586 2.0783229566 3.6171497561
O 3.1478882391 2.5661861173 2.7919046893
C 2.6383737782 1.7607313832 1.8595233014
N 3.0957682572 0.5228786881 1.7270744063
C 2.4874915503 -0.1925892320 0.7539111049
N 1.4846190718 0.2699953054 -0.0239935447
C 1.1307045414 1.5328219743 0.2234500922
N 1.6639690319 2.3441622823 1.1389051221
N 0.1180317521 2.0993329973 -0.5326192205
C -0.7366556415 1.5413616624 -1.4821367744
O -1.6074709849 2.2182394089 -2.0083450876
N -0.5256417176 0.2080694931 -1.7533508447
S -1.6494126008 -0.7296029143 -2.6131805427
O -1.6836282027 -0.2614581781 -4.0006521519
O -1.2483156866 -2.1116059193 -2.3120658305
C -3.2684891412 -0.4223775588 -1.8886851073
C -4.1380080246 0.3886275405 -2.6110662707
C -5.4444797955 0.5567907322 -2.1664649382
C -5.8804861456 -0.1055833860 -1.0235721197
C -5.0111279065 -0.9296973193 -0.3180259675
C -3.6866695335 -1.0876484510 -0.7298124984
C -2.8324923699 -1.9753213314 0.1190805479
O -3.1506179797 -3.1033346790 0.4289296764
O -1.7368617039 -1.3437128110 0.5581160511
C -0.8829558165 -2.1255609846 1.4357148917
N 2.9093048132 -1.4460513015 0.5476633207
C 2.4384637432 -2.2848265609 -0.5462737854
H 6.3814227415 1.9318724924 3.5785153454
H 5.6192414468 1.6076932545 2.0094862735
H 5.7383003972 3.2776812861 2.6179609218
H 4.0531622098 1.0421172693 3.9010840602
H 4.1996913093 2.7123389321 4.5047819961
H -0.0810026472 3.0702660422 -0.3279872672
H 0.1681135423 -0.2867570635 -1.1680236632
H -3.7938916021 0.8740721359 -3.5156298294
H -6.1210998093 1.1954404207 -2.7237312945
H -6.9028267340 0.0130137030 -0.6807021804
H -5.3481838315 -1.4542513826 0.5697770213
H -0.0415214114 -1.4751045338 1.6690354396
H -0.5493357500 -3.0294954294 0.9213882273
H -1.4309372804 -2.3932467086 2.3418480307
H 3.6883835674 -1.7573487934 1.1066010823
H 2.9303096394 -3.2547956513 -0.4652016429
H 1.3562775356 -2.4347402301 -0.4913342577
H 2.6781904879 -1.8415967434 -1.5195788459
