59
CONF483
C 7.1538998686 3.5294215237 -0.7808280555
C 5.6681805732 3.4127409700 -1.1167564014
C 4.9605502847 2.3381580216 -0.2918018628
C 3.4743495104 2.2119528024 -0.6232864301
C 2.7793492547 1.1352738763 0.2085942446
C 1.3058042280 0.9430360162 -0.1367180299
O 0.5738748491 2.1949645053 0.0573900398
C 0.6719192160 -0.1558958736 0.6588742823
C 0.1238092074 -1.2397800373 0.1055210411
C -0.5197722181 -2.3832778554 0.8391135971
C 0.1272593866 -2.7295092022 2.2190511407
O 0.4724244069 -4.1218944863 2.3048782721
C -0.9358644298 -2.3426968533 3.2545217037
C -2.2460735139 -2.6895767364 2.5656890393
O -2.3577203920 -4.1312481494 2.5868150717
C -2.0389171990 -2.1351234478 1.1452708320
C -3.0111421931 -2.7038414925 0.1042012610
C -2.9380457099 -1.9863485860 -1.2076404129
C -3.9597886398 -1.3750523754 -1.8104494067
C -3.8459423865 -0.6110241249 -3.0937383654
C -4.3807989714 0.8303221805 -2.9802167982
C -3.9201059411 1.5694391629 -1.7252811657
C -2.4256576847 1.6703765993 -1.5630713657
O -2.0735561199 1.8847435394 -0.2884182121
O -1.6178106709 1.5992936894 -2.4749592141
H 7.6711023407 2.5815137062 -0.9669942180
H 7.2961299273 3.7845317897 0.2753172814
H 7.6420737874 4.3028047323 -1.3823897014
H 5.5473873754 3.1845076994 -2.1841069406
H 5.1739183862 4.3788610811 -0.9490122201
H 5.4550033941 1.3703363576 -0.4564533594
H 5.0768446072 2.5671028839 0.7771042345
H 3.3564943374 1.9746097524 -1.6898710076
H 2.9823135258 3.1785695501 -0.4611370412
H 2.8632613536 1.3690353772 1.2803320892
H 3.2807958957 0.1702821554 0.0597115605
H 1.1990210198 0.7327281932 -1.2072344376
H 0.7191188086 2.4836047368 0.9709929983
H 0.6958664149 -0.0251486893 1.7426752242
H 0.1288513534 -1.3082634608 -0.9827799853
H -0.4346643940 -3.2779276746 0.2106310158
H 1.0687051423 -2.1948993829 2.3665706105
H -0.3693028102 -4.6041853264 2.2941306127
H -0.9076090926 -1.2600996525 3.4246676407
H -0.7965345624 -2.8515294705 4.2127450535
H -3.1278968200 -2.2461606890 3.0472489525
H -3.1642105035 -4.3840998464 2.1196619833
H -2.1993503534 -1.0509079017 1.2176147171
H -4.0366751668 -2.6460754694 0.4931725396
H -2.7736518372 -3.7675427794 -0.0445981508
H -1.9610349959 -1.9605876560 -1.6925385043
H -4.9447137513 -1.3978041571 -1.3377484812
H -4.4133467492 -1.1172384910 -3.8866604760
H -2.7972552105 -0.5956567307 -3.4083966907
H -5.4765796730 0.8103803895 -2.9627635249
H -4.0872792437 1.3898909238 -3.8745518323
H -4.2966462091 2.6016238700 -1.7395933573
H -4.3310857067 1.1101400210 -0.8212407482
H -1.0792747135 1.9831505922 -0.2179201541
