56
CONF21
C 0.0045039195 -0.8010799504 -0.8467212883
C -1.1177522412 -0.4858441261 0.1298434564
N -0.8289572711 0.7657349623 0.8488032617
C -0.7111924209 1.8470357707 -0.1425068377
C 0.4141666417 1.5471122055 -1.1212221186
N 0.1497273283 0.2867851833 -1.8158216655
C 1.1222820999 -0.0219783922 -2.8739711464
C 2.5070934732 -0.3507960488 -2.3814064764
C 3.3563563801 -1.2732248078 -2.8622939033
C 3.1804860756 -2.1417409541 -4.0307943997
C 2.4882050014 -1.7434033750 -5.1861717919
C 2.3444907780 -2.6106360658 -6.2652819469
C 2.8942382561 -3.8901518421 -6.2196831745
C 3.6078161158 -4.2908966940 -5.0904783891
C 3.7561955808 -3.4238882010 -4.0144768966
C -1.8865229936 1.0687367803 1.8269155979
C -1.6084229942 2.3684191242 2.5681959791
C -0.3380667663 2.6600323030 3.0734962292
C -0.1061537091 3.8263736316 3.7947548217
C -1.1691772733 4.6896602361 4.0067295583
C -2.4414255893 4.4399455150 3.5255336640
C -2.6487710414 3.2686538622 2.7990293590
F -0.9486265857 5.8324362269 4.7110956952
C -2.0501140148 -0.0488853891 2.8457059171
C -3.3295605021 -0.4469144678 3.2335818714
C -3.5156225861 -1.4244379405 4.2093400775
C -2.3926429290 -1.9964989800 4.7788151710
C -1.1042483256 -1.6365502246 4.4175493964
C -0.9426211739 -0.6532897793 3.4472287545
F -2.5583670475 -2.9563358932 5.7284967673
H 0.9345572444 -0.9764738473 -0.2727581833
H -0.2333414209 -1.7260847947 -1.3863839150
H -1.2044558007 -1.3061977829 0.8482523861
H -2.0774131547 -0.4116740100 -0.4189772808
H -1.6605636847 1.9738638509 -0.6994303809
H -0.4940851441 2.7885214604 0.3704310834
H 1.3679068346 1.5353008849 -0.5598982960
H 0.4718501128 2.3539959950 -1.8617498186
H 0.7258133046 -0.8621998697 -3.4585419297
H 1.1547623415 0.8459932562 -3.5491565119
H 2.8317950579 0.1952411951 -1.4974102486
H 4.2821675130 -1.4361943572 -2.3107619213
H 2.0923907572 -0.7363167211 -5.2572578695
H 1.8104496901 -2.2798453714 -7.1510075426
H 2.7815756437 -4.5640274780 -7.0632006530
H 4.0529198724 -5.2805491842 -5.0509835914
H 4.3173461435 -3.7392846304 -3.1387713773
H -2.8611450580 1.1880660651 1.3152512187
H 0.4854060385 1.9780141041 2.8901237945
H 0.8771904792 4.0665371128 4.1848252270
H -3.2444521220 5.1460085003 3.7074708830
H -3.6392049839 3.0559311433 2.4064210126
H -4.1981524803 0.0115254050 2.7691594268
H -4.5068424090 -1.7406696839 4.5158265009
H -0.2522924544 -2.1182346405 4.8854240511
H 0.0584999273 -0.3656192760 3.1436306720
