30
CONF1
C -5.6668702997 -0.4524441734 -0.3900080953
C -5.0842164208 -0.6332415986 0.8611932314
C -3.7135738591 -0.5000845659 0.9738261957
C -2.8828387932 -0.2107084845 -0.1129658326
C -3.5238545958 -0.0459083828 -1.3428437336
C -4.8918842222 -0.1528434348 -1.5060288609
F -2.7685006323 0.2640108892 -2.4198885848
C -1.4161201673 -0.0207725741 0.0817251360
O -0.9787826284 0.6923314826 0.9809950262
N -0.6219806399 -0.7066108607 -0.8049735908
C 0.7875454410 -0.7070932862 -0.9337144590
O 1.3034502036 -1.3751811331 -1.8176040571
N 1.4373301975 0.0661312298 -0.0202055743
C 2.8136453735 0.2623669802 0.0778568201
C 3.7737273482 -0.3074530267 -0.7625567135
C 5.1199806110 -0.0314442447 -0.5618412007
C 5.5377374466 0.8050396910 0.4637124535
C 4.5956738944 1.3827358014 1.3118690427
C 3.2530586999 1.1037136461 1.1077795058
F 2.3377643155 1.6543776275 1.9234367114
Cl 5.0923474208 2.4267669333 2.5969197260
F 6.8359637455 1.0642423321 0.6505291068
Cl 6.3177504340 -0.7406959684 -1.6091805844
F -3.1445870941 -0.6918530564 2.1790805756
H -6.7418102898 -0.5471004446 -0.4969297466
H -5.6738191593 -0.8766392674 1.7373061501
H -5.3306548059 0.0006449685 -2.4849748616
H -1.0738242255 -1.3047047403 -1.4849488259
H 0.8365707647 0.5431746854 0.6548142708
H 3.4707717360 -0.9607573155 -1.5667207316
