41
CONF427
C -2.2841009806 -1.2628498636 -3.8683103310
C -2.8539111900 -1.3840169689 -2.4571243083
C -4.1983084909 -2.1059269642 -2.4788382888
N -3.0691105854 -0.0514176395 -1.8692038538
C -1.8728304893 0.7579105098 -1.6588302733
C -0.7844010045 0.1174231675 -0.7922507535
O -1.3968110251 -0.2752106964 0.4332424723
C 0.3441839350 1.0974406521 -0.5346896016
O 1.3122936893 0.3886078921 0.2488549870
C 2.2176356820 1.0991529249 0.9830567177
C 2.5172035016 2.4411796166 0.7558934361
C 3.4620682882 3.0783619846 1.5579302880
C 4.1041884000 2.3848463301 2.5748227273
C 3.7978061114 1.0416341582 2.7860543999
C 2.8590484535 0.3774402369 2.0042035481
C 2.5028386695 -1.0638466515 2.2405413228
C 1.1648673736 -1.2984199238 2.8940853288
C 0.3260086749 -0.3607433519 3.3271892552
H -2.9324780545 -0.6271413561 -4.4810456869
H -1.2773154541 -0.8342174085 -3.8730195808
H -2.2203205534 -2.2508533498 -4.3339114573
H -2.1547936685 -1.9915386952 -1.8518488981
H -4.0889041125 -3.1150141291 -2.8873513310
H -4.9140865520 -1.5517782365 -3.0947568422
H -4.6128430393 -2.1958319788 -1.4687814007
H -3.5108154602 -0.1792154519 -0.9641470313
H -1.4382260764 1.0337959976 -2.6278903041
H -2.1907816843 1.6907550760 -1.1744554289
H -0.3604202311 -0.7624926038 -1.3057973890
H -0.6937902591 -0.5389020529 1.0472239930
H -0.0347159721 1.9598436224 0.0316695900
H 0.7920722379 1.4441460700 -1.4780417712
H 2.0310956915 2.9880496218 -0.0433323266
H 3.6934933668 4.1231922347 1.3772768213
H 4.8389519996 2.8809153981 3.1994337854
H 4.2927560486 0.4935758926 3.5832835659
H 2.5173070635 -1.6132998643 1.2896861798
H 3.2765998707 -1.5291862532 2.8654285024
H 0.8963412259 -2.3479820017 3.0159700263
H 0.5571999122 0.6967668425 3.2288031343
H -0.6149948098 -0.6245124007 3.7989767712
