33
CONF5
C -4.9822265366 1.3302282207 1.0022216188
C -4.3977745485 0.1157606404 0.2793796864
C -3.9917786372 0.4577681067 -1.1473934730
S -3.2769128676 -0.9643909722 -2.0837717030
C -1.7721054127 -1.2333073572 -1.1511672428
C -1.6819182342 -2.3430183249 -0.2913291334
C -0.5286204225 -2.6097632044 0.4369408612
C 0.5480128325 -1.7364481960 0.3037140325
C 0.4406282045 -0.6231967278 -0.5649998567
C -0.6967875233 -0.3548004511 -1.3089358496
N 1.6662894623 0.0178864927 -0.4745861080
C 2.4098891003 -0.7168250667 0.4090439914
N 1.7981509895 -1.7662147916 0.9025827993
N 3.7070901598 -0.3835966744 0.7563748853
C 4.4058349527 0.6940735891 0.2741996137
O 3.9808560288 1.5109557157 -0.5215789205
O 5.6421672026 0.7100623981 0.8169506359
C 6.4712171706 1.8073205922 0.3765716140
H -5.8686971661 1.7107950751 0.4833908659
H -4.2523203446 2.1448665563 1.0582243444
H -5.2763351731 1.0748645113 2.0244885194
H -5.1260803202 -0.7028539955 0.2585897184
H -3.5210192490 -0.2559780851 0.8223387128
H -3.2701067721 1.2830496262 -1.1623961258
H -4.8614162119 0.7701691972 -1.7379289408
H -2.5425881108 -2.9966406819 -0.2025624408
H -0.4632801876 -3.4686730195 1.0956801427
H -0.7608185590 0.4837221900 -1.9941140225
H 2.0000976100 0.8487946453 -0.9401871804
H 4.1541712335 -1.0050386410 1.4137768046
H 6.0126664464 2.7618443474 0.6458206850
H 6.6149118172 1.7642492605 -0.7057017113
H 7.4188045588 1.6743353364 0.8970843837
