41
CONF3
C 6.1262667574 -0.5267771179 -0.1608472340
C 4.6849453898 -0.2089237562 -0.4411868269
C 3.7624670130 -0.0410460902 0.5944628756
C 2.4345231538 0.2677016791 0.3354736008
C 1.9743701480 0.4221828140 -0.9817527692
C 2.9122931876 0.2807605926 -2.0192815674
C 4.2335446332 -0.0396789916 -1.7544514205
C 0.5978179711 0.7454554417 -1.3178225753
C -0.5225115308 0.5291692422 -0.6069435117
C -0.7925806590 -0.1298472811 0.7212907490
C -1.1165245644 1.0281382096 1.7024557944
C -2.4909124061 1.5373321578 1.1800201599
C -2.8480066622 0.5725170266 0.0058213828
C -1.8625120008 0.9754293095 -1.0949164045
O -2.1199620232 1.5570944604 -2.1303764233
C -2.1978096254 -0.7664946985 0.4783425797
C -2.1815750203 -1.8465183580 -0.6060784572
C -2.8286437056 -1.3576663241 1.7379539249
C -4.2955590865 0.5831001388 -0.4180281873
H 6.7642572673 0.3406048421 -0.3665824110
H 6.2762033675 -0.8114295953 0.8832785890
H 6.4806224704 -1.3459782850 -0.7943968716
H 4.0943403578 -0.1445038172 1.6239317412
H 1.7547155048 0.4258035408 1.1643803875
H 2.5843464169 0.4131414067 -3.0464624151
H 4.9332471825 -0.1549841108 -2.5780688925
H 0.4400900944 1.2053134635 -2.2947614137
H -0.0275007772 -0.8315406670 1.0607491441
H -0.3477529999 1.8046781988 1.6705868124
H -1.1801885478 0.6674987947 2.7332564046
H -2.4542226586 2.5755866942 0.8365343732
H -3.2683677045 1.4796346000 1.9481287810
H -1.7507074420 -1.4918996304 -1.5467652186
H -1.5932081405 -2.7081361961 -0.2722882621
H -3.1977457535 -2.1983256844 -0.8114610062
H -2.9492818743 -0.6364404498 2.5481509073
H -2.2118833003 -2.1830678589 2.1113925149
H -3.8180010870 -1.7660070100 1.5067152464
H -4.4683671316 -0.1119446757 -1.2452192777
H -4.9521300937 0.3102342902 0.4145748347
H -4.5780951942 1.5798335995 -0.7698091602
