55
CONF7
C 4.9019802385 0.8168173703 2.5394013151
C 4.6035284991 -0.4425606285 1.7260117823
C 5.6931409151 -0.6504240537 0.6578840665
C 3.2327274481 -0.4652836532 1.0894383120
C 2.5199279953 0.6398510300 0.8059177224
C 1.1880446548 0.6250814231 0.2224596973
C 0.5483972962 1.7717986982 -0.0693598006
C -0.8345778475 1.8302939650 -0.6289771878
C -1.5575381915 0.4897834241 -0.4922663977
C -0.6579887718 -0.6796371230 -0.9875685120
C 0.5440071696 -0.7303624465 0.0026382786
C 1.6321451568 -1.7490776916 -0.3631203944
C 2.6847468645 -1.8239202211 0.7406111571
C -1.4421002560 -2.0030200101 -0.8824014711
C -2.8247432109 -1.9471695113 -1.5269097508
C -3.6721169001 -0.8552834616 -0.8790438972
C -3.0250942943 0.5414107282 -1.0370150533
C -3.1862611479 1.0258689615 -2.4835174882
C -3.7957362125 1.5368522496 -0.1589269330
O -4.3561204334 2.5346682660 -0.5522025806
O -3.7898954972 1.1746032061 1.1482038943
C -4.4901366664 2.0746347442 2.0297782562
C -0.1310833885 -0.4799402725 -2.4170037885
H 4.1200927921 1.0093129056 3.2799897284
H 5.8566591692 0.7096054131 3.0638825372
H 4.9839660510 1.6971613164 1.8931313319
H 4.6444951128 -1.3046257789 2.4104668399
H 5.5209151267 -1.5549041213 0.0673253734
H 5.7061338607 0.2026700779 -0.0285907142
H 6.6811145852 -0.7341300841 1.1229180052
H 2.9246629832 1.6211373038 1.0426778422
H 1.0590329584 2.7178313789 0.1059835956
H -1.4084732228 2.6168666951 -0.1180331487
H -0.7924877823 2.1458711532 -1.6820675172
H -1.6712590527 0.3063544900 0.5848076261
H 0.1357730870 -1.0479914522 0.9773351151
H 1.1941454850 -2.7381811754 -0.5317097901
H 2.1268952750 -1.4414787376 -1.2918240040
H 3.5035726824 -2.4879099938 0.4354363660
H 2.2537572835 -2.2817347027 1.6451505040
H -1.5688346269 -2.2502962146 0.1820479767
H -0.8572430796 -2.8153583132 -1.3283730692
H -3.3262185708 -2.9142666052 -1.4039701889
H -2.7387735464 -1.7846550591 -2.6077725902
H -4.6799970755 -0.8335963370 -1.3117613961
H -3.7809108810 -1.0827631112 0.1873273833
H -2.6963788581 1.9859311589 -2.6540440054
H -4.2480790491 1.1676304999 -2.6996465775
H -2.7927254595 0.3014720348 -3.1952263901
H -4.0454317958 3.0725242342 1.9883448849
H -4.3845196326 1.6465242965 3.0266908770
H -5.5438455671 2.1431653672 1.7467516645
H 0.4069036253 -1.3724774793 -2.7499047192
H 0.5622670378 0.3649917906 -2.4680252722
H -0.9304646632 -0.2996652666 -3.1352157688
