70
CONF265
C -1.3099071754 -1.5135988913 1.7895356115
C -2.5148036425 -1.8390803416 2.7036209540
C -2.1241547291 -1.6458421208 4.1318990844
C -2.5394965504 -2.1750620264 5.3263859694
N -1.7798775603 -1.6242820288 6.3569584563
C -0.8573283532 -0.7453879683 5.8313336740
C 0.1463939267 0.0485942237 6.3873863805
C 0.9059700673 0.8039418819 5.5002994180
C 0.6926095983 0.7902529343 4.1052893230
C -0.3136394925 0.0091173210 3.5522209545
C -1.0694719161 -0.7503892636 4.4408419624
C -0.7133601119 -0.1051852103 2.0960033605
C 0.4370780147 0.2276819053 1.1459065029
C -0.0157628567 0.0676695021 -0.3110400218
C -0.5317076869 -1.3535288766 -0.5003067012
N -1.6966900499 -1.5595771938 0.3685608188
C -2.4300984653 -2.7727503521 -0.0417387531
C -1.6876154970 -4.0690791784 0.1412579468
C -1.2837021255 -4.8447184713 -0.8606003357
C 1.1360686344 0.3446253349 -1.2613439868
O 1.8017297992 -0.6029724663 -1.6803510576
N 1.4555644560 1.6661319460 -1.5456426868
C 0.5781138205 2.7934350719 -1.1701440586
C -0.3061377817 3.2912180623 -2.3161439983
C -1.4683781364 2.3780542869 -2.7013858361
N -1.0785418389 1.0375464531 -3.1499605762
C -0.3151386299 1.0719053958 -4.3941231289
C -2.2683889124 0.2065446275 -3.3051853683
C 2.6042578902 2.0847866928 -2.3148104022
O 2.8088056565 3.2830829368 -2.4788800862
N 3.3854189345 1.1128567457 -2.8289686581
C 4.6157086862 1.4594357724 -3.5289916832
C 5.7660224238 1.7847810131 -2.5786759378
H -0.5089560153 -2.2495724757 2.0122175094
H -3.3458601488 -1.1749440740 2.4240652444
H -2.8540019712 -2.8660890296 2.5389807665
H -3.3099118969 -2.9002155492 5.5476141641
H -1.8787810466 -1.8581232418 7.3284581840
H 0.3392976957 0.0808591509 7.4547409055
H 1.6996315167 1.4294162439 5.8964481438
H 1.3329919786 1.4020528582 3.4789971444
H -1.5266573077 0.6153470645 1.9075411723
H 0.7944066126 1.2458377688 1.3355016412
H 1.2805733256 -0.4497344771 1.3355676045
H -0.8545965677 0.7384987832 -0.5049714927
H -0.8377485345 -1.4952917900 -1.5415061535
H 0.2789578201 -2.0736934901 -0.3012202120
H -3.3828314821 -2.8053516131 0.4987859353
H -2.6806778204 -2.6510862709 -1.1028780827
H -1.4591789512 -4.3653132236 1.1650982160
H -1.4862222296 -4.5776027354 -1.8955050952
H -0.7402863701 -5.7683582922 -0.6878529920
H 1.2285109918 3.6089436708 -0.8474940026
H -0.0327850000 2.5016784512 -0.3165352029
H -0.7416427079 4.2467659571 -1.9976336135
H 0.3255145228 3.5268848341 -3.1774434804
H -2.0791418687 2.8907956824 -3.4749825037
H -2.1233141979 2.2513651247 -1.8273384139
H -0.0516856538 0.0499975330 -4.6842882964
H 0.6181260481 1.6251059008 -4.2593129223
H -0.8784288527 1.5379000178 -5.2268438593
H -2.7801874791 0.1043081933 -2.3406108821
H -2.9892928560 0.6220412523 -4.0374525300
H -1.9808482781 -0.7934921463 -3.6470445788
H 3.1443946688 0.1548058311 -2.5892672607
H 4.8744631170 0.6090781068 -4.1690454281
H 4.4133080179 2.3186306599 -4.1762657145
H 5.5037742544 2.6412389593 -1.9520912240
H 6.6689372733 2.0351323675 -3.1448185924
H 5.9906074991 0.9319760041 -1.9308205287
