43
CONF1
C -1.4327720691 -1.2125026747 -2.5895832126
C -1.9922285182 -1.2218872898 -1.1570997278
C -2.2857006706 -2.6720580495 -0.7412476441
C -3.3246022656 -0.4520326158 -1.1720512336
C -0.9545654263 -0.5273980111 -0.1982664399
C 0.4513733038 -1.2059040016 -0.2740475447
C 1.5237740678 -0.4156325299 -1.0448415018
C 2.1358944618 0.7146659742 -0.2538595653
C 1.9695805646 2.0471219283 -0.6347382130
C 2.5218552824 3.0869206815 0.1059895025
C 3.2535767391 2.7835073381 1.2462810090
C 3.4509471331 1.4686185968 1.6475957710
C 2.8906571892 0.4469015337 0.8906834487
Cl 3.9279087943 4.0880876149 2.2117291406
C -1.4699583413 -0.5878555258 1.2619075887
N -0.5891245712 0.0897337977 2.2030551214
C 0.1180362657 -0.4132820969 3.2387846652
N 0.8029950553 0.5439741612 3.8445133921
C 0.4808468712 1.6446979100 3.1168707335
N -0.3638626252 1.4243448683 2.1147006379
O -0.9035844441 0.8316754708 -0.6218491124
H -1.2063855948 -0.1929431009 -2.9117429033
H -2.1793104948 -1.6278700490 -3.2741280759
H -0.5275413615 -1.8194163558 -2.6858278123
H -2.8485646076 -2.7245565864 0.1963879425
H -1.3820739908 -3.2798114396 -0.6332299358
H -2.9043735975 -3.1467450016 -1.5095152854
H -3.9953054792 -0.9106572892 -1.9060086674
H -3.8383938698 -0.4882186418 -0.2065157514
H -3.1728357408 0.5935853851 -1.4447350560
H 0.3513097793 -2.1937419560 -0.7308393379
H 0.8320601330 -1.3885005479 0.7374054277
H 1.1061900173 -0.0255221976 -1.9754409082
H 2.3215466282 -1.1188810327 -1.3162350996
H 1.3832746492 2.2778490416 -1.5188207785
H 2.3801588246 4.1189532839 -0.1933437044
H 4.0186401610 1.2490549107 2.5441013924
H 3.0443393457 -0.5812092944 1.2083262821
H -1.5406309959 -1.6265660250 1.5955417837
H -2.4566880542 -0.1223721344 1.3277716804
H 0.0905668563 -1.4598306964 3.5133353780
H 0.8712050771 2.6328733358 3.3209700551
H -0.5582326719 1.3728300993 0.1095432794
