32
CONF1
C 3.4127958930 1.9531066696 0.3401307574
C 2.8292862376 0.8908011617 -0.5503316680
O 3.1523635241 -0.2832153112 -0.4528423513
C 1.8331705019 1.3658531988 -1.5860367842
C 0.8945742652 0.2756674435 -2.1126284678
C -0.1132823582 -0.1689241152 -1.0788926254
C -1.1805873431 0.6731576338 -0.7513520257
C -2.1073539041 0.2972468518 0.2230043442
C -1.9684602168 -0.9324681828 0.8778544333
C -0.9008049621 -1.7716405965 0.5432459127
C 0.0252216456 -1.3966508130 -0.4304189952
O -0.8773420003 -2.9430459965 1.2521944147
C 0.1995946876 -3.8526743105 0.9907944121
O -2.8847005168 -1.2882685470 1.8310005932
O -3.1836840696 1.0432804200 0.6104015252
C -3.3596067757 2.3147616075 -0.0265138788
H 2.6370432506 2.2678848930 1.0496541383
H 4.2754286731 1.5735867646 0.8895951671
H 3.6837785434 2.8399201138 -0.2421645278
H 1.2697335511 2.2146834248 -1.1813862316
H 2.4389347011 1.7773001197 -2.4082954997
H 0.3692750550 0.6723945953 -2.9884529936
H 1.4872379073 -0.5811402848 -2.4457386309
H -1.2821456564 1.6216326557 -1.2657722856
H 0.8562127189 -2.0429945961 -0.6831958628
H 1.1658685556 -3.3857502851 1.2132369795
H 0.1811847267 -4.1895596732 -0.0517944544
H 0.0378875796 -4.7014458282 1.6555555438
H -2.6283344321 -2.1588412697 2.1701790354
H -4.2528950662 2.7487883489 0.4237298057
H -3.5111534731 2.1972501307 -1.1060365880
H -2.4992406237 2.9693032739 0.1561207261
