48
CONF18
Cl -5.0133646136 1.8497539212 -2.8752333683
C -4.0204392281 1.9899146128 -1.4170485236
C -3.9979841896 3.2019569595 -0.7429959481
C -3.1879019455 3.2705176976 0.3884846084
C -2.4445128240 2.1835989925 0.8261922545
C -2.4893600901 0.9480197561 0.1409457118
C -3.2930281713 0.8794926805 -1.0193872073
N -1.7773559845 -0.1627556305 0.5886599844
C -0.6416859116 0.1162001672 1.4814943449
C 0.0583288733 -1.1440871734 1.9587483918
N 0.4309618844 -1.9919253624 0.8307033789
C 1.2473393432 -3.1400590728 1.2470664055
C 2.7022405508 -2.7759712126 1.5427335810
C 3.5210676002 -2.3780185885 0.3121022896
N 3.0608656559 -1.1458561011 -0.3087062968
N 3.1685758389 0.0458063256 0.3755004068
C 2.4373279050 0.8884131283 -0.3261111821
C 2.1632531680 2.2621994193 -0.1221234548
C 1.3137868483 2.8919926389 -0.9882160610
C 0.7196950476 2.1976986293 -2.0872240510
C 1.0030743537 0.8860001361 -2.2972570935
N 1.8590195095 0.2593730357 -1.4279594643
C 2.2397051787 -1.0939420063 -1.4015844886
O 1.9115705629 -1.9719338654 -2.1972505100
C -0.8102910199 -2.4200959738 0.1954256358
C -1.5454021694 -1.2300507238 -0.3949736774
H -4.5738717298 4.0525026470 -1.0860170367
H -3.1296846147 4.2030315844 0.9417049314
H -1.8288185626 2.3090196350 1.7057501621
H -3.3584974971 -0.0202666092 -1.6136460020
H 0.0862080274 0.7728013112 0.9772417211
H -1.0045738478 0.6399266292 2.3700409384
H 0.9511325795 -0.8301735199 2.5084688823
H -0.5966611573 -1.6950495282 2.6647782742
H 0.8079031917 -3.6374039914 2.1339580695
H 1.2298908275 -3.8728567093 0.4303130752
H 3.1902485891 -3.6556096989 1.9783407715
H 2.7660513504 -1.9827995031 2.2951567604
H 3.4616459786 -3.1531147551 -0.4583695173
H 4.5729910656 -2.2457285490 0.5863099348
H 2.6157754273 2.7697727754 0.7217242753
H 1.0775559843 3.9403071650 -0.8409331005
H 0.0438484644 2.7103219934 -2.7602858678
H 0.6096350551 0.2789560004 -3.1042590782
H -1.4691790297 -2.9506632905 0.9131615009
H -0.5837062546 -3.1106003399 -0.6244979812
H -2.5081701053 -1.5936986428 -0.7648599292
H -0.9752093435 -0.8404773033 -1.2560659640
