39
CONF226
C 6.8307917487 2.9488280341 -2.0820727354
C 6.4292664416 1.5836304137 -1.5269282794
C 5.7795418148 1.6778230230 -0.1459545841
C 5.3526209093 0.3124013956 0.3922274894
C 4.8787245842 0.3062199263 1.8534134583
C 4.3972304233 -1.0818080683 2.3039195564
C 5.4639897715 -2.1723954167 2.2147682811
C 3.8171802956 1.3617827470 2.1328288718
O 2.6767449128 1.1768735497 1.2298248053
C 1.5503078857 0.6587280769 1.7304874230
O 1.3422039452 0.3904200668 2.8932356077
C 0.5721340992 0.3930439761 0.6248270816
C 1.0413741776 -0.3088816186 -0.4810428414
C 0.1762345808 -0.6911380727 -1.4932645927
C -1.1801597043 -0.3599400461 -1.4312481770
C -1.6547611162 0.3755047241 -0.3310341259
C -0.7780724748 0.7458317092 0.6969066981
Br -1.3914093187 1.8024612386 2.1507477401
Br -3.4827979387 0.8658192742 -0.2442759814
Br -2.3514121541 -0.8926677979 -2.8170108866
Br 0.9124077585 -1.6704574816 -2.9453885142
H 7.5444451788 3.4458810493 -1.4154870012
H 7.2973388405 2.8597846958 -3.0682340359
H 5.9566272559 3.6020360002 -2.1806150276
H 5.7313037536 1.0934224270 -2.2188964982
H 7.3122617541 0.9338856982 -1.4660232666
H 6.4851670076 2.1459347153 0.5557935951
H 4.9129973519 2.3487384616 -0.2108365204
H 6.2025676607 -0.3747093763 0.3060073156
H 4.5584163240 -0.0999258308 -0.2457265301
H 5.7308604910 0.5944836027 2.4894916147
H 3.5265910213 -1.3746121051 1.7002004831
H 4.0450415203 -1.0061596539 3.3400741284
H 5.1025215316 -3.1006759955 2.6676257929
H 5.7360080633 -2.3954760733 1.1791334172
H 6.3746653711 -1.8715185124 2.7453376523
H 4.1773667439 2.3696724995 1.9187833600
H 3.4644026221 1.3107488134 3.1652066847
H 2.0900352948 -0.5734233578 -0.5374486539
