31
CONF7
C -2.3082592838 -1.6499717666 0.1748351262
C -2.1407112581 -0.1413758484 0.2642591178
C -2.3472368027 0.5398644835 -1.1114446963
C -0.9439524793 0.6521345623 -1.6397948776
C -0.4413961241 0.9876289411 -2.8878862899
C 0.9445841885 1.0658941520 -3.0623078411
C 1.8087189342 0.8093480170 -1.9974684905
C 1.2983497452 0.4734015733 -0.7487116065
C -0.0778464226 0.4004599016 -0.5777483767
O -0.6985739550 0.1038105061 0.5886532967
O 2.1575467623 0.2819079548 0.3303237531
C 2.2568535039 -1.0128764518 0.8060708331
O 1.7596291802 -1.9757270621 0.2416778987
N 2.9739598939 -1.0424554443 1.9417277739
C 3.5790316824 0.1190160206 2.5879908359
C -2.9538185337 0.4710752341 1.3837372794
H -2.0214659184 -2.1214622437 1.1191183557
H -1.6866783834 -2.0568171108 -0.6296918259
H -3.3539808553 -1.8931316256 -0.0373518684
H -2.7972827154 1.5338196851 -0.9961774445
H -3.0036024438 -0.0553049249 -1.7526954947
H -1.1124440241 1.1899729360 -3.7171564369
H 1.3561386516 1.3243351468 -4.0321804002
H 2.8854283111 0.8615490766 -2.1247746216
H 3.1448955049 -1.9589774802 2.3229311967
H 4.3336657909 0.5876479440 1.9477668101
H 2.8210990976 0.8649374614 2.8442242081
H 4.0600561309 -0.2217247607 3.5059647708
H -2.7180007640 -0.0074761233 2.3388329970
H -4.0189093363 0.3266057850 1.1784977758
H -2.7557976915 1.5438917841 1.4602146336
