54
CONF8
C -0.0846551034 0.5641537213 -3.7053838945
C -0.9121275977 -0.5694830790 -3.0864957550
C -0.2848460409 -1.0742380679 -1.8085698011
O 0.2929475583 -2.1335367863 -1.6981546772
O -0.4452763518 -0.1556234492 -0.8321499865
C 0.0123483122 -0.3768718648 0.5455103807
C -0.6911356768 -1.6434786822 1.0972688518
C -2.1538946019 -1.7359194606 0.7348517421
C -3.1115366797 -0.9142569560 1.3381448789
C -4.4508299392 -0.9962390308 0.9725940217
C -4.8600973810 -1.9046616735 0.0002618206
C -3.9191955254 -2.7374438882 -0.5960656568
C -2.5785169594 -2.6527817166 -0.2305286271
C -0.4115337308 0.8885706812 1.2878732087
C -0.4004479815 0.9282304742 2.6870123192
C -0.7394661639 2.0871147862 3.3766142482
C -1.1016169587 3.2366309954 2.6824510567
C -1.1192109164 3.2099247247 1.2930827194
C -0.7762488184 2.0509057676 0.6032555557
C 1.5617265169 -0.5345188338 0.5362719239
C 2.1726824689 -0.8561360149 1.9000634999
C 2.2457991053 0.7057977179 -0.0598592480
N 3.6359554110 0.4332721225 -0.4375061803
C 4.3928679831 1.6767602114 -0.5423836292
C 3.7065655679 -0.2964859283 -1.7008566753
H 0.9356188624 0.2296762639 -3.9152903251
H -0.0307704940 1.4233670533 -3.0314133267
H -0.5357226396 0.8934781480 -4.6452690278
H -0.9748976687 -1.4187133819 -3.7703107150
H -1.9255063747 -0.2193261453 -2.8639231231
H -0.1643535486 -2.5201168756 0.7135264163
H -0.5800367760 -1.6491098619 2.1842053198
H -2.8069752528 -0.2024354348 2.0983100706
H -5.1785538654 -0.3494341125 1.4528811171
H -5.9059215395 -1.9688658261 -0.2828945750
H -4.2274871065 -3.4593352794 -1.3461315460
H -1.8484943969 -3.3049223819 -0.7001916659
H -0.1397431129 0.0452556798 3.2586786288
H -0.7262153130 2.0856816048 4.4619798611
H -1.3718546612 4.1400886688 3.2193090330
H -1.4059368940 4.0961909684 0.7356141272
H -0.8050898868 2.0471313103 -0.4781707402
H 1.7473670764 -1.3896550176 -0.1176645623
H 1.7539602588 -1.7647498308 2.3425168039
H 2.0472705429 -0.0288357700 2.6053341390
H 3.2458625392 -1.0102337928 1.7620195552
H 2.2453079286 1.4995008610 0.6978597355
H 1.6697272602 1.0915384560 -0.9233583344
H 3.9841353291 2.3668714080 -1.3081312590
H 5.4315807474 1.4545954416 -0.8092981985
H 4.3924812243 2.1966966920 0.4211313821
H 3.2948710054 0.2903408624 -2.5478663868
H 4.7497057834 -0.5387588942 -1.9292618488
H 3.1494152857 -1.2356078646 -1.6414928686
