35
CONF84
C -1.6210859699 2.0450474940 0.7312969810
C -1.7533102770 0.5811317347 0.4525269696
C -2.9354377404 -0.0573320090 0.2117023051
S -2.7199187236 -1.7689727833 -0.0095867811
C -1.0033661893 -1.6549893421 0.2291543577
C -0.6511833971 -0.3441108985 0.4492182435
N 0.6968516624 0.0708519424 0.6645923359
C 1.6504068634 0.2886692178 -0.4691526131
C 2.7189247041 -0.8050464632 -0.5206488306
C 0.9279917206 0.3618498039 -1.7994191823
O 0.1614792288 1.5554094598 -1.8621957985
C -0.7564757296 1.5445043726 -2.9506871785
C 1.1615703234 0.3013980892 1.9252831654
O 2.2765680914 0.7599845753 2.1554133766
C 0.1937203186 -0.1272866641 3.0330706932
Cl 0.7906889379 0.3739902901 4.6641390216
C -0.1299031295 -2.8618247235 0.1830014219
H -1.2846642021 2.2277290700 1.7591788430
H -2.5825688816 2.5470437044 0.6013657514
H -0.8884337871 2.4968434159 0.0581123710
H -3.9259515101 0.3750899623 0.1587571333
H 2.1312120668 1.2556333651 -0.2829760938
H 2.2991041394 -1.7441855425 -0.8914887826
H 3.5226735003 -0.4967274904 -1.1955771794
H 3.1476670157 -0.9759556425 0.4683163264
H 1.6847549539 0.3484565285 -2.5998084686
H 0.2813325066 -0.5199449674 -1.9349900276
H -0.2325553448 1.4586101854 -3.9141144668
H -1.3040364915 2.4894631406 -2.9211260819
H -1.4675348703 0.7099614280 -2.8560623429
H 0.1038242593 -1.2172679687 3.0376884170
H -0.8005238443 0.3021263591 2.9077268543
H 0.7645377769 -2.6931039618 0.7893996557
H -0.6499228413 -3.7426703868 0.5684210018
H 0.1935648706 -3.0843749936 -0.8405308793
