52
CONF268
C 1.2514826088 3.2873219205 0.9744308095
C 1.7103801997 2.1793709954 0.0549823450
C 3.0965375349 2.4267918185 -0.5449048893
C 3.4346258310 1.3737563384 -1.6084338310
C 2.3089640368 1.2592034316 -2.6448405418
C 0.9428714867 1.1061060047 -1.9738527846
O 0.7145799497 2.0929021613 -1.0085906414
O 0.8992053085 -0.2365963044 -1.4093506628
C -0.3524682865 -0.6240860803 -0.9837310474
C -0.5876970373 -0.8392730832 0.3451273552
O -1.8227133481 -1.1797022809 0.8027026097
C -2.8765443416 -1.3182556653 -0.0576694517
C -4.1007561465 -1.6288633310 0.5064577923
C -5.1817618373 -1.8034222779 -0.3585357596
C -5.0496711451 -1.6730536725 -1.7464752371
C -3.8109465252 -1.3622127247 -2.2865538465
C -2.6848760805 -1.1722978430 -1.4397649419
C -1.3910719037 -0.8305932331 -1.9711602861
O -1.1794275878 -0.7051919933 -3.2055661620
O -3.6779165953 -1.2341574557 -3.6163717509
O -6.3705445268 -2.1106413741 0.2142797940
C 0.3968244339 -0.7307529313 1.4171061166
C 1.6659109105 -1.3096665734 1.2721834173
C 2.6380570475 -1.1297926531 2.2439078828
C 2.3403082119 -0.3685687277 3.3916554276
C 1.0669062314 0.1727988397 3.5486377228
C 0.0936868076 -0.0083417922 2.5739815511
O 3.3365938757 -0.2162197323 4.3009145539
O 3.8904229513 -1.6555094755 2.1618226873
O 2.2803500405 2.4064860286 -3.4927441810
O 3.7180012524 0.1125405911 -0.9843775580
O 4.0887042719 2.4277595796 0.4782770878
H 0.2622772391 3.0564141027 1.3797274424
H 1.9529055638 3.3897413598 1.8057246239
H 1.2023590798 4.2379768145 0.4332146087
H 1.7256846100 1.2264601037 0.5988973354
H 3.1156809808 3.4246270338 -1.0025616553
H 4.3560064293 1.6672341303 -2.1227592354
H 2.4941509331 0.3958479596 -3.2919001346
H 0.1420983400 1.2139932252 -2.7100504868
H -4.2141404971 -1.7411525192 1.5775281021
H -5.9026141285 -1.8141581802 -2.4029459729
H 1.8870351522 -1.9271216910 0.4058187492
H 0.8472653970 0.7533433458 4.4405941418
H -0.8845751456 0.4430980574 2.6940911760
H 3.0157055408 0.3175414172 5.0409283472
H 3.9881781695 -2.1233614848 1.3210003415
H 1.9176556959 3.1499652784 -2.9908654911
H 2.8735280745 -0.3149062638 -0.7758461212
H 4.2728008886 1.4951486710 0.6729521394
H -7.0480788437 -2.2157171422 -0.4682518570
H -2.7154688710 -1.0130202363 -3.7736302511
