55
CONF132
C -0.0466889006 -6.7863546682 4.2673901589
C -0.9496497552 -6.1335577716 3.2474801216
O -0.4697468182 -4.7759716280 3.0626399597
C -1.1815603381 -4.0420712378 2.1647328270
O -2.1417933234 -4.4489855737 1.5471087022
N -0.6227179294 -2.7891512527 2.0885267360
C -1.0335965435 -1.7066601274 1.2993043066
C -0.2772121672 -0.5336395948 1.3875424984
C -0.5971883997 0.5747227002 0.6121990507
C -1.7437646705 0.5581133051 -0.1871685068
C -2.5074940754 -0.6045798375 -0.2543620514
C -2.1512773401 -1.7426338991 0.4561230429
S -2.2059474514 2.0203223821 -1.0805513580
C -1.6411149971 3.2273984578 0.0995664700
C -2.3309360025 4.4294105412 0.2522980950
C -1.8645927995 5.3817031143 1.1499618609
C -0.7336021859 5.1229931592 1.9199106308
C -0.0546955622 3.9178678464 1.7855298651
C -0.4937141537 2.9764292446 0.8587903444
N 0.2061485333 1.7471945271 0.6526948340
C 1.5640854317 1.7813884400 0.3030046081
O 2.2117370884 2.8100276154 0.3974293157
C 2.1987273163 0.5115929434 -0.2273185190
C 2.9852654783 0.7672151353 -1.5392957998
N 2.2042464367 0.9617927679 -2.7506626876
C 1.4472767196 2.2140637179 -2.7907376649
C 0.8433569263 2.3890829317 -4.1757526126
O -0.0011594216 1.2892502361 -4.5161507256
C 0.7344627077 0.0703017304 -4.4704050597
C 1.3304201487 -0.1586966125 -3.0881641371
H 0.9884844416 -6.8080666480 3.9164180300
H -0.3745456049 -7.8157686239 4.4381024966
H -0.0817435836 -6.2511405894 5.2200701379
H -1.9910618368 -6.0952533331 3.5832008377
H -0.9233812574 -6.6498973346 2.2823598175
H 0.1782000488 -2.6396900802 2.6821523683
H 0.5856523880 -0.4802421511 2.0455543171
H -3.3993993349 -0.6221026931 -0.8721440683
H -2.7463169146 -2.6413946749 0.3850836548
H -3.2287256343 4.6096082158 -0.3297783992
H -2.3979328114 6.3199987666 1.2600265650
H -0.3769753686 5.8612939650 2.6298787050
H 0.8316993285 3.7103542372 2.3708030590
H 2.9237758456 0.1864886078 0.5293791899
H 1.4859428680 -0.3009998904 -0.3661779863
H 3.6239465863 1.6449984498 -1.3930731898
H 3.6377312679 -0.1006438190 -1.7006883643
H 0.6236238960 2.2323147371 -2.0527556390
H 2.1201557643 3.0499185066 -2.5655585015
H 0.2131016940 3.2827673113 -4.2082475477
H 1.6492073159 2.4858056374 -4.9227691830
H 0.0288272734 -0.7274105363 -4.7223794387
H 1.5422918452 0.0888876213 -5.2215174891
H 1.9164074814 -1.0876765105 -3.0901331371
H 0.4937609527 -0.2807186578 -2.3694690272
