27
CONF113
C 3.1446317459 -1.2580998436 -0.2628330210
C 4.5571288923 -0.7270428714 -0.5246743495
C 5.0503323074 0.2977803997 0.4933146595
O 5.1169616210 -0.2201880400 1.8232887980
C 2.0799456248 -0.1586274920 -0.3298855238
C 0.6824598531 -0.7156152967 -0.1697897857
C -0.4141203568 0.3905088806 -0.1231222170
C -1.8879528115 -0.1143361072 -0.2527490093
C -2.9635574611 0.9189132695 0.2165523149
F -4.1748075110 0.4840234556 -0.1583970461
F -2.7430993472 2.1165434378 -0.3460488097
F -2.9535263937 1.0525530335 1.5474419538
F -2.0594606620 -1.2355684456 0.4835221432
F -2.1363890041 -0.3976744884 -1.5506696689
F -0.1863227619 1.2648519337 -1.1378788743
F -0.2793883260 1.0627761592 1.0515676657
F 0.5892667543 -1.4389662504 0.9873889410
F 0.3745925761 -1.5588611963 -1.2046809311
H 2.9106264102 -2.0269008195 -1.0064066639
H 3.1071125871 -1.7559136271 0.7124963743
H 5.2533985124 -1.5731909735 -0.5282990618
H 4.5999333353 -0.2696452236 -1.5228372620
H 4.4386619701 1.2135682576 0.4607907208
H 6.0744886806 0.5916205548 0.2431451686
H 2.1276635504 0.3630397677 -1.2909048816
H 2.2239823115 0.5918998708 0.4553840460
H 4.2197754685 -0.3569602673 2.1453261651
