22
CONF6
C -2.7613327653 -0.1235022839 -0.1393449471
C -3.0647265464 -1.2498238663 -0.8953147094
N -2.1437861852 -2.1282685456 -1.3086505190
C -0.8734697302 -1.8943262453 -0.9753888560
C -0.4557127066 -0.7851279940 -0.2358495798
C -1.4335477881 0.1143977400 0.1962441395
C -1.0804157595 1.3306473996 1.0169210094
F -0.0929203033 1.0709230641 1.9063125564
F -2.1363408130 1.7894196343 1.7167794179
F -0.6492214810 2.3528478802 0.2337924502
C 1.0067406599 -0.6830691289 0.0936736264
O 1.5439769099 -1.4855985162 0.8530929423
N 1.6800094287 0.3082588499 -0.5324452092
C 3.0935744421 0.5178302684 -0.2716428499
C 3.3174245237 1.1100927844 1.0501688389
N 3.4833773870 1.5793339749 2.0922107218
H -3.5508570740 0.5440833963 0.1840186360
H -4.0962554101 -1.4551646996 -1.1713478285
H -0.1330178373 -2.6176537736 -1.3116221269
H 1.2040070216 0.9470749884 -1.1526998110
H 3.5033371640 1.1887834487 -1.0312554249
H 3.6391565511 -0.4311582858 -0.3176522707
