47
CONF56
C -4.5802281234 0.1814309383 0.5723821883
C -3.5380561791 -0.5320437365 -0.2603404516
C -3.8361045528 -1.9012058474 -0.8225291045
C -2.9056270922 -1.7670264847 0.3830129741
C -1.4766555814 -2.0651171137 0.1864726559
O -0.8872042843 -2.1157002268 -0.8699385876
O -0.8722269232 -2.2630251686 1.3978281602
C 0.5719795271 -2.4623880326 1.3367668425
C 0.9000253236 -3.3770303727 2.4261590457
N 1.1862007040 -4.0937759997 3.2846888141
C 1.2868418858 -1.1346879025 1.4484695464
C 1.6587984218 -0.4764250104 0.2787211960
C 2.2575824286 0.7770811888 0.3631204697
C 2.4871388765 1.3771076907 1.6002927769
C 2.1189332062 0.7012498303 2.7584328538
C 1.5203761215 -0.5514932738 2.6936680950
O 2.5360449874 1.4004168902 -0.8312764712
C 3.6017615351 2.2830423220 -0.9016541620
C 3.3889771642 3.4819650600 -1.5711239844
C 4.4515143687 4.3652313507 -1.7354553195
C 5.7101748529 4.0553301433 -1.2289592590
C 5.9069771888 2.8479989573 -0.5625733845
C 4.8569716414 1.9515742317 -0.3982733378
C -5.1332191205 -2.5600548214 -0.6523670690
C -5.7539461549 -3.2904213920 -1.5806788300
Cl -7.3009191509 -4.0337147585 -1.2888347345
Cl -5.1158994340 -3.5867782034 -3.1695406662
C -2.6926674867 0.3989380512 -1.0986339027
H -5.3162979183 0.6641646946 -0.0797338649
H -4.1025798527 0.9580699421 1.1782233510
H -5.1133861669 -0.4883473068 1.2502663616
H -3.3068479357 -2.1283624012 -1.7428579713
H -3.2997742062 -2.0365603100 1.3568984408
H 0.8158945307 -2.9435022830 0.3826577051
H 1.4742369584 -0.9152478586 -0.6954083842
H 2.9497518201 2.3562803360 1.6512756100
H 2.2996944200 1.1629428923 3.7235380811
H 1.2429638812 -1.0765552028 3.6017056517
H 2.4001964144 3.7038483003 -1.9571681010
H 4.2905551421 5.3020129527 -2.2590104217
H 6.5351454266 4.7477944304 -1.3560357858
H 6.8884564835 2.5942600076 -0.1751754474
H 5.0037313427 1.0048769995 0.1106725924
H -5.6483045146 -2.4591905312 0.2974842580
H -1.9710106125 -0.1391503362 -1.7143264344
H -2.1458794245 1.0989245669 -0.4567087792
H -3.3440884355 0.9832634852 -1.7570865053
