40
CONF117
C 2.8322759830 0.5713633375 2.9503121346
C 1.4255260176 0.7199122123 2.4185350483
O 1.3641352267 0.4551079234 0.9756455739
P 1.4695269638 -1.0216339452 0.3795187318
S 0.7606325869 -2.4996176475 1.4155708981
O 2.9921774121 -1.2753596385 -0.0155665287
C 3.7649892262 -0.2738110839 -0.7754335236
C 5.2256834153 -0.5805179795 -0.5616929266
O 0.8500564987 -0.7717570602 -1.1237544947
C -0.4581152600 -0.4515413316 -1.3798880917
C -0.8421912010 -0.3989689261 -2.7152251619
C -2.1686893337 -0.0651146369 -2.9506766662
N -3.0222278069 0.1862053642 -1.9331952910
C -2.5404206405 0.1024924381 -0.6926828531
N -1.2712078931 -0.2106010680 -0.3718115448
C -3.4716098833 0.3830519258 0.4607363613
C -3.5835861501 -0.8414433379 1.3778073275
C -2.9958022989 1.6138076892 1.2441508442
C -2.7221762108 0.0329323421 -4.3356158077
H 2.8446112033 0.8647530230 4.0047583475
H 3.5254442535 1.2163384360 2.4026292836
H 3.1771937623 -0.4647180101 2.8805696564
H 1.0647670065 1.7464124106 2.5068908508
H 0.7221319429 0.0474363538 2.9196745139
H 3.4753930033 -0.3640780385 -1.8263447161
H 3.5042815773 0.7236233639 -0.4094490047
H 5.8253857416 0.1335247487 -1.1342351884
H 5.4667765090 -1.5897960850 -0.9060661366
H 5.4915514762 -0.4890440622 0.4950693111
H -0.1427780420 -0.6062002939 -3.5156946309
H -4.4535209327 0.5954209596 0.0259724891
H -3.9185151009 -1.7242206160 0.8238939475
H -4.3041183349 -0.6415907471 2.1769025628
H -2.6149206753 -1.0668733989 1.8353070356
H -2.0145511349 1.4248270883 1.6916981461
H -2.9177751786 2.4925033361 0.5961347265
H -3.7039426684 1.8385085239 2.0476157782
H -1.9649546632 -0.1973438739 -5.0866667192
H -3.5645910835 -0.6571433078 -4.4485326251
H -3.1068465150 1.0431536226 -4.5101566805
