20
CONF50
C -2.5924953043 1.1038919915 -0.4193255912
O -1.6291614006 0.7699694019 0.6267890094
P -0.5119643870 -0.3207957862 0.3458985874
O -0.9093222115 -1.5140226616 -0.4368343122
O 0.1405126242 -0.5220003524 1.7742211162
C -0.6123735707 -1.2468548502 2.7976239133
O 0.6887145730 0.5427539372 -0.3663043619
C 1.3402613792 0.0542457164 -1.4849855045
C 2.8306501818 0.4414044279 -1.4061511162
Cl 3.0565141167 2.1993269719 -1.2310048190
Cl 3.7006264975 -0.1627995306 -2.8389344814
Br 3.5561150133 -0.4757676050 0.1983202160
Br 0.5015434462 0.8231845821 -3.1330966452
H -2.0842582972 1.6245555500 -1.2349442981
H -3.0782518217 0.1966776877 -0.7848802705
H -3.3204348843 1.7616816178 0.0533253837
H 0.0585154442 -1.3228230841 3.6518418028
H -1.5082739031 -0.6826938603 3.0674181139
H -0.8752948165 -2.2425322085 2.4327255490
H 1.2483775113 -1.0274023479 -1.6117022808
