36
CONF113
C 1.0890867945 3.4106485424 -1.0367743544
C 1.9647868893 2.4682591781 -1.8735946180
C 2.1395849390 1.1403757302 -1.2061020383
C 1.7210371622 -0.0284321372 -1.6899085282
C 1.8396657018 -1.3389480488 -0.9759165891
C 0.4700047603 -1.9362692626 -0.6253825230
C -0.5368384380 -1.0326585257 0.0992045400
C -1.8817994393 -1.7475724213 -0.1269352212
C -1.7997610773 -2.2175003164 -1.5829643981
C -0.3133358043 -2.4342548353 -1.8420402508
O 0.1732288911 -2.9008263132 -2.8459593353
C -0.1904182908 -0.7729563392 1.5553213851
C -1.1148720483 0.2287740893 2.2060528508
O -1.8227876521 1.0160778351 1.6217836081
O -1.0296307065 0.1577880456 3.5553212762
C -1.8384002383 1.1206655360 4.2653296197
H 0.0924912161 2.9833942181 -0.8884100627
H 0.9792668257 4.3840752489 -1.5243018961
H 1.5290257586 3.5776744998 -0.0478530619
H 2.9467555630 2.9360008431 -2.0281807780
H 1.5217525273 2.3251103552 -2.8657782114
H 2.6260806496 1.1586924178 -0.2275839177
H 1.2297744085 -0.0545344693 -2.6644196826
H 2.4361034456 -1.2128201717 -0.0648951394
H 2.3595748416 -2.0684377686 -1.6100860730
H 0.6277648614 -2.8405129561 -0.0105165108
H -0.5668270094 -0.0665289035 -0.4209659596
H -2.7332964406 -1.0931137691 0.0712435904
H -1.9544334684 -2.6123334428 0.5463968228
H -2.1301271958 -1.4295970701 -2.2733121023
H -2.3748201870 -3.1150921610 -1.8252557394
H -0.1885703757 -1.6993453732 2.1418951899
H 0.8230434238 -0.3557398786 1.6372494332
H -1.6476981529 0.9376450452 5.3225328544
H -2.8961488337 0.9742441955 4.0320733446
H -1.5492630150 2.1380477749 3.9896560536
