47
CONF28
C -7.6227672704 0.7062474045 1.1490424854
O -6.4091495069 1.4906605380 1.1384598407
P -5.0709581680 0.8678662664 0.5090424072
S -5.2266057760 -0.0631711578 -1.1759170794
O -4.0817154658 2.1279630865 0.5770517189
C -4.0305584493 3.0660066278 -0.5222726962
O -4.5385909028 0.0063821915 1.7785549111
C -3.4112336126 -0.8100507103 1.6541868330
C -3.5818083949 -2.1594352616 1.3870732967
C -2.4611496698 -2.9773403801 1.2951224366
C -1.1857239790 -2.4448965345 1.4906961560
C -1.0345204638 -1.0854129953 1.7774054262
C -2.1489544121 -0.2613469995 1.8462287753
S 0.2115916658 -3.5579235021 1.4439405010
C 1.4305909156 -2.6017701332 0.5539818470
C 1.1018972123 -1.8788857446 -0.5964800857
C 2.0843966567 -1.1802017510 -1.2828027627
C 3.3966368365 -1.2339505178 -0.8301791082
C 3.7459116219 -1.9623602203 0.2967255498
C 2.7534790518 -2.6396837643 0.9974787965
O 4.3946044008 -0.5790493698 -1.5577229371
P 4.8443799007 0.9297346410 -1.1634330723
S 3.4361930633 2.2200737132 -0.8758890295
O 5.8902833122 1.2257978155 -2.3434191606
C 5.4103248670 1.6991192670 -3.6218928265
O 5.8363008698 0.6248580395 0.0597168637
C 6.3246684076 1.7144127090 0.8751946517
H -7.5087701156 -0.1576603189 1.8115688652
H -7.8686212753 0.3734359836 0.1363232032
H -8.4005919583 1.3674455029 1.5322397753
H -3.8518837905 2.5380393934 -1.4631628030
H -4.9657687085 3.6313634084 -0.5793202372
H -3.2011455884 3.7378439358 -0.2993899958
H -4.5786272719 -2.5520853301 1.2235263869
H -2.5769015745 -4.0292720237 1.0564345136
H -0.0452555045 -0.6710136613 1.9389469560
H -2.0516756035 0.7971002325 2.0592681262
H 0.0757221959 -1.8543260942 -0.9468962458
H 1.8458524555 -0.5986402380 -2.1657641269
H 4.7784497859 -1.9787194921 0.6261150627
H 3.0061335923 -3.1925722342 1.8960780534
H 4.8231105678 0.9194109294 -4.1172884325
H 4.8037219274 2.5998215750 -3.4898370920
H 6.3013531000 1.9222709955 -4.2094492842
H 5.4876397252 2.2963235772 1.2712704727
H 6.8830816576 1.2486682152 1.6877906655
H 6.9866525882 2.3589225869 0.2886984052
