39
CONF13
N 1.7240199020 -0.2612180343 2.3522063307
C 2.0070989187 -1.3916097035 1.6502518527
N 2.1651625808 -2.5237991471 2.3517581440
C 2.4892144069 -3.6297029037 1.6597292191
N 2.5955041052 -4.7922113655 2.3778345507
N 2.6709040608 -3.7160983642 0.3292035981
C 2.5044485636 -2.5624186632 -0.3394372247
C 2.1757349256 -1.3545033123 0.2420727888
C 2.0080198073 -0.0899745476 -0.5524497067
C 0.6017277499 0.4833519590 -0.5032944210
C -0.4920040770 -0.3573425362 -0.7112865969
C -1.7858441707 0.1671254024 -0.6782085405
O -2.9182405547 -0.5616643960 -0.8732496280
C -2.7601311256 -1.9621324499 -1.1416186700
C 0.4129421650 1.8419429397 -0.2520297279
C -0.8835498759 2.3694752689 -0.2177051234
O -1.1772260464 3.6773419210 0.0155617036
C -0.0774835933 4.5709315903 0.2397743942
C -1.9885134464 1.5323515483 -0.4214470973
O -3.2647092657 2.0382672831 -0.3358559701
C -3.7743468432 2.4877264851 -1.6093440351
H 1.3247223045 0.5253086128 1.8620378495
H 1.4373557291 -0.3769560624 3.3125946319
H 3.0940067324 -5.5474207663 1.9334526006
H 2.7376430482 -4.6973117284 3.3714091627
H 2.6488530166 -2.6086981009 -1.4196624693
H 2.2721178334 -0.3030705940 -1.5957076874
H 2.7132093904 0.6753200305 -0.2032282985
H -0.3216888682 -1.4115999437 -0.8936827986
H -2.1783331116 -2.1232378712 -2.0563218175
H -2.2761910188 -2.4711989427 -0.3000265493
H -3.7700699077 -2.3507643218 -1.2743884376
H 1.2751469227 2.4785788543 -0.0914084059
H 0.5849934245 4.6059660185 -0.6326838900
H 0.4933431009 4.2764278824 1.1279083589
H -0.5257912363 5.5517192492 0.4000804159
H -3.1502888675 3.2961963396 -2.0078066780
H -4.7851615717 2.8575254487 -1.4266949419
H -3.8065967056 1.6573770162 -2.3240760952
