41
CONF20
C 1.7794470280 3.5852976991 -0.9140588376
C 2.1863942386 2.5385363304 0.0712127010
N 1.2272716276 1.7165499010 0.5341532375
C 1.6395928394 0.8321091415 1.4516822678
N 2.8974151604 0.7046785340 1.9007644995
C 3.7524442359 1.5636038405 1.3480350650
N 3.4644565935 2.5048324114 0.4375515884
O 5.0336413891 1.5266873287 1.7037579810
C 5.4228275711 0.5407081579 2.6824482355
N 0.7364092037 -0.0389129615 2.0107700772
C -0.6477366135 -0.2308606418 1.8025997494
O -1.2239822717 -1.1120272654 2.4090450721
N -1.2261256429 0.6286602248 0.9063196306
S -2.8330222413 0.4247694513 0.3444417770
O -2.8971218446 1.3192883973 -0.8138853171
O -3.7369275720 0.5746030718 1.4783783453
C -2.9415318677 -1.2859330636 -0.2178102667
C -3.5897487303 -2.1772215836 0.6305461766
C -3.8329527685 -3.4757858842 0.2000427714
C -3.4585269154 -3.8652338999 -1.0815887445
C -2.8246017245 -2.9646483281 -1.9282729809
C -2.5353904092 -1.6678687194 -1.5015995282
C -1.8180033108 -0.7930914185 -2.4792123946
O -2.1469087038 -0.6706819204 -3.6339951709
O -0.7111417921 -0.2449405405 -1.9369869512
C 0.0006063796 0.6542111943 -2.8157464240
H 2.4776075074 3.6027515581 -1.7545541469
H 1.8378407886 4.5670035605 -0.4317603358
H 0.7588631955 3.4241480057 -1.2616419056
H 4.8876701867 0.6996114195 3.6219310460
H 6.4931159874 0.6917915008 2.8190369175
H 5.2195730867 -0.4678698585 2.3137447388
H 1.1209455309 -0.6812088638 2.6896135836
H -0.6101201807 1.2319776819 0.3503365876
H -3.8996641659 -1.8424940945 1.6124555151
H -4.3292591403 -4.1754168040 0.8637033073
H -3.6649028832 -4.8725881889 -1.4275647073
H -2.5406775185 -3.2521034449 -2.9348502409
H 0.2781194197 0.1428514265 -3.7404707006
H 0.8858177479 0.9597536932 -2.2584399278
H -0.6317139185 1.5151032742 -3.0501322166
