35
CONF45
C -4.6880466811 -1.7294265444 2.3117472567
C -3.8678554629 -1.3834694800 1.0949838474
O -2.4522095784 -1.4620511345 1.4893147547
P -1.3429521793 -1.0017928591 0.4438069623
S -1.2886084617 -1.8693173591 -1.2912019732
O -1.4464700512 0.5872070471 0.4695044135
C -1.2275684677 1.4517327405 -0.6985742715
C -2.5586689366 1.9081580251 -1.2427361058
O -0.0871486890 -1.3547059146 1.4528326855
C 1.1950946369 -1.1019603903 1.1017187205
N 2.2006449002 -1.7628788773 1.7161167999
C 3.2576846958 -1.2232299083 1.1192987896
N 2.9055197760 -0.2993650302 0.2080319606
N 1.5444880436 -0.2097362086 0.1897576256
C 3.7221741094 0.5053415609 -0.7192532904
C 3.4348810482 1.9875874788 -0.5098152046
C 3.4687749597 0.0488767576 -2.1522993976
Cl 4.8812564879 -1.6487026045 1.4635075104
H -5.7483043086 -1.6932683733 2.0446423202
H -4.5087757715 -1.0152558664 3.1197911649
H -4.4532357276 -2.7373868136 2.6641678181
H -4.0738142179 -0.3667981601 0.7426040209
H -4.0301964475 -2.0915276177 0.2763683433
H -0.6291390884 2.2821182231 -0.3172442998
H -0.6446725555 0.9032183995 -1.4423971993
H -3.1373162730 2.4286949870 -0.4745838894
H -3.1390028571 1.0574537540 -1.6122904761
H -2.3864776861 2.5981806493 -2.0749712063
H 4.7583543859 0.2909054245 -0.4421736181
H 2.4033958863 2.2233033575 -0.7862513237
H 3.6006462839 2.2767370941 0.5315225467
H 4.1057312540 2.5702078590 -1.1464432766
H 4.1272234255 0.6044855306 -2.8251692764
H 2.4316578579 0.2461663256 -2.4396450104
H 3.6729349013 -1.0195023635 -2.2646677111
