46
CONF22
C 5.3473579355 -3.3759870377 -1.3181078945
C 4.4674693411 -3.8183764023 -0.1688270653
O 4.3461897123 -2.7660496289 0.8363765502
C 3.4591136292 -1.7876295801 0.6444056608
N 3.4762258237 -0.8547863757 1.5929737583
C 2.5791810593 0.1356316454 1.4093866331
N 1.7239965756 0.2135166947 0.3614824243
C 1.8114962193 -0.7957040161 -0.4984084515
N 2.6566898566 -1.8319887337 -0.4280522756
N 0.9623132802 -0.8193556026 -1.5918158598
C -0.0674980666 0.0421351917 -1.9681228880
O -0.7612587002 -0.2087042364 -2.9419214118
N -0.2129734093 1.1628069366 -1.1783902029
S -1.5534435644 2.1927866515 -1.3168362986
O -1.4347716583 3.0785513888 -0.1502333236
O -1.5746158990 2.7566343362 -2.6677987293
C -3.0187146573 1.1695989253 -1.1154561187
C -3.7679538018 0.8919883483 -2.2524251644
C -4.9708018370 0.2039180252 -2.1251004799
C -5.4243987426 -0.1765471186 -0.8669914865
C -4.6761010206 0.1198619206 0.2683554554
C -3.4547065803 0.7849164641 0.1589188920
C -2.6339944805 0.9678014890 1.3957794897
O -1.5086100738 0.5327399491 1.5316585361
O -3.3260511831 1.6024193369 2.3464423852
C -2.6338573297 1.7674512302 3.6142318984
N 2.5257241584 1.1126242572 2.3221705531
C 1.6250607256 2.2539135397 2.2300516528
H 4.8953120664 -2.5445502311 -1.8647286153
H 6.3329794406 -3.0717874135 -0.9546619398
H 5.4784819947 -4.2137504825 -2.0102376289
H 3.4704673320 -4.1132689426 -0.5029259076
H 4.9222291532 -4.6431511422 0.3837637136
H 1.0649402843 -1.6206488419 -2.2013022758
H 0.3169413184 1.1786766712 -0.2886542544
H -3.4167073862 1.2215622562 -3.2224405671
H -5.5546962348 -0.0208965106 -3.0109342971
H -6.3674437633 -0.7026796791 -0.7637075059
H -5.0287710901 -0.1775030002 1.2500436546
H -2.3881085736 0.7895555396 4.0339927294
H -3.3344696701 2.3006317769 4.2544655798
H -1.7224322738 2.3504462803 3.4638882431
H 3.1828822271 1.0586148639 3.0843534802
H 1.8457358945 2.8655956137 1.3477677894
H 0.5817743526 1.9259828954 2.1757359045
H 1.7598173564 2.8630023671 3.1247783548
