45
CONF18
C -4.1496010480 0.7152362016 2.5619909571
C -3.0406848218 0.5607303825 1.5654407473
N -3.2344602180 0.3761501176 0.3073890559
O -4.5915185871 0.3213239271 -0.0032705491
C -4.7291865563 0.0506505058 -1.4008203326
C -1.6264312769 0.6302813032 1.9769413860
C -0.6438545738 -0.1493442817 1.3408003548
C 0.6869433688 0.0075432865 1.7161325464
C 1.0714507700 0.8879455798 2.7157605597
C 0.0971263349 1.6487695148 3.3480891149
C -1.2373435677 1.5220383353 2.9815786919
O 1.6391422507 -0.8432415646 1.1583679437
C 2.2730550202 -0.4146733105 0.0308270382
N 2.0981591212 0.8449547422 -0.3385487006
C 2.7244130791 1.1959096319 -1.4651025700
C 3.5258470896 0.3238204208 -2.1930326834
C 3.6339626854 -0.9590404445 -1.6617285889
N 3.0090651582 -1.3530291006 -0.5494217190
O 4.4059836330 -1.8371987041 -2.3229440967
C 4.5102925921 -3.1622196314 -1.7683420716
O 2.5805618732 2.4488285092 -1.9250692914
C 1.7138895026 3.3200656726 -1.1718096257
C -0.9957546137 -1.2434119831 0.3788136689
O -1.6366660337 -2.2240326637 0.6719760075
O -0.4383294995 -1.0273668442 -0.8286136876
C -0.6331035418 -2.0917667422 -1.7820020973
H -4.6942225519 1.6518053537 2.3976833943
H -3.7725970114 0.6892691438 3.5843876920
H -4.8714198143 -0.0953077745 2.4259037079
H -4.2509021438 0.8347112271 -1.9981646109
H -4.2935405928 -0.9235186247 -1.6498652140
H -5.8045758025 0.0375833864 -1.5903003342
H 2.1190561897 0.9587294510 2.9850858423
H 0.3792484773 2.3466573477 4.1293310902
H -1.9868536042 2.1390100630 3.4654077171
H 4.0298471666 0.6191064028 -3.1022118351
H 3.5298537239 -3.6444795720 -1.7277414184
H 4.9330218741 -3.1296013234 -0.7607735258
H 5.1744026447 -3.6984218777 -2.4466620798
H 0.7046843161 2.9038053856 -1.1104105196
H 1.7118342769 4.2595225022 -1.7250111965
H 2.0997221249 3.4707080182 -0.1597437608
H -0.2118750714 -3.0241873393 -1.3972037299
H -0.1093120184 -1.7725039328 -2.6830023018
H -1.6993313137 -2.2309502956 -1.9801108696
