47
CONF159
C -3.2757087807 0.8214964005 -3.4534812788
C -1.8818888298 0.2426634564 -3.5132912359
C -1.6113772072 -0.5603039977 -4.7684277415
C -0.7200781492 0.9812215376 -2.9326808982
C -0.8654217595 2.2778307872 -2.2479145397
C 0.0714969422 2.8008089013 -1.4594019101
Br -0.1385620120 4.4891281684 -0.6094497138
Br 1.6953647867 1.8989523989 -1.0569909175
C -1.2196196405 -0.3204990699 -2.2528288200
C -1.8202501865 -0.2051327930 -0.9217536076
O -2.5054547871 0.6963613936 -0.4878788878
O -1.4746936728 -1.2912318254 -0.1537305886
C -1.8440325248 -1.2068772762 1.2459852179
C -3.3002029202 -1.1603297209 1.4019917287
N -4.4441814182 -1.1980164918 1.5540108731
C -1.1060526046 -0.0953556636 1.9691212862
C -1.7622544463 0.9094620994 2.6735787132
C -1.0137900409 1.8995793592 3.3057343958
C 0.3735587524 1.8896544738 3.2432986016
C 1.0164312065 0.8739354388 2.5376345451
O 2.3894294951 0.9571528620 2.4666362921
C 3.1341612808 -0.1927222697 2.2438207579
C 4.1277016685 -0.1291417284 1.2737455434
C 4.9516293149 -1.2344648666 1.0735253648
C 4.7771276313 -2.3894720320 1.8319171400
C 3.7791299672 -2.4333507983 2.8048181888
C 2.9542841996 -1.3339731926 3.0217069074
C 0.2866803527 -0.1223464415 1.8967863391
H -3.4713802761 1.3718849271 -2.5340481934
H -4.0114470431 0.0143488539 -3.5299496726
H -3.4221162371 1.4935115394 -4.3061067173
H -1.7441268289 0.0761126639 -5.6498887862
H -2.3120828520 -1.3983853303 -4.8425456474
H -0.5923183923 -0.9566411227 -4.7798176285
H 0.2411554303 0.8318156060 -3.4195065992
H -1.7757783128 2.8533630093 -2.3867866078
H -0.5871352594 -1.1902374227 -2.3906478529
H -1.5208975788 -2.1760013526 1.6432591750
H -2.8455620770 0.9332721726 2.7184197722
H -1.5186749768 2.6901074501 3.8511692022
H 0.9666586779 2.6575034821 3.7283516122
H 4.2532807227 0.7805900601 0.6957670197
H 5.7299601153 -1.1897213086 0.3183312429
H 5.4181777459 -3.2498265162 1.6707377097
H 3.6452812900 -3.3258311031 3.4080455773
H 2.1817505509 -1.3572484626 3.7833639455
H 0.7918283771 -0.9008469637 1.3353697826
