39
CONF14
C -1.9392447648 0.6671533699 2.5481933647
C -2.6451516056 -0.1263512053 1.4445183444
C -4.1306605605 -0.2704520677 1.7741822121
C -2.4171685120 0.4941068434 0.0286049558
C -3.1911308687 -0.2610295237 -1.0655030524
C -2.8682623334 1.8988027325 0.0585103019
N -3.2805502999 2.9738682184 0.1506809040
N -0.9774386480 0.4404855817 -0.2420866894
C -0.3892273881 1.0355841003 -1.3082956140
O -0.9830067663 1.6460313923 -2.1835409786
C 1.1398503598 0.9001267332 -1.3830903119
C 1.7826477277 2.2718407958 -1.5052945811
O 1.5936002401 0.2175701398 -0.1968787694
C 2.6402853100 -0.6416619861 -0.2613472254
C 2.7936645564 -1.5290324601 0.8148861948
C 3.8412567945 -2.4343395707 0.8650070612
C 4.7504663025 -2.4643442581 -0.1868081564
C 4.6212603470 -1.6062223779 -1.2689042711
C 3.5695197382 -0.6961377215 -1.3006870458
Cl 6.0744581396 -3.6078300196 -0.1348091643
Cl 1.6261078515 -1.4968737342 2.1171867152
H -0.8725254942 0.8186822052 2.3598526978
H -2.0324327787 0.1344808239 3.4988266684
H -2.4017364127 1.6524743339 2.6655690825
H -2.2006272357 -1.1308078929 1.3808094511
H -4.6347843264 0.7009309041 1.7230401786
H -4.2421847902 -0.6503948928 2.7933855221
H -4.6420779841 -0.9643292147 1.1037502866
H -4.2659759480 -0.1119580819 -0.9516823511
H -2.9622063602 -1.3282996641 -0.9894424054
H -2.8922604246 0.1100144646 -2.0462365402
H -0.3756369600 0.0052596311 0.4422070543
H 1.3463052523 0.2785224434 -2.2647051069
H 1.5601017954 2.8656810453 -0.6144981836
H 2.8673883959 2.1898615403 -1.6087143048
H 1.3713577027 2.7836600881 -2.3774604980
H 3.9386671074 -3.1094852526 1.7058228875
H 5.3385591143 -1.6381635949 -2.0800008028
H 3.4887934304 -0.0174239744 -2.1407863302
