45
CONF48
C -4.7613888476 -0.7650969904 1.1558081970
C -3.8797668245 -1.0129434717 -0.0255601970
C -3.2815322792 -0.0550192738 -0.7425128533
C -2.4391004790 -0.3441516961 -1.9125894537
C -1.0930662877 0.3905796598 -2.1661696990
C -2.2961912706 0.5824075947 -3.0862965750
C -3.0389263966 1.8979551666 -3.1234304345
C -2.1524888903 -0.0651420694 -4.4476031442
C -0.6215103867 1.4184262536 -1.2300634822
O -1.2847075050 2.2449695580 -0.6354813284
O 0.7379224851 1.3125808956 -1.0935668940
C 1.3775834875 2.1896699337 -0.1317992062
C 2.1368120642 1.3403745116 0.8418200062
C 1.4633802359 0.5131597964 1.7345975405
C 2.1397771263 -0.2998231132 2.6307954918
C 3.5290541315 -0.3223950562 2.6897520374
C 4.2010971136 0.5033326224 1.7953376730
C 3.5264201907 1.3118624439 0.8919085632
F 4.2456788681 2.0843581445 0.0583116146
F 5.5456349701 0.5248222955 1.7975276265
C 4.2937367264 -1.2288217344 3.6262381553
O 4.8521540913 -2.3492857480 2.9438869662
C 3.8553728165 -3.2749237316 2.5041892208
F 1.4189971812 -1.0793015059 3.4581840811
F 0.1183399206 0.4937897235 1.7231845619
H -4.8535107294 0.3040611679 1.3674905385
H -4.3670007558 -1.2629344555 2.0502174316
H -5.7658652302 -1.1737543853 0.9903095154
H -3.7264770028 -2.0557198909 -0.3083397938
H -3.4234333859 0.9846123900 -0.4606813697
H -2.3646817923 -1.4035436281 -2.1504720768
H -0.3013564324 -0.2395870590 -2.5561950097
H -3.1108510494 2.3736652269 -2.1467972227
H -4.0507488213 1.7279193335 -3.5079945165
H -2.5320003006 2.5907171070 -3.8040965072
H -1.6207438620 -1.0189211056 -4.3850045251
H -1.6034604331 0.5937340062 -5.1295387893
H -3.1430704171 -0.2511515226 -4.8776943336
H 2.0505785348 2.8493849946 -0.6807447915
H 0.6169440305 2.7840430152 0.3802981300
H 3.6364714217 -1.5586636602 4.4407733035
H 5.1378108136 -0.6815369343 4.0525309657
H 3.1892106174 -2.8248341981 1.7546690881
H 4.3850917487 -4.1146295166 2.0503197788
H 3.2538115605 -3.6342454117 3.3511487897
