48
CONF2
C -3.9541464712 -1.8776672376 -0.9491297860
C -4.3082402348 -0.6374018641 -0.1172172536
C -4.5820936943 -1.0451615627 1.3385507727
C -5.5856887359 -0.0043026809 -0.6963778924
C -3.1879785428 0.4195393630 -0.2492212043
C -1.7437465637 -0.0692403220 -0.0281867741
N -1.4802376293 -0.5736990628 1.3168319990
C -1.4975230827 0.0882357845 2.4940483787
N -1.2393691945 -0.7503718220 3.4894958369
C -1.0708028098 -1.9417727100 2.8472212994
N -1.2004243804 -1.8860701253 1.5295129022
O -0.9394217076 1.0772288772 -0.2731889660
C 0.4284089476 0.9379999894 -0.3684598121
C 1.1046786048 -0.2803199115 -0.3851116828
C 2.4916406258 -0.2834300617 -0.5097811126
C 3.2258850283 0.9026046573 -0.6157888253
C 2.5170963402 2.1139333312 -0.5930183862
C 1.1372782303 2.1361762048 -0.4688994672
C 4.6972997141 0.8815926023 -0.7464079967
C 5.3392175422 -0.1222002420 -1.4867212567
C 6.7247744897 -0.1426489383 -1.6086775006
C 7.4991187874 0.8409779290 -0.9963191238
C 6.8738898101 1.8446772705 -0.2589406758
C 5.4884463624 1.8647721473 -0.1340515906
O -3.4776642040 1.5092890636 0.6223837508
H -4.8207617896 -2.5452045766 -0.9888298642
H -3.6903867062 -1.6044051784 -1.9775893361
H -3.1227664586 -2.4393519759 -0.5124176019
H -5.4793177332 -1.6725561651 1.3669557002
H -3.7636879804 -1.6273556639 1.7691683419
H -4.7607269209 -0.1697319567 1.9684075607
H -6.4079085336 -0.7253071104 -0.6493794695
H -5.4398759822 0.2808213028 -1.7443206336
H -5.8766800120 0.8858528662 -0.1319769392
H -3.1913196990 0.7611793319 -1.2967415071
H -1.5082425072 -0.8825922192 -0.7215212199
H -1.6895528394 1.1489116845 2.5708678686
H -0.8413415683 -2.8688133680 3.3575247923
H 0.5835752441 -1.2248008310 -0.2904341677
H 3.0092773257 -1.2375364736 -0.4990301699
H 3.0506249091 3.0538091115 -0.6946460805
H 0.5926047820 3.0748123177 -0.4619873250
H 4.7458259519 -0.8804127680 -1.9886570725
H 7.2008053132 -0.9245001698 -2.1927677188
H 8.5801513010 0.8255654366 -1.0930197091
H 7.4679321578 2.6111579597 0.2296411112
H 5.0162407812 2.6385904072 0.4635890875
H -2.9148650767 2.2512242612 0.3646194291
