47
CONF39
C -1.0749006219 -3.1432472259 0.3344582342
C -1.5569115054 -1.8680725125 0.9884757225
C -3.0332287164 -1.5643101948 1.0534498113
C -2.1502974138 -0.8252420457 0.0399099561
C -1.9341578380 0.6140165001 0.2390641127
O -2.0611245555 1.2470151016 1.2650870472
O -1.5507184505 1.1933331513 -0.9432310486
C -1.2912318493 2.6141221795 -0.8604995465
C -1.3805866519 3.1034901060 -2.2374010335
N -1.4226591641 3.5222610840 -3.3126786456
C 0.0707390145 2.9260308202 -0.2719370879
C 1.1746323327 2.1731986502 -0.6649919327
C 2.4223725642 2.4870915298 -0.1338045718
C 2.5784883362 3.5470431640 0.7571701159
C 1.4658960457 4.2926012208 1.1289465722
C 0.2049933610 3.9831783341 0.6249746217
O 3.5670013281 1.8201179743 -0.5166464805
C 3.4839853203 0.4584418210 -0.7800788129
C 2.8730954097 -0.4096275048 0.1215446386
C 2.8818707050 -1.7746349663 -0.1472107485
C 3.4965402129 -2.2651626916 -1.2990244106
C 4.1095110678 -1.3815862704 -2.1844826851
C 4.1047050490 -0.0113718903 -1.9310736380
C -4.0531524696 -2.4850595462 0.5492788112
C -5.2608199641 -2.6623383538 1.0863574283
Cl -6.4163156713 -3.7910888048 0.4253182558
Cl -5.8406446087 -1.8143832830 2.4942026456
C -0.7111154517 -1.4309257379 2.1616963447
H -0.0255059804 -3.0308711023 0.0436770941
H -1.6445998364 -3.4039777138 -0.5597238950
H -1.1432029917 -3.9736950967 1.0457219039
H -3.3230188391 -0.9484874186 1.8993043098
H -2.2240641354 -1.1362501588 -0.9964531713
H -2.0744345539 3.1025769356 -0.2688841457
H 1.0666618598 1.3556580083 -1.3702595715
H 3.5643867614 3.7702395935 1.1508233903
H 1.5810391655 5.1123074628 1.8304833058
H -0.6661368709 4.5543153860 0.9292676273
H 2.4056415479 -0.0186723937 1.0196292261
H 2.4150785076 -2.4582718245 0.5550985523
H 3.5010714285 -3.3310731225 -1.5016530734
H 4.5919650212 -1.7559122357 -3.0819412186
H 4.5746624192 0.6912170871 -2.6113107078
H -3.8262674671 -3.0777920059 -0.3316101643
H -1.0937925992 -0.5246131744 2.6326279137
H 0.3192943015 -1.2498612633 1.8369737987
H -0.6947420607 -2.2317268680 2.9084018498
