47
CONF8
C -1.9154483058 3.3594105478 2.3619992901
C -2.0415273166 2.1082931832 1.5230332226
C -1.2293703679 0.8869409530 1.8875389438
C -0.8051199084 1.7376801360 0.6957995495
C -0.9383376297 1.1886566282 -0.6583742148
O -1.6337340224 0.2669467980 -1.0253457891
O -0.1409670646 1.9007758169 -1.5233111630
C -0.1218657677 1.4632606694 -2.8920081194
C -1.4658580584 1.5235309286 -3.4805924120
N -2.4985443973 1.6196292604 -3.9883255225
C 0.5438276700 0.1087556623 -3.0929643068
C 0.3838196897 -0.5736623888 -4.2992106978
C 1.0501694277 -1.7783890976 -4.5008200971
C 1.8537252573 -2.3215144496 -3.5025160099
C 1.9948469182 -1.6288720715 -2.3064930876
C 1.3670446553 -0.4042101673 -2.0982988230
O 2.8320019777 -2.1640529481 -1.3451432183
C 2.3798677101 -2.2210539802 -0.0354726890
C 3.3471682261 -2.1432836625 0.9620087874
C 2.9612560043 -2.2732558552 2.2935850946
C 1.6226729241 -2.4716162058 2.6258316015
C 0.6669335695 -2.5426706445 1.6143431372
C 1.0362087938 -2.4212733847 0.2779873568
C -0.3528404304 0.8668703542 3.0668056213
C -0.4816202315 0.0278992835 4.0933369656
Cl 0.6024700043 0.0484651770 5.4591780375
Cl -1.7306821773 -1.1801217911 4.2036385674
C -3.4234814840 1.8866057831 0.9558817281
H -2.5635675483 3.2792201730 3.2417297018
H -2.2369664233 4.2296452031 1.7807893019
H -0.8925157504 3.5322729656 2.7025426794
H -1.6984161507 -0.0568419814 1.6224970979
H 0.0521471788 2.3868354480 0.8389502667
H 0.4729852423 2.2336434623 -3.3989472699
H -0.2550652260 -0.1714432073 -5.0791591790
H 0.9279566815 -2.3097483352 -5.4389054472
H 2.3604935172 -3.2709695991 -3.6369368982
H 1.5161773476 0.1220288304 -1.1621918263
H 4.3853664853 -1.9874878434 0.6878131442
H 3.7138443902 -2.2140483817 3.0736974397
H 1.3254974550 -2.5690202615 3.6647405956
H -0.3780729370 -2.7004548624 1.8618372766
H 0.2914473779 -2.4859348265 -0.5078694014
H 0.4574821201 1.5876311287 3.1259091297
H -3.4994607552 0.9486147759 0.4044180512
H -3.6947822404 2.7106400718 0.2865371613
H -4.1471658323 1.8656730068 1.7775022181
