29
CONF4
C -0.8922119501 0.3741969530 -3.0765985253
C -0.1422593648 -0.3138116493 -1.9602884888
O -0.9020764529 -0.1807256831 -0.7181765625
P -0.4246392711 0.7255873153 0.5081552577
S 0.7997869251 2.1696039257 0.1425824547
O -1.8000376789 1.0449397010 1.2493092915
C -2.4842768302 2.3164040029 1.0568673204
C -3.1947931314 2.3752630746 -0.2777015203
O 0.0593619814 -0.3618300099 1.6694136804
C 1.1853195222 -1.0950733238 1.5574689456
N 1.7539850042 -1.2521199384 0.3752747595
C 2.8482385138 -1.9768477096 0.2507543615
C 3.4502676250 -2.6127317312 1.3370104193
C 2.8577512999 -2.4603803777 2.5879870179
C 1.7127826187 -1.6923179789 2.7119046308
Cl 0.9544499154 -1.4766297939 4.2561257668
Cl 4.8887374903 -3.5691487631 1.1775431749
Cl 3.5179917713 -2.1167468430 -1.3531967982
H -0.3789503542 0.1897925724 -4.0258549284
H -1.9148287802 -0.0049147112 -3.1558235846
H -0.9236769040 1.4544994494 -2.9098807918
H 0.8564490146 0.1075409222 -1.8236106986
H -0.0485705786 -1.3903963377 -2.1256063417
H -1.7538537135 3.1257158041 1.1637329807
H -3.1895544688 2.3589387426 1.8901553408
H -3.7865747219 3.2946261450 -0.3323610165
H -2.4785225655 2.3823970066 -1.1037221665
H -3.8641999313 1.5196144505 -0.3995788474
H 3.2939053222 -2.9354455267 3.4582173827
