44
CONF34
C 3.8810980848 -0.6679297731 -3.0494870491
C 4.0960183631 -1.1506236963 -1.6197053633
N 2.8892788382 -0.9670868325 -0.7859659037
C 2.9163435647 0.0579139062 0.2833098721
C 3.8843877924 -0.3399868570 1.4043671526
C 3.8315734047 0.6982898711 2.5301239401
C 4.1370994245 2.1011372450 2.0014173797
C 3.1795706796 2.4783558571 0.8693196134
C 3.2295689786 1.4509995259 -0.2664245162
C 1.9206684731 -1.8779864980 -0.9616801985
O 1.9737062634 -2.8780806230 -1.6617536275
N 0.6770543656 -1.6004339129 -0.2486503139
C -0.1571976556 -0.4922408641 -0.3818510162
O 0.0192579624 0.5525885604 -0.9785120210
N -1.2616406242 -0.9186903711 0.3482657052
N -1.0897184031 -2.1958650389 0.7988659041
N 0.0521742582 -2.6049835252 0.4276019975
C -2.4502797900 -0.1896271227 0.5842321549
C -3.6494487175 -0.6328538518 0.0319581024
C -4.8189488637 0.0815142818 0.2563006102
C -4.7845668136 1.2469847361 1.0180135474
C -3.5909867155 1.6971014147 1.5735250657
C -2.4255727827 0.9698672500 1.3647762166
Cl -0.9349107291 1.4957838245 2.1102905391
H 3.6428993940 0.3990632789 -3.0689581182
H 4.7940211491 -0.8304370155 -3.6302281651
H 3.0671371522 -1.2180029233 -3.5287716253
H 4.3683871559 -2.2100799380 -1.6069637470
H 4.9068497825 -0.5938397419 -1.1477462151
H 1.9186708458 0.0988210782 0.7257308695
H 4.9085686215 -0.3984283697 1.0150357747
H 3.6138640004 -1.3340414366 1.7789898551
H 4.5390359898 0.4208902450 3.3193035075
H 2.8291273666 0.6908006756 2.9809946597
H 4.0710049717 2.8341308887 2.8134521085
H 5.1694452399 2.1283533637 1.6255354288
H 3.4209522534 3.4719906151 0.4762377812
H 2.1542240160 2.5294914718 1.2622297497
H 4.2309863508 1.4615180065 -0.7155955749
H 2.5071605793 1.7034408535 -1.0487050069
H -3.6454910507 -1.5327429006 -0.5740111504
H -5.7523817087 -0.2654999889 -0.1726234918
H -5.6932322912 1.8145562140 1.1883704624
H -3.5627878143 2.5974468315 2.1764513978
