52
CONF141
C -0.2719587245 -1.9034656742 1.0528673135
C -1.4260393127 -1.2569977895 1.7605044993
C -2.4829641470 -0.7279587143 1.1256222749
C -2.6952738734 -0.7742867453 -0.3373275781
C -2.2629612113 0.3974334295 -1.2711700783
C -3.7304523145 0.0455532069 -1.0372323844
C -4.6283860574 0.9795411801 -0.2598983353
C -4.4142852601 -0.5901877959 -2.2307481347
C -1.5909251524 1.5543290067 -0.6728715139
O -1.8343649411 2.0875762256 0.3931953798
O -0.5702038680 1.9680571101 -1.4827311971
C 0.2787461809 3.0019912166 -0.9300131797
C 1.1939998731 2.4657354847 0.1406764596
C 1.7482624873 1.1922931949 0.0090267298
C 2.6239155816 0.7241016630 0.9844166719
C 2.9479569487 1.5003715244 2.0943549707
C 2.3832187831 2.7647962265 2.2195383524
C 1.5106210939 3.2512984163 1.2491880936
O 3.1621219876 -0.5491181862 0.9477451947
C 3.4247559348 -1.1430992515 -0.2769780174
C 4.0756103226 -0.4547029196 -1.2987384739
C 4.3788979011 -1.1271736415 -2.4785834942
C 4.0463741056 -2.4723595588 -2.6340982234
C 3.4085076745 -3.1484694844 -1.5967949940
C 3.0912686423 -2.4864329756 -0.4132512739
C -1.3109745973 -1.2156822873 3.2567609277
H -0.2132098728 -2.9714692440 1.3009598797
H -0.3252445338 -1.8003643632 -0.0330160508
H 0.6700090770 -1.4549813310 1.3909650722
H -3.2527000517 -0.2467636848 1.7246079517
H -2.4770907541 -1.7325756036 -0.8042737308
H -1.8527731789 0.0946641084 -2.2286288107
H -5.0166486369 1.7584742415 -0.9251803038
H -4.1157607981 1.4656900486 0.5689639887
H -5.4828916353 0.4166898792 0.1326797942
H -4.7566762924 0.1780289734 -2.9327070266
H -3.7407574683 -1.2692424811 -2.7613977293
H -5.2877369067 -1.1625153367 -1.8985619626
H 0.8554299885 3.3576813396 -1.7889262141
H -0.3308901346 3.8221503967 -0.5418963522
H 1.4917115634 0.5696558722 -0.8413516422
H 3.6272847061 1.1062111178 2.8425899548
H 2.6246465872 3.3739445477 3.0849246015
H 1.0667043219 4.2362507399 1.3574426430
H 4.3397109124 0.5897041416 -1.1697220860
H 4.8868252915 -0.5958259732 -3.2774319494
H 4.2878067899 -2.9902541493 -3.5564032591
H 3.1497414867 -4.1969530237 -1.7067104633
H 2.5932959753 -2.9977640795 0.4036226474
H -0.4125607760 -0.6603068275 3.5563035221
H -1.2013515874 -2.2283317690 3.6657543724
H -2.1823402358 -0.7449395917 3.7191976686
