48
CONF3
C -0.0765008109 -3.0657642385 -1.1825448411
C 0.9310365606 -1.9850111824 -1.5659564397
C 2.0298108752 -1.7015561505 -0.5085018467
C 2.8883208301 -2.9497434320 -0.2797613088
C 2.9005205996 -0.5338043308 -1.0365852019
C 3.9868596980 -0.0480118616 -0.0809877718
C 1.3517614681 -1.2656459229 0.7651776975
C 0.4805219794 -0.1513259073 0.9121997650
C 0.1087267233 -0.2067802129 2.2238215572
O 0.7054874401 -1.2490399336 2.8376067157
N 1.5112245905 -1.9284290053 1.8874453517
N -0.7061307894 0.5340494422 3.0490532386
C -1.7192785621 1.4196147534 2.7047663474
O -2.3637265783 1.9797505805 3.5681407486
C -1.9500228397 1.6218505691 1.2402018744
C -2.6166488716 0.6458942458 0.4938600966
C -2.8357754365 0.8287443310 -0.8735783943
C -2.3760323713 1.9969150720 -1.4715113102
C -1.7111828949 2.9830018728 -0.7514419964
C -1.5010266896 2.7897009007 0.6175113348
O -0.8328660981 3.6526885347 1.4252625521
C -0.3482273198 4.8636488356 0.8497390826
O -2.9903478814 -0.4551254531 1.1965066106
C -3.6340234782 -1.5111641280 0.4856118334
H -0.5561540556 -2.8323142806 -0.2259389953
H -0.8575685584 -3.1459446624 -1.9452313213
H 0.3936021627 -4.0483333977 -1.0884078974
H 1.4344806865 -2.2594199109 -2.5022836490
H 0.3941760398 -1.0481093399 -1.7634850210
H 3.3522784989 -3.2497111692 -1.2258089614
H 3.6760605597 -2.7646329839 0.4530419670
H 2.2920012020 -3.7820477755 0.0987846679
H 3.3526258785 -0.8611721463 -1.9819703794
H 2.2373823334 0.3045471809 -1.2858388304
H 3.5599255167 0.2501932954 0.8819549319
H 4.7375933125 -0.8195041944 0.1103262672
H 4.5053274077 0.8185302537 -0.5021567584
H 0.1888282569 0.5679572898 0.1674402609
H -0.6372303713 0.3387484217 4.0400717799
H -3.3502491556 0.0843223078 -1.4662562722
H -2.5426497068 2.1442839312 -2.5338090710
H -1.3665842059 3.8774358480 -1.2528660775
H 0.1341268463 5.4037189901 1.6647638444
H 0.3852281782 4.6620012208 0.0587580682
H -1.1711339006 5.4675361789 0.4478124191
H -4.5900575297 -1.1773947523 0.0635486460
H -3.8148614381 -2.2943409554 1.2222839160
H -2.9896278997 -1.9008066125 -0.3120443463
