76
CONF14
C -0.5744885072 -1.1496701449 -1.9798187791
C -1.7544931844 -1.1215764215 -1.0202592012
C -3.0074646170 -1.6243790737 -1.6856273224
C -4.1262624239 -2.0358671205 -1.0706652352
C -5.2719521596 -2.5591260847 -1.8966701624
O -5.6590323868 -3.8899256416 -1.5032461348
C -4.4072070077 -1.9914862639 0.4151916868
C -3.5765869111 -1.0098202380 1.2512174153
O -2.3942216981 -1.6114773810 1.8149914639
C -4.3568239817 -0.4648961429 2.4727082864
O -4.9530814234 -1.1748251723 3.2714538294
C -4.2011965386 0.9895277981 2.5201418866
C -4.7591392899 1.8173751197 3.6252237429
C -3.5295619224 1.3852479090 1.4202377198
C -3.2080350629 0.2652235501 0.4762355885
C -1.8835805992 0.2700187285 -0.3186180865
O -2.0710703621 1.3305596418 -1.2592908214
C -0.5811791323 0.4854583173 0.5024596730
C -0.5748724430 1.7296709428 1.3913572844
C 0.6340349683 0.5769987102 -0.4424211296
O 1.8242270473 0.3374446808 0.3634211003
C 2.8679203261 1.1945831856 0.2336938319
O 2.8377877660 2.1534814778 -0.5344987293
C 3.9936040003 0.8400733357 1.1012004434
C 3.9046406100 -0.2774809069 1.9503069599
C 4.9437673938 -0.6488725804 2.7823442083
C 6.1174347415 0.1142358605 2.7756507853
C 6.2461884042 1.2197809523 1.9579913654
C 5.1957153500 1.6226237628 1.0966487690
N 5.3411727579 2.7105613851 0.3044465971
C 6.5332156896 3.5355061284 0.2692939648
C 0.6496160533 -0.3349327008 -1.6431835061
O 1.4333439244 0.2210096216 -2.7183800348
C 0.9350955701 1.2512168162 -3.4249780343
C 1.8995359497 1.7033089640 -4.4741194290
O -0.1635879027 1.7426480874 -3.2288806813
C 0.7294193867 -1.8389530478 -1.6026552161
C 0.8854798448 -2.5705315557 -0.2875939570
C 1.4778601609 -2.5244919062 -2.7298476505
H -0.8214040370 -1.1865323087 -3.0384680452
H -1.5425000387 -1.8147668703 -0.2021138786
H -2.9856300907 -1.6892443430 -2.7731318407
H -6.1669427360 -1.9456073566 -1.7367008440
H -5.0168196257 -2.5272283745 -2.9644851201
H -4.8868749131 -4.4573041327 -1.6261940363
H -5.4654036427 -1.7154960361 0.5291025876
H -4.3306320109 -2.9936191136 0.8571995282
H -2.6950695481 -2.3087396791 2.4159498252
H -4.3185956102 1.5243195404 4.5846733592
H -4.5662356988 2.8794605884 3.4592197211
H -5.8402813960 1.6639283132 3.7129488439
H -3.3169729837 2.4200470516 1.1727194853
H -3.9468966791 0.3522669678 -0.3339643310
H -1.3405634947 1.3382341342 -1.9085234766
H -0.4603586316 -0.3910165125 1.1424533389
H -1.2487407577 1.6133050423 2.2428403907
H -0.8691245671 2.6183159854 0.8241113615
H 0.4299435975 1.8968312790 1.7923181402
H 0.6912215593 1.6034472274 -0.8167135131
H 2.9894201467 -0.8569639144 1.9436237128
H 4.8489169906 -1.5145868404 3.4281146323
H 6.9458978251 -0.1607565383 3.4221440372
H 7.1667273506 1.7903878846 1.9764371372
H 4.5528762486 2.9500277904 -0.2797627688
H 6.7491479275 3.9853096914 1.2475712595
H 7.4164093461 2.9653182052 -0.0480671389
H 6.3696130441 4.3406413533 -0.4490459912
H 1.4730063705 2.5320737489 -5.0369298604
H 2.8353474142 2.0114368276 -3.9983512374
H 2.1311762511 0.8701497951 -5.1443862435
H 1.9500985708 -2.7179189290 -0.0781860934
H 0.4136182370 -3.5572890662 -0.3570453857
H 0.4551180856 -2.0482073961 0.5657585394
H 2.5577544094 -2.5024756217 -2.5466591839
H 1.1629900050 -3.5724729754 -2.7777419967
H 1.2835411669 -2.0635176241 -3.6997110253
