40
CONF154
C 4.5796756174 1.6330867731 1.1959082388
C 3.4409746200 2.2488457576 0.4205485383
O 2.2854432725 2.4537103827 1.3197943230
P 1.0154902145 1.4986255845 1.2611843523
S -0.2341120844 1.8550071115 2.6987007604
O 1.5990823156 0.0257319259 1.0807549292
C 1.2511425125 -1.0891949051 1.9695560355
C 1.9560497992 -2.3110856941 1.4365669615
O 0.5116084514 1.8646646003 -0.2693941244
C -0.5165076726 1.2248293688 -0.9051611396
C -0.8885577815 1.7182796566 -2.1510149917
C -1.9352075401 1.0573996085 -2.7774949858
N -2.5514807284 0.0059531196 -2.1939893899
C -2.1104759718 -0.3791540747 -0.9956605766
N -1.0954504903 0.1931464739 -0.3198660434
C -2.7784607673 -1.5652699482 -0.3442453922
C -1.8372462353 -2.7783320535 -0.3775131965
C -3.2198479694 -1.2490852792 1.0882198433
C -2.4403109795 1.4768652286 -4.1203142631
H 4.8571296175 2.2639876083 2.0447396041
H 5.4486182790 1.5381911115 0.5367643057
H 4.3105978982 0.6383383991 1.5613190056
H 3.1397870479 1.6283611308 -0.4282182591
H 3.6864237993 3.2485318292 0.0553524196
H 1.5789767954 -0.8367627364 2.9821568348
H 0.1638911404 -1.2062966913 1.9575253512
H 1.6351211567 -2.5292870663 0.4140691593
H 1.7060220220 -3.1679704708 2.0693343559
H 3.0407707843 -2.1735633928 1.4490548747
H -0.3860913361 2.5681500621 -2.5961167067
H -3.6620728834 -1.7930821290 -0.9491592839
H -0.9404281393 -2.5814920734 0.2182521841
H -1.5285714447 -3.0149164798 -1.4006219574
H -2.3434455272 -3.6530626395 0.0425100431
H -2.3530155820 -1.0491842359 1.7253496223
H -3.8786424082 -0.3753568456 1.1176975845
H -3.7620325319 -2.1039203864 1.5039406059
H -1.8644651850 2.3126462613 -4.5206998917
H -2.3871899395 0.6341052935 -4.8170251500
H -3.4931933631 1.7685598253 -4.0460995561
