44
CONF32
C -5.1371178077 1.9560013342 1.6194291131
N -3.8204581990 1.6316851475 1.0562317171
C -3.9354412609 0.9359366032 -0.2458743086
C -4.3727508678 -0.5141123265 0.1047506753
C -3.8130200979 -0.7319473110 1.5347550640
C -3.1103459098 0.6148128329 1.8653680339
C -1.6411432039 0.6143029189 1.4202693298
C -1.5484404479 0.2129904898 -0.0444962768
C -2.5525782985 0.9656242410 -0.9109100032
O -0.1808576885 0.5123549905 -0.4808483933
C 0.3197389864 -0.2153672795 -1.4915915408
O -0.2873027318 -1.0888208692 -2.0799658763
C 1.7539117491 0.1869093377 -1.7829487022
C 2.2064143501 -0.3748956555 -3.1387415629
O 3.5058282424 0.1023239766 -3.4878108382
C 2.6641717103 -0.2723677717 -0.6595364854
C 3.5251811395 0.6292345563 -0.0312768977
C 4.3868909017 0.1988629491 0.9760864418
C 4.3927165276 -1.1374015433 1.3670671220
C 3.5357784183 -2.0435696536 0.7437160740
C 2.6790673244 -1.6146134671 -0.2652940429
H -5.0032433150 2.4237116977 2.6003994602
H -5.6400752229 2.6752136416 0.9646142604
H -5.8027621842 1.0854191025 1.7443110893
H -4.6607658439 1.4513300888 -0.8835216201
H -5.4626601343 -0.5986420890 0.0929809239
H -3.9829517281 -1.2377898698 -0.6174757877
H -3.1165093964 -1.5737064631 1.5933724918
H -4.6191737230 -0.9278159413 2.2466635391
H -3.1712837260 0.8715092074 2.9276826754
H -1.0553513707 -0.0797052415 2.0332293441
H -1.2303748340 1.6216152298 1.5516222245
H -1.6921599245 -0.8658810790 -0.1534803177
H -2.2294416229 2.0075926589 -1.0160194975
H -2.5983744724 0.5148045522 -1.9077821522
H 2.1780808112 -1.4722844656 -3.1167505416
H 1.5286285676 -0.0293954965 -3.9244092843
H 5.0527102850 0.9099276294 1.4554569969
H 5.0616100743 -1.4728655463 2.1533894180
H 3.5343382484 -3.0866925115 1.0446328784
H 2.0146317326 -2.3270707010 -0.7476741264
H 3.5190258648 1.6727654979 -0.3331831593
H 1.7878532973 1.2812594822 -1.8290822686
H 4.1330371106 -0.2490709255 -2.8415346312
