41
CONF85
O 8.4707200902 0.1935701387 -2.0087843510
N 8.0953123599 -0.1689613233 -0.8902608012
O 8.8708837029 -0.5330375750 -0.0016089517
C 6.6720014585 -0.1676393126 -0.6061529367
C 5.7786547134 0.2428259258 -1.6013878951
C 4.4251738749 0.2452499919 -1.3357354465
C 3.9498800338 -0.1634362484 -0.0711508129
C 4.8715147975 -0.5697730667 0.9121183858
C 6.2282414726 -0.5751625039 0.6528869452
N 2.6065741858 -0.2030972690 0.3124655017
N 1.7876420209 0.1509339989 -0.6049050266
C 0.4541341812 0.1317762653 -0.2705146276
C -0.4481042083 0.5104351005 -1.2870406233
C -1.8052731712 0.5286073339 -1.0772909858
C -2.3503996540 0.1576412586 0.1846050205
C -1.4298297405 -0.2146569977 1.2129920279
C -0.0776823118 -0.2269472255 0.9912605232
N -3.6886755744 0.1550160221 0.4069081309
C -4.2573962737 -0.1396396756 1.7256922862
C -4.4094603296 -1.6381954477 1.9861542942
O -5.2974265072 -2.2660237976 1.0566383029
C -4.6467482384 0.5560605540 -0.6338837263
C -4.8322837805 2.0702869193 -0.6997893623
H 6.1541506394 0.5545799054 -2.5681221171
H 3.7232228136 0.5618621021 -2.0968409698
H 4.4954647799 -0.8809504202 1.8811162342
H 6.9388782732 -0.8883684016 1.4070335963
H -0.0448522107 0.7973401486 -2.2536462685
H -2.4514680569 0.8415188571 -1.8862465036
H -1.7929750151 -0.5025995018 2.1907364515
H 0.5935656818 -0.5170157218 1.7911244034
H -3.6515830854 0.3126900465 2.5184539151
H -5.2434822330 0.3317470749 1.7682350274
H -4.8495935498 -1.7695135170 2.9799668030
H -3.4299397319 -2.1344212067 1.9762045310
H -4.8301923086 -2.3560376037 0.2164928759
H -4.3264879012 0.1532729059 -1.5988947478
H -5.5968316550 0.0722571134 -0.3938725431
H -3.8932268352 2.5751855462 -0.9438854959
H -5.1930638837 2.4544850827 0.2592208649
H -5.5690385325 2.3181337198 -1.4696519181
