32
CONF23
C -4.1953565896 1.5546328500 -1.1240694398
C -3.5552492932 0.3840935853 -0.4685657036
N -3.9373184956 -0.8573059686 -0.6165720405
C -3.1690791328 -1.7108986232 0.1169292511
C -2.1513780398 -1.1496934678 0.8543749923
S -2.1746470229 0.5718375679 0.5936990733
C -1.2812314420 -1.8284030024 1.8487458497
O -1.7227909271 -2.7378462764 2.5412938917
N 0.0049839138 -1.3807384781 2.0005658180
C 0.6857935535 -0.4266237345 1.2216285254
C 1.0726785319 0.8025973765 1.7784851743
C 1.7510753193 1.7661697807 1.0482191778
C 2.0409041045 1.4839530144 -0.2768686036
C 1.6928350062 0.2880473710 -0.8831482104
C 1.0370521387 -0.6646304768 -0.1164488589
Br 0.6208455773 -2.3328063452 -0.9258808139
O 2.6572123791 2.4763483471 -1.0550829137
C 4.0161158574 2.4626333514 -1.0763677568
F 4.5552274351 2.6239074187 0.1510253204
F 4.5144287026 1.3107938146 -1.5742649621
F 4.4159150115 3.4709787673 -1.8530172084
Br 0.6220716712 1.1849567457 3.5864095847
C -3.5014958788 -3.1797806755 0.0404371294
F -2.3997772477 -3.9584501630 0.0668190378
F -4.3006043858 -3.5696984872 1.0643677647
F -4.1625279878 -3.4675144328 -1.1008495204
H -3.4878701041 2.0639097195 -1.7858715670
H -5.0487431363 1.2093575231 -1.7094049514
H -4.5371560944 2.2797848405 -0.3794933925
H 2.0318225397 2.7163487687 1.4848604798
H 1.9426317593 0.1044982028 -1.9205221830
H 0.4951790258 -1.7700985030 2.7981284258
