30
CONF4
N 5.4913405244 -0.5532069105 0.7433865421
C 4.1603980368 -0.2920749449 0.6036234263
N 3.7454316307 0.8686879440 1.1794099183
C 2.4508568975 1.1308715230 1.0933303781
N 1.9610397157 2.2523669396 1.6670136029
C 1.5560274268 0.2391637500 0.4165887825
N 0.2529994309 0.5405578710 0.2972162963
C -0.5258708566 -0.2978799171 -0.3614871046
C 0.0344418110 -1.5305646121 -0.8666721018
N -0.7650149303 -2.4564675608 -1.4833052888
N 1.3197885406 -1.8286031210 -0.7638597273
C 2.1223093032 -0.9382496933 -0.1386327086
N 3.4387596160 -1.2051684827 -0.0466497743
C -1.9541292534 0.0556004600 -0.4969457443
C -2.6472514654 -0.0985855799 -1.7055622281
C -3.9830989115 0.2760480481 -1.8061559715
C -4.6494182337 0.8044413884 -0.7047744090
C -3.9665645514 0.9695590376 0.4982251486
C -2.6315496907 0.6025685105 0.6010123473
H 6.0867556050 0.2005157518 1.0383656474
H 5.8764480713 -1.2878554100 0.1754069688
H 1.0105741161 2.5103990167 1.4592451756
H 2.6117093669 2.9443639167 1.9958463463
H -0.3476991798 -3.3679289561 -1.5925725840
H -1.7539436673 -2.4286682316 -1.2946916092
H -2.1277188088 -0.4789380271 -2.5793492869
H -4.5011349310 0.1646576061 -2.7534429070
H -5.6929755414 1.0910504959 -0.7841360775
H -4.4791347929 1.3830773096 1.3611024816
H -2.0933748765 0.7302619682 1.5341229708
