55
CONF8
C 5.2065539966 0.6558036295 2.3338291137
C 4.9600502301 0.3076821290 0.8540178639
C 5.5476441110 1.3938531428 -0.0449315250
C 3.4966216170 0.0159302907 0.6173275014
C 2.7166058454 0.7196328288 -0.2268001536
C 1.2938511379 0.4765873818 -0.4185937134
C 0.5832869034 1.2070833445 -1.2985050451
C -0.8840894109 1.0391877879 -1.5209313946
C -1.5362318766 0.1992991297 -0.4204756790
C -0.7159951377 -1.0905345010 -0.1370727654
C 0.6504975772 -0.6018867457 0.4313750312
C 1.6758490415 -1.7150597362 0.6841557009
C 2.9129025981 -1.1478341980 1.3784214063
C -1.4307748585 -1.9187083812 0.9494286379
C -2.9116068363 -2.1564992081 0.6652819911
C -3.6496058781 -0.8278667910 0.5251607488
C -3.0820642544 0.0293306440 -0.6301356916
C -3.5144348938 -0.5689422141 -1.9759496009
C -3.6467258677 1.4448717438 -0.4572365312
O -3.6019150966 2.0736597055 0.5833830294
O -4.1826204557 1.9507856922 -1.5834827068
C -4.6887050015 3.3044779788 -1.4816196527
C -0.4736904009 -1.9441091850 -1.3916887544
H 4.8714582752 -0.1425997492 3.0017501493
H 6.2742254055 0.8205452449 2.5116502434
H 4.6684372982 1.5732108285 2.5989413817
H 5.5012183641 -0.6304162425 0.6499305187
H 6.6194127459 1.4973953406 0.1508233526
H 5.4170558158 1.1570508377 -1.1054778987
H 5.0775853582 2.3644313619 0.1499846696
H 3.1388359885 1.5401946414 -0.8023712955
H 1.0954122641 1.9666931325 -1.8888842626
H -1.3598321491 2.0296017196 -1.5666971370
H -1.0573396278 0.5914378587 -2.5107639277
H -1.4592851305 0.7831867705 0.5088195172
H 0.4356744704 -0.1487338556 1.4139776960
H 1.2386175358 -2.5116821780 1.2943957852
H 1.9833108234 -2.1592509082 -0.2700520396
H 3.6776451224 -1.9275460881 1.4922808911
H 2.6496484086 -0.8330329180 2.3995351342
H -1.3496035469 -1.3803418992 1.9050695701
H -0.9171662590 -2.8779053077 1.0780418998
H -3.3540418231 -2.7257708165 1.4910789259
H -3.0399877553 -2.7720930307 -0.2328253401
H -4.7217128724 -0.9899537476 0.3577336418
H -3.5439043515 -0.2674669947 1.4609802668
H -4.5998402919 -0.4874033651 -2.0808570645
H -3.2631880055 -1.6275403401 -2.0322164276
H -3.0583925643 -0.0643218992 -2.8293914963
H -5.4821388179 3.3565712249 -0.7325016565
H -5.0776576359 3.5418879807 -2.4711656743
H -3.8804184687 3.9880962511 -1.2103236944
H 0.0432745195 -2.8696895392 -1.1215317894
H 0.1489963804 -1.4135257096 -2.1186659878
H -1.4017048884 -2.2277723895 -1.8880920674
