51
CONF28
C 1.8008224108 -0.3039863968 2.2418470719
C 2.3145260311 -0.5815311259 0.8525280012
C 1.7479200371 -1.6219175225 0.0891501985
C 2.1930974695 -1.8763588854 -1.2081449289
C 3.1949858715 -1.0985935802 -1.7767441046
C 3.7606067566 -0.0712022680 -1.0350023662
C 3.3463431315 0.1885817693 0.2788676907
C 4.0363010520 1.2751264117 1.0189520892
C 4.1164375678 2.5604982034 0.4688756089
C 4.7933835252 3.5786461230 1.1347285636
C 5.4087359544 3.3264585672 2.3589055691
C 5.3435334827 2.0484676022 2.9113756402
C 4.6625130351 1.0323912470 2.2480837672
C 0.6565075511 -2.4848411739 0.6604419339
O -0.6127824750 -1.7545901432 0.7585402823
C -1.3535643838 -1.6726612468 -0.3679976179
O -1.0535588303 -2.2045222396 -1.4198005965
C -2.5632259111 -0.8580521576 -0.1168619147
C -3.3060467030 -0.2879444994 -1.3302290289
C -3.9549787812 -1.3561566920 -0.4682910196
C -4.1372316263 -2.7170500993 -1.1002383418
C -5.0619674883 -0.9825001748 0.4922415883
C -3.7281404483 1.1048454016 -1.2920670784
C -3.7996529727 1.9323331119 -2.3376365357
C -4.2374909483 3.3619405622 -2.2369498206
F -5.3329885085 3.6154747011 -2.9976587625
F -4.5457874444 3.7011273189 -0.9687309219
F -3.2738024526 4.2194327494 -2.6600055847
Cl -3.3902287243 1.4665769363 -3.9743879650
H 2.0778389685 0.6969314512 2.5749957547
H 0.7133063993 -0.3902699807 2.2825079901
H 2.2139508519 -1.0174595947 2.9655311941
H 1.7421038588 -2.6865594390 -1.7723524060
H 3.5373086792 -1.2961650592 -2.7876309936
H 4.5557952874 0.5328005950 -1.4621489429
H 3.6333624762 2.7631188144 -0.4827905423
H 4.8377463819 4.5713373379 0.6970426813
H 5.9379112091 4.1194481004 2.8780768521
H 5.8291711657 1.8400624917 3.8598993663
H 4.6271418541 0.0360328224 2.6784666482
H 0.8641084958 -2.7784548626 1.6909495172
H 0.5041976372 -3.3757765443 0.0484919723
H -2.5096853852 -0.2250315109 0.7628096631
H -2.9310179784 -0.6547411138 -2.2804347289
H -4.1307850581 -3.4926899154 -0.3263043672
H -5.1075795712 -2.7524618891 -1.6064735984
H -3.3562616649 -2.9425504939 -1.8274679288
H -4.8713650296 -0.0442069101 1.0170906798
H -5.1715665082 -1.7707547227 1.2442335116
H -6.0113217310 -0.8944843615 -0.0472673355
H -4.0086263106 1.5253882693 -0.3310169864
