45
CONF411
O -0.6152366136 -0.4545974319 -2.9183512385
C -1.9564307027 -0.9167163657 -2.8409490950
C -2.5608080257 -0.7925799179 -1.4583457648
O -1.7720635312 -1.5874364701 -0.5240313684
C -1.5914416732 -0.8826723066 0.6916919005
C -1.7570819322 -1.8441400952 1.8611436082
O -1.5728812910 -1.1489875943 3.0871014883
O -0.3048057103 -0.2507737415 0.7712194126
C 0.8096191770 -1.0027623754 0.3628271994
O 1.3448690477 -0.4760432234 -0.8446226735
C 1.7522862175 0.9176443010 -0.7382552997
C 2.1210137214 1.3931136827 -2.1370860959
O 1.0206888380 1.8576860334 -2.8917871317
C 2.9051953123 0.9936695478 0.2705796188
O 3.3107840332 2.3410261742 0.5334215641
C 2.4221142725 0.4524047243 1.6082613293
O 3.4728984664 0.3753322994 2.5716609171
C 1.8875349697 -0.9569522947 1.4452339895
O 1.3289759208 -1.4497688162 2.6637502045
C -2.6214431372 0.2584795519 0.6471124042
O -2.3363160020 1.3888821432 1.4348322422
C -2.6176017469 0.5992700845 -0.8391583365
O -3.7829252884 1.2615135736 -1.3008510386
H -0.1090867107 -0.8169672782 -2.1711398249
H -2.5519022568 -0.3134101139 -3.5346914052
H -2.0177636164 -1.9683334305 -3.1594764817
H -3.5838681147 -1.1980344303 -1.4909481728
H -1.0571878957 -2.6867902643 1.7584534886
H -2.7757135128 -2.2444155470 1.8506465080
H -0.6148431149 -1.0021053528 3.1569568001
H 0.5365417741 -2.0390509373 0.1342591575
H 0.9122860997 1.5217007237 -0.3697360452
H 2.6699480421 0.5845560359 -2.6492072863
H 2.7981069702 2.2507046745 -2.0459383961
H 0.3965143807 1.1227148698 -3.0248692592
H 3.7544910345 0.3869094616 -0.0831847924
H 3.8982855320 2.6372303264 -0.1688936074
H 1.6129920296 1.1069660340 1.9702378674
H 3.8291643827 1.2670992137 2.6687280268
H 2.7123127885 -1.6104425496 1.1204447905
H 1.9931725344 -1.2993937049 3.3496901627
H -3.6079293054 -0.1693473387 0.8974182538
H -2.1994939020 1.0734270738 2.3389561894
H -1.7067193411 1.1705310550 -1.0741447113
H -3.7762510829 2.1508600965 -0.9289588765
