44
CONF45
C -4.6550306770 1.2155160488 1.1149046804
C -3.5311280670 0.2181061985 1.2360152766
C -3.9367267857 -1.1929691396 1.6265717627
O -2.9061880244 -2.0155802709 1.0389855567
C -2.2568160415 -1.2447294276 0.0211702203
O -2.9590816102 -0.0240477196 -0.0749906304
C -2.4300288705 -1.9767256131 -1.3238761552
N -1.7626578175 -1.2737599809 -2.4050790143
C -2.2017956826 -0.2167329517 -3.1177116288
N -1.2544291812 0.2022767456 -3.9486390222
C -0.2266534734 -0.6542896041 -3.6872009625
N -0.4846300986 -1.5654536981 -2.7578521510
C -0.7875920937 -1.0059224249 0.3730064216
C -0.2716928040 0.2897861005 0.2765141014
C 1.0621397466 0.5829070616 0.5195140196
C 1.9235508219 -0.4551307004 0.8599863259
C 1.4564959965 -1.7599734244 0.9671877206
C 0.1136023126 -2.0159871997 0.7225922518
Cl -0.3821781709 -3.7034163467 0.8354454163
O 3.2512470364 -0.2532500572 1.1692799174
C 3.9606107957 0.7086482081 0.4688389981
C 3.8637022106 0.8237274734 -0.9157273264
C 4.6519004122 1.7563585218 -1.5801261661
C 5.5287198265 2.5476934835 -0.8460191406
C 5.6381047024 2.4287959155 0.5339045460
C 4.8407880316 1.5009727747 1.1966143812
Cl 6.5282530463 3.7281590686 -1.6885816786
H -5.4139359953 0.8516788403 0.4159457130
H -4.2776157700 2.1802814870 0.7661439286
H -5.1191963619 1.3626916402 2.0945687735
H -2.7414974931 0.5873948438 1.9072049480
H -3.9406093783 -1.3608275895 2.7064609499
H -4.9133711782 -1.4531191850 1.1970132497
H -2.0152450408 -2.9831163494 -1.2612758220
H -3.4999927355 -2.0326819219 -1.5402771907
H -3.1966477467 0.1929835050 -3.0041964968
H 0.7294234042 -0.6137142607 -4.1940945357
H -0.9478484482 1.0915083967 0.0029354362
H 1.4240336962 1.6019517393 0.4428667494
H 2.1397429910 -2.5591695203 1.2292938301
H 3.1822979293 0.1911118146 -1.4747866252
H 4.5880417948 1.8559607641 -2.6576837788
H 6.3281761487 3.0530233408 1.0899220845
H 4.9017576374 1.3890636303 2.2737086748
