24
CONF23
C 2.5031650794 -1.1943156183 -0.5302811608
C 1.4169991891 -0.2612361900 -0.0188561137
C 0.0367745691 -0.6208584170 -0.6220294380
C -1.1708458736 -0.2421204548 0.2449744290
C -1.3764019060 1.2757254227 0.4019878809
C -2.6918344517 1.5581900808 1.1021734894
O -2.7101888012 2.2033605731 2.1289785857
O -0.3238020495 1.8710948813 1.1293575189
O -2.3642150291 -0.7220156301 -0.3630141419
O -0.1121151163 -2.0355692707 -0.8147196011
O 1.8018786883 1.0548016943 -0.4180239333
O 2.4652201206 -1.3213154760 -1.9586162294
H 3.4758953596 -0.8108538182 -0.1941570600
H 2.3649685298 -2.2005420711 -0.1279779256
H 1.3842401704 -0.3436835601 1.0795109471
H -0.0486179295 -0.0973096362 -1.5871463084
H -1.0346458807 -0.6808811498 1.2491842687
H -1.4475657115 1.7119463303 -0.6106285996
H -3.6073408814 1.1599786866 0.6344985528
H -0.7410463043 2.3095556237 1.8941244707
H -2.1377528569 -1.5890967310 -0.7301083445
H 0.4786410275 -2.2696769774 -1.5444063379
H 1.2682260678 1.6763624248 0.0993790213
H 2.5703635084 -0.4315410079 -2.3185109698
