42
CONF66
C 4.7928839841 -0.8234370495 -2.4465298835
C 5.0469640148 -1.2151846341 -1.1346304218
C 4.9812108564 -0.2498384691 -0.1382731517
N 4.6538258576 1.0282310577 -0.3716689692
C 4.4116534991 1.3840611980 -1.6358039020
C 4.4845508934 0.5019677613 -2.7163560077
N 4.1131818004 2.7603861662 -1.8227381443
S 2.6539470020 3.2044967611 -2.6054496685
O 2.5084955772 4.6371904582 -2.3185971658
O 2.7293177096 2.7188548923 -3.9878736143
C 1.3710318334 2.2895684699 -1.7577115679
C 0.9067506154 1.0984364527 -2.3071981724
C -0.0462416468 0.3723249880 -1.6054185773
C -0.5253336776 0.8352322168 -0.3748988540
C -0.0423575185 2.0400813147 0.1633266874
C 0.9100139625 2.7665018342 -0.5276360150
N -1.4904261802 0.0067347302 0.2418562716
N -1.9493792661 0.4541047350 1.3259768974
C -2.9046210938 -0.3535585323 1.9612269461
C -3.3582952420 -1.5853685250 1.4839862104
C -4.3129932182 -2.3070219658 2.1949817243
C -4.8272080109 -1.7824682286 3.4148106546
C -4.3654515836 -0.5465271336 3.8861583334
C -3.4200962231 0.1532046511 3.1688965439
O -5.7445836306 -2.4273412830 4.1403419451
C -4.8089261612 -3.6040729726 1.7190241349
O -5.6545801909 -4.2687592455 2.3183460782
O -4.2646325919 -4.0162579393 0.5687797474
H 4.8514758124 -1.5403081725 -3.2590866642
H 5.2994628207 -2.2405151128 -0.8895462165
H 5.1892378699 -0.5076634667 0.8981099121
H 4.3139449807 0.8492222029 -3.7273663175
H 4.1727142018 3.2625425978 -0.9365116683
H 1.2755849932 0.7508533113 -3.2650471855
H -0.4337837295 -0.5595552202 -2.0036234850
H -0.4153177569 2.3947606755 1.1163447162
H 1.2927445004 3.6972501007 -0.1220782402
H -2.9647228450 -1.9798827394 0.5558881012
H -4.7675751456 -0.1618278529 4.8168765481
H -3.0565041826 1.1118185149 3.5256987231
H -5.9531108377 -3.2703372285 3.6620165689
H -4.6528521477 -4.8778996312 0.3394489360
