25
CONF7
C -1.5068078925 1.1450124755 1.5408894814
Si -1.4283499916 0.0449136592 0.0271661812
C -2.7774883889 -1.2485446479 0.0825166403
C -1.5581612012 1.0735845063 -1.5331569582
O 0.0183814467 -0.7792990049 0.0345557657
Si 1.6011776146 -0.4806886481 -0.2872962307
C 2.1180747547 1.2060252440 0.3221501109
C 2.6115560945 -1.8362204476 0.4942392177
O 1.7121810721 -0.5500424456 -1.9509529099
H -0.7233326163 1.9102018376 1.5118003905
H -1.3774898809 0.5586157924 2.4575483300
H -2.4753494311 1.6548513760 1.5986055628
H -3.7660776869 -0.7759438665 0.0925671694
H -2.7258623043 -1.9072424226 -0.7915829588
H -2.6893809587 -1.8676138927 0.9823145469
H -0.7600618252 1.8231828920 -1.5802730399
H -2.5183893090 1.6012462638 -1.5658176214
H -1.4863588258 0.4431095189 -2.4263314057
H 2.0061153863 1.2790835203 1.4096936605
H 1.5156709900 1.9971222707 -0.1378754362
H 3.1696732539 1.3965154040 0.0783989742
H 2.2845242391 -2.8188264786 0.1370421469
H 3.6735911343 -1.7211047485 0.2503176505
H 2.5120421936 -1.8172869142 1.5851967539
H 2.5701219261 -0.3306511376 -2.3317161225
