41
CONF4
C -5.4520716214 1.9372985350 0.2118726830
C -4.2352294682 1.0648700257 0.2701744023
C -4.0213977174 0.0572772749 -0.6773387921
C -2.8841829123 -0.7274911648 -0.5488853668
N -2.0224316337 -0.5217503218 0.4589626764
C -2.2933616875 0.4818818669 1.2917298157
N -3.3659670024 1.2897428852 1.2577244488
N -1.3974853920 0.7663157830 2.3110277799
C -0.1196215332 0.2599333120 2.5913801764
O 0.5833337490 0.8039971324 3.4214824736
N 0.2213074505 -0.8734401180 1.8790672904
S 1.8187731296 -1.4643836352 1.8621806291
O 1.7982153519 -2.4928051126 0.8175109907
O 2.2304845464 -1.7685706265 3.2266030034
C 2.8129777205 -0.0820054079 1.2722192911
C 3.5448498666 0.6357476119 2.2090814838
C 4.3978289345 1.6454855430 1.7760204352
C 4.5290505654 1.9110580346 0.4175227100
C 3.7997224117 1.1799796322 -0.5145062614
C 2.9170522528 0.1845795047 -0.0965433363
C 2.0597039958 -0.4902043527 -1.1211789362
O 0.8501131712 -0.4366273176 -1.1415138301
O 2.8115331383 -1.0931883417 -2.0562228347
C 2.0603296964 -1.7775926278 -3.0842573291
C -2.5329104343 -1.8282073446 -1.4969072083
H -5.4182100138 2.6880216649 1.0015027725
H -5.5198961421 2.4361430934 -0.7602986702
H -6.3581059411 1.3334328945 0.3295937223
H -4.7253645382 -0.1060319721 -1.4854299991
H -1.6338863818 1.5725441816 2.8717093804
H -0.3627049026 -1.0905630930 1.0546132109
H 3.4393339899 0.3934184693 3.2595506747
H 4.9659662286 2.2156650808 2.5030006834
H 5.2049396094 2.6888105952 0.0777146246
H 3.9024503664 1.3827835778 -1.5751352158
H 1.4397767990 -2.5548927193 -2.6310158243
H 2.8077287574 -2.2156526237 -3.7445976278
H 1.4264263072 -1.0712830575 -3.6267029023
H -1.5292592439 -1.6495910966 -1.8963702203
H -3.2505517652 -1.9015772805 -2.3159416531
H -2.4992596069 -2.7831289721 -0.9622408731
