119
CONF682
C -9.9090871517 0.1585597789 3.1468161159
C -9.8539557948 1.5533666623 2.5263457035
C -11.2420702913 2.0056668237 2.0675166069
C -8.8827352354 1.5957339030 1.3309224253
C -8.7615294590 3.0370115821 0.8104891674
O -8.3486189683 3.9154190180 1.5661955866
N -9.0579406454 3.2954712357 -0.4865119709
C -8.8915540689 4.6648564678 -1.0162904785
C -9.1773436635 4.4836259924 -2.4908170427
C -8.0655101971 4.5801430548 -3.4997894672
C -9.1612353829 5.6211254427 -3.4573707156
C -10.1619993535 3.3366229480 -2.5607303707
C -9.5876528530 2.3728133328 -1.5080614603
C -8.5088372591 1.5034044662 -2.0960149499
N -8.6279963181 0.7946281741 -3.2043472666
C -7.4565436132 0.0925758994 -3.3152264397
C -6.6069999406 0.3784906016 -2.2618228625
N -7.2982720846 1.3067657494 -1.5086605145
C -5.2943316469 -0.1068398956 -1.8898611889
C -4.4643849952 0.6232507954 -1.0148918347
C -3.2444193353 0.0941098286 -0.6620211972
C -2.7876363922 -1.1360168349 -1.1558693645
C -3.5938616045 -1.8574702388 -2.0304737108
C -4.8376255854 -1.3439446075 -2.3787533193
C -1.4642310504 -1.4147042837 -0.5898821391
C -1.1013125050 -0.3599576743 0.2611168765
C -2.2052471431 0.6708238053 0.2711525253
F -1.7662342431 1.9088266914 -0.1427594569
F -2.7124237621 0.8682777418 1.5395749970
C 0.0977316446 -0.3381547239 0.9364639660
C 0.9930050890 -1.4117366953 0.7701895171
C 0.6248645866 -2.4674181569 -0.0787512360
C -0.5894815817 -2.4806665750 -0.7604418194
C 2.2905949973 -1.4222964309 1.4708062644
C 3.4345205776 -1.8980991953 0.8218144086
C 4.6259116736 -1.8802210319 1.5328257151
C 4.7169989095 -1.4032141242 2.8629023425
C 3.5707373340 -0.9344237074 3.5043464082
C 2.3777518410 -0.9486233505 2.8007286588
N 6.0232173007 -1.4836259525 3.3143181547
C 6.6963303413 -1.9850429382 2.3028341535
N 5.9122666354 -2.2492151369 1.2056356197
C 8.1664695827 -2.2786371664 2.2848199597
C 8.9020043855 -1.8525947928 3.5650378543
C 10.3398347277 -2.4161441914 3.4987273199
C 11.0307138379 -1.5315584716 2.4125298516
C 9.8774984151 -0.6116860818 1.9708697235
C 9.1369850424 -0.3567196135 3.2875963012
N 8.8854507661 -1.4590706139 1.2631772630
C 8.8811676756 -1.8108614361 -0.0379327822
O 8.1587467392 -2.7193586691 -0.4742341493
C 9.7438225728 -0.9793686674 -0.9869914929
C 9.0420642117 0.3706159664 -1.3088309516
C 9.9557966751 1.2347735834 -2.1764471324
C 7.6774296005 0.1691492656 -1.9661013340
N 9.9984441980 -1.7680682474 -2.1756301381
C 11.2742691479 -1.9675028914 -2.6138174378
O 12.2624376883 -1.3746196795 -2.2224487240
O 11.2868149246 -2.9185880940 -3.5884459054
C 12.5878583001 -3.1678151757 -4.1502384174
N -7.5178961808 1.1974139271 1.6657512369
C -7.0729179970 -0.0842216484 1.4689392076
O -7.6631323932 -0.9445903080 0.8459422993
O -5.8476275563 -0.2358121805 2.0325201957
C -5.2410277567 -1.5230240801 1.7980439650
H -10.6042072736 0.1501180345 3.9921632335
H -10.2479016962 -0.5827183257 2.4153009094
H -8.9310191512 -0.1611826981 3.5171209902
H -9.4784496038 2.2707035498 3.2677731987
H -11.2231689689 3.0185531234 1.6514946446
H -11.6380390141 1.3247745247 1.3037667995
H -11.9437812829 2.0044295582 2.9065469718
H -9.2276764129 0.8926289587 0.5665602583
H -9.6141147379 5.3356558123 -0.5308191855
H -7.8871657891 5.0423439919 -0.8013020895
H -7.0809919816 4.8694709946 -3.1462052361
H -8.0681706254 3.8678418639 -4.3183099811
H -9.8984413752 5.6176622615 -4.2538641293
H -8.9078512399 6.6060176164 -3.0773472062
H -11.1619783647 3.6637243620 -2.2502367691
H -10.2226731316 2.8626613478 -3.5415898812
H -10.3757840634 1.7395915153 -1.0836799929
H -7.2683422206 -0.5610052129 -4.1554233638
H -7.0208384040 1.6492329273 -0.5995909626
H -4.7662190130 1.5916323180 -0.6275638868
H -3.2752960946 -2.8178174376 -2.4232679817
H -5.4899014470 -1.9205729573 -3.0258566829
H 0.3642396917 0.5066627816 1.5634098431
H 1.2986943030 -3.3119727721 -0.1824330318
H -0.8441411834 -3.3182855984 -1.4021337582
H 3.3911068554 -2.2304532459 -0.2100740249
H 3.6185063318 -0.5777338476 4.5274417274
H 1.4695690335 -0.6152908943 3.2919874720
H 6.2839599667 -2.6137846898 0.3361615775
H 8.3154158728 -3.3412804340 2.0507940385
H 8.3428014922 -2.0946036879 4.4674910235
H 10.8329795391 -2.3052045238 4.4683307690
H 10.3520656330 -3.4795975685 3.2431388002
H 11.8491220079 -0.9380080326 2.8317428000
H 11.4318463625 -2.1100079687 1.5758488152
H 10.1606137747 0.2656853442 1.3892190671
H 9.7796777453 0.1171902501 4.0341354088
H 8.2123355102 0.2109843680 3.1681600275
H 10.7161692726 -0.7593421644 -0.5326297652
H 8.8852528178 0.8796987640 -0.3478712737
H 10.1270069264 0.7576714460 -3.1466133831
H 9.4960375602 2.2113923064 -2.3564336757
H 10.9312446446 1.3897201869 -1.7054924685
H 7.7801488798 -0.3675540912 -2.9150764090
H 7.2178112285 1.1387009828 -2.1796687869
H 6.9920015944 -0.3942779821 -1.3257315313
H 9.3049454333 -2.4684011105 -2.4015328199
H 13.2828938593 -3.5086069735 -3.3782278192
H 12.4344892413 -3.9463283176 -4.8978770548
H 12.9860082147 -2.2621106388 -4.6157528184
H -7.0028234654 1.7966414962 2.2956900868
H -4.2363672068 -1.4447018554 2.2131804173
H -5.8114447250 -2.3081776452 2.3019462939
H -5.1982179922 -1.7358630210 0.7267160784
