65
CONF609
C -5.1721537698 2.9622472684 0.1836171292
C -4.2150659780 3.5276584813 -0.8633369900
C -3.2749216707 2.4661209545 -1.4508320439
C -2.3584445943 3.0568590608 -2.5312451618
C -2.4127441927 1.8794057562 -0.3538485857
O -1.6994965168 2.5363428538 0.3813970040
O -2.5118219830 0.5366054262 -0.3005855953
C -1.7031884550 -0.1554144602 0.7015214943
C -2.4846811696 -0.2689505206 1.9993389860
C -1.6164688653 -0.9252575087 3.0834616628
C -0.8638707600 -2.0965821072 2.5253831018
C -0.7257927913 -2.3746115744 1.2141048256
C -1.3709705086 -1.5251841254 0.1326894553
C -0.5588087906 -1.4750565296 -1.1853295593
C -0.2647961949 -2.9218989532 -1.6530214208
C 0.2343164147 -3.7963955517 -0.5363254101
C 0.0213430932 -3.5341208387 0.7621061996
C 0.6630587297 -2.9915688210 -2.8700881966
C 0.6607105205 -0.5372014205 -1.1635716990
C 1.7680106869 -0.8445535501 -0.1556102737
C 2.8818631297 0.1850714242 -0.1718476385
C 3.9117824339 -0.0245823514 0.9191796992
C 5.0557375841 0.9568409881 0.7310607703
C 5.7182556496 0.6785985862 -0.6053258068
C 4.7721056052 0.4434116367 -1.7589157598
O 5.1456171361 0.4789187794 -2.9152318915
O 3.4904791452 0.1167762564 -1.5146121944
O 6.0734131692 0.8205696816 1.7292941037
C -0.6545145802 0.0768587424 3.7474430788
H -5.7814150126 2.1559717831 -0.2389895781
H -4.6259311451 2.5557559275 1.0426070148
H -5.8478344233 3.7371925606 0.5573092257
H -4.7825355788 3.9653682636 -1.6930339731
H -3.6084714257 4.3316553165 -0.4298247400
H -3.8725844505 1.6567275471 -1.8837092589
H -2.9646466538 3.4639227610 -3.3458290896
H -1.7503500823 3.8650245565 -2.1135033797
H -1.6893652999 2.2964561321 -2.9462196700
H -0.7938126491 0.4296307416 0.8619874315
H -2.8126274976 0.7238970456 2.3254169060
H -3.3787821005 -0.8769885059 1.8151790521
H -2.2848305936 -1.2965496882 3.8732769203
H -0.3785337040 -2.7531023491 3.2477469846
H -2.3264363226 -2.0127881740 -0.1215295989
H -1.2314430928 -1.0433203383 -1.9376391359
H -1.2348908916 -3.3386902297 -1.9722649981
H 0.7873337875 -4.6908997003 -0.8194287893
H 0.4173974675 -4.1993504166 1.5272936877
H 0.7071059253 -4.0170232467 -3.2508258538
H 0.3006802839 -2.3439787461 -3.6751755586
H 1.6830379646 -2.6854827963 -2.6164717058
H 1.0889887407 -0.5172034858 -2.1706294514
H 0.3033584783 0.4854238214 -0.9818529702
H 1.3613772169 -0.8604213466 0.8621013884
H 2.2025284884 -1.8340569212 -0.3350463203
H 2.4597224460 1.1970631665 -0.0958788968
H 4.2947811654 -1.0531619069 0.8925161775
H 3.4198106661 0.1349583455 1.8854280522
H 4.6568613784 1.9834829224 0.7418262682
H 6.3055809570 -0.2461241020 -0.5131889620
H 6.4122168248 1.4707252330 -0.8975844873
H 5.6902753939 1.0810539786 2.5765850449
H 0.0212254664 0.5230563207 3.0100027061
H -0.0409333058 -0.4209008047 4.5051916451
H -1.2158117770 0.8817677411 4.2332884495
