33
CONF27
O -3.3825223459 -1.8202402096 3.8626602405
C -3.1336900630 -1.3286454412 2.6267617410
C -4.1573545913 -1.1477022794 1.6929279029
C -3.8362902610 -0.6383134930 0.4430769269
O -4.8172743975 -0.4351584729 -0.4502242811
C -2.4910651228 -0.3118503275 0.1071704148
C -2.1747337755 0.3316546344 -1.1362268792
O -3.0352707321 0.5781719703 -2.0078344366
C -0.7402619586 0.7491743223 -1.3220693668
C 0.1975119215 -0.1836892706 -0.5678632282
O -0.1860224654 -0.2386459824 0.8427577258
C -1.4872504568 -0.5292623341 1.0861477241
C -1.7979613243 -1.0279280501 2.3383714001
C 1.6356704556 0.2402811531 -0.6281941115
C 2.0569422693 1.4201006222 -0.0136191975
C 3.3878168812 1.8183765214 -0.1018621512
C 4.3014335878 1.0492707977 -0.8147721261
O 5.6243085096 1.3634550289 -0.9629730217
C 3.8821439850 -0.1358668278 -1.4372885607
O 4.7589097993 -0.9112130449 -2.1401411118
C 2.5559245947 -0.5367612859 -1.3334772958
H -4.3268551321 -2.0104395126 3.9582946315
H -5.1875709554 -1.3883550964 1.9350978235
H -4.3790310725 -0.0238303289 -1.2489943369
H -0.4916733928 0.7518643277 -2.3869955308
H -0.6319662790 1.7773878925 -0.9492985637
H 0.0923011421 -1.2020611453 -0.9663795836
H -1.0224641637 -1.1995860444 3.0752364026
H 1.3524300116 2.0296575336 0.5427764290
H 3.7241318760 2.7323371399 0.3806601881
H 5.8233979054 2.1919017840 -0.5062005547
H 5.6360004494 -0.5021546924 -2.1039395746
H 2.2503360061 -1.4619305820 -1.8135858398
