38
CONF119
C 2.1209616655 3.4327147427 0.5346262582
C 3.0884336869 2.5399971425 -0.2406833994
C 2.7835371759 1.0639021505 -0.0878758962
O 1.4839310674 0.8083300767 -0.6512296368
C 1.0830346321 -0.5388103157 -0.4436804171
C -0.3041959761 -0.6960905049 -1.0162429829
N -1.3907009692 -0.8174291337 -0.3592429690
C -1.4391011395 -0.6652190567 1.0247316912
C -1.0036863728 0.5136000563 1.6449255247
C -1.1435936357 0.6966812958 3.0131227849
C -1.7255570044 -0.3096371066 3.7735862881
C -2.1753785394 -1.4877644719 3.1934378578
C -2.0408056957 -1.6598385285 1.8194999994
C -2.5221234417 -2.9303341216 1.1791123702
F -3.0027610403 -3.8108218941 2.0863158474
F -3.5214175549 -2.7119167086 0.2862445680
F -1.5308486228 -3.5696304814 0.5038379176
Cl -1.9043569262 -0.0904971375 5.5063414175
N -0.3893219516 -0.7334248580 -2.4170275721
C -1.5478492453 -0.9008770805 -3.1684535491
C -1.1487460994 -0.8443924971 -4.4690167950
N 0.2230255515 -0.6383982729 -4.5562498271
C 0.6477648885 -0.5770537712 -3.3194979478
H 1.0979440260 3.3206080673 0.1640771258
H 2.1244680694 3.1738349315 1.5994901347
H 2.4008566911 4.4862005261 0.4412438486
H 3.0783199206 2.7982756287 -1.3067162665
H 4.1140772800 2.6987444267 0.1135503860
H 3.5312931333 0.4461583639 -0.6083194922
H 2.7765343853 0.7776029454 0.9762103309
H 1.7741196746 -1.2439187174 -0.9320205848
H 1.0524688597 -0.7847341553 0.6258677687
H -0.5605803192 1.2959099815 1.0369175982
H -0.8016892938 1.6140332966 3.4790320644
H -2.6243076007 -2.2617090509 3.8031038176
H -2.5084858143 -1.0462953228 -2.7029593395
H -1.7629872039 -0.9408316715 -5.3533716376
H 1.6677230088 -0.4069684716 -3.0051527823
