51
CONF90
C -2.6505262677 -0.9338905655 0.5117289285
C -1.3830764998 -0.8862711226 -0.3331597656
N -0.2066938134 -0.5658032791 0.4869998378
C -0.3853259796 0.7492535392 1.1230639288
C -1.6092281949 0.7554941104 2.0312297920
C -2.8629147625 0.4157821645 1.2297257186
C -4.1072725542 0.3429657441 2.0903576618
O -4.0254682334 0.1898014301 3.3049694918
C -5.4468027231 0.4071686222 1.4343813170
C -6.5810046238 0.1344943889 2.2138363786
C -7.8541035608 0.1845616200 1.6685059507
C -7.9750487265 0.5162136279 0.3266964747
C -6.8856197012 0.7934890326 -0.4824977663
C -5.6173767148 0.7351382403 0.0817724331
F -9.2129112277 0.5732002229 -0.2145966315
C 1.0057829385 -0.5962635370 -0.3319188029
C 2.2616872912 -0.7382562968 0.5323403184
N 3.4671527951 -0.7262607499 -0.3096660634
C 4.0497772408 0.5137628903 -0.6011823008
O 3.5739612952 1.5505461791 -0.1459853221
C 5.2348852310 0.4733122096 -1.4573550806
C 5.9112119265 1.6521667898 -1.7949006952
C 7.0290593107 1.6067397920 -2.6086269879
C 7.4813060128 0.3739372020 -3.0975440121
C 6.8264434274 -0.8035590810 -2.7779363135
C 5.6971652117 -0.7540169508 -1.9521941537
N 5.0151741352 -1.9048538564 -1.6141561758
C 3.8966763572 -1.9541426043 -0.8238620491
O 3.3171392249 -3.0071701725 -0.5804968569
H -3.5024657256 -1.1759837125 -0.1319070951
H -2.5640740580 -1.7280592154 1.2641949718
H -1.5170894510 -0.1423480114 -1.1451923094
H -1.2211593685 -1.8624204645 -0.8044791111
H -0.4874734426 1.5416657389 0.3531691941
H 0.5045021362 0.9861254180 1.7145319701
H -1.7122712403 1.7411779072 2.4979663009
H -6.4495089247 -0.1208744652 3.2593809330
H -8.7384596186 -0.0268490866 2.2595202541
H -7.0323723142 1.0506181347 -1.5256065360
H -4.7649289009 0.9559639915 -0.5496114695
H 0.9534522747 -1.4636122240 -0.9999916281
H 1.0974188051 0.3055907748 -0.9672502568
H 2.2364355942 -1.6811658723 1.0797550083
H 2.3590431495 0.0867503282 1.2381012177
H 5.5384307865 2.5926481274 -1.4044276567
H 7.5532508762 2.5197235739 -2.8684597813
H 8.3572683071 0.3357203013 -3.7372358572
H 7.1750580182 -1.7589203635 -3.1575119373
H -1.4741272263 0.0230025423 2.8340884949
H -3.0045276442 1.1868316088 0.4609096998
H 5.3278470777 -2.7942409665 -1.9795967635
