46
CONF116
C -3.5490966809 -0.4593044906 0.4926844856
C -3.2406635911 -1.5517129679 1.4906591781
C -1.9502875112 -2.3189505748 1.4262683901
C -2.2160331498 -1.3451833008 2.6043204964
C -1.4243313141 -0.1261093258 2.8563211830
O -1.2008668094 0.2911452328 3.9807129872
O -0.9597148615 0.4772363845 1.7447293087
C -0.1569034456 1.6760266386 1.9610207524
C 0.1208422270 2.2853885107 0.6191093885
C 0.8074709231 1.5533776077 -0.3525251103
C 1.0762739693 2.1419531122 -1.5840427171
C 0.6668742328 3.4441459624 -1.8649444350
C -0.0237230290 4.1611177079 -0.8958678294
C -0.2976288225 3.5875623224 0.3438769392
O 1.6850222198 1.4571305108 -2.6192685956
C 2.7431549128 0.6018713201 -2.3709457882
C 3.6695728260 0.8197506502 -1.3536623517
C 4.7357602240 -0.0652961212 -1.2124797436
C 4.8856362836 -1.1454477363 -2.0795245545
C 3.9601652914 -1.3361739285 -3.1042235774
C 2.8847793231 -0.4664350096 -3.2533127418
C -0.9232227249 -2.0491183251 0.4145470126
C 0.1794072521 -2.7798944780 0.2485841749
Cl 1.3471883690 -2.4304531927 -0.9987198319
Cl 0.6019138695 -4.1423207616 1.2512217014
C -4.4661999240 -2.3402887377 1.9048974324
H -3.9927019436 -0.9072095950 -0.4032312345
H -4.2821573012 0.2318800048 0.9218092107
H -2.6762643710 0.1203139926 0.1959672461
H -2.0028112912 -3.3548368740 1.7498829377
H -2.4538982134 -1.8411476114 3.5395219618
H 0.7662493735 1.3771548765 2.4698890872
H -0.7069917358 2.3671677726 2.6038686970
H 1.1274092532 0.5360134207 -0.1495663204
H 0.8909236417 3.8737774906 -2.8355233949
H -0.3484986980 5.1744909825 -1.1089971540
H -0.8364712861 4.1508815800 1.0992941448
H 3.5618227848 1.6650807831 -0.6829113585
H 5.4578813793 0.1002974669 -0.4189557230
H 5.7188031790 -1.8298882422 -1.9600974314
H 4.0683606686 -2.1716706990 -3.7888767643
H 2.1508896726 -0.6064349500 -4.0402376791
H -1.0531239733 -1.2141869169 -0.2650336229
H -4.2128447424 -3.1327348433 2.6144561573
H -4.9279842288 -2.7998240020 1.0242431904
H -5.2039809204 -1.6791416409 2.3720855140
