74
CONF162
C -0.4881576276 -0.5118829868 0.8655912079
C 0.3326315346 -1.4345980435 1.7540757926
O -0.3855584452 -1.4016703310 3.0378585824
C -1.1280173213 -0.2683544369 3.1353992309
O -1.7426675556 -0.0039174320 4.1430606604
C -0.9713607406 0.5284000232 1.8637786900
C -2.1473212426 1.3415473096 1.3152518006
C -3.4521189504 0.5556940290 1.2479855701
C -4.3095647016 0.5677184210 2.3498317105
C -5.4921237806 -0.1746230081 2.3339703624
O -6.3923305084 -0.2311432422 3.3581235908
C -6.0766440395 0.5075995917 4.5454013489
C -5.8247658071 -0.9326042158 1.2052692515
O -6.9869472276 -1.6519353297 1.2037105148
C -4.9681741103 -0.9269007931 0.0991148739
O -5.4074437889 -1.6934544210 -0.9457765257
C -4.5799866245 -1.7491524462 -2.1156655242
C -3.7895871550 -0.1847807975 0.1128513983
C -1.7395555996 1.8738613881 -0.0531546660
C -2.4925288723 2.9539589881 -0.5613071354
C -2.1873895779 3.4177296310 -1.8158955808
C -1.1754359941 2.8467976080 -2.5818618798
O -1.0866893656 3.4828875797 -3.7916297615
C -2.0747895624 4.5367709528 -3.7659369314
O -2.7794610109 4.4389831508 -2.5069186136
C -0.4316576986 1.7928914381 -2.1179983285
C -0.7201819212 1.2987752342 -0.8249440051
C 0.1635225303 0.1730438485 -0.3183379125
O 1.4421364464 0.7471061942 0.0852566429
C 2.5445359750 0.2596191207 -0.6043201596
O 2.8093592973 -1.0756101394 -0.1453539883
C 3.9279931946 -1.6328376635 -0.8311546425
C 4.1149717904 -3.0823088917 -0.4155915190
O 5.3054151365 -3.5771732168 -1.0453811442
C 6.4507722099 -2.8125723065 -0.6849122960
C 7.6515304303 -3.4061595435 -1.3708888459
O 6.3146760631 -1.4559597674 -1.1113617344
C 5.1911964824 -0.8507348829 -0.4676621637
C 5.0267065928 0.5882124577 -0.9139743780
O 6.1392307598 1.4242322784 -0.5940976397
C 3.7398590625 1.1597756751 -0.2994156350
O 3.4612644194 2.4500364654 -0.8315070708
H -1.3571454821 -1.0668179085 0.4900500045
H 0.3624581418 -2.4748232789 1.4283525610
H 1.3436106066 -1.0584198375 1.9256501053
H -0.1432877898 1.2272568918 2.0690866795
H -2.3142260724 2.1974483596 1.9789559289
H -4.0414691378 1.1514713002 3.2205492204
H -6.8991348392 0.3197995983 5.2361369959
H -5.1358865930 0.1582807124 4.9872089010
H -6.0096101539 1.5814756437 4.3351859907
H -7.0501258034 -2.1043389217 0.3489964260
H -4.4741170866 -0.7552572501 -2.5653860132
H -3.5907732549 -2.1542200602 -1.8733144724
H -5.0926927618 -2.4154994661 -2.8094735712
H -3.1461716967 -0.1615966493 -0.7579131510
H -3.2924616407 3.3934745090 0.0258191317
H -1.5707141608 5.5076959975 -3.8233918956
H -2.7828608548 4.3895233786 -4.5874860041
H 0.3520262525 1.3476418744 -2.7220680251
H 0.3463551429 -0.5446280684 -1.1268442424
H 2.3608831902 0.2303464092 -1.6942693594
H 3.7759354289 -1.5833053471 -1.9221433860
H 3.2868900775 -3.7096055229 -0.7544223754
H 4.2002918469 -3.1487381377 0.6807163200
H 6.5479348331 -2.8213306089 0.4161053939
H 7.7847605926 -4.4419552293 -1.0509977497
H 8.5454943561 -2.8360225986 -1.1086621101
H 7.5112542960 -3.3787739420 -2.4551682213
H 5.3269176224 -0.8881646814 0.6287657101
H 4.9423132013 0.6194613920 -2.0080859256
H 6.2859119099 1.3762682001 0.3618154604
H 3.8559212633 1.2022872311 0.7973041099
H 4.2863751874 2.9537996212 -0.7850827828
