45
CONF23
C -6.5357106636 -0.5288582758 -1.3101009622
O -5.6442944480 0.1901721422 -0.4334766267
N -4.3499594001 -0.2290635458 -0.6523986836
C -3.4884535309 0.3675114741 0.1124632047
C -3.7515130689 1.3594408464 1.1202278126
C -4.8478018909 2.1037542026 1.4937374140
C -4.4539722151 2.8769724341 2.6171694262
C -3.1541266852 2.5552927507 2.8717285272
O -2.7064579410 1.6388059384 1.9774693697
C -2.0588978210 -0.0216846225 -0.1759324106
O -1.1637648543 0.8160948963 -0.2627809161
N -1.8476497185 -1.3479600352 -0.3554602594
C -0.5691266320 -1.8562104757 -0.7431237170
C 0.6593334042 -1.6869191938 0.2049115016
N 1.3488721604 -1.0145173925 -0.8912071246
C 0.2837848447 -1.0697266866 -1.7748188556
O 0.1453101111 -0.7004702498 -2.9165646104
C 2.7235604445 -0.8407092875 -1.0174201126
C 3.5777990752 -1.4221726372 -0.1511731235
C 3.1529774580 -2.3678289242 0.9344124104
S 1.5446723146 -3.2196150888 0.6711496350
C 5.0498594112 -1.0859088913 -0.1339026003
O 5.3042493896 0.3280000672 -0.2876711143
C 4.9411044362 1.0953766984 0.7862012612
O 4.4783013671 0.6349671073 1.8193702066
N 5.1937964208 2.3979691192 0.5441592021
C 3.1226661718 0.1482311950 -2.0674210620
O 2.5908551824 1.2304798847 -2.1950770926
O 4.1042996971 -0.3147390353 -2.8537148393
H -7.5314329794 -0.1495213913 -1.0761698759
H -6.2878636715 -0.3228302473 -2.3555818000
H -6.4822986558 -1.6030247256 -1.1092756859
H -5.8121001236 2.1000964892 1.0145939635
H -5.0594207810 3.5812777513 3.1679128607
H -2.4405714553 2.8736396504 3.6164550564
H -2.6282990537 -1.9842307503 -0.2859954214
H -0.6811988850 -2.8940141858 -1.0713347747
H 0.5010402306 -1.0402721033 1.0727153301
H 3.8937808100 -3.1719156370 1.0193900994
H 3.1437323670 -1.8400502844 1.8965814751
H 5.4920428042 -1.4372091509 0.8025853316
H 5.5765519744 -1.5514760172 -0.9704532531
H 4.8568925379 3.0775724768 1.2055259455
H 5.4518568817 2.7060556146 -0.3794034493
H 4.3575742922 0.3881864836 -3.4783018422
