37
CONF26
C -2.9867005121 2.3650229511 -1.1159701462
N -2.6425238517 1.0331596955 -0.6539396994
C -1.6593599180 0.8289303664 0.2548066150
O -0.9214228994 1.7099986358 0.6818497358
C -1.5076082783 -0.5975149782 0.7387337403
N -2.5662389330 -1.3241442949 0.6669931355
O -2.3838949662 -2.6156488568 1.1410117651
C -3.6079759148 -3.3428315108 0.9883006446
C -0.2030106052 -0.9779142724 1.3045321368
C -0.0731067427 -1.5159716423 2.5873516728
C 1.1811866314 -1.7800103519 3.1195490749
C 2.3232573934 -1.5220467088 2.3636544832
C 2.2169648339 -1.0055673670 1.0787408555
C 0.9548563575 -0.7373777425 0.5576574831
O 0.7730053551 -0.3294017753 -0.7440557119
C 1.6480435406 0.6005868728 -1.2807866254
C 2.0345126359 1.7318380641 -0.5680767577
C 2.8689695500 2.6570533869 -1.1852494819
C 3.3016752716 2.4630823456 -2.4953747658
C 2.8924161556 1.3319504451 -3.1958707909
C 2.0648132767 0.3916739072 -2.5904328800
H -3.3684198765 2.3125073355 -2.1391091688
H -3.7422617963 2.8411011604 -0.4769142968
H -2.0860678665 2.9822609703 -1.0991145269
H -3.2520996378 0.2554195536 -0.8532665395
H -4.4130870183 -2.8766387080 1.5667063194
H -3.3982622787 -4.3418204845 1.3754791473
H -3.8950503190 -3.4038592181 -0.0673017314
H -0.9668226664 -1.7003340161 3.1719368965
H 1.2697792562 -2.1834509140 4.1223192313
H 3.3059232761 -1.7344081461 2.7724667586
H 3.0977738552 -0.8137621177 0.4759662345
H 1.6607195042 1.8853162057 0.4376118404
H 3.1711986942 3.5451730834 -0.6393691297
H 3.9500508660 3.1926873431 -2.9687358532
H 3.2224623926 1.1742001410 -4.2177182484
H 1.7363049228 -0.4992598763 -3.1143814325
