53
CONF195
C -2.4405000941 4.5443353900 -0.6035198384
C -0.9630576514 4.2316830986 -0.5558541202
O -0.8320725002 2.8558099134 -0.1091273378
C 0.4319877169 2.3738071028 -0.0223889670
O 1.4115912980 3.0579846193 -0.3034856025
C 0.4523705411 0.9984965330 0.4572668306
C 1.6465784322 0.3702196857 0.6460888876
N 1.6887886327 -0.8556149381 1.2452521757
C 0.6017857219 -1.4898042462 1.7961475304
C -0.6388891551 -0.9492257552 1.6294972788
C -0.8618600758 0.3026762980 0.7878803498
C -1.7151226669 0.0212909823 -0.4539942703
C -2.9612623134 0.6528532785 -0.5645458470
C -3.8010427055 0.4568278387 -1.6512770622
C -3.4100500152 -0.3958492558 -2.6814937597
C -2.1833433664 -1.0421465665 -2.6080138172
C -1.3603018919 -0.8276316797 -1.5039828532
Cl 0.1780616711 -1.6953639579 -1.4967858092
C -1.7978754962 -1.5755055166 2.2594019890
O -1.8455494227 -2.6822789641 2.7808764731
O -2.8866482237 -0.7621577421 2.2054125547
C -4.1005607907 -1.3087954823 2.7591178170
C 0.9406288955 -2.7364097977 2.5536962218
C 3.0211973540 0.9205211975 0.2954933327
O 4.0290716916 -0.0801256487 0.3945690193
C 4.1546517331 -0.8587841143 -0.8096493518
C 5.1407781880 -1.9877031404 -0.5459573596
N 5.3668667963 -2.8490449483 -1.7130706686
H -2.9559178622 3.8833580259 -1.3063483864
H -2.5810364153 5.5780001723 -0.9327676961
H -2.8964977284 4.4315364941 0.3844096419
H -0.4290377774 4.8821070137 0.1449355056
H -0.4936881462 4.3277910347 -1.5402209429
H 2.6124299206 -1.2475518841 1.3831766459
H -1.4637351079 0.9996025216 1.3787310271
H -3.2632033981 1.3203536189 0.2363582735
H -4.7572701468 0.9681887586 -1.6957708580
H -4.0529658306 -0.5611909446 -3.5399431624
H -1.8599805665 -1.7108289832 -3.3980015659
H -4.3706138150 -2.2357307601 2.2462725915
H -3.9815516900 -1.5053408882 3.8280373075
H -4.8621574556 -0.5463355468 2.5952009911
H 2.0238035567 -2.8363782125 2.6602620307
H 0.4807167040 -2.7292652736 3.5427784233
H 0.5531723943 -3.6166156308 2.0328154796
H 3.0039370980 1.3640542101 -0.7045432776
H 3.2801649129 1.7150304673 1.0036228249
H 3.1764450339 -1.2728836514 -1.1020550339
H 4.5119518849 -0.2130698830 -1.6267076124
H 6.0988372114 -1.5608622103 -0.2257870734
H 4.7683560122 -2.6022141378 0.2835493478
H 5.7114093971 -2.2869194865 -2.4858607565
H 4.4802094208 -3.2348974209 -2.0245094422
