48
CONF24
C -4.3004773383 2.2652474386 -2.1812786678
C -3.3264817255 1.2704708663 -1.5685922644
C -3.4674566242 1.2524812364 -0.0428338097
N -2.5418649752 0.2711320495 0.5580360958
C -2.7589871925 -1.0608653456 -0.0201046793
C -2.6339610628 -1.0508512840 -1.5420676485
N -3.5961239644 -0.0815063535 -2.0811720160
C -1.2718095011 0.6588453162 0.9217652710
C -1.0586216926 1.8082232344 1.7367063830
C 0.1733372610 2.2135455130 2.1581938441
C 1.3195212933 1.4762777259 1.8121207988
C 1.1393378145 0.3105472741 1.0394350039
C -0.1257044587 -0.0843971946 0.6089782080
N 2.2697223582 -0.4368427162 0.6853831063
C 3.5003923458 -0.0704292619 1.0985578012
C 3.7286504027 1.0364976664 1.8750836716
C 2.6294601020 1.8838549783 2.2697647773
O 2.7991399726 2.9207294772 2.9709651109
C 5.1261130155 1.3367810573 2.2731032984
O 6.0794380033 0.6418212889 1.9578187927
O 5.2766246314 2.4365222258 3.0145309200
C 2.1398538849 -1.6095187594 -0.1285323391
C 1.9005553847 -1.4837110526 -1.4949064959
C 1.7759055358 -2.5850238260 -2.3214953034
C 1.9096155917 -3.8312967390 -1.7285482314
C 2.1513858824 -4.0095478529 -0.3756286205
C 2.2605769558 -2.8792201484 0.4254593736
F 1.7998071686 -4.9200450978 -2.5160778060
F 1.7808408073 -0.2531135283 -2.0224140044
F -2.1383748490 2.4995982109 2.1756889690
H -5.3305420000 2.0089682972 -1.9114230961
H -4.0872162374 3.2790322523 -1.8290424469
H -4.2196944054 2.2607055877 -3.2731913740
H -2.2883217139 1.5865161781 -1.7972273777
H -3.2757010787 2.2498723441 0.3487397944
H -4.4922860417 0.9622247255 0.2235926998
H -3.7827576473 -1.3551135723 0.2441367501
H -2.0786557718 -1.7828726665 0.4374676351
H -1.5930524486 -0.8138421551 -1.8315337754
H -2.8694398977 -2.0491088133 -1.9278553058
H -3.5200741986 -0.0669646211 -3.0938914221
H 0.2686366449 3.0864956268 2.7940554712
H -0.2170606731 -0.9706999587 -0.0016950963
H 4.3199166597 -0.7030553266 0.7747312152
H 4.3471558440 2.8364263360 3.1411425686
H 1.5911543526 -2.4737862319 -3.3834276831
H 2.2465784113 -5.0070298162 0.0364078077
H 2.4409438938 -2.9739747702 1.4910733078
