76
CONF144
C -0.5358999975 -2.0525669727 -0.9945565622
C -1.8074960043 -1.3304833988 -0.5799227038
C -3.0294887098 -1.9546414706 -1.1908920727
C -4.2513180076 -1.8313145206 -0.6563550375
C -5.4523387729 -2.4475824164 -1.3153728828
O -6.3447242684 -1.4464226331 -1.8536794640
C -4.5005868753 -1.0552250941 0.6181364427
C -3.8338882761 0.3294035228 0.7159197104
O -2.9841123648 0.2994620486 1.8871713060
C -4.8208028678 1.5001688594 0.9744256324
O -5.8103207257 1.4345423010 1.6886513933
C -4.3222533172 2.6784432870 0.2563125941
C -4.9254620849 4.0301639582 0.4186702714
C -3.3387986714 2.2837210286 -0.5795799953
C -3.1013140312 0.8018446556 -0.5558335831
C -1.7097698623 0.2100482440 -0.8496821779
O -1.5125948475 0.4937050563 -2.2381922060
C -0.5242007225 0.7534464363 -0.0077765769
C -0.3701394411 2.2750377270 -0.0291023909
C 0.8018045097 0.1346184505 -0.4925327926
O 1.7797376709 0.3234369021 0.5712839039
C 3.0125624124 0.7794527993 0.2333857807
O 3.3062794888 1.0802668152 -0.9217756914
C 3.9125328856 0.8650606861 1.3851499166
C 3.4591534139 0.4914191924 2.6634266357
C 4.2774085333 0.5478934047 3.7755046677
C 5.5967295594 0.9905989614 3.6189798879
C 6.0825158669 1.3665184836 2.3821828262
C 5.2640419689 1.3192537182 1.2260429480
N 5.7603033200 1.6926610784 0.0236816703
C 7.1238737551 2.1402820093 -0.1888673603
C 0.7784137719 -1.3190938386 -0.8937199080
O 1.8136902992 -1.6202790005 -1.8513074347
C 1.6684083989 -1.2011258548 -3.1205067676
C 2.8618552571 -1.5473421965 -3.9506366218
O 0.6901701900 -0.5970893207 -3.5293036022
C 0.5049691658 -2.4781291891 0.0301653203
C 0.2945998114 -2.2604503167 1.5125382973
C 1.2357786794 -3.7768001121 -0.2554052069
H -0.6270412858 -2.7118035843 -1.8547683490
H -1.9123366419 -1.4103362088 0.5085086932
H -2.9086331086 -2.5095887367 -2.1200192583
H -5.1409049436 -3.0646770544 -2.1628142614
H -5.9962530307 -3.0850284875 -0.6027595553
H -6.8636983923 -1.0820735487 -1.1260741693
H -5.5768532808 -0.9334409260 0.7812778336
H -4.1404542193 -1.6496470556 1.4680498682
H -2.6396178958 1.1904493001 2.0484656486
H -4.8420747369 4.3673106575 1.4577282272
H -4.4359792689 4.7602802087 -0.2294741729
H -5.9939465508 4.0047313326 0.1774220559
H -2.8402275928 2.9383811443 -1.2869597565
H -3.6916018860 0.4133055393 -1.3989466198
H -0.7154335195 0.0311387555 -2.5642636389
H -0.6909930118 0.4384654599 1.0248980365
H -0.3609547526 2.6514594789 -1.0567864457
H 0.5711560784 2.5625928161 0.4498706481
H -1.1773136908 2.7679770965 0.5188524294
H 1.1436871948 0.7073983087 -1.3594338282
H 2.4367707308 0.1487683022 2.7669666447
H 3.9031654680 0.2542364058 4.7498180126
H 6.2565330700 1.0415828289 4.4804095607
H 7.1080502637 1.7040050287 2.2938521505
H 5.1305491793 1.6315508626 -0.7633592097
H 7.8550957672 1.3697468328 0.0890303527
H 7.2467101367 2.3634632667 -1.2499590159
H 7.3500789292 3.0496128276 0.3833030717
H 2.6038926319 -1.4949923784 -5.0079069096
H 3.6492022919 -0.8147660662 -3.7390814718
H 3.2457922620 -2.5354865900 -3.6899765475
H -0.3561392116 -3.0483721061 1.9083279048
H -0.1483721573 -1.2981489512 1.7657767138
H 1.2576572579 -2.3246788591 2.0293993865
H 0.7010959530 -4.5984685786 0.2328068132
H 1.2973642291 -3.9936320187 -1.3230925252
H 2.2527090946 -3.7442181700 0.1507499143
