44
CONF49
C -3.7240797653 -2.8690938898 -0.3414142477
S -2.8536560221 -2.3133390674 -1.8162466477
O -3.7056345990 -1.3676510251 -2.5663813693
O -2.3520704490 -3.5079875455 -2.5293337524
C -1.3819656707 -1.4583580374 -1.1400857695
C -1.3698602719 -0.0957181727 -0.7928579754
C -0.1731781405 0.3863357118 -0.2467771727
C 0.9516056414 -0.4213215416 -0.0714805293
C 0.8866011349 -1.7676098221 -0.4167267568
C -0.2798349653 -2.2858584086 -0.9584302977
C 2.2458083062 0.0858348699 0.4952919848
O 2.7032085894 -0.4023154559 1.5088598542
C 2.9960665832 1.1053195638 -0.3613855886
C 4.1616393882 0.3348365092 -1.0372020021
O 4.0725678906 0.0342089181 -2.2074140888
C 5.3439804775 0.0464176417 -0.1606317593
C 5.8206142716 1.3170052000 0.5604078677
C 4.6901294819 1.9767465139 1.3691997097
C 3.5385764961 2.2876167300 0.4617748129
O 3.0710698346 3.3942209331 0.2937488251
Cl -0.0512759855 2.0400005430 0.3274643009
C -2.5581537177 0.8037391385 -0.9931980652
O -3.5780383035 0.4110237752 -0.0606016057
C -4.7933603900 1.0788002823 -0.3427928732
C -5.7629388722 0.7585193151 0.7719146515
F -6.0007734585 -0.5706675410 0.8811546616
F -6.9503881906 1.3642722329 0.5413977412
F -5.3178890173 1.1797469475 1.9771454989
H -3.0695282185 -3.5590219582 0.1955495390
H -3.9729470527 -1.9943143823 0.2598744279
H -4.6243811668 -3.3782476067 -0.6980172917
H 1.7541276968 -2.4020136657 -0.2686941076
H -0.3316538316 -3.3302778713 -1.2414434813
H 2.3448815274 1.4844227739 -1.1496825274
H 5.0313828128 -0.6913864668 0.5905738606
H 6.1341877024 -0.3921510381 -0.7735133771
H 6.2143467155 2.0302009461 -0.1721756899
H 6.6368401656 1.0555128672 1.2381163180
H 5.0243592836 2.8997906763 1.8472226051
H 4.3451551954 1.2731509058 2.1373156675
H -2.2884121425 1.8498234359 -0.8222424798
H -2.9284564580 0.6995002720 -2.0183775928
H -4.6657749376 2.1708934737 -0.3695137467
H -5.2328964571 0.7393937954 -1.2919142238
