38
CONF106
C 2.5144263901 -1.1575479282 -2.8425201638
C 3.4758018917 -0.8079879093 -1.7087143513
C 2.8531034585 0.1036508948 -0.6701069948
O 1.7438713802 -0.5812036386 -0.0753239600
C 1.0493045296 0.2393791619 0.8512397661
C -0.1984065111 -0.4934682700 1.2881872018
N -1.3910843268 -0.2329870071 0.9198838255
C -1.6746202269 0.6951519552 -0.0753483163
C -1.1396051320 0.5688477382 -1.3651404569
C -1.5015346813 1.4425345756 -2.3801156735
C -2.4069904458 2.4609143463 -2.1096851991
C -2.9586761503 2.6111015417 -0.8439135590
C -2.6020579397 1.7264591094 0.1674004683
C -3.1933266938 1.8845665068 1.5426549310
F -3.9403487414 0.8179014300 1.9029822194
F -2.2308852195 2.0368263061 2.4876867512
F -3.9948158629 2.9717282633 1.6222432278
Cl -2.8679364520 3.5707191537 -3.3818909620
N -0.0093304047 -1.5247835669 2.2125600384
C -1.0092409167 -2.2464709462 2.8562799965
C -0.3553784936 -3.1586485664 3.6274887003
N 1.0192494713 -3.0446369757 3.4798080402
C 1.1975811986 -2.0669360484 2.6362020407
H 2.1468012748 -0.2507028910 -3.3363092909
H 3.0075660411 -1.7743780225 -3.5987532975
H 1.6525336375 -1.7131917938 -2.4642496700
H 3.8273221999 -1.7206585392 -1.2134934117
H 4.3628636455 -0.2994578092 -2.1053649682
H 3.5840623726 0.3726413770 0.1099798575
H 2.4951992447 1.0366518178 -1.1388672200
H 1.6768176447 0.4720846872 1.7277352502
H 0.7484667169 1.1896361569 0.3881255916
H -0.4423476825 -0.2389373008 -1.5635115562
H -1.0857979625 1.3313927663 -3.3750329221
H -3.6612538828 3.4105149705 -0.6471533260
H -2.0497104270 -2.0148719856 2.7014111243
H -0.7878068759 -3.8948934209 4.2894857469
H 2.1461832275 -1.7209398002 2.2516750052
