48
CONF18
C -3.5456770932 2.3759157343 0.6890607875
Si -1.7701724856 1.8529195552 0.7821579162
O -0.9767847670 2.6025064501 2.0258577570
O -1.6467849189 0.2321005239 1.0073135063
Si -1.9595645682 -1.1842428622 0.2122188540
C -3.2848513267 -0.9247913520 -1.0693184090
C -2.4293218027 -2.4427998583 1.4989236344
O -0.6056322004 -1.6488115162 -0.5983171804
Si 0.9254512933 -2.2450913334 -0.4692484144
C 1.1021257998 -3.2797082791 1.0710175903
C 1.2809683124 -3.2085078290 -2.0188847406
O 1.9881517431 -0.9846638471 -0.4284469436
Si 2.3713161291 0.3530900148 0.4557538435
C 1.8946453317 0.1243394588 2.2417415217
C 4.1929721091 0.6622864984 0.2378725751
O 1.5579961610 1.6596644422 -0.1310369000
Si 0.5056836568 2.2343319292 -1.2557772161
C 1.0269681514 3.9657696123 -1.6913586581
C 0.4183185997 1.1182485580 -2.7422327878
O -1.0073770198 2.3218599437 -0.5851002654
H -4.0900618783 2.0550285284 1.5835823012
H -4.0417260175 1.9412096128 -0.1844406561
H -3.6197033615 3.4659337702 0.6166264601
H -1.2157476077 2.3283836367 2.9185241686
H -4.2285316290 -0.6140630276 -0.6089789901
H -2.9827820605 -0.1539631581 -1.7879049708
H -3.4650010682 -1.8521192164 -1.6240470345
H -3.3850490821 -2.1728769846 1.9616448270
H -2.5344143939 -3.4381841966 1.0543650320
H -1.6735215103 -2.4987190378 2.2892668945
H 2.1265969135 -3.6589380927 1.1568645002
H 0.4222116990 -4.1382004364 1.0410386253
H 0.8786300621 -2.6988875522 1.9715828479
H 1.1628131957 -2.5710239437 -2.9022098831
H 0.5954024241 -4.0571443181 -2.1158245988
H 2.3053056203 -3.5960034495 -2.0122116981
H 0.8203723439 -0.0715105435 2.3327990288
H 2.4407191090 -0.7127159482 2.6897534298
H 2.1235862675 1.0288643679 2.8161771411
H 4.4396359637 0.7806666552 -0.8232141959
H 4.4980302055 1.5741964062 0.7623702778
H 4.7816296752 -0.1720196737 0.6344081160
H 1.0771026470 4.5912315986 -0.7931199380
H 0.3161186115 4.4238006732 -2.3874580368
H 2.0152910332 3.9676225858 -2.1638595298
H -0.2456515436 1.5469039728 -3.5012116302
H 1.4090302740 0.9847590527 -3.1904268802
H 0.0312833041 0.1333530652 -2.4618520917
