47
CONF54
C -7.7190072527 1.2212513456 1.3766123380
O -6.5118650891 1.5270572474 2.1099386365
P -5.0826313522 1.2789648173 1.4243698424
S -4.8653445274 1.8313559547 -0.4130883902
O -4.1008623082 1.9219026883 2.5181742218
C -3.8081278011 3.3373292251 2.4715269989
O -4.8850764607 -0.3002886158 1.7459054989
C -3.7920961144 -0.9988627653 1.2268190088
C -3.9590084367 -1.7485208254 0.0732564166
C -2.8816991656 -2.4752307250 -0.4224653266
C -1.6576892229 -2.4607161477 0.2478982316
C -1.5135804984 -1.7118135648 1.4193171019
C -2.5789368644 -0.9673576581 1.9049502261
S -0.3283967050 -3.4771288700 -0.3787309956
C 1.0665109360 -2.3618032971 -0.3093097416
C 0.9604708211 -1.0228537233 -0.6951289287
C 2.0805850089 -0.2035009756 -0.6746686975
C 3.3050065560 -0.7357904625 -0.2893702004
C 3.4321478434 -2.0653968397 0.0825796252
C 2.3033942425 -2.8773461780 0.0829229143
O 4.4173547467 0.1079987921 -0.2193036165
P 5.4000400392 0.2879910917 -1.4992571093
S 6.0559352360 -1.3207258925 -2.3421540393
O 6.4862825536 1.2894048508 -0.8725431990
C 7.5885380474 0.7581728606 -0.1036655120
O 4.5266326163 1.2943780580 -2.3914126067
C 4.9080927252 1.5588930283 -3.7607491499
H -7.8048329865 0.1407104686 1.2241542432
H -7.7191674652 1.7383934221 0.4125649062
H -8.5420330436 1.5745749326 1.9985582645
H -3.0513542332 3.5085709736 3.2376957783
H -3.4227370555 3.6123423207 1.4856011481
H -4.7079634829 3.9170345195 2.6989564869
H -4.9132247466 -1.7362295368 -0.4404915438
H -2.9874679901 -3.0441793077 -1.3399339514
H -0.5656995108 -1.7102533764 1.9466425434
H -2.4868506738 -0.3762820852 2.8089748677
H 0.0020954353 -0.6210995040 -1.0059251509
H 2.0189755691 0.8389370056 -0.9658246333
H 4.4018572787 -2.4512214220 0.3742926384
H 2.3828170243 -3.9138006579 0.3934777894
H 8.2308891268 1.6099668037 0.1220104074
H 7.2211916104 0.3121418807 0.8260205990
H 8.1346662575 0.0118348376 -0.6880277249
H 5.0030571939 0.6213432777 -4.3156428489
H 4.1065514362 2.1689590656 -4.1783502794
H 5.8525595711 2.1108931530 -3.7901311019
