73
CONF2688
C -0.8519221403 3.0760856895 -0.7278115403
C -1.6489296425 2.2897676545 0.2900115750
O -2.9328575364 2.0090484805 -0.3158158034
C -3.8060467424 1.2382114742 0.4822980970
O -3.2943668968 -0.0593768671 0.7527080457
C -3.3623279531 -0.9740399742 -0.3452008382
C -4.5426720973 -1.9210867436 -0.1613413797
O -5.7385689479 -1.1543299186 -0.2807311612
C -4.5025835347 -3.0562439766 -1.1837561221
O -5.5964919505 -3.9534671844 -0.9863275219
C -3.1483087055 -3.7651566358 -1.1133216236
C -2.9806336056 -4.8846955269 -2.1270222129
O -3.2002183299 -4.4704731751 -3.4767290846
O -2.1201854835 -2.7878264144 -1.3614482327
C -2.0716605645 -1.7888119529 -0.3610401893
O -1.0190274567 -0.9124562132 -0.6995459845
C 0.2616876970 -1.2797424318 -0.4040104403
C 0.6133497409 -2.5550205181 0.0405558533
C 1.9505334193 -2.8062549480 0.3274982561
O 2.3014139602 -4.0383198799 0.7269888753
C 2.9423161361 -1.7986428645 0.1781825751
C 4.3375763660 -2.0966095372 0.3576853275
O 4.7461079170 -3.2224199507 0.7083898380
C 5.2985324923 -0.9787649413 0.0519604177
C 4.6560419519 0.3741635078 0.3261246502
O 3.4125007056 0.4932351471 -0.4394095646
C 2.5287366932 -0.5199348268 -0.2731681997
C 1.2041338832 -0.2592755572 -0.5711372305
C 5.5214413652 1.5431079350 -0.0354358457
C 5.8916964889 1.7809455740 -1.3619077473
C 6.7069080561 2.8558282539 -1.6916649690
C 7.1733054015 3.7051629406 -0.6836321682
O 7.9805236863 4.7739071294 -0.9431877892
C 6.8146063746 3.4781438024 0.6453095424
C 5.9878734078 2.4057721879 0.9576709012
C -4.0717154597 1.8880892986 1.8462129411
O -4.7805399520 3.1198263856 1.6763679504
C -2.7523993649 2.2265180858 2.5297240643
O -2.9577383683 2.9048974536 3.7722307572
C -1.8667827172 3.0492407792 1.5977825927
O -0.5851476994 3.2697124097 2.1925517907
H -0.7537599822 2.5025182681 -1.6542791877
H -1.3498352412 4.0253158076 -0.9515314112
H 0.1482419807 3.2862439592 -0.3412437006
H -1.1444535955 1.3406823955 0.5192214801
H -4.7363683159 1.1748849069 -0.0940849437
H -3.4483674171 -0.4354175760 -1.2987142403
H -4.4726970498 -2.3615343101 0.8496355461
H -6.4780607336 -1.7734360733 -0.2054337921
H -4.6368341803 -2.6354069988 -2.1876168929
H -5.4925416482 -4.3727330603 -0.1196305262
H -3.0113303642 -4.1992596202 -0.1062698332
H -3.6485851332 -5.7091924338 -1.8489899679
H -1.9483363714 -5.2448907270 -2.0715238985
H -4.1516517404 -4.4617810834 -3.6373547943
H -1.8944365729 -2.2343872240 0.6326233230
H -0.1028986140 -3.3604273934 0.1344947269
H 3.2949964882 -4.0208161871 0.8298703705
H 6.2035967207 -1.0956037252 0.6543213494
H 5.5860644850 -1.0567523712 -1.0059195828
H 4.3809206135 0.4340484196 1.3882478555
H 0.8954998909 0.7250363995 -0.9002479444
H 5.5335879177 1.1270704455 -2.1517224382
H 6.9852381788 3.0397320273 -2.7260272176
H 8.1495000530 4.8296136827 -1.8937250605
H 7.1790142318 4.1467256798 1.4184510647
H 5.7028666520 2.2376304372 1.9925545050
H -4.6479869734 1.1905033489 2.4676997642
H -5.7157406648 2.9155906103 1.5534013249
H -2.2283876826 1.2951303741 2.7737916105
H -3.5867874545 3.6203205767 3.5957270747
H -2.3572719811 4.0110352280 1.3764374140
H -0.7513549788 3.5870153612 3.0912307265
