39
CONF19
C 6.8697262593 3.0381558410 0.0722218090
C 6.9912577497 2.4286385334 1.2503833458
C 6.6044690855 1.0290246006 1.5086152695
O 6.5868805533 0.5280563434 2.6134968841
O 6.2629222466 0.3600852252 0.3759218487
C 5.7937558222 -0.9883226106 0.5682989665
C 4.3597417636 -1.0351883107 1.0841607382
C 3.3565045266 -0.4277793379 0.1229023776
C 1.8846204348 -0.7411218632 0.5334428725
C 0.7867992974 0.0728143055 -0.2342013677
C -0.6427563947 -0.5687766069 -0.1289776231
C -1.7968369967 0.4328542199 -0.4908280605
C -3.1515970404 -0.2867606894 -0.8242193394
C -4.3915448120 0.6675800975 -0.7434590343
C -5.6641306041 0.1166367139 -1.4671233768
F -6.7133847050 0.8797031712 -1.1327741353
F -5.9079318954 -1.1456118675 -1.0872046113
F -5.5157486305 0.1548238832 -2.7951391592
F -4.7103030657 0.8623953210 0.5532916582
F -4.0841490035 1.8573805975 -1.3104277728
F -3.0770467375 -0.7940224702 -2.0754100839
F -3.3403200446 -1.2991639170 0.0523344809
F -1.9967163772 1.2609617558 0.5589767735
F -1.4254670596 1.1609929244 -1.5673133950
F -0.7060619951 -1.6230110524 -0.9742132402
F -0.8363550185 -1.0023273749 1.1369785645
F 1.1218760466 0.1511664549 -1.5401764847
F 0.7355489764 1.3213074151 0.2854088818
F 1.7534575564 -0.4801236848 1.8587598495
F 1.6687257186 -2.0686792154 0.3339954363
F 3.5518701393 -0.9151927582 -1.1397115989
F 3.4842966644 0.9323111871 0.0632993743
H 7.1496507830 4.0797049185 -0.0461929840
H 7.3621093911 2.9450617274 2.1299397250
H 6.4414771289 -1.5037607047 1.2834132654
H 5.8775635249 -1.4571056352 -0.4134508585
H 4.0866292161 -2.0851416323 1.2385027817
H 4.2857704271 -0.5249431443 2.0468542925
H 6.4816637853 2.5162139936 -0.7954953048
