57
CONF15
C 3.7003485499 -0.5671489291 -2.8347285270
C 3.0479429788 -0.6686659375 -1.4613289111
C 1.7422018883 -1.5182685468 -1.4449903498
C 0.6743739557 -0.5366830511 -0.9656162963
C -0.7168089530 -1.0363256326 -0.5629293127
C -0.7654479525 -2.1163469068 0.5241807440
C -2.2081497388 -2.5190996665 0.8512606036
C -3.0335335440 -1.3133253608 1.1834060576
C -3.7163437161 -1.2090923997 2.3368126053
C -4.5618651119 -0.0571545905 2.6712180892
O -5.1894525056 0.0040050821 3.7251658386
C -4.6183024336 1.0137504849 1.6662298311
C -3.9050827761 0.9531787390 0.5319571420
C -3.0683086628 -0.2272243042 0.1336857595
C -1.5937884000 0.1945754239 -0.2215944112
C -0.9040453363 1.0904043988 0.8407537515
C 0.4930759846 1.5492722163 0.3902578456
C 1.4061379569 0.3778039892 0.0422296111
C 2.6677663220 0.7242177045 -0.8596238034
C 3.8142755183 1.3387091456 -0.0653449114
O 4.6114269932 0.6594228365 0.5576362066
C 3.9355927887 2.8457581236 -0.0303166081
O 4.9310663140 3.2646570647 0.8682170950
O 2.3678200649 1.7092528673 -1.8486007669
C 1.8779194554 -0.3125234877 1.3318876393
O -1.6096124774 2.2983687867 1.0974898597
F -1.6853392756 0.9756445483 -1.3981423960
C -3.7726443344 -0.7861341279 -1.1396470492
H 4.5754218507 0.0894404169 -2.8124285434
H 4.0263576356 -1.5579617245 -3.1656234354
H 3.0080194893 -0.1737242186 -3.5858468491
H 3.7747971371 -1.1044144272 -0.7701695166
H 1.8427422971 -2.3718213845 -0.7673539832
H 1.5089787410 -1.9183562953 -2.4376072176
H 0.4489938348 0.1090420569 -1.8276855494
H -1.1558377910 -1.4775789727 -1.4685258022
H -0.2046663840 -2.9931472551 0.1839681019
H -0.2888184196 -1.7785847342 1.4450256441
H -2.2276907478 -3.2239907174 1.6872207101
H -2.6475114199 -3.0364401637 -0.0122033263
H -3.6925002844 -2.0073485465 3.0743129771
H -5.2595811121 1.8604602256 1.8942321796
H -3.9526148799 1.7587305564 -0.1966672155
H -0.8307612567 0.4912909390 1.7615977636
H 0.3598665380 2.2096028266 -0.4715489464
H 0.9088799373 2.1529728791 1.2041334162
H 2.9571399349 3.2758592201 0.2351247087
H 4.1461227564 3.1888822135 -1.0557250933
H 5.3675725535 2.4530964565 1.1755405050
H 1.6225141672 1.4135919022 -2.3828362222
H 2.4352783068 -1.2336463711 1.1488669534
H 2.5346497078 0.3558528179 1.8934501367
H 1.0410142150 -0.5448452437 1.9896744529
H -2.3574674230 2.1087808591 1.6767076899
H -3.8622143349 -0.0023926176 -1.8933940404
H -3.2271935279 -1.6228730210 -1.5776752071
H -4.7727157619 -1.1308206672 -0.8640900299
