55
CONF292
C 2.0639946923 -0.8867975139 1.3022086569
C 3.2155815495 -0.6882141352 0.3272240920
N 2.8941376615 0.3829199465 -0.6226335166
C 2.6519293630 1.6286611361 0.1158015909
C 1.5031648865 1.4418830614 1.0949984555
N 1.8053761190 0.3587560582 2.0286688093
C 0.8439183720 0.2453194736 3.1256967367
C -0.6643173082 0.2325095462 2.7629872883
C -1.0706318127 -0.9572060833 1.9638657994
C -1.6356688063 -0.9939943574 0.7389564204
C -1.7966252835 -2.2815462702 0.0352828402
C -2.2680187906 -3.4281202746 0.6872600779
C -2.3345636767 -4.6516410214 0.0316937284
C -1.9467995644 -4.7489993498 -1.3040849394
C -1.5074342597 -3.6189028345 -1.9840410496
C -1.4364111424 -2.3947407162 -1.3167829450
S -0.8120238337 -0.9916868632 -2.2190214744
C -1.6332396171 0.3352075627 -1.3782827423
C -2.0032382964 0.2112329923 -0.0260847607
C -2.7097885048 1.2650619532 0.5566998730
C -2.9502371331 2.4400459982 -0.1504771388
C -2.5175161239 2.5769443439 -1.4681124443
C -1.8749244385 1.5135143763 -2.0863438530
C -3.7089922407 3.5351421673 0.5306581555
F -3.6861961140 4.6968507691 -0.1596823527
F -3.2172856145 3.7993357252 1.7706740581
F -5.0217762356 3.2125037092 0.7096086172
C 3.9354926223 0.5410173803 -1.6443380815
C 3.3710642431 1.2541582175 -2.8669375548
O 2.1903435946 0.5878995665 -3.3332439784
H 2.3294024943 -1.6683944364 2.0240311088
H 1.1823670535 -1.2356765205 0.7354127610
H 4.1414973339 -0.4584722754 0.8903714753
H 3.3798239309 -1.6172759433 -0.2304820134
H 3.5618503326 1.9429382700 0.6632921592
H 2.3902013122 2.4255126481 -0.5883779671
H 1.3518413246 2.3696479629 1.6609215489
H 0.5805654933 1.2494704656 0.5121479918
H 1.0892116462 -0.6604314998 3.6941879985
H 0.9965646671 1.1026939157 3.7956882258
H -0.9241343208 1.1680636870 2.2628672041
H -1.2069711670 0.2284593255 3.7195738300
H -0.7913434988 -1.9166732343 2.4003102887
H -2.5830948319 -3.3471001286 1.7231258136
H -2.6976114865 -5.5274224229 0.5596736960
H -2.0026606243 -5.6994584094 -1.8247321626
H -1.2221208520 -3.6839744372 -3.0295949718
H -3.0679287646 1.1601559553 1.5754432604
H -2.6998153924 3.4913097900 -2.0202433001
H -1.5694761207 1.5953337512 -3.1245220318
H 4.2647174617 -0.4607425814 -1.9457001851
H 4.8194278649 1.0870924940 -1.2653101842
H 3.1496447527 2.3079590669 -2.6415468647
H 4.1077626255 1.2342808633 -3.6766511094
H 1.7409640673 0.2955891670 -2.5208101420
