53
CONF211
C -1.7497587977 4.2546043995 -1.5039105716
C -0.8933378434 4.2400078416 -0.2538142832
O -0.6366128460 2.8753979704 0.1753711709
C 0.3570468227 2.2083833891 -0.4557308179
O 1.1022967762 2.7396145075 -1.2714221044
C 0.3915212626 0.8058809118 -0.0477961207
C 1.4498035512 0.0261901191 -0.3943617739
N 1.4673714201 -1.2990302911 -0.0496239387
C 0.5653446049 -1.8876850404 0.8030233525
C -0.5211617124 -1.1730149416 1.2180729618
C -0.8247044963 0.2162375371 0.6606018791
C -2.0062199208 0.1645744945 -0.3090078176
C -1.8795783048 -0.6250101033 -1.4587714172
C -2.8886885540 -0.7216536685 -2.4070670950
C -4.0741275972 -0.0139314832 -2.2233280233
C -4.2356663181 0.7783549037 -1.0933224334
C -3.2087901675 0.8588691254 -0.1548104514
Cl -3.5089982310 1.8924669778 1.2448307846
C -1.4513243757 -1.7584858924 2.1782984415
O -1.3900948830 -2.8728708377 2.6830758099
O -2.4524548157 -0.8910369050 2.4770588965
C -3.4365148160 -1.3714136829 3.4143641506
C 0.9200964933 -3.2896249379 1.1947773854
C 2.6854885184 0.4608472840 -1.1661932808
O 3.7620953225 -0.4555868305 -0.9968223543
C 4.4791170140 -0.2319698495 0.2313283998
C 5.5189022503 -1.3276188710 0.3877852525
N 4.9913285355 -2.6919541840 0.5255114354
H -2.6903988061 3.7240477755 -1.3300322629
H -1.2271455128 3.7859525085 -2.3419746123
H -1.9795175977 5.2898753478 -1.7749932210
H -1.4173779785 4.6900438269 0.5923029088
H 0.0590293995 4.7546269289 -0.4062448348
H 2.3052572683 -1.8077585257 -0.3039846659
H -1.1006478774 0.8726327600 1.4870769978
H -0.9540930906 -1.1760263211 -1.6024284681
H -2.7511973059 -1.3441755958 -3.2851381766
H -4.8747155768 -0.0745489346 -2.9533424751
H -5.1528232720 1.3349892197 -0.9359633044
H -4.1495593646 -0.5547535071 3.5269324962
H -3.9343367814 -2.2625422530 3.0227690509
H -2.9695651492 -1.6074051616 4.3743489860
H 1.8069409777 -3.6240388800 0.6501996925
H 1.1192680332 -3.3513501343 2.2676848696
H 0.0930647361 -3.9718119638 0.9902807940
H 2.4488133258 0.4828389073 -2.2359745553
H 2.9786176472 1.4720852442 -0.8705365044
H 4.9614591710 0.7568059001 0.1948988907
H 3.7808903226 -0.2449328414 1.0843660460
H 6.1958735837 -1.3028996355 -0.4750316417
H 6.1209384918 -1.0873741742 1.2729224735
H 4.4823634758 -2.9431588340 -0.3162514699
H 4.3164828611 -2.7216620172 1.2851836385
