45
CONF2116
O -0.5519624011 -0.9946381735 -2.8439621611
C -1.8916028351 -1.4604214589 -2.6751350526
C -2.4976871514 -1.0703862976 -1.3450178312
O -1.6901049035 -1.6512373973 -0.2794624366
C -1.5756945041 -0.7594231152 0.8168157363
C -1.7711926005 -1.5877808956 2.0846301869
O -1.5193661379 -0.8460793890 3.2682854412
O -0.2950731748 -0.1037953439 0.8598379348
C 0.8524842804 -0.8560961843 0.5258317683
O 1.3334299029 -0.4822061922 -0.7576337591
C 1.6952997390 0.9204266910 -0.8615661281
C 2.0344974562 1.1997526864 -2.3155882857
O 0.8828318845 1.4297678641 -3.1261247332
C 2.8541917889 1.1915818601 0.0957840519
O 3.1892822730 2.5754976209 0.0000754987
C 2.4193823737 0.8401955739 1.5132478431
O 3.5522757640 1.0396963274 2.3698676200
C 1.9361144879 -0.6041510849 1.5731752903
O 1.3810464731 -0.9285975435 2.8512323177
C -2.5809397308 0.3769921085 0.5314008914
O -2.3048667557 1.6105905823 1.1577304497
C -2.5611848249 0.4152118007 -1.0044700115
O -3.6415146561 1.1051575199 -1.6066058715
H -0.0495079698 -1.1946274338 -2.0346605069
H -2.4945339308 -1.0242814057 -3.4784262737
H -1.9266053725 -2.5546743936 -2.7739603188
H -3.5114678953 -1.4988027324 -1.2922668018
H -1.1210270603 -2.4743880148 2.0172866992
H -2.8097433205 -1.9318122824 2.1177824713
H -0.5647666973 -0.6614188506 3.2729529481
H 0.6234099198 -1.9238927963 0.4568418799
H 0.8366765579 1.5438334007 -0.5734700472
H 2.6453183781 0.3703582775 -2.7049182577
H 2.6313777565 2.1143326473 -2.3606286540
H 0.3207259054 0.6329067514 -3.1013478796
H 3.7166295450 0.5638175462 -0.1859207423
H 3.8057442705 2.7613182697 0.7220069129
H 1.6010706047 1.5134071741 1.8069487737
H 3.2295606077 1.2473307753 3.2554365347
H 2.7783341456 -1.2719929909 1.3454436901
H 2.1062104065 -1.0763608154 3.4713984203
H -3.5772396911 0.0654476548 0.8711068131
H -1.3751906206 1.8181054077 0.9827117354
H -1.6471045751 0.9218726315 -1.3393875916
H -4.4675167066 0.6994637211 -1.3072783585
