27
CONF101
C -4.5406998278 -0.2542569414 0.2785279753
C -3.0661140373 0.1463614952 0.2622340159
C -2.3079607754 -0.3668794027 -0.9900682157
C -0.8497821755 0.1581544220 -1.2626255867
C 0.2012701431 -0.0246845123 -0.1187787098
C 1.6867899963 0.1150974869 -0.6140882657
C 2.6937069629 0.4118999623 0.5509084005
C 4.1874203648 0.1219735862 0.1863737553
F 4.4148605703 -1.1929757620 0.1077434327
F 4.4998217168 0.6948108954 -0.9845793462
F 4.9724438374 0.6351350546 1.1427792377
F 2.3794719782 -0.3473785095 1.6260514750
F 2.5995493341 1.7160166636 0.8866752802
F 1.7696179401 1.1242632150 -1.5098242976
F 2.0500526058 -1.0381926814 -1.2198092809
F 0.0582384393 -1.2516354878 0.4278278959
F -0.0277451899 0.9171213926 0.8262191947
F -0.4062586922 -0.5226852352 -2.3523118666
F -0.9234308106 1.4695899276 -1.5758246558
F -2.2706500821 -1.7209857566 -0.9405430163
F -3.0232760212 -0.0046853254 -2.0905508549
F -2.4325531258 -0.3482481740 1.3674096334
F -2.9480558934 1.5107717068 0.3072846488
O -5.1437426200 0.1611010400 1.4883848061
H -4.6002588481 -1.3454841066 0.2315473168
H -5.0319341242 0.1703991480 -0.6041538736
H -5.3311227758 1.1070670336 1.4289003858
