48
CONF15
C -2.4862851503 -1.3576945994 -2.0334434386
C -2.9767250498 -0.3159811164 -1.0289097689
C -3.6310319148 0.9098781102 -1.7268717005
C -4.8327922081 1.2267268566 -0.8454693854
N -5.2968753627 -0.1168725644 -0.4826701421
C -4.1062985782 -0.8565330838 -0.0819358706
N -3.6266423495 -0.5807524424 1.3016760251
C -2.3213221253 -0.1228805877 1.2585693960
C -1.8955607026 0.0932138180 -0.0600893646
C -0.6336435210 0.5923388227 -0.3236019874
C 0.2071539604 0.8532231112 0.7571973366
C -0.1846303850 0.6170242007 2.0658967074
C -1.4622490953 0.1197088801 2.3341614535
O 1.4758995708 1.4111021197 0.5165129524
C 2.4899882842 0.5190699389 0.2576606810
O 2.3468768499 -0.6879014324 0.2395998414
N 3.6351068434 1.2215374982 0.0369539359
C 4.9154235452 0.7234092520 -0.2587082139
C 5.1992273524 -0.6353004243 -0.4413902948
C 6.5031499799 -1.0272288524 -0.7357003003
C 7.5293906177 -0.0945263697 -0.8533445438
C 7.2398055055 1.2569737364 -0.6723873718
C 5.9465072952 1.6663962329 -0.3773876854
C -4.0217968341 -1.4725892759 2.3848665649
C -6.4105448770 -0.1391766755 0.4556442680
H -3.3228752270 -1.7141835303 -2.6438085527
H -1.7371663070 -0.9192055755 -2.7012807544
H -2.0345118049 -2.2127173158 -1.5210602657
H -2.9309314737 1.7435361603 -1.8228366908
H -3.9708299251 0.6240219098 -2.7278729820
H -5.6246582545 1.7753095745 -1.3667874460
H -4.2909068630 -1.9360898251 -0.1840829850
H -0.2869275229 0.7645294745 -1.3387272335
H 0.5091280705 0.8195210333 2.8757599750
H -1.7697924032 -0.0635133063 3.3579546899
H 3.5513991259 2.2263837012 0.1088550740
H 4.4143426975 -1.3726585545 -0.3551842806
H 6.7115590861 -2.0836670544 -0.8754903069
H 8.5403693028 -0.4141523685 -1.0831957438
H 8.0246928903 2.0017680356 -0.7601358579
H 5.7275758608 2.7212962566 -0.2374989373
H -3.3372917836 -2.3312559042 2.4799111553
H -4.0385683899 -0.9356992078 3.3395027459
H -5.0288068746 -1.8495775807 2.1989229012
H -7.2568519547 0.4030992468 0.0209045656
H -6.1669022365 0.3278215837 1.4262483142
H -6.7262616908 -1.1727273745 0.6373507035
H -4.5330391010 1.8181387221 0.0411469989
