30
CONF32
O 5.7697263051 -0.3468661867 -1.1424816482
S 4.9156972194 -0.3844610812 0.2310803527
O 4.9909952713 -1.7047105389 0.8438370075
O 5.2420424788 0.8443745166 0.9372056100
C 3.1487475388 -0.1684854224 -0.4932611024
F 3.2133427138 0.7281705354 -1.4855855530
F 2.7682727979 -1.3612396483 -0.9832048380
C 2.1502205620 0.3149111506 0.6078927048
F 2.4243366469 -0.3541585343 1.7505056131
F 2.3455810372 1.6343534082 0.8075967765
C 0.6479275892 0.0593411432 0.2235275177
F 0.3780341570 -1.2475787665 0.4276013399
F 0.4844645886 0.3475267884 -1.0895563188
C -0.3576506822 0.9284743805 1.0488278903
F 0.0248875725 0.8918524397 2.3492029927
F -0.2990033393 2.2028376093 0.6136327844
C -1.8684916298 0.4695503543 1.0404607198
F -2.5403433188 1.4241549218 1.7302959980
F -1.9607119108 -0.6968604710 1.7099409082
C -2.5488963637 0.3112254109 -0.3585626151
F -2.2000824680 1.3547642880 -1.1427795397
F -2.0982077613 -0.8341896957 -0.9232491101
C -4.1151930676 0.2591623286 -0.2854871287
F -4.4985359526 -0.4915406567 0.7717569984
F -4.5843729906 1.5146068490 -0.1289623002
C -4.7842059089 -0.3460003315 -1.5646119274
F -4.2795275613 0.2221504793 -2.6687960284
F -4.5910480865 -1.6676340477 -1.6230385967
F -6.1008446028 -0.1072515211 -1.5166958834
H 5.8381532075 -1.2439706404 -1.5247229647
