45
CONF31
C 3.0150027230 2.9994723862 1.5319300124
C 3.8135854027 1.9685510173 0.7321398514
C 2.9320825722 0.9627634770 -0.0153044590
C 2.0930287198 1.5895571931 -1.1306569240
C 1.2558293272 0.5818638388 -1.9224108015
C 0.1858503152 -0.1568904888 -1.0948238546
C -0.6074718045 -1.1204402846 -1.9983576469
C -1.7083522310 -1.9106054358 -1.2874525839
C -1.2070191683 -2.8145406067 -0.1616276445
C -2.3185978574 -3.6656876899 0.4516476439
C -1.8225142565 -4.5537674606 1.5912328527
C -0.7218419886 0.8114448396 -0.3686244190
C -1.5310408404 1.7083944646 -1.0764335858
C -2.3583062516 2.6064476812 -0.4085453963
C -2.3935237288 2.6263430348 0.9857762307
C -1.5943659380 1.7394926622 1.7023385685
C -0.7677517337 0.8417377629 1.0276046887
H 2.4168952425 3.6438777397 0.8802550868
H 3.6776751974 3.6449709938 2.1173366665
H 2.3294436862 2.5006110321 2.2274512936
H 4.4675129576 2.4831511397 0.0149266650
H 4.4739920145 1.4206973228 1.4158785199
H 3.5639430588 0.1762508362 -0.4505354986
H 2.2766588342 0.4667170045 0.7131778272
H 1.4259317563 2.3531692016 -0.7121510796
H 2.7657025738 2.1125579787 -1.8241687559
H 1.9170093729 -0.1703517729 -2.3744271342
H 0.7593425405 1.1009362815 -2.7531753049
H 0.7021782631 -0.7542733191 -0.3342496635
H -1.0506840262 -0.5451632595 -2.8221711728
H 0.1053575687 -1.8198774868 -2.4565146538
H -2.4557637108 -1.2137601195 -0.8836197112
H -2.2315159065 -2.5270443209 -2.0308786112
H -0.7493341778 -2.2070059395 0.6303730769
H -0.4134363135 -3.4716518912 -0.5465571872
H -2.7712895748 -4.2872807661 -0.3324567938
H -3.1145621190 -3.0040817570 0.8196315935
H -1.3941029999 -3.9489349164 2.3984064174
H -1.0437896198 -5.2404001956 1.2405425672
H -2.6338625285 -5.1541396753 2.0152118318
H -1.5138532653 1.7065400856 -2.1628948860
H -2.9777789759 3.2943333312 -0.9768818195
H -3.0383834191 3.3273531774 1.5068974970
H -1.6126950265 1.7453168078 2.7883411721
H -0.1451836482 0.1533471702 1.5936942856
