53
CONF252
C -5.4512437144 1.3273766718 -2.2226623044
O -4.4802421673 0.2539534901 -2.0651448240
C -3.9428464374 0.1398903688 -0.8520980679
O -4.2097306047 0.8377579495 0.1023486877
C -2.9785204611 -1.0617347666 -0.7787977021
C -3.7836800065 -2.2685812934 -0.2349168921
C -3.5354762803 -2.1878305733 1.2529172724
C -4.2167921215 -2.8384563562 2.2682430758
C -3.7496000894 -2.6588278415 3.5690058546
C -2.6391062074 -1.8707189380 3.8733216476
C -1.9632033284 -1.2233096154 2.8454665699
C -2.4238487487 -1.3794002832 1.5410398046
C -1.9188231852 -0.8533270114 0.2870236832
N -0.7031078271 -0.5084910605 0.0558426575
N -0.3942544411 -0.2266809324 -1.2449094450
C -1.4208873332 -0.2844287677 -2.3019691344
O -2.3407597848 -1.3289048183 -2.0193938208
C 0.8946275260 0.0930597030 -1.5924438810
O 1.1657100669 0.5841514131 -2.6789428410
N 1.8774115733 -0.1254888337 -0.5949996698
C 2.8994255671 0.8689416228 -0.4638331768
C 4.2328218597 0.5421739664 -0.7010077570
C 5.2118371166 1.5200558006 -0.5807946710
C 4.8264554664 2.8103452481 -0.2488512390
C 3.5047598423 3.1554206926 -0.0137322719
C 2.5321955307 2.1675933550 -0.1199056390
O 5.8332654632 3.7882614800 -0.0750644160
C 6.1157907672 4.5495080652 -1.1555478402
F 6.4977779266 3.8190701956 -2.2281903016
F 7.1193227002 5.3705008495 -0.8261099898
F 5.0663751795 5.3039028048 -1.5570970381
C 1.9546987278 -1.3604745903 0.0581648571
O 1.4212032252 -2.3761148858 -0.3377861144
O 2.7081111624 -1.2576421940 1.1599596994
C 2.9458068923 -2.5080371539 1.8572214706
Cl -4.5956635355 -3.4613468361 4.8836661390
H -4.9787951499 2.2873815958 -2.0050773887
H -6.2960572735 1.1612105348 -1.5511254100
H -5.7652051401 1.2755617453 -3.2635454828
H -3.3453716285 -3.1845594475 -0.6490745131
H -4.8415703315 -2.2395918888 -0.5074164305
H -5.0752480859 -3.4688456728 2.0648041304
H -2.3169252744 -1.7602552097 4.9022472672
H -1.1033780433 -0.5983810256 3.0628662149
H -0.9316804655 -0.5174191836 -3.2472087018
H -1.9342538128 0.6856078185 -2.3703652209
H 4.5042087502 -0.4714305625 -0.9762714159
H 6.2574407136 1.2908273833 -0.7526782329
H 3.2436148756 4.1707316075 0.2619168122
H 1.4900542473 2.4035938809 0.0704775282
H 3.4325916873 -3.2227960214 1.1901487248
H 3.5999581013 -2.2477940314 2.6878384703
H 2.0008056056 -2.9160088500 2.2224403773
