44
CONF83
C -5.5005760392 0.1905211778 1.0876066927
C -4.0386623208 0.1631010346 1.4870719062
C -3.4565990845 -1.2419679544 1.6243269867
O -2.9917354025 -1.5161553903 0.2894246343
C -2.4431165579 -0.2968351488 -0.1663155685
O -3.2290484170 0.7366675639 0.4208023204
C -2.6382214680 -0.2188598904 -1.6945109964
N -1.6924334299 -1.0492654193 -2.4163506039
C -0.5155294435 -0.6820147919 -2.9637954586
N 0.1320579975 -1.7470602115 -3.4199027720
C -0.7155998941 -2.7677603692 -3.1059792452
N -1.8321174438 -2.3964913314 -2.4921965498
C -0.9648635620 -0.1820263077 0.2240848609
C -0.2827128395 -1.3316816153 0.6347599564
C 1.0733630364 -1.3277307616 0.9241929690
C 1.7855277337 -0.1411411699 0.7971880328
C 1.1498748438 1.0303690055 0.3972072277
C -0.2085742971 0.9886894130 0.1095547018
Cl -0.9220097847 2.5057514012 -0.4393476337
O 3.1173576755 -0.1659644616 1.1460429025
C 4.0097148736 0.6443474180 0.4628128033
C 4.9836613376 1.2884517149 1.2166481271
C 5.9569684257 2.0485258799 0.5759190564
C 5.9263689412 2.1529242249 -0.8091684226
C 4.9554389384 1.5096750439 -1.5690578374
C 3.9900782396 0.7431640611 -0.9262415637
Cl 7.1505263957 3.1210496051 -1.6250203750
H -5.8105706874 1.2107559639 0.8452424063
H -6.1185109876 -0.1711096660 1.9158666725
H -5.6694789117 -0.4484031578 0.2147963890
H -3.8640426426 0.7588015997 2.3892443873
H -2.6209480599 -1.2707698898 2.3356854198
H -4.1984446430 -1.9994136980 1.8828049540
H -3.6583868288 -0.5313037524 -1.9301325888
H -2.4894196114 0.8136736785 -2.0154962366
H -0.1890636194 0.3492442072 -3.0119858193
H -0.5131579327 -3.8056212415 -3.3393552670
H -0.8395694493 -2.2581335065 0.7138664960
H 1.5829771143 -2.2323719423 1.2366124722
H 1.7013575212 1.9586656123 0.3070583963
H 4.9801334116 1.1914444387 2.2969062305
H 6.7223325648 2.5555853133 1.1521862077
H 4.9539118564 1.5945191062 -2.6497457716
H 3.2317414405 0.2261544047 -1.5048328859
