38
CONF4
C 0.5521974625 2.8802973951 -2.3442021265
N 0.5272031124 1.7822026810 -1.3778298846
C 1.6952404766 1.3123634754 -0.8489504743
C 1.7542603756 0.2035486031 -0.0546794073
C 0.5355966919 -0.5749465550 0.2148349414
O 0.5424235295 -1.6200327366 0.8732476746
C -0.6974808380 0.0075953372 -0.3368051911
C -0.6387968943 1.1262618308 -1.1188768224
C -2.0082035628 -0.6028070639 -0.0576248075
C -2.1767562732 -1.9937670674 -0.0372406328
C -3.4302278616 -2.5481848553 0.1947117327
C -4.5357981306 -1.7373159144 0.4161305096
C -4.3721365501 -0.3531141416 0.4107455039
C -3.1231853513 0.2104905815 0.1826038969
C -5.5740381972 0.5179300337 0.6263542250
F -6.3432685520 0.0773877114 1.6509789705
F -6.3756034183 0.5415256203 -0.4730641815
F -5.2453850110 1.8026747638 0.8964318234
C 3.0500334824 -0.1964736841 0.5210403993
C 3.4411631359 -1.5415201073 0.5667672237
C 4.6864200672 -1.8930577072 1.0730453250
C 5.5577834679 -0.9187793573 1.5522451804
C 5.1735895015 0.4183674025 1.5260595618
C 3.9299490588 0.7746060384 1.0188681832
H 1.3544597861 3.5742281215 -2.0847776861
H 0.7159084661 2.5060107672 -3.3614082082
H -0.3980151160 3.4170351978 -2.3088623117
H 2.5872079669 1.8702710616 -1.1154254238
H -1.5235114035 1.5406071523 -1.5920097237
H -1.3188010022 -2.6319351506 -0.1996259628
H -3.5444772077 -3.6270487016 0.2048972829
H -5.5126580991 -2.1696280027 0.6040964439
H -3.0069063297 1.2875636804 0.2268871296
H 2.7627964881 -2.3028655899 0.2052034388
H 4.9769050642 -2.9386421890 1.0966164535
H 6.5258118375 -1.2008596298 1.9536355714
H 5.8363134188 1.1844219311 1.9161601750
H 3.6199850913 1.8155887820 1.0394911011
