74
CONF4
C -0.5888412076 -1.9663115466 -0.7129858789
C 0.0018580452 -3.3128325850 -1.1107492119
O -0.8287208970 -4.2830096700 -0.3862978754
C -1.4366665713 -3.6914729611 0.6778911144
O -2.1148548451 -4.3298421208 1.4479489901
C -1.0478061915 -2.2346916097 0.7121594327
C -2.0420627249 -1.1782505179 1.2000590020
C -3.4275077431 -1.3203988673 0.5775429045
C -3.7535439764 -0.6735361628 -0.6165563241
C -5.0122687887 -0.8469851102 -1.1950726208
O -5.4230410497 -0.2599209203 -2.3567145352
C -4.4822198538 0.5861701592 -3.0270561720
C -5.9584209595 -1.6680733087 -0.5728599981
O -7.1882697435 -1.8242819654 -1.1470017012
C -5.6294288170 -2.3010573420 0.6314910602
O -6.6410516864 -3.0653797340 1.1465206451
C -6.3707169261 -3.7911070672 2.3528221095
C -4.3741044319 -2.1288616872 1.2096358678
C -1.4479260115 0.1965088040 0.9123010704
C -2.0494889005 1.2901956228 1.5675915730
C -1.6245020653 2.5534096364 1.2385130222
C -0.6459306546 2.7685990868 0.2746221850
O -0.4211396074 4.1114713563 0.1236457211
C -1.3185384439 4.7742466396 1.0412488633
O -2.0604237498 3.7487971172 1.7398305541
C -0.0439312700 1.7258496459 -0.3818584168
C -0.4408778109 0.4116514385 -0.0424610169
C 0.2826096704 -0.7291906074 -0.7332018479
O 1.5145020719 -1.1106103132 -0.0461788415
C 2.4312142055 -0.1020702589 0.2041856353
O 2.9175325257 0.3892594904 -1.0543645582
C 3.8542817606 1.4444694525 -0.8510855660
C 4.2733126566 2.0360507657 -2.1859220736
O 5.2995367039 3.0080069681 -1.9372038613
C 6.4267751301 2.4351055332 -1.2847589274
C 7.4566661501 3.5133052278 -1.0831688587
O 6.0655488716 1.9135119768 -0.0043689027
C 5.0907627579 0.8784736291 -0.1565210484
C 4.6928710429 0.3330745604 1.1994078006
O 5.7640369250 -0.3385767208 1.8654580823
C 3.5801305761 -0.7008662761 1.0170106275
O 3.0535372593 -1.1067642399 2.2759609104
H -1.4668656245 -1.7689897366 -1.3396962926
H -0.0840946671 -3.5468596589 -2.1725548933
H 1.0342412311 -3.4370905563 -0.7731354753
H -0.1640770012 -2.1975413715 1.3699007264
H -2.1578590415 -1.2854148114 2.2846804295
H -3.0313557183 -0.0141380654 -1.0807902758
H -4.1991508213 1.4389511641 -2.3981169640
H -3.5838039831 0.0269086971 -3.3153172058
H -4.9935379883 0.9444287110 -3.9210737416
H -7.6994282683 -2.4227139085 -0.5819118261
H -5.5354476058 -4.4860618382 2.2094207570
H -6.1463275813 -3.1057395427 3.1781188132
H -7.2816681112 -4.3476774964 2.5736195061
H -4.1188189770 -2.6260211082 2.1363903401
H -2.8426642127 1.1315355619 2.2911495425
H -0.7343611611 5.3529176055 1.7644082371
H -2.0163942508 5.4017943853 0.4765383235
H 0.7170910961 1.8949282740 -1.1370498593
H 0.5420098990 -0.4353390307 -1.7570250707
H 1.9772881034 0.7355449524 0.7631524148
H 3.4141095138 2.2377321691 -0.2235882056
H 3.4478239727 2.5586108459 -2.6756256273
H 4.6466911341 1.2392298006 -2.8484412122
H 6.8050633127 1.6004051130 -1.9030828534
H 7.7594606726 3.9203121999 -2.0503928968
H 8.3336044902 3.0970196511 -0.5825804535
H 7.0379970543 4.3158888357 -0.4696493194
H 5.5054589840 0.0638424578 -0.7753817823
H 4.3118265643 1.1587767961 1.8217887389
H 6.4016010396 0.3288033196 2.1487863604
H 3.9817126014 -1.5635029014 0.4609746638
H 3.8069832093 -1.3646049310 2.8244989686
