34
CONF22
C 6.1818350124 -0.1896463834 0.9189882095
N 5.8625485709 0.9730282517 0.0771747718
S 4.5725919527 1.9508049193 0.4674358960
O 4.4922075354 2.9857523919 -0.5579599241
O 4.6150982304 2.2067832967 1.9016712638
C 3.0475699397 0.8140445402 0.1754847003
C 1.7214418499 1.6171296822 0.0168971738
C 0.4372393506 0.7340203312 0.2160629714
C -0.8605365763 1.3826589472 -0.3678758730
C -2.2367425971 0.7821603817 0.1185456756
C -2.4519750079 -0.7519505772 -0.0940982522
C -3.9527941140 -1.1910641090 0.0214400769
C -4.1453173968 -2.7261173673 0.2537391733
F -3.7762240403 -3.0743754602 1.4905702311
F -5.4411515175 -3.0249140212 0.0944928532
F -3.4262408337 -3.4270810784 -0.6345144041
F -4.5414877900 -0.5464674239 1.0541848198
F -4.5898173520 -0.8680566310 -1.1234674552
F -2.0092742866 -1.0994695010 -1.3224091646
F -1.7302595091 -1.4176303670 0.8390489382
F -2.3889287927 1.0691663619 1.4268918561
F -3.1897528389 1.4411338634 -0.5863285984
F -0.8229159655 1.3138197861 -1.7138863543
F -0.8837763419 2.6857161750 0.0040112842
F 0.6328469240 -0.4567051936 -0.4033031316
F 0.2682634990 0.5207313210 1.5386363102
F 1.7132839327 2.6012752685 0.9420037939
F 1.6966759939 2.1597953996 -1.2183051427
F 3.2920175692 0.1000395522 -0.9474636655
F 2.9590998798 -0.0361452320 1.2205299408
H 7.2287738529 -0.4522245942 0.7454004220
H 5.5492299286 -1.0596759318 0.7069971732
H 6.0685257770 0.0955677703 1.9664048157
H 5.9165157197 0.8236530399 -0.9252442598
