37
CONF424
C -0.0595026602 -4.2246533539 0.4480588795
C 0.5302392709 -2.9237743661 0.9380702505
O -0.3859644239 -1.8113649318 0.6429688897
P -0.2618750876 -1.0023665952 -0.7223517123
O 0.5049734148 -1.6285233455 -1.8159335817
O -1.7570946079 -0.6399802065 -1.1086766391
C -2.6644477192 -0.0034850764 -0.1531778705
C -4.0185934696 0.0920624060 -0.8127194611
O 0.2909834323 0.4689753895 -0.2642904558
P 1.7865964922 0.8033067573 0.3058850703
O 2.4026979277 -0.2987534021 1.0714371870
O 2.6134850493 1.2489510579 -0.9640080690
C 2.0785221975 2.1959802428 -1.9515100267
C 1.9184959960 1.4865584059 -3.2743038816
O 1.5208449343 2.1707378672 1.0827014681
C 1.1817226722 2.1404573783 2.5075866139
C -0.2284619415 1.6472724716 2.7485737452
H 0.6057520257 -5.0486073975 0.7263112664
H -0.1605170548 -4.2162742673 -0.6406739685
H -1.0402052503 -4.4043800701 0.8977403460
H 0.6385072369 -2.9018986508 2.0246334661
H 1.5022614795 -2.7133133695 0.4868296075
H -2.2637922759 0.9857588977 0.0927097996
H -2.6998209592 -0.6132769509 0.7557025925
H -4.7213580140 0.5737392974 -0.1262175839
H -3.9624840358 0.6874169385 -1.7278050246
H -4.3998069776 -0.9020015108 -1.0603285088
H 2.8104581020 3.0062945408 -2.0033206589
H 1.1288069143 2.6056448632 -1.5935043163
H 1.1979358492 0.6684956436 -3.1917474894
H 1.5624537920 2.1987444754 -4.0257064352
H 2.8750720413 1.0765479501 -3.6088706438
H 1.9206126018 1.5186832912 3.0226730630
H 1.3024207907 3.1777735962 2.8269131263
H -0.3380945124 0.5949697818 2.4693576525
H -0.4600411372 1.7417406360 3.8143658826
H -0.9507813102 2.2425413151 2.1826278384
