33
CONF29
O -4.4465528457 2.7672498462 -1.4049295152
C -3.7805274892 1.7029937415 -0.8853608489
C -4.5598325865 0.7060229077 -0.3047850764
C -3.9288707705 -0.4044412719 0.2384783268
O -4.6707620859 -1.3786896534 0.7720566792
C -2.5073271396 -0.5211079196 0.2113562582
C -1.8582757957 -1.7241285990 0.6568758686
O -2.4721788658 -2.6877953549 1.1451462683
C -0.3611443027 -1.7842201249 0.4526745342
C 0.2353146991 -0.3924093481 0.5396062595
O -0.4057088350 0.4822522827 -0.4396655580
C -1.7600364507 0.5270512311 -0.3750464060
C -2.3829315654 1.6339767024 -0.9259516883
C 1.7183505936 -0.2843230628 0.3082287693
C 2.5006882031 -1.3626469558 -0.0929754012
C 3.8707991921 -1.1986674631 -0.2955438182
C 4.4563203740 0.0423322022 -0.1083381095
O 5.7932850097 0.3060108071 -0.2832399213
C 3.6755199749 1.1374990096 0.2925887482
O 4.2368362507 2.3633878932 0.4837554299
C 2.3178864657 0.9642890340 0.5009496685
H -3.8112270562 3.3853852303 -1.7847925191
H -5.6390582134 0.7888467803 -0.2872885188
H -4.0328523061 -2.0907821395 1.0544113867
H 0.0728702308 -2.4501144729 1.2032628443
H -0.1774127973 -2.2179605321 -0.5399911207
H -0.0059765037 0.0306809431 1.5286124142
H -1.7821537512 2.4264905260 -1.3597565918
H 2.0644271145 -2.3420275641 -0.2470654895
H 4.4817258512 -2.0433950727 -0.6038575718
H 6.2498759932 -0.4970939791 -0.5552305888
H 5.1826935671 2.2944268882 0.2979921388
H 1.7262367616 1.8209067845 0.8078229741
