23
CONF10
C -1.6524445549 -2.5334096227 -1.1033538036
N -0.6946388996 -1.5765273546 -1.6406513863
C 0.1857920551 -0.8961491518 -0.9032203289
N 1.1008087482 0.0121837820 -1.3277271257
N 1.1896780724 0.3180641966 -2.6341088471
O 2.0454509520 1.1655054731 -2.9223243442
O 0.4684538239 -0.2011276952 -3.5215266351
N 0.2185280552 -1.1185585243 0.4309318696
C 1.0035318359 -0.3148310074 1.3685302769
C 0.4591635180 1.0635015436 1.5838590642
C 1.0473144115 2.2602165766 1.2957718671
N 0.3279020462 3.3931893696 1.6035906631
C -0.8110632533 3.0646410792 2.1191212910
S -1.1148472737 1.3533372567 2.2874126908
Cl -2.0001979974 4.2105165664 2.6280317401
H -2.2422906341 -2.9192324968 -1.9348059398
H -2.3340479287 -2.0572475604 -0.3878494448
H -1.1472000717 -3.3758711717 -0.6157085588
H -0.6503031458 -1.3915912108 -2.6353912901
H -0.4825543854 -1.7217617504 0.8307674152
H 2.0316809333 -0.2213878091 1.0107330691
H 1.0246677158 -0.8715543020 2.3099804967
H 2.0266165750 2.3580936175 0.8408606563
