29
CONF17
C 2.3068820845 -1.7332406382 -0.8325445827
C 2.6937910619 -0.4724798656 -0.1113306278
C 1.8740017192 0.5690114466 0.0928856831
C 0.4376659323 0.6949231867 -0.3226066797
C -0.5096636890 0.4502430145 0.8608710580
C -2.0009953075 0.6480569907 0.5431209475
C -2.8334270505 0.3984277263 1.8082497429
C -2.4411605294 -0.3144911431 -0.5333901535
C -2.9257772052 0.0149762293 -1.7277282859
O -2.1469559610 2.0173167005 0.1300964922
C 4.1129682805 -0.4560961917 0.3877630279
H 2.9394616877 -1.8760580069 -1.7180476357
H 1.2624544824 -1.7469449648 -1.1487621484
H 2.4794062562 -2.6025890831 -0.1855494924
H 2.2717593046 1.4169685258 0.6531583415
H 0.1955505916 -0.0014249261 -1.1307578915
H 0.2608429300 1.7044327714 -0.7118674557
H -0.2523168012 1.1255568335 1.6870348974
H -0.3711221727 -0.5739288492 1.2275138812
H -3.8933900496 0.5894318247 1.6080798915
H -2.4964799662 1.0635705338 2.6093374076
H -2.7290762564 -0.6381471326 2.1430503084
H -2.3475812003 -1.3657888576 -0.2587726970
H -3.0234244569 1.0520586082 -2.0371554812
H -3.2336898876 -0.7484756104 -2.4357563799
H -3.0898155414 2.1830118741 -0.0031997664
H 4.8167181862 -0.5921671443 -0.4436408330
H 4.2893181831 -1.2869664434 1.0830146086
H 4.3540538612 0.4808125959 0.8970361152
