35
CONF5
C -5.6208406461 -0.7670082145 -0.5837296431
C -4.3685716196 -0.3905360392 0.1982694470
C -4.7473786036 0.5944732532 1.3031942019
O -4.7262408515 1.7929380939 1.2150498586
O -5.1708489201 -0.0789717722 2.4067452037
O -3.4712378637 0.2054161743 -0.7211560977
C -2.1971687390 0.4793273958 -0.2966668314
C -1.7083768198 0.2058997893 0.9800294442
C -0.3848644881 0.5179619310 1.2891051964
C 0.4256373318 1.0948140161 0.3311195155
C -0.0550446600 1.3781490747 -0.9411040038
C -1.3667600440 1.0682042371 -1.2542689955
O 1.7229984706 1.4800591155 0.6955243112
C 2.7700199832 0.7515442434 0.2305428392
N 2.5474454774 -0.3404590876 -0.4810215043
C 3.6117670587 -1.0293836698 -0.9088944215
C 4.9174562096 -0.6486588075 -0.6382819274
C 5.1323833007 0.5105097426 0.1179678543
C 4.0470151844 1.2299133079 0.5640757270
C 6.0911355419 -1.4321395467 -1.1283412246
F 6.8711171774 -1.8614888052 -0.1017792078
F 5.7266429109 -2.5214690245 -1.8378549303
F 6.8954062259 -0.6817120657 -1.9266597934
H -5.3542594433 -1.4687031187 -1.3771610864
H -6.3520753295 -1.2370292106 0.0780987513
H -6.0599724894 0.1277170912 -1.0321674021
H -3.9246127160 -1.2878169300 0.6523269620
H -5.4580739230 0.5894956908 3.0493732310
H -2.3302136529 -0.2390753940 1.7475971922
H 0.0135536896 0.3148271048 2.2768968553
H 0.5983015243 1.8346282659 -1.6762726823
H -1.7727000820 1.2782083225 -2.2373307278
H 3.4045027528 -1.9234721382 -1.4908112604
H 6.1423136781 0.8357261197 0.3464091467
H 4.1515443588 2.1342056550 1.1511759072
