52
CONF31
C -1.3772804244 -0.5556603622 -3.3097249584
O -2.3888895762 0.0779870937 -2.5146472558
C -2.0557613027 0.4144597383 -1.2376709904
C -0.7972919824 0.2006209457 -0.6701747227
C -0.5571661207 0.5754263771 0.6520806838
C -1.5624938429 1.1837973412 1.4043101037
C -2.8209133472 1.4011824868 0.8376621980
C -3.0728849475 1.0222179719 -0.4888972945
O -4.2934960182 1.2859640292 -1.0640466794
C -5.2358525371 0.2058298206 -0.8970416864
O -3.8674708729 1.9822907711 1.4863068770
C -3.6589874967 2.3732988640 2.8503567172
C 0.7978374139 0.3205773134 1.3025496635
C 0.8954271963 -1.0390977576 1.9983573878
C 0.9377305142 -2.1824619948 1.0012295344
C 0.6175708526 -3.3770050471 1.8875243547
O -0.3086998132 -2.8304254822 2.8883420376
C -0.1647401007 -1.4814943282 2.9790560165
O -0.7915144596 -0.8330242450 3.7836692636
C 2.2572102228 -2.1679376960 0.2691728223
C 2.5874863955 -0.7489640024 -0.2030105674
C 3.6169114942 -0.6179588352 -1.1607332563
C 3.9350861776 0.6434589062 -1.5951708044
C 3.2856840703 1.7726124705 -1.1061227047
C 2.2952078300 1.6780721721 -0.1624003738
C 1.9393110479 0.3917293341 0.2960607622
O 3.8337192753 2.9013660784 -1.6622302584
C 4.6717756084 2.4178197230 -2.7338459096
O 4.9197234644 1.0199521427 -2.4756895763
O 2.1564078406 -3.0985943128 -0.8206789850
H -0.5129403316 0.1047505443 -3.4461147552
H -1.0534469280 -1.4993435564 -2.8550870023
H -1.8440724181 -0.7532155117 -4.2750182853
H 0.0027908629 -0.2344642233 -1.2552758934
H -1.3565379163 1.4734643046 2.4262842068
H -6.1574482793 0.5186322413 -1.3916775373
H -5.4288080907 0.0260106190 0.1669806024
H -4.8563370744 -0.7097545712 -1.3653615312
H -2.8687151670 3.1289786984 2.9263720749
H -3.4048156354 1.5076137720 3.4730461176
H -4.6066659890 2.7989034403 3.1813322360
H 0.9528182698 1.1049826297 2.0524837900
H 1.8328758234 -1.0468325854 2.5819987234
H 0.1277583510 -2.0534338428 0.2715286553
H 1.5019043216 -3.7511857763 2.4164223332
H 0.1007790526 -4.1951771954 1.3860334319
H 3.0528988203 -2.4988635546 0.9559622201
H 4.1421215495 -1.4843177995 -1.5478713665
H 1.7905835403 2.5590779311 0.2213269181
H 4.1329942634 2.5193944719 -3.6858776456
H 5.6181125900 2.9613976880 -2.7285487426
H 3.0405042366 -3.4126580605 -1.0435313356
