42
CONF38
C -0.1052734371 -4.5349914621 1.8185138512
O -0.5731179339 -3.2531514634 1.3703669784
C -0.1218187987 -2.2042778743 2.0789692321
C -0.4938616034 -0.9375903709 1.8024206428
C -1.4321437250 -0.5929216351 0.7107322009
C -2.6298049298 0.0634578164 1.0201047980
C -3.5473829769 0.3902805942 0.0333307011
C -3.2805654187 0.0627802662 -1.2931022179
C -2.0981480514 -0.5884020686 -1.6152621540
C -1.1655531331 -0.9177791411 -0.6298553723
C 0.1061291695 -1.6196216481 -1.0282442582
O 0.5706450114 -1.2149610023 -2.3392530156
C 1.1291318752 0.0082476516 -2.4380101609
C 1.5302041954 0.4138827686 -3.7226317870
C 2.1222717719 1.6522137109 -3.8508045786
C 2.3032671000 2.4558472184 -2.7199439595
C 1.8669737582 1.9478485697 -1.5099585948
N 1.2879674043 0.7530250800 -1.3559797827
C 1.9874368849 2.7502782354 -0.2320137532
F 0.7827898581 3.2134785741 0.1722432053
F 2.7934404432 3.8269995713 -0.3954589412
F 2.4970491072 2.0151588360 0.7769800424
C 0.0811335142 0.0858084712 2.7059700503
O 0.8400155775 -0.1412451759 3.6295614095
O -0.3388918993 1.3285298015 2.3834646418
C 0.1794938098 2.3767303099 3.2252209261
H 0.9866689529 -4.5946492041 1.7467241726
H -0.5589194705 -5.2735597075 1.1573060068
H -0.4227830160 -4.7204576122 2.8506438171
H 0.5607980904 -2.4078352241 2.9031471097
H -2.8321733890 0.3190954204 2.0546016949
H -4.4688181062 0.8986509867 0.2983997745
H -3.9917144075 0.3134432203 -2.0737165717
H -1.8801168852 -0.8377198022 -2.6488858492
H -0.0598311921 -2.6947288208 -1.1363340031
H 0.8930829549 -1.4497852567 -0.2889154860
H 1.3711893638 -0.2445883438 -4.5683109473
H 2.4476593224 2.0018549104 -4.8250602750
H 2.7648717287 3.4321610025 -2.7848427005
H -0.2380112198 3.3001966034 2.8252637838
H -0.1340341939 2.2219813679 4.2614560625
H 1.2707446925 2.3963143184 3.1792160317
