44
CONF10
C 1.6323394645 0.2266092520 -3.3559210015
C 2.0500072055 0.8628065313 -2.0745121824
N 1.0852376997 1.2309549171 -1.2290152675
C 1.4883773217 1.7993524819 -0.0777168394
N 2.7627554554 2.0333454159 0.2408923472
C 3.6380215842 1.6493400014 -0.6929700648
N 3.3569927968 1.0530074466 -1.8561012226
O 4.9037848722 1.9029829605 -0.3733737385
C 5.9295682360 1.5178851553 -1.3231990690
N 0.5400408008 2.1728468101 0.8656970474
C 1.0288497271 2.8483675654 2.0826672668
C -0.8396598811 1.8483045656 0.8502942253
O -1.5410173320 2.0386405250 1.8310045145
N -1.3226567270 1.3353410994 -0.3333525762
S -2.8717782954 0.6518996583 -0.4368939955
O -3.8687501503 1.6746321937 -0.1131107894
O -2.8811536219 0.0148716704 -1.7614967012
C -2.9571303634 -0.6342148797 0.8169234314
C -3.7006184324 -0.3732271305 1.9614841046
C -3.8801430237 -1.3835812235 2.9013413167
C -3.3389167725 -2.6450564648 2.6786515017
C -2.6093440472 -2.9026537789 1.5216097219
C -2.3961420186 -1.8952258134 0.5807766904
C -1.5050215359 -2.1875415983 -0.5853398829
O -0.4699340799 -1.5943804867 -0.8093553692
O -1.9620363759 -3.2221147061 -1.2968767357
C -1.1316162438 -3.6159945097 -2.4234137370
H 1.4429977188 1.0141094182 -4.0956783740
H 2.4243357407 -0.4168365478 -3.7410847718
H 0.7067011345 -0.3355420465 -3.2185800913
H 6.8658223605 1.8165565148 -0.8536675389
H 5.7870906499 2.0446300714 -2.2690983568
H 5.9075620244 0.4386765593 -1.4883555101
H 1.6975174137 3.6601046563 1.7971912887
H 1.5698139950 2.1457665884 2.7225897882
H 0.1680847068 3.2414287638 2.6172025629
H -0.6051416650 1.0386689911 -1.0316129673
H -4.1401986608 0.6060183775 2.1057546916
H -4.4535296606 -1.1829185159 3.7997886736
H -3.4872810232 -3.4374014320 3.4046758805
H -2.1869372489 -3.8864533540 1.3472187110
H -1.0378967019 -2.7813749474 -3.1218086615
H -0.1444077653 -3.9209938388 -2.0695774875
H -1.6545893819 -4.4516362922 -2.8851736259
