28
CONF10
C 1.1027625747 0.9158076384 -1.0028714447
N 0.1342701598 1.8976117668 -0.5587407829
C -1.0906640781 1.5204354177 0.1795292820
N -1.3992190948 0.1241871593 0.0058534723
C -1.1072108721 -0.8945271063 1.0140833698
N -0.1302043352 -1.8836651785 0.6001588864
C 1.0526183942 -1.5126599094 -0.2078227061
N 1.3979856053 -0.1266271601 -0.0211205913
N 2.1347430588 0.2257309308 1.1151149828
O 2.4510281790 1.4019345167 1.2012120184
O 2.3622900628 -0.6661310043 1.9161763407
N -0.5833777174 -3.1946044117 0.3758420129
O 0.1415200270 -3.8816245577 -0.3309732815
O -1.6019231619 -3.5449824801 0.9412231598
N -2.0749123598 -0.2676003214 -1.1528695088
O -2.2725256788 0.5985082686 -1.9901557459
O -2.3753286865 -1.4496116184 -1.2210320124
N 0.5756769021 3.2034019177 -0.3113871772
O -0.1738699219 3.8812348196 0.3804240794
O 1.6121133013 3.5628330665 -0.8378480474
H 2.0052825007 1.4692869437 -1.2745201531
H 0.7223304106 0.3943883680 -1.8873620745
H -1.9179965806 2.1360820585 -0.1804662309
H -0.9596275470 1.7057111180 1.2517343658
H -2.0089915381 -1.4439170550 1.2969467805
H -0.7331923124 -0.3483609873 1.8861023931
H 1.8851036964 -2.1545365328 0.0872507058
H 0.8513186308 -1.6683055615 -1.2744821036
