111
CONF134
C 3.0622184083 -1.2802517821 1.1911979447
N 2.1462903600 -2.0433673870 2.0500656375
C 2.5768146399 -3.2643950182 2.7035219339
C 0.8654131724 -1.9092289133 1.5405726492
C -0.2587365395 -2.6865759753 1.8089686461
C -1.4719516611 -2.2992243577 1.2254829525
O -2.6290182919 -3.0020488590 1.4116498409
C -2.5964086234 -4.1670775919 2.2435132814
C -1.5776272244 -1.1668929248 0.3927005190
C -0.4109665215 -0.4379511653 0.1266265694
C 0.7951979287 -0.8043221465 0.6857690176
C 2.1448235251 -0.1245083613 0.6898491381
C 2.1592783413 1.0513554259 1.7384088838
C 2.5181963350 2.2918339683 0.9214239906
N 3.3387720602 1.7420733636 -0.1568797396
C 3.5953540845 2.6838307836 -1.2365206255
C 4.1965978848 1.9775082982 -2.4126992006
C 4.0912375603 0.6616805624 -2.5831727341
C 3.2923567872 -0.2483740175 -1.6790596821
C 2.2564961646 -1.0074425801 -2.5635224401
C 1.4675628675 -0.1327471385 -3.5370803092
C 4.2811071146 -1.2614486601 -1.0530434495
O 5.3757811533 -0.5116942853 -0.4698087015
C 6.6384413771 -0.9318797889 -0.7048960578
C 7.6275651147 -0.0168757246 -0.0525062011
O 6.9141083636 -1.9109368475 -1.3701898857
C 3.6739695909 -2.1608725221 0.0649797171
O 2.6782493164 -2.9950682876 -0.4898317844
C 4.7950134494 -3.0900322895 0.5761118732
O 4.9163560880 -4.2252133371 0.1541177159
O 5.6036933411 -2.5297032459 1.4716332677
C 6.7025380043 -3.3623598234 1.9381906195
C 2.5595681510 0.5832992805 -0.6169817519
C -2.9576982241 -0.7376289428 -0.1141888795
C -3.8509852628 -0.2699563534 1.0615139911
C -3.2548086034 0.7838813034 2.0327612663
C -2.4902494517 1.9672709033 1.4226205306
N -3.3467155715 2.9794222391 0.7985104812
C -4.2091926811 3.5726632273 1.8297488337
C -4.8356148484 2.5769263438 2.7860476035
C -5.9750409481 3.0837832380 3.6279904109
C -5.5883147456 4.2632453717 4.5318956647
C -4.3798042312 1.3212737160 2.8778921262
C -4.1692624426 2.4316905693 -0.3087197734
C -3.3837272706 1.6171595470 -1.2897812632
C -2.8844663453 0.3233812109 -1.2012528933
N -2.2302418012 0.0173472491 -2.3821016904
C -2.2789038743 1.0823969613 -3.2417083178
C -1.7800966263 1.2264227678 -4.5366221721
C -1.9858175854 2.4468881641 -5.1662340971
C -2.6742667480 3.4936613087 -4.5230982560
C -3.1792083291 3.3400453858 -3.2397495522
C -2.9890131203 2.1171149308 -2.5779427522
C -3.5961774232 -1.9491936909 -0.8417231722
O -2.9802858705 -2.6844786579 -1.5887585009
O -4.9117512439 -2.0500131673 -0.6256196305
C -5.5807563060 -3.1292309835 -1.3277739705
H 3.8951036934 -0.8797011760 1.7732578545
H 1.8738671712 -3.5178522468 3.5030711993
H 3.5565617331 -3.1048055011 3.1621456676
H 2.6366667466 -4.1205957160 2.0128023348
H -0.1943574133 -3.5637460834 2.4388128528
H -3.6161891459 -4.5534309845 2.2470059862
H -1.9166295122 -4.9238338819 1.8351555755
H -2.2953417208 -3.9114448798 3.2660754387
H -0.4628295984 0.4252173186 -0.5295072501
H 2.9156647433 0.8644684082 2.5060064252
H 1.1904807548 1.1508168066 2.2332792280
H 3.0686074914 3.0459275812 1.4945168854
H 1.6012047541 2.7676691308 0.5179182437
H 4.2759892955 3.4675178117 -0.8787816316
H 2.6629001704 3.2011049472 -1.5546821429
H 4.7306662040 2.5847080835 -3.1396200695
H 4.5553475663 0.1814258670 -3.4445724813
H 1.5594365354 -1.5322496404 -1.9089910487
H 2.7940498028 -1.7772016142 -3.1307951201
H 0.8935185671 0.6461050819 -3.0247690542
H 2.1128280530 0.3545962013 -4.2734931814
H 0.7501816565 -0.7577582732 -4.0781875400
H 4.6738624266 -1.9131290795 -1.8409374032
H 8.6162487495 -0.4744740436 -0.0588743913
H 7.6589018896 0.9235728813 -0.6136009173
H 7.3165217923 0.2165972006 0.9684465653
H 3.1290086856 -3.8043469947 -0.7841399478
H 6.3054192019 -4.2501099321 2.4350463862
H 7.2540835464 -2.7378056227 2.6387639415
H 7.3306762316 -3.6515245631 1.0929389747
H 1.6253111328 0.9551051310 -1.0832602759
H -4.7978211905 0.0837943814 0.6550013467
H -4.0925339993 -1.1502112841 1.6609033209
H -2.5462020779 0.2490495605 2.6822329259
H -1.7471803133 1.6308356763 0.7002552502
H -1.9423971208 2.4666844112 2.2329203384
H -3.6144319022 4.2979849498 2.4065155007
H -5.0019481592 4.1539507190 1.3378009033
H -6.7930577955 3.4022757723 2.9654668527
H -6.3606707061 2.2613117538 4.2413459267
H -4.7575152452 3.9890759154 5.1907697600
H -5.2825846167 5.1354266477 3.9461820351
H -6.4359346193 4.5618905855 5.1561978479
H -4.8696171977 0.6250547522 3.5601752233
H -4.5899652459 3.2895883902 -0.8469796402
H -5.0325932883 1.8671469817 0.0737680547
H -1.8042197526 -0.8770126053 -2.5739568311
H -1.2525560600 0.4172861259 -5.0305749375
H -1.6097226899 2.5961109231 -6.1736400280
H -2.8134495513 4.4353619565 -5.0451472528
H -3.7121876575 4.1549489968 -2.7585506174
H -5.1570027723 -4.0898281598 -1.0256273210
H -6.6264706564 -3.0589834053 -1.0317582099
H -5.4735933122 -2.9977272704 -2.4069103501
