61
CONF9
C -2.0750241605 -1.5122237564 -3.3037658320
C -1.0822162474 -1.9359095121 -2.2100597927
C -1.6113278616 -1.5946308505 -0.8414232072
C -2.4134281686 -2.5157261509 -0.1677272606
C -3.0190848894 -2.2146367412 1.0507187892
C -2.8230626170 -0.9429454936 1.5854166175
C -2.0241972761 0.0061116408 0.9483800948
C -1.3883259521 -0.3334130984 -0.2593416217
C -0.4661088572 0.6285054611 -0.8896087618
C -0.7854890778 1.6646842454 -1.8670669473
O -1.8480217910 1.9962830524 -2.3831376634
N 0.4444084125 2.2672527096 -2.1609900063
N 1.4839345908 1.7014809197 -1.4140516071
C 0.8608483148 0.7522042338 -0.6320582941
O 1.5920042828 0.0912095413 0.3108999460
C 2.0000923960 -1.2171303567 0.0010232862
O 2.0209541882 -1.6223478039 -1.1244142847
C 2.3406372082 -1.9793506532 1.2662922144
C 3.1964225356 -1.1238225013 2.2123697833
C 3.0853778629 -3.2583248215 0.8764920381
C 0.9964113417 -2.3290083606 1.9402589195
C 2.4693890525 2.6198152173 -0.8243435485
C 1.8555802763 3.8668824778 -0.1825285357
O 1.6317960122 4.9197656205 -1.1107542793
C 0.4949653593 4.7356386108 -1.9490568295
C 0.5919576517 3.5192987137 -2.8689862557
C -1.8580383574 1.3694360086 1.5740972733
C -0.7190037427 1.4283235401 2.5994295135
C -3.9048851007 -3.2160717147 1.7403105245
H -3.0331874516 -2.0266054935 -3.1771366264
H -2.2628980011 -0.4353012606 -3.2583103098
H -1.6821175562 -1.7562668673 -4.2959933129
H -0.9058060556 -3.0160933203 -2.2691444695
H -0.1199809802 -1.4467567458 -2.3800578637
H -2.5761312801 -3.4937692843 -0.6163990423
H -3.3101681404 -0.6770809148 2.5216205166
H 3.4565111109 -1.7190071646 3.0931636725
H 2.6579863386 -0.2343861203 2.5466059011
H 4.1279621781 -0.8104294645 1.7297035656
H 2.4843412935 -3.8715197742 0.2014553132
H 3.3048470381 -3.8385689924 1.7775451040
H 4.0289235684 -3.0278734332 0.3732697298
H 0.3600961330 -2.9156300832 1.2706697161
H 0.4466322959 -1.4275466173 2.2229730051
H 1.1941088123 -2.9190052950 2.8410164012
H 3.1851364990 2.9271644482 -1.5946814197
H 3.0149386980 2.0341703363 -0.0783897329
H 0.9261805528 3.6002010915 0.3506059027
H 2.5664564585 4.2688224372 0.5469499384
H -0.4212485957 4.6489135266 -1.3429032232
H 0.4295478054 5.6452680153 -2.5546635061
H -0.2417351784 3.5469446047 -3.5795712224
H 1.5309450126 3.5260116481 -3.4341829814
H -2.7978912829 1.6422820269 2.0672885595
H -1.6876570479 2.1130954718 0.7888036364
H -0.6416459818 2.4274511201 3.0409018263
H 0.2396521051 1.1818504722 2.1340360369
H -0.8903063674 0.7118159527 3.4098780226
H -4.9349037197 -3.1405441635 1.3720861743
H -3.5661074715 -4.2394097358 1.5557944253
H -3.9290468796 -3.0495463871 2.8206913761
