50
CONF16
C 2.2827978573 0.9789565174 -1.9021818356
C 2.1647191988 -0.3019947952 -1.1118581149
C 1.2500608716 -1.2696796513 -1.5217679129
C 1.2602604085 -2.5433073380 -0.9184521924
C 2.1577200349 -2.8780883620 0.0614772070
C 3.0711239667 -1.9144249354 0.5375387312
C 3.0256642795 -0.5944014254 -0.0134074757
C 3.8700598873 0.3451939931 0.6859297055
N 4.7499819108 -0.0368450062 1.5954463402
C 4.7903883496 -1.3545573974 1.9087615839
N 3.9567224356 -2.2928855016 1.4941959740
N 5.8045145599 -1.7255162678 2.7524988272
N 3.8002039069 1.6969442108 0.4742039701
C 0.2335228234 -1.0212598468 -2.6206992883
N -0.5539746561 0.1967467724 -2.4621873751
C -1.5702234540 0.2986313225 -1.5121810268
C -1.6214839147 -0.5522992904 -0.4043024832
C -2.6208974768 -0.3740092437 0.5556950040
C -3.5765345053 0.6388616120 0.4260382934
C -3.5272222960 1.4680797764 -0.7037861279
C -2.5297579959 1.3114323947 -1.6644669686
O -4.5128145957 2.4086397316 -0.7705191993
C -4.5033799436 3.2903757693 -1.8848723487
O -4.5203546140 0.8450942519 1.4020171303
C -5.7167916234 0.0851000570 1.1934427025
O -2.7391697298 -1.1498915652 1.6690617437
C -1.7503787548 -2.1547311744 1.8745338773
H 1.6064244441 1.7628373192 -1.5385492056
H 3.3070186741 1.3548386996 -1.8969453599
H 1.9986019822 0.8047954382 -2.9414420573
H 0.5428342130 -3.2853901006 -1.2622734859
H 2.1950193915 -3.8724197405 0.4921248833
H 6.2339131146 -0.9892493260 3.2868103588
H 4.2781718390 2.2405891462 1.1767088792
H 0.7461864812 -0.9412972674 -3.5886820133
H -0.4157876939 -1.9104745066 -2.6851280054
H -0.7846161868 0.6419720278 -3.3364231984
H -0.8736499894 -1.3187749810 -0.2760399945
H -2.4817700458 1.9621238419 -2.5295571105
H -3.5811797137 3.8858459348 -1.9175041697
H -5.3569938672 3.9553135188 -1.7447083950
H -4.6190725471 2.7441490748 -2.8308604399
H -6.3866582480 0.3260217969 2.0222014899
H -6.1932168779 0.3629304535 0.2442936122
H -5.4997600838 -0.9908277568 1.1982562541
H -1.7692709635 -2.9059201024 1.0736270795
H -0.7439563172 -1.7213540244 1.9397210970
H -2.0050424782 -2.6295955578 2.8230741309
H 2.9369950065 2.0835818217 0.1348079849
H 5.6994894537 -2.6210904351 3.1993381205
