70
CONF65
C -2.7396340333 0.6918914289 -0.7821497877
C -4.2164736320 0.4363511047 -0.3984011516
C -4.4049789613 -1.0150272182 -0.0964440372
C -5.4621130850 -1.8897577295 -0.1617506297
N -5.0343253842 -3.1550519519 0.2320226705
C -3.6942233702 -3.1119389096 0.5425289746
C -2.7674383797 -4.0684881991 0.9655150116
C -1.4603890423 -3.6280461747 1.1605231030
C -1.0623863220 -2.2878832188 0.9491229781
C -1.9863680290 -1.3335469560 0.5380235017
C -3.2924073074 -1.7762123665 0.3420584791
C -1.7577659433 0.1437649649 0.2961265051
C -0.3085704973 0.4538953504 -0.0641820568
C -0.1313628121 1.9570008564 -0.3074825687
C -1.1048094020 2.3943798803 -1.3942344907
N -2.4871408548 2.1342724836 -0.9641707110
C -3.4435139616 2.7982671082 -1.8747742207
C -3.5442703609 2.2098660094 -3.2577034151
C -4.6880173693 1.8380691828 -3.8295457236
C 1.3009586561 2.2747611448 -0.7050847966
O 1.5757082299 2.7396477414 -1.8100039770
N 2.3179560818 1.9250351309 0.1680763847
C 3.7020622178 1.9625518253 -0.3567048384
C 3.9995005111 0.9105672675 -1.4303810354
C 3.6104587593 -0.5184762156 -1.0685838306
N 4.1779073470 -0.9975533416 0.2019642900
C 5.6420441910 -1.0525137312 0.1720448403
C 3.6224059922 -2.3148106538 0.5297040764
C 2.0830633563 1.6703559337 1.5660572254
O 1.2540290613 2.3202125244 2.2043158223
N 2.8605004324 0.7063048942 2.0847709959
C 2.7369005233 0.3212576787 3.4865913455
C 1.5865774358 -0.6558310556 3.7227208924
H -2.5352888871 0.1349652112 -1.7212264949
H -4.4575868088 1.0590344528 0.4756246037
H -4.8789325391 0.7446232547 -1.2105205883
H -6.4911876718 -1.7345818362 -0.4555488301
H -5.6204513085 -3.9729023338 0.2645890458
H -3.0407269833 -5.1055116065 1.1324703995
H -0.7121703281 -4.3449858346 1.4856580994
H -0.0231217970 -2.0237839265 1.1185020737
H -1.9921892359 0.6816147026 1.2300187864
H 0.3493801365 0.1064573940 0.7381255536
H -0.0318642429 -0.0967460875 -0.9748808607
H -0.3692691552 2.4900384761 0.6168815347
H -0.9991876600 3.4680773954 -1.5809448645
H -0.8517073107 1.8704572750 -2.3332364535
H -4.4366907139 2.8200970387 -1.4139624365
H -3.1156750433 3.8435328186 -1.9555747620
H -2.6133938474 2.1042389186 -3.8140799845
H -5.6369830658 1.9316938218 -3.3042659016
H -4.7182685889 1.4378454542 -4.8389030279
H 4.3731411667 1.8459101309 0.4961995803
H 3.8776174027 2.9575069364 -0.7793384084
H 3.4662132765 1.1685760595 -2.3497397709
H 5.0681313452 0.9786435673 -1.6641310378
H 3.8971585336 -1.1883178813 -1.9010902440
H 2.5182254951 -0.5779559560 -0.9738749390
H 6.0083164873 -1.4414870999 1.1270102864
H 6.0606250800 -0.0524763360 0.0303732948
H 6.0152662809 -1.7053507039 -0.6375746643
H 4.0096187500 -2.6488951283 1.4978544941
H 2.5307668877 -2.2452439170 0.5967376916
H 3.8768818546 -3.0748677136 -0.2300466883
H 3.4125300153 0.0957132594 1.4462163952
H 3.6879452152 -0.1324486537 3.7855993284
H 2.5945282815 1.2258900174 4.0861224703
H 0.6337496078 -0.2058939835 3.4270117851
H 1.5286116788 -0.9249899437 4.7821191654
H 1.7321021572 -1.5717923698 3.1412562629
