40
CONF57
C 3.8158036097 0.8735499365 -0.9872860702
C 2.4799756715 0.1753137115 -0.8707745279
O 1.9623958710 0.2979170713 0.4851875060
P 0.9547843337 1.4671891469 0.9228878134
S 0.6513959701 2.9467964901 -0.2620802063
O 1.4909213799 1.8855417880 2.3666276486
C 1.8668746663 0.8860927852 3.3623476497
C 2.2337870035 1.6319709572 4.6234004588
O -0.3851610867 0.6213309388 1.4275736447
C -1.2325992464 -0.0162050351 0.5740116509
C -2.4508703969 -0.4457832284 1.0968379380
C -3.2992957067 -1.0943794059 0.2129663201
N -2.9635746965 -1.2768007530 -1.0798792892
C -1.7742750557 -0.8210108588 -1.4699546347
N -0.8729652556 -0.2042898379 -0.6817153611
C -1.3911442567 -1.0029595716 -2.9185414071
C -1.0899126980 0.3511474805 -3.5706266259
C -0.1957550330 -1.9558622021 -3.0402106849
C -4.6375941871 -1.6160232299 0.6342761980
H 3.7007107300 1.9479013683 -0.8202579021
H 4.2206597391 0.7215746049 -1.9932501478
H 4.5300770046 0.4734954908 -0.2621433917
H 2.5669388149 -0.9023979436 -1.0345639460
H 1.7436990830 0.5825066741 -1.5694643322
H 1.0182762894 0.2124913119 3.5253206347
H 2.7108064662 0.3078495771 2.9720278880
H 1.3831969202 2.2111133824 4.9914316726
H 3.0677862978 2.3139376868 4.4393235863
H 2.5314574343 0.9176478981 5.3971614062
H -2.7075252902 -0.2684492693 2.1338032601
H -2.2584032914 -1.4567609184 -3.4082572452
H -1.9536249290 1.0202473076 -3.5108815272
H -0.8360313982 0.2118712861 -4.6262425881
H -0.2506446011 0.8433848993 -3.0702557321
H -0.4143808543 -2.9273869127 -2.5862218215
H 0.0522665360 -2.1169324840 -4.0940404960
H 0.6795029575 -1.5312920704 -2.5405078702
H -4.8243433990 -1.4441889990 1.6960894259
H -5.4242441548 -1.1318377822 0.0474436334
H -4.6989724425 -2.6883113123 0.4251424652
