44
CONF112
C -5.1130158383 1.9816004973 1.6144942077
N -3.7999952481 1.6516772892 1.0460600857
C -3.9236916802 0.9043058291 -0.2261526213
C -4.3380495035 -0.5366035642 0.1866720877
C -3.7574165740 -0.6912578799 1.6165708956
C -3.0667989990 0.6757590967 1.8845414847
C -1.6037315818 0.6742721525 1.4198171128
C -1.5257981216 0.2175576321 -0.0294249896
C -2.5502650543 0.9238996597 -0.9108859133
O -0.1680997247 0.5154361808 -0.4958549815
C 0.3315426510 -0.2518743488 -1.4767944239
O -0.2707953035 -1.1568931282 -2.0204304068
C 1.7640870599 0.1439037737 -1.7882657029
C 2.1930689951 -0.4440376173 -3.1299950331
O 3.4959176035 0.0742032183 -3.4162269204
C 2.6672635930 -0.2877908916 -0.6465425766
C 3.4461300319 0.6482797860 0.0345622016
C 4.2809879020 0.2497024832 1.0766402241
C 4.3401856160 -1.0902817463 1.4516315886
C 3.5608085034 -2.0299890594 0.7784083679
C 2.7298078655 -1.6311403835 -0.2644903082
H -5.6362258674 2.6643972147 0.9369516800
H -5.7642590988 1.1084569153 1.7876626004
H -4.9721261079 2.4936798621 2.5720698988
H -4.6636318374 1.3853229465 -0.8737221997
H -5.4268318476 -0.6349527321 0.1925107650
H -3.9481886572 -1.2832215192 -0.5117482838
H -3.0507071692 -1.5224558747 1.6991383408
H -4.5521484508 -0.8681902981 2.3461001247
H -3.1163356400 0.9730580831 2.9367792058
H -1.0020574467 0.0106519134 2.0507463427
H -1.2024601933 1.6902577278 1.5064660716
H -1.6581672635 -0.8662726456 -0.0946564378
H -2.2411808681 1.9646279086 -1.0610891302
H -2.6035403233 0.4336063258 -1.8885667005
H 2.2070095032 -1.5404570915 -3.0729094943
H 1.4722712891 -0.1471051771 -3.9041819678
H 4.8851728785 0.9878595044 1.5952519548
H 4.9888270960 -1.4015723610 2.2644506280
H 3.5987087415 -3.0758870332 1.0672745270
H 2.1239526227 -2.3700648225 -0.7825815203
H 3.4001741018 1.6941629630 -0.2556773174
H 1.7979027502 1.2371249496 -1.8576757165
H 3.7867309733 -0.3115838013 -4.2511071871
