39
CONF140
C 3.4031090601 -3.3741141099 2.0315125939
C 2.9710604474 -1.9121636018 2.1137152017
C 3.5843515221 -1.0599013804 1.0036957556
C 3.1564230251 0.4062429782 1.0545682457
N 1.7275685165 0.5905772401 0.7959274701
C 1.2576088374 0.9285926133 -0.4143850348
O 1.9217910420 1.2291769037 -1.3944847820
N -0.1855303713 0.9893396116 -0.4822888712
C -0.8890493216 2.0511928790 -1.0510622312
C -0.4736187129 3.2163760976 -1.6838186956
C -1.4773867649 4.0904474008 -2.0936998683
C -2.8356282521 3.8074744009 -1.8797888377
C -3.2404663541 2.6401547813 -1.2419736536
C -2.2494465598 1.7531254787 -0.8237129809
N -2.3760651967 0.5257719165 -0.1863433510
C -1.1479445371 0.1105311967 -0.0048256592
N -0.8262385839 -1.0888807344 0.6277368585
C -0.1258866668 -2.1353059979 0.0434559968
O -0.0653202070 -3.2441622940 0.5359523887
O 0.4664520742 -1.7513059369 -1.0956137905
C 1.2180033461 -2.7842405979 -1.7821323474
H 2.9578740241 -3.9664969508 2.8367315050
H 4.4924125553 -3.4649451556 2.1061254367
H 3.0942514188 -3.8180111678 1.0787738837
H 3.2606655022 -1.4921540259 3.0861774810
H 1.8760840690 -1.8564046525 2.0639303740
H 4.6788367653 -1.0924308118 1.0810554509
H 3.3240193120 -1.4730806663 0.0204813937
H 3.7014000112 0.9926008512 0.3110283652
H 3.3692180809 0.8284653587 2.0431689118
H 0.5736764159 3.4340815352 -1.8537132907
H -1.1994830397 5.0124899836 -2.5938951939
H -3.5834388453 4.5164765427 -2.2201039510
H -4.2890463536 2.4192196583 -1.0715336095
H 1.6844701283 -2.2789374697 -2.6264329122
H 0.5399357328 -3.5683336716 -2.1261273758
H 1.9738652532 -3.2064821335 -1.1173925855
H 1.0730376722 0.4194567985 1.5447062998
H -1.4888191805 -1.3886681213 1.3309015855
