50
CONF9
C 1.1567183024 1.1052432395 2.3356061878
Si 2.2485103648 0.7867191186 0.8582398699
O 1.6306672373 1.4834098284 -0.5006982291
Si 0.3846395780 2.3526625807 -1.1342818875
O -0.9701038947 1.4185199150 -1.2087370442
Si -2.1456811718 0.6761816318 -0.3276909742
O -1.4508459287 -0.5537468226 0.5147478125
Si -1.2986830086 -2.1662419495 0.8053953723
O 0.3045221493 -2.5479203171 0.7466896765
Si 1.6379613240 -2.1152059566 -0.1265625481
O 2.3711057705 -0.8365298664 0.6087446353
C 1.1499642079 -1.6740907479 -1.8727357345
C 2.8292711110 -3.5418420647 -0.0575687554
C -1.8911834218 -2.5084222009 2.5353916515
C -2.2162876821 -3.1635062035 -0.4748643926
C -3.4088063705 0.0366383235 -1.5362324489
C -2.8771164279 1.8604483915 0.9111210829
C 0.0659434089 3.8662883201 -0.0915428965
C 0.8472321788 2.7796235013 -2.8842279372
C 3.9732218497 1.4415955342 1.1036085317
H 0.1376284562 0.7493077336 2.1502559597
H 1.1137749214 2.1731813266 2.5750936872
H 1.5470849750 0.5769732339 3.2127349245
H 0.7400956283 -2.5478511815 -2.3915198539
H 2.0194540733 -1.3194233303 -2.4371379808
H 0.3952711531 -0.8803836403 -1.8816268090
H 2.3910108046 -4.4380977020 -0.5093023695
H 3.7531140153 -3.3051915192 -0.5960721066
H 3.0906273899 -3.7758888562 0.9802744396
H -1.7480261023 -3.5612597953 2.8010216748
H -1.3374579791 -1.8962176109 3.2559646840
H -2.9563183498 -2.2731544006 2.6357767618
H -1.8576975220 -2.9334711158 -1.4839400408
H -3.2921381378 -2.9620394776 -0.4411687550
H -2.0647534927 -4.2338730966 -0.2961909258
H -4.2022045012 -0.5193291875 -1.0258467656
H -3.8709408433 0.8709829484 -2.0754149135
H -2.9439511593 -0.6277841852 -2.2724168483
H -2.1335297370 2.1394357399 1.6654111274
H -3.2311467146 2.7756441664 0.4247000801
H -3.7250211588 1.3979343791 1.4285500882
H -0.7564845612 4.4563802553 -0.5107386377
H -0.1999779768 3.5984498908 0.9359986230
H 0.9578242524 4.5018818029 -0.0566665193
H 0.0492071563 3.3490168899 -3.3724234725
H 1.0201686626 1.8675760884 -3.4663249424
H 1.7623750431 3.3805051345 -2.9126933217
H 4.4538748298 0.9692261610 1.9669935976
H 4.5895560196 1.2438128658 0.2197067434
H 3.9575312840 2.5238324490 1.2725998940
