37
CONF4
C -3.1706357646 -0.4692378601 1.4579845002
C -1.6758094819 -0.1428221469 1.3695995853
C -0.9054064926 -0.9205385412 2.4382996300
C -1.1099789162 -0.4240038061 -0.0543050502
C 0.3969293101 -0.1898737659 -0.0799052149
C 0.9022594833 1.1055499658 0.0516360726
C 2.2676234045 1.3392389327 0.0767625375
C 3.1440476086 0.2666926196 -0.0397925288
C 2.6726814704 -1.0303989692 -0.1813328763
C 1.2956496222 -1.2456784268 -0.1981537791
O 4.4943790894 0.6339279364 -0.0095134309
C 5.4687982771 -0.3028035179 -0.0663567688
F 6.6391016156 0.3347396692 0.0086272135
F 5.4486664619 -1.0145292141 -1.2156358981
F 5.4035423138 -1.1894590252 0.9525371651
C -1.7476537396 0.4468992992 -1.1379356277
C -2.3635009439 1.6772400286 -0.9190214462
N -2.8788640558 2.4182051082 -1.9058589132
C -2.7673585661 1.9146445877 -3.1352541359
N -2.1937879303 0.7565606107 -3.4768888155
C -1.6885946525 0.0383933752 -2.4734241977
O -1.3150750350 -1.8033753000 -0.3906348107
H -3.7550120566 -0.0217412445 0.6481303140
H -3.5792709168 -0.1031952940 2.4042666402
H -3.3312459864 -1.5536901714 1.4449809654
H -1.5343119537 0.9273315498 1.5672758926
H -1.3660351937 -0.7628610143 3.4180913205
H -0.9260740568 -1.9925908799 2.2196836806
H 0.1389243719 -0.6048590157 2.4978316163
H 0.2265454838 1.9521220266 0.1262771079
H 2.6667626551 2.3421446768 0.1758995129
H 3.3429458174 -1.8740444009 -0.2770384363
H 0.9224518430 -2.2565131136 -0.3007984347
H -2.4575200339 2.0934569435 0.0826012194
H -3.1859888602 2.5096026486 -3.9463008739
H -1.2120597966 -0.9055431141 -2.7310534273
H -2.2671233946 -1.9489912469 -0.4416748979
