54
CONF19
C 2.0827022732 0.1849847098 4.0481210251
C 1.6923337107 -0.3300801919 2.6708400550
C 0.8714062803 0.6604891686 1.8811466760
O 0.5869989578 1.7799868399 2.2563671048
O 0.5105201234 0.1119892043 0.7055938120
C -0.3427695257 0.7990765326 -0.2768610351
C -1.7150548492 1.0789276512 0.3884642047
C -2.2569009369 -0.0858354563 1.1813595044
C -2.1686504223 -0.0888285484 2.5773535021
C -2.6394358526 -1.1666892148 3.3241399328
C -3.2122552062 -2.2631951206 2.6850400530
C -3.3217373940 -2.2652874304 1.2958392927
C -2.8507262791 -1.1864151424 0.5522990952
C -0.4497325779 -0.1981915702 -1.4296770858
C -1.4403127290 -0.0499859759 -2.4076722681
C -1.5173782715 -0.9219237658 -3.4895075100
C -0.6054897422 -1.9657993637 -3.6185509160
C 0.3852058246 -2.1224218005 -2.6547181791
C 0.4645557686 -1.2469714826 -1.5739909100
C 0.3538986371 2.1199880128 -0.7302884131
C -0.4432648613 2.9064254972 -1.7714284358
C 1.7752210498 1.8384108667 -1.2382519371
N 2.5338724758 3.0547003707 -1.5555434562
C 3.7869421644 2.6817702395 -2.2146112728
C 2.8274892044 3.8299453274 -0.3487171940
H 2.6751476990 -0.5673599359 4.5753163845
H 1.1954432072 0.4066167681 4.6476736755
H 1.1122161654 -1.2581722629 2.7380011391
H 2.5768499390 -0.5742586379 2.0689512949
H -1.6025482302 1.9465658824 1.0427489122
H -2.4265616279 1.3535429126 -0.3928350756
H -1.7312975444 0.7659496972 3.0848884535
H -2.5612220475 -1.1462238511 4.4071078191
H -3.5804527200 -3.1043302106 3.2642605686
H -3.7809520156 -3.1080854498 0.7877756077
H -2.9491399248 -1.1981936708 -0.5284835145
H -2.1749971756 0.7435137025 -2.3344197581
H -2.2995918474 -0.7848123154 -4.2298225385
H -0.6686509065 -2.6493467342 -4.4593846644
H 1.1049027020 -2.9310790899 -2.7390966564
H 1.2463199285 -1.3857449337 -0.8379237456
H 0.4129782152 2.7268019472 0.1757616281
H 0.0391730693 3.8746956612 -1.9247355519
H 1.7049263139 1.2428078685 -2.1576062483
H 2.3253621772 1.2257919735 -0.4968089990
H 4.4325526012 2.0513202442 -1.5717932366
H 4.3484928774 3.5837549384 -2.4794212047
H 3.5732147434 2.1251671250 -3.1331545402
H 3.4533260253 4.6887759811 -0.6115377648
H 1.9067876614 4.2121414070 0.1015558868
H 3.3630477686 3.2309920062 0.4146689568
H 2.6757814774 1.0999879574 3.9714216076
H -0.4627894106 2.3903942427 -2.7362604565
H -1.4724297431 3.0911097342 -1.4515085685
