70
CONF136
C -2.8059880208 0.3605958145 -0.9384885960
C -4.2872790841 0.0680676839 -0.5918140521
C -4.4307712129 -1.3514243329 -0.1472433885
C -5.4542769592 -2.2678238971 -0.1572878485
N -4.9974649158 -3.4694210596 0.3774122212
C -3.6721674884 -3.3436310922 0.7261995802
C -2.7291003209 -4.2156393425 1.2760467381
C -1.4471707084 -3.7064546191 1.4695023391
C -1.0893365755 -2.3799562275 1.1361603646
C -2.0298643735 -1.5087706000 0.5969152635
C -3.3100171895 -2.0204607065 0.4033794781
C -1.8419862693 -0.0551936197 0.2144901647
C -0.3905762664 0.2550878986 -0.1379104063
C -0.2390932457 1.7264179884 -0.5351625314
C -1.2094839982 2.0370847666 -1.6644475701
N -2.5957089909 1.7951014032 -1.2334149714
C -3.5082928372 2.3009163086 -2.2756932293
C -3.3768081594 3.7819139953 -2.4658741064
C -3.2732002456 4.3854898025 -3.6474449247
C 1.1908101010 2.0245606022 -0.9578337612
O 1.4646020376 2.3700277483 -2.1058438016
N 2.2084769685 1.7868379366 -0.0484391186
C 3.5942239149 1.7856453890 -0.5696950704
C 3.9112038852 0.6237935372 -1.5170690817
C 3.5372353096 -0.7611948588 -1.0002072698
N 4.1037875780 -1.0900726900 0.3175961761
C 5.5686069491 -1.1298553682 0.3012065205
C 3.5622269039 -2.3691829308 0.7878584750
C 1.9705182238 1.6862088938 1.3682315206
O 1.1306678001 2.3923340399 1.9276832736
N 2.7570773965 0.7957479214 1.9935942402
C 2.6271190714 0.5664046705 3.4285956302
C 1.4715641743 -0.3742253235 3.7657265048
H -2.5407469448 -0.2545135090 -1.8255702139
H -4.6011263842 0.7671267444 0.1974682536
H -4.9282897926 0.2493402224 -1.4579826435
H -6.4765693924 -2.1824210529 -0.4993052240
H -5.5558296406 -4.3012259525 0.4767679398
H -2.9715888439 -5.2403736682 1.5388268090
H -0.6866671674 -4.3565393913 1.8921589081
H -0.0675149074 -2.0607587365 1.3152637705
H -2.1174006201 0.5633087975 1.0849285380
H 0.2515798891 0.0120596921 0.7137160556
H -0.0756394115 -0.3820351609 -0.9769420345
H -0.4913313613 2.3494694408 0.3271341472
H -1.1145038584 3.0871092404 -1.9541497198
H -0.9586088523 1.4306632799 -2.5563140753
H -3.3619583805 1.7814079063 -3.2431123439
H -4.5382243080 2.1130711214 -1.9558522269
H -3.4119207367 4.3749795252 -1.5512329867
H -3.2269092948 3.8127996361 -4.5711226065
H -3.2345332854 5.4674652611 -3.7294792904
H 4.2628069205 1.7764596740 0.2931598853
H 3.7571160877 2.7289285689 -1.1016521395
H 3.3802371621 0.7710255744 -2.4619694280
H 4.9802574857 0.6784649237 -1.7521989079
H 3.8353104546 -1.5153463367 -1.7527597368
H 2.4453743245 -0.8222205362 -0.9028042660
H 5.9548538879 -1.8664359155 -0.4262013036
H 5.9330936881 -1.4026823022 1.2963105327
H 5.9766314145 -0.1473732641 0.0489052303
H 3.8316858463 -3.2066407193 0.1202029203
H 3.9463924641 -2.5864384492 1.7898599250
H 2.4694106919 -2.3067399852 0.8396412841
H 3.3173692920 0.1238322851 1.4279860127
H 3.5751343580 0.1433930369 3.7777987559
H 2.4873666198 1.5313773263 3.9262292679
H 0.5223984503 0.0443867350 3.4173714101
H 1.4075746410 -0.5240962877 4.8481196571
H 1.6152345440 -1.3497577482 3.2900717962
