39
CONF3
C -3.6912317583 -1.5381452459 -1.1013904234
C -4.2331290187 -1.8101839318 0.1522270064
C -3.6089497748 -1.3075067080 1.2898009722
C -2.4511211258 -0.5372014745 1.1900892643
C -1.9381508668 -0.2825652692 -0.0690589548
C -2.5365987479 -0.7756242900 -1.2215874495
O -0.7273735022 0.4076147059 -0.1388113748
C -0.6686768574 1.6130761661 -0.7951042382
C 0.6044436245 2.1477897248 -1.0855466886
C 0.6006192842 3.3910752801 -1.7199274207
C -0.5922074211 4.0278148938 -2.0309873465
C -1.7778526511 3.3917889670 -1.6936303804
N -1.8134140278 2.2018706758 -1.0824580432
C 1.9585135762 1.5495301164 -0.8128668289
O 2.9744906180 2.1331784887 -1.1803192388
N 1.9730504485 0.3546632566 -0.1495030425
C 3.0848994176 -0.4080456844 0.2197075202
C 2.8291486061 -1.6127276213 0.8892481064
C 3.8178105090 -2.4728422718 1.3172481063
C 5.1280589143 -2.1005445678 1.0578881968
C 5.4474760518 -0.9257533452 0.4024405451
C 4.4252436271 -0.0789230224 -0.0167777907
F 6.1206718199 -2.9231678308 1.4655327195
F 1.5348491060 -1.9434279212 1.1260736192
C -4.1453570028 -1.6346731040 2.6535518995
F -3.9762015108 -0.6124975974 3.5254453913
F -5.4646955474 -1.9281484548 2.6295673962
F -3.5138957301 -2.7117920687 3.1930904871
H -4.1718349171 -1.9277874849 -1.9921469672
H -5.1330419620 -2.4069752147 0.2416964911
H -1.9566517924 -0.1369320819 2.0676392680
H -2.1036754052 -0.5592766205 -2.1918067593
H 1.5593411798 3.8355159189 -1.9626161076
H -0.6022870185 4.9931373995 -2.5232319441
H -2.7420786691 3.8451766303 -1.9128563255
H 1.0723180945 -0.0329822978 0.1010239382
H 3.5736402701 -3.3941520759 1.8318572181
H 6.4852450756 -0.6723402718 0.2203095579
H 4.6586063806 0.8419842276 -0.5295492760
