44
CONF3
C 4.8683546303 1.8342324537 -2.1699936055
C 3.7785733433 1.1731000242 -1.3326156063
C 2.5853474353 0.5900867275 -2.1786624469
N 1.4340602430 0.6110835285 -1.3100720040
C 1.2996826456 1.7269216815 -0.3683066705
S 2.9771765079 2.4818639831 -0.2490247819
C 0.8139059606 0.6954028244 0.7105562658
C 0.9949738488 -0.3553616311 -0.4137571280
O 0.8868547817 -1.5551620785 -0.5091873631
N -0.4530897942 0.8350782008 1.3512232183
C -1.6207878060 0.7404604410 0.6723244310
O -1.6755320518 0.5755022438 -0.5458411485
C -2.8913646661 0.7843845291 1.5341118673
C -3.3523646644 -0.6471549390 1.7292070440
C -2.7008847315 -1.4947080652 2.6291816677
C -3.0989735413 -2.8177484375 2.7798735567
C -4.1573492028 -3.3139569977 2.0152565384
C -4.8150689825 -2.4813174858 1.1096310640
C -4.4092691593 -1.1590112324 0.9740011517
O -4.5917971902 -4.6052298432 2.1151851646
N -2.6383948229 1.4355512238 2.8263176147
C 2.3096494094 1.4000419846 -3.4361832116
O 3.0078242173 0.9224450149 -4.4811902859
O 1.5726354752 2.3581679425 -3.4898118572
C 4.3683145598 0.0556581536 -0.4718204784
H 5.6490434506 2.2307409509 -1.5147935681
H 4.4799296551 2.6561358958 -2.7772138760
H 5.3264567283 1.0899518019 -2.8292876267
H 2.8166270770 -0.4424639472 -2.4587426656
H 0.5651356871 2.4846632530 -0.6497168098
H -0.5097786797 0.9811117688 2.3513615593
H -1.8726873595 -1.1192423621 3.2219653270
H -2.5880801765 -3.4685657317 3.4848800386
H -5.6393174868 -2.8757448897 0.5242403949
H -4.9257404447 -0.5136424813 0.2692544825
H -4.0528672783 -5.0768416735 2.7644482796
H -2.5751654975 2.4404904296 2.6933790000
H -3.4328955699 1.2743249263 3.4365835783
H 5.1146814813 0.4656403678 0.2133594842
H 3.6035672706 -0.4518902241 0.1225235513
H 4.8542012334 -0.6855526499 -1.1170110120
H 2.8383998278 1.4926368504 -5.2517859848
H -3.6398734350 1.3002821491 0.9152131072
H 1.5883605995 0.5443945250 1.4682506273
