33
CONF274
C -3.6379140719 -0.3908812303 1.6825508457
C -2.9338265376 -1.4926899385 0.8980288823
C -1.5246680439 -1.8039521565 1.3861251196
S -0.3418060420 -0.3685276053 1.3043762006
P -0.1712266102 -0.2669345043 -0.7869706449
O -0.2849243209 -1.5661468649 -1.4813924759
O -1.1855160535 0.8218841810 -1.3640120906
C -1.2030047392 2.1913341293 -0.8609832560
C -2.5272329469 2.8010908614 -1.2544129074
O 1.2357160954 0.5548132262 -0.9669877374
C 2.4340229034 0.0240471005 -0.5353047587
C 2.9229004487 -1.1708206003 -1.0514829681
C 4.1561099396 -1.6586403472 -0.6378907347
C 4.8926309470 -0.9315221634 0.2888007826
C 4.4267061324 0.2653488439 0.8161952245
C 3.1867793269 0.7358518518 0.3999194705
Cl 2.5677420700 2.2256957099 1.0583905193
Br 6.5953297753 -1.5843555693 0.8545792855
H -3.7023322913 -0.6426683553 2.7468365877
H -3.0987300082 0.5575213868 1.5965752056
H -4.6548842628 -0.2376156797 1.3107365749
H -3.5059420740 -2.4271453108 0.9758957052
H -2.9012232308 -1.2437837004 -0.1688362572
H -1.0739323884 -2.6197167551 0.8165189016
H -1.5244607017 -2.0710997651 2.4488903720
H -1.0775700347 2.1734983889 0.2287120482
H -0.3557978940 2.7243971453 -1.3043185899
H -2.6534673559 2.7861042226 -2.3399390283
H -3.3561795341 2.2536665115 -0.7977238900
H -2.5660263765 3.8400885974 -0.9134471924
H 2.3192525054 -1.7133349498 -1.7706228851
H 4.5379061070 -2.5899051597 -1.0373498338
H 5.0055672832 0.8243987162 1.5399709420
