40
CONF68
C -1.6997109590 -2.2835589247 2.5045526207
C -0.4006809781 -2.1531306901 1.7010425701
C 0.4826114089 -3.3755521702 1.9999174501
C -0.6270641228 -2.0745899366 0.1855489322
C -1.8549612187 -2.3654793263 -0.4101855709
C -2.0081292998 -2.3079088910 -1.7956582718
C -0.9351862323 -1.9599379871 -2.6096460520
C 0.2982661709 -1.6743171540 -2.0260348391
C 0.4472309259 -1.7345670441 -0.6448728522
N 0.3573961614 -0.9728568758 2.1649618262
C -0.0496226149 0.3109731982 1.9025484456
O -1.1843858137 0.5920121355 1.5042575475
N 0.8883780962 1.2863232370 2.1672589399
C 0.6181466615 2.6652018048 1.8257702237
C 0.7600551497 3.0061778582 0.3528608180
C 1.1307956677 2.0565846390 -0.6000591894
C 1.2490410144 2.3830742513 -1.9476365072
C 0.9997504366 3.6839024365 -2.3739372030
C 0.6315076231 4.6557845240 -1.4480844749
C 0.5186702009 4.3013995601 -0.1096968971
Cl 0.0478836114 5.5568544438 1.0430821564
H -2.3817421600 -1.4584377455 2.2945443980
H -1.4545109073 -2.2763140297 3.5702412825
H -2.1987984285 -3.2299967324 2.2781721596
H -0.0285231295 -4.2820053542 1.6665119165
H 1.4412780863 -3.3106268096 1.4752713143
H 0.6690763039 -3.4537313824 3.0763644152
H -2.7112555832 -2.6279770287 0.2002953825
H -2.9755025948 -2.5303682467 -2.2361647650
H -1.0567479775 -1.9104303592 -3.6872113396
H 1.1460512022 -1.4020785719 -2.6478988531
H 1.4132981706 -1.5039453691 -0.2043143662
H 1.3368608395 -1.1249215701 2.3566045194
H 1.8540087455 1.0204440151 2.2865330143
H 1.2961336888 3.2990068025 2.4087292877
H -0.3988256202 2.9124034437 2.1482890871
H 1.3228336078 1.0389294205 -0.2767488935
H 1.5345471276 1.6183328789 -2.6627508779
H 1.0885979194 3.9499326203 -3.4221142542
H 0.4332279312 5.6753956389 -1.7592975058
