41
CONF31
C -2.3484736149 -3.0245758066 -0.1116026015
C -0.8842485401 -2.9992341548 -0.5426914193
C -0.1964726693 -1.6163799883 -0.4160943087
C -0.3519330284 -1.1044631697 1.0229719022
O 0.1125197364 -1.6449530231 2.0109136354
C -1.1886282751 0.1107953655 0.9985205104
C -1.5863230752 0.9188140965 2.0575079841
C -2.3635981234 2.0352620927 1.7634930133
C -2.7379253618 2.3296645314 0.4443779948
C -2.3393193613 1.5188217618 -0.6141410576
C -1.5556178452 0.4091168001 -0.3191431987
C -0.9585565192 -0.5769704719 -1.2435298160
O -1.0528258275 -0.5766219108 -2.4587468797
C 1.2835865433 -1.7587462789 -0.8300295658
C 1.9978257411 -0.4663421301 -1.1818474499
C 2.2646079724 -0.1562500828 -2.5899278977
O 3.3116181409 -0.7021407608 -1.7534938752
C 1.9428997582 0.6435549369 -0.1763749739
C 2.4403722098 0.4160724020 1.1097593220
C 2.3319176410 1.4198915995 2.0598012773
C 1.7467784588 2.6481541501 1.7737726547
C 1.2644600100 2.8669251376 0.4871836089
C 1.3594966421 1.8737832953 -0.4828690068
Cl 2.9392329411 1.1200772360 3.6864095926
H -2.9584870946 -2.3431036744 -0.7143768129
H -2.4686544403 -2.7459889573 0.9407468868
H -2.7545694059 -4.0320208246 -0.2365724260
H -0.2986700889 -3.7060233689 0.0568433745
H -0.7948256861 -3.3047592694 -1.5911545752
H -1.2915384934 0.6881707986 3.0761267020
H -2.6859213593 2.6931345549 2.5641818981
H -3.3447412149 3.2083072254 0.2505362540
H -2.6200654928 1.7472988178 -1.6371493360
H 1.3469033186 -2.4248044143 -1.6960687629
H 1.8086332259 -2.2476954574 0.0005313501
H 2.4240997738 0.8750675056 -2.8988234053
H 1.8906956130 -0.8348906325 -3.3546844467
H 2.8923854453 -0.5360280499 1.3658982120
H 1.6670350583 3.4130687580 2.5377345347
H 0.7999472484 3.8179381998 0.2475705671
H 0.9563800285 2.0480725896 -1.4749190517
