37
CONF12
C 4.2920081844 -1.0777069590 2.4847922402
C 4.5403806693 -1.3100075513 1.0072728378
C 5.8816274647 -0.7951885011 0.5308330669
O 3.5306038692 -0.5574948557 0.2321230498
C 2.3486811976 -1.1395211831 0.0333088458
O 2.0154150941 -2.2223394583 0.4786830076
C 1.4171542158 -0.2829100660 -0.7619315149
C 1.7524930858 0.4483175015 -1.9085624365
C 0.7998779611 1.2073291494 -2.5773960191
C -0.4897849722 1.2381145091 -2.0799029828
C -0.8876612916 0.5171080335 -0.9531839410
C 0.0927430498 -0.2459274248 -0.3218402350
C -2.2612595882 0.5557554951 -0.4481689001
N -3.3102847047 0.3502206488 -1.2587179526
N -4.4000824709 0.4465406102 -0.4961139391
C -4.0942640107 0.7029094030 0.8049188513
C -2.7093472427 0.7836642372 0.8690967767
Br -1.6265944752 1.2135340213 2.3449203296
C -5.1540976133 0.8659402696 1.8391859377
F -5.9048114351 1.9778152743 1.6220922450
F -4.6361946963 0.9666237794 3.0735206699
F -6.0147815262 -0.1834902210 1.8421055498
C -5.7165064006 0.2074726393 -1.0847087075
F -1.3864595024 2.0102891158 -2.7191672100
Cl 3.3508285503 0.3859340370 -2.6161005316
H 4.3833199441 -0.0131301700 2.7222077626
H 3.2991841362 -1.4276857101 2.7779314830
H 5.0381498087 -1.6277447195 3.0660778008
H 4.4162395582 -2.3671580870 0.7550778911
H 6.6778241652 -1.3267403549 1.0597575921
H 5.9806413973 0.2744294143 0.7402066311
H 6.0053802658 -0.9621301383 -0.5424054893
H 1.0479748635 1.7684916500 -3.4703739483
H -0.1753624252 -0.8394588220 0.5450068691
H -5.6157373974 0.3311368443 -2.1625358545
H -6.4333563416 0.9338682473 -0.6984314812
H -6.0539417889 -0.8068610551 -0.8558832814
