25
CONF2
C -0.6522884658 1.8334104805 -0.3013866929
C -1.6547729847 2.4206841589 -1.2845355635
S -2.3247063159 0.9598462388 -2.1929458053
C -1.9297280257 -0.0962768776 -0.8247284398
N -2.2930541930 -1.3532788012 -0.7072245091
C -3.0745772238 -1.9073042859 -1.5973803201
N -3.7608492007 -2.5046201077 -2.3336307313
N -1.1889265244 0.5294155065 0.1021701492
C -0.6221102983 -0.1540418880 1.2662227020
C 0.8343210495 -0.4930946142 1.0658172685
C 1.8082792890 0.0327503618 1.9072647876
N 3.1182978067 -0.2321115076 1.7801796139
C 3.4740218543 -1.0282562300 0.7958807219
C 2.6030954777 -1.6140995865 -0.1197066718
C 1.2548950894 -1.3319013079 0.0297376556
Cl 5.2038408287 -1.3635239308 0.6405126396
H 0.3335001376 1.6988789472 -0.7674222093
H -0.5433886353 2.4706591606 0.5813403771
H -1.1848509918 3.1013128238 -1.9949756185
H -2.4844597376 2.9184269680 -0.7776224516
H -1.2091170163 -1.0596027267 1.4395599487
H -0.7372346498 0.5025570688 2.1347319746
H 1.5292722756 0.6967811859 2.7235541398
H 2.9667275320 -2.2615718440 -0.9080318615
H 0.5338127055 -1.7650387904 -0.6573809769
