47
CONF65
C 4.2134922873 0.0384155123 4.3840229443
C 4.1371446847 0.8842181761 3.1060068701
C 3.6604237733 2.3083075426 3.4215886777
C 3.2589757548 0.2283133788 2.0602883019
C 3.7884143774 -0.1682096423 0.8303775494
C 2.9934770597 -0.7698736742 -0.1437850396
C 1.6501362219 -0.9676293036 0.1301178495
C 1.0862247506 -0.5922607894 1.3408770820
C 1.8978260103 0.0028778573 2.2998536183
O 0.8230584831 -1.6027087485 -0.8203993595
P 0.3295330354 -0.7665646037 -2.0988123949
O 1.3300818581 -0.3895551088 -3.1154436125
O -0.4474468443 0.4540110552 -1.3909503453
C -0.4365450440 1.7550510846 -1.9139497525
C -1.0221263713 2.0271860700 -3.1424856044
C -1.0331036753 3.3437743233 -3.5971239312
C -0.4730987143 4.3607084669 -2.8267657489
C 0.1050472531 4.0615409338 -1.5946723952
C 0.1294365298 2.7492727149 -1.1293240972
O -0.7901123048 -1.7416186791 -2.6961008503
C -1.8944962880 -2.1640027886 -1.9288757258
C -3.0474418662 -1.3925789296 -1.9322015070
C -4.1530705777 -1.8462284815 -1.2166931107
C -4.0940040395 -3.0506542783 -0.5189329776
C -2.9255167142 -3.8095737231 -0.5370001329
C -1.8110164005 -3.3689196546 -1.2463518087
H 4.5690717981 -0.9734706629 4.1660921073
H 3.2291841060 -0.0398762085 4.8581875478
H 4.8985504632 0.4985696602 5.1036765803
H 2.6622308877 2.2934665303 3.8726435182
H 4.3429427749 2.7893207768 4.1299434608
H 3.6157632129 2.9191569472 2.5144512167
H 4.8432506897 -0.0074801482 0.6259040631
H 3.4073915168 -1.0795666941 -1.0973297681
H 0.0295563792 -0.7621936882 1.5188659406
H 1.4572712264 0.2980630590 3.2475010091
H -1.4577937520 1.2256614417 -3.7304124822
H -1.4848354026 3.5715776915 -4.5571965661
H -0.4871261929 5.3843086470 -3.1861091965
H 0.5437182562 4.8497232287 -0.9912708663
H 0.5787836832 2.4909143129 -0.1758992696
H -5.0627081927 -1.2544231073 -1.2090111562
H -4.9589646276 -3.3994987864 0.0355312747
H -2.8769991351 -4.7506994028 0.0012222831
H -0.8926078239 -3.9446523072 -1.2755908236
H 5.1470169799 0.9506837227 2.6826689686
H -3.0746432784 -0.4595063410 -2.4844390610
