33
CONF57
C 4.9830979943 0.5417897061 -1.1835863371
C 5.2162673896 -0.7361875889 -2.0001605238
O 6.4103108660 -0.6140446325 -2.7709706037
C 3.9732486349 0.4536123252 -0.0537666022
C 2.4825792091 0.4751643453 -0.5057820484
C 1.4322072885 0.1614406231 0.6158635819
C -0.0221756549 0.6249544282 0.2444220763
C -1.1308533607 -0.0743576297 1.1091613043
C -2.5038794113 0.6857383295 1.0772612332
C -3.7110820991 -0.2051662510 1.5288207916
C -4.9861788008 0.6099173605 1.9250052994
F -6.0172781296 -0.2366759185 2.0462664651
F -4.8110130776 1.2379246594 3.0919945023
F -5.2751490689 1.5127799754 0.9770326171
F -3.3508551838 -0.9461494962 2.6021684984
F -4.0501572646 -1.0275014418 0.5138164868
F -2.4262933529 1.7576519825 1.8976741857
F -2.7429539472 1.1121882812 -0.1838224936
F -0.7113305699 -0.1416403203 2.3919510628
F -1.3204741934 -1.3265640949 0.6355278857
F -0.1081243321 1.9619265311 0.4301838879
F -0.2566383629 0.3415040916 -1.0568563170
F 1.7935982520 0.7800903263 1.7592140289
F 1.4181260114 -1.1765556018 0.8224653562
F 2.2247755893 1.7042900864 -1.0243300455
F 2.3212240486 -0.4458273684 -1.4916675775
F 4.1668008857 -0.6837825054 0.6837269402
F 4.1559991882 1.5202655815 0.7828978812
H 5.9300386745 0.8079134164 -0.7011746764
H 4.6974186718 1.3796963564 -1.8297343277
H 4.3575601540 -0.9719079212 -2.6382594724
H 5.3793635482 -1.5808720082 -1.3261367361
H 6.2389418003 -0.0163523416 -3.5066912032
