32
CONF24
C 3.0011432390 1.1488640869 -2.9337065816
C 2.1577695675 0.6432906055 -1.7971330022
C 1.4359386367 1.5262616419 -0.9901173982
C 0.6776964127 1.0632872293 0.0782957688
C 0.6322584121 -0.3008614497 0.3573247637
C 1.3573577410 -1.1968510556 -0.4272635668
C 2.1050376961 -0.7212932145 -1.4965772045
N -0.1902559404 -0.7444274254 1.4526371603
S 0.5700625172 -1.1300565986 2.9348744864
C 0.2638991064 0.4090854820 3.8890194890
F 0.8940517578 1.4750203243 3.3356735249
Cl 1.0006463596 0.0713113818 5.4944944252
Cl -1.4637828168 0.8512870252 4.0556996217
S -1.5846374789 -1.7395029764 1.0048292761
O -2.3648676299 -1.8601824861 2.2281296109
O -1.1127536537 -2.9152644895 0.2730511025
N -2.4236023789 -0.7895522451 -0.0759899874
C -2.9799398839 0.4614474039 0.4394193882
C -2.0206189009 -0.7715105266 -1.4858970522
H 2.6147098471 2.0918221871 -3.3288670829
H 3.0445726888 0.4233870054 -3.7502901166
H 4.0297028010 1.3284828019 -2.5992836523
H 1.4680868362 2.5917263151 -1.1997189995
H 0.1255500978 1.7530989637 0.7073705919
H 1.3169592921 -2.2573862023 -0.2063785019
H 2.6633289880 -1.4240642564 -2.1087578250
H -3.2933057196 0.3287432947 1.4757779982
H -2.2587406735 1.2882932574 0.3781551180
H -3.8595439888 0.7126439435 -0.1624980302
H -1.3082045349 0.0368432378 -1.6998462432
H -1.5744378317 -1.7291138076 -1.7543973961
H -2.9240802584 -0.6248290459 -2.0880298704
