61
CONF1
C -0.9976190158 0.2658909339 -3.7992952006
C -1.7808131524 -0.7851896103 -3.0003432258
C -2.3268686602 -0.2357265171 -1.7058981453
C -3.5661459289 0.4068915847 -1.7108806676
C -4.1123461976 0.9589133654 -0.5525397700
C -3.3884270281 0.8452789674 0.6345803364
C -2.1474301479 0.2082614077 0.6836642005
C -1.6023743260 -0.3233898715 -0.5018605887
C -0.2712466074 -0.9591548185 -0.4910927828
C 0.9311537325 -0.3551268472 -0.7215235875
N 1.9632728597 -1.2447292173 -0.7615410952
C 3.3447176251 -0.9606900576 -0.3674130240
C 3.6642140903 -1.3292274554 1.0820315319
O 4.0005699552 -2.7063817288 1.2480371418
C 2.8823716412 -3.5910046535 1.1877695611
C 2.2104306986 -3.6464750323 -0.1828012195
N 1.3998353528 -2.4793796820 -0.4688125984
C 0.0211062980 -2.3658092072 -0.2991466215
O -0.7288403476 -3.3302583163 -0.0804199140
O 1.1547423734 0.9567914100 -1.0291624123
C 1.3486342967 1.8367865207 0.0341847377
O 1.5826996162 1.4366181897 1.1443323368
C 1.1951801664 3.2711887709 -0.4229658201
C 1.6009206336 4.1983795992 0.7246098619
C 2.0707946577 3.5310716307 -1.6602705177
C -0.2932098145 3.4795518567 -0.7749619416
C -1.4558203189 0.0531462984 2.0145078954
C -1.8574013437 -1.2544803168 2.7129785486
C -5.4618729778 1.6232736508 -0.5733550159
H -0.1366597269 0.6280100210 -3.2300152906
H -1.6337865812 1.1265734470 -4.0308513812
H -0.6334939731 -0.1555263691 -4.7416957942
H -2.6172575199 -1.1467550581 -3.6089734996
H -1.1330613512 -1.6445161110 -2.7977695917
H -4.1177690707 0.4765512677 -2.6463883000
H -3.7995893586 1.2630167613 1.5515221992
H 4.0281013337 -1.4894916181 -1.0410390591
H 3.4895604041 0.1111094250 -0.5238659236
H 2.8280044866 -1.0468775783 1.7397472602
H 4.5542337640 -0.7697326838 1.3853025335
H 3.2783032369 -4.5835389278 1.4233366076
H 2.1356477104 -3.3143524805 1.9488686236
H 2.9518237542 -3.7972911590 -0.9759360353
H 1.5129403158 -4.4899901659 -0.2016884758
H 0.9755522435 4.0313061291 1.6055188112
H 2.6459222821 4.0408380725 1.0069283333
H 1.4800918119 5.2367988863 0.4031855825
H 1.7635132881 2.9114024206 -2.5057661031
H 1.9673545799 4.5822768888 -1.9458071946
H 3.1258292391 3.3361123850 -1.4428168587
H -0.4436956489 4.5283823624 -1.0489039129
H -0.9347666094 3.2487638230 0.0818504081
H -0.5933833180 2.8504321162 -1.6173892071
H -1.7196000763 0.9030838445 2.6540744828
H -1.3491310144 -1.3489218821 3.6780824271
H -2.9378385737 -1.2832001001 2.8892921733
H -6.2502008374 0.9031887112 -0.3227978998
H -5.5156132576 2.4336891210 0.1589949322
H -5.6892283102 2.0284887201 -1.5630358150
H -0.3712997546 0.0702516159 1.8797242498
H -1.5911782949 -2.1173629728 2.0948018871
