13
CONF2
C -1.7269408822 0.1327746514 0.6751754769
O -1.0076115095 0.4331867332 -0.5279271433
C -0.0963923138 -0.5828351902 -0.8846313783
O 0.9539435698 -0.7537662661 0.0419143153
C 1.8133627282 0.3912545931 0.1195635313
H -2.2352317549 -0.8378933392 0.5903747195
H -2.4690967843 0.9228395276 0.8046659132
H -1.0596782303 0.1140307690 1.5449452676
H -0.6001691480 -1.5588370053 -0.9349364983
H 0.2960635365 -0.2889404862 -1.8686965340
H 1.2836187840 1.2606876050 0.5264307971
H 2.2124784909 0.6439043999 -0.8726716661
H 2.6356535189 0.1235937009 0.7857932997
