39
CONF8
C -2.3450404316 -3.5286551651 1.8760497044
O -2.9421021804 -2.4640156836 1.1221366485
C -2.1917003659 -1.3482087339 0.9140185516
C -0.8906765200 -1.1662752653 1.3978445475
C -0.2069401126 0.0165473788 1.1179238860
C -0.8069238897 1.0187840738 0.3550885493
C -2.1056346106 0.8401631309 -0.1261160730
C -2.8072569813 -0.3423989811 0.1572463733
O -4.0993838665 -0.5022958628 -0.2861059620
C -4.1718921948 -1.1202887900 -1.5885508527
O -2.7813177752 1.7505144071 -0.8784152771
C -2.0971278134 2.9672373471 -1.2093832478
C 1.2010897943 0.2211968866 1.6512143022
C 2.1650664333 0.7588166846 0.6318464175
C 2.7785216336 1.9884611428 0.7606934591
N 3.6519471761 2.5067562347 -0.1192127545
C 3.9086784713 1.7279845545 -1.1862310973
N 3.3798057384 0.5181232175 -1.4379639276
C 2.5114607770 0.0342994885 -0.5376512422
N 2.0086928503 -1.2087870557 -0.7669663168
N 4.7541887181 2.2366716187 -2.1376110643
H -2.0991087780 -3.2008328735 2.8925634121
H -3.0976638004 -4.3163449957 1.9165648853
H -1.4433728497 -3.9040052667 1.3786632456
H -0.4047622609 -1.9349486594 1.9873282721
H -0.2511161507 1.9233278777 0.1392066657
H -3.6568376535 -0.5039606520 -2.3345602437
H -3.7265729894 -2.1216269925 -1.5632526216
H -5.2319749645 -1.1939696329 -1.8388797942
H -1.8388839542 3.5312879435 -0.3058917437
H -1.1905639544 2.7626660533 -1.7906289526
H -2.7990566299 3.5426056696 -1.8134824948
H 1.5659115268 -0.7323596897 2.0545689528
H 1.1662978206 0.9222974194 2.4944891326
H 2.5571700872 2.6019406667 1.6350245104
H 2.1434221238 -1.5942216301 -1.6896252740
H 1.1626721554 -1.4843604190 -0.2907806057
H 5.1636894913 1.5737563270 -2.7773816306
H 5.3560669122 2.9898631359 -1.8429180227
