47
CONF69
C -3.4265215965 -1.1018101242 -2.4434753360
C -3.1406521169 -1.6675260217 -1.0706847203
C -4.1458949285 -1.4610074603 0.0175913172
C -2.8751811458 -0.6141436858 0.0148908161
C -1.8892222155 -0.8573634046 1.0787186697
O -1.7921363549 -1.8523658399 1.7631809169
O -1.0570324378 0.2227141617 1.2004150498
C 0.0172506124 0.0548005425 2.1694884639
C 0.2923719201 1.3848589810 2.7068242445
N 0.5433198169 2.4242915853 3.1423592650
C 1.2317030106 -0.5639861964 1.5149623163
C 2.0480977116 0.2199077239 0.7011047358
C 3.1396134874 -0.3680954549 0.0700000241
C 3.4082474714 -1.7271339997 0.2355622592
C 2.5790746410 -2.4952932508 1.0404871579
C 1.4895814437 -1.9216873738 1.6906965706
O 3.9758564650 0.3168802830 -0.7777506321
C 4.0851207116 1.6955024737 -0.6556379411
C 4.3847340831 2.2919665096 0.5657379936
C 4.5464924007 3.6715225154 0.6195794496
C 4.4252114625 4.4430974240 -0.5337619592
C 4.1391343581 3.8283453119 -1.7487303674
C 3.9624368825 2.4493792871 -1.8155197217
C -5.4534205842 -0.8160216124 -0.2216663440
C -6.0967762854 -0.1079309307 0.7064119663
Cl -7.6563871570 0.6089311508 0.4344067539
Cl -5.4377406247 0.1713804288 2.2867838744
C -2.3407691697 -2.9493921491 -1.0862497761
H -3.9681322093 -0.1531694761 -2.3953607306
H -4.0255591662 -1.8098315832 -3.0277634751
H -2.4895288484 -0.9304351028 -2.9826909402
H -4.1283073085 -2.2097248134 0.8088427471
H -2.9633016892 0.4183658211 -0.3046769971
H -0.3405720167 -0.5903515429 2.9798368005
H 1.8403306405 1.2764850624 0.5693859919
H 4.2660158288 -2.1572457521 -0.2695102914
H 2.7900589137 -3.5516406003 1.1703912740
H 0.8362086538 -2.5205975498 2.3148108454
H 4.4821343757 1.6826404668 1.4579437168
H 4.7725018352 4.1437842168 1.5698806354
H 4.5538036917 5.5188482580 -0.4839862608
H 4.0453376323 4.4231392212 -2.6515254748
H 3.7347723603 1.9496041860 -2.7506005752
H -5.9430566596 -0.9378948644 -1.1834964082
H -2.1763468010 -3.3404731978 -0.0815027519
H -1.3655371482 -2.7867085624 -1.5579833281
H -2.8773324120 -3.7046143261 -1.6706731190
