33
CONF56
C -5.3752764855 0.3763227042 -0.3806324377
C -3.9854072357 0.8339949703 0.0356117018
C -3.9458971366 1.0175184876 1.5576672791
O -4.3581371733 2.0093844425 2.0974507174
O -3.4746912910 -0.0377098985 2.2557265549
O -3.0614380276 -0.1712894849 -0.4049063368
C -1.7230594468 0.1661531186 -0.4585771054
C -1.1833990728 1.3375779928 0.0685008190
C 0.1895938418 1.5609894128 -0.0281923720
C 1.0015249018 0.6249031184 -0.6462758297
C 0.4643889014 -0.5458131912 -1.1778114391
C -0.8978855164 -0.7745234935 -1.0791577495
O 2.3471996025 0.9279654056 -0.7952321430
C 3.2717653479 0.0200654932 -0.3564111915
C 4.5300505207 0.0226535993 -0.9688910019
C 5.5350568378 -0.8325516775 -0.5350260951
C 5.2705962542 -1.7028236075 0.5148701585
C 4.0299484289 -1.7227839223 1.1395881365
C 3.0368783272 -0.8566113733 0.7012858223
Cl 6.5313320362 -2.7913603485 1.0562593811
Cl 4.8457699490 1.1155075383 -2.2880961653
H -6.1137408795 1.1083650193 -0.0465054877
H -5.6092056303 -0.5933626417 0.0677004990
H -5.4233475280 0.2843057420 -1.4679413360
H -3.7467524562 1.7999802957 -0.4244896620
H -3.1695496488 -0.7097468664 1.6230375405
H -1.7979293970 2.0770307142 0.5682244230
H 0.6315578427 2.4645369700 0.3763818307
H 1.1112783359 -1.2641699787 -1.6700961431
H -1.3441216373 -1.6716854371 -1.4940348413
H 6.5038531981 -0.8201038005 -1.0182328074
H 3.8426443804 -2.4000453369 1.9639903378
H 2.0663998670 -0.8526737650 1.1849362402
