44
CONF21
C 1.5347470786 0.1486004217 -3.3931136053
C 2.3176555302 -0.3327392296 -2.2208243143
N 1.6443871364 -0.8781272556 -1.2009236911
C 2.3964685360 -1.2644919199 -0.1569929824
N 3.7220473899 -1.1539841392 -0.0708202413
C 4.2831306680 -0.6024977436 -1.1525345324
N 3.6462303177 -0.1736166994 -2.2474478889
O 5.6049291088 -0.4976322932 -1.0748360990
C 6.3051912411 0.0856328898 -2.2043318217
N 1.7788106959 -1.8270254264 0.9404335322
C 0.4291604740 -2.0835832338 1.2005065024
O 0.0835216448 -2.5203515542 2.2873620672
N -0.4282961053 -1.8201511906 0.1585613575
S -2.1218538785 -1.8773675153 0.3270355747
O -2.6009974071 -1.3234300363 -0.9483013701
O -2.5157243863 -3.2361054295 0.7109479391
C -2.5054960545 -0.7602082958 1.6798004882
C -3.0639554605 -1.3433260667 2.8167792403
C -3.4161970258 -0.5402162078 3.8929684143
C -3.1950808500 0.8323811059 3.8262677295
C -2.6273521284 1.3951746594 2.6892881267
C -2.2688911300 0.6204216670 1.5816111700
C -1.6899068285 1.3215092491 0.3783715153
C -2.8034646086 1.8640143806 -0.5303551824
C -2.2466748225 2.5439796025 -1.7493502440
F -1.4508892268 3.6014541529 -1.4376965822
F -1.4918682183 1.7070448159 -2.5109758256
F -3.2303110962 3.0211915430 -2.5544180377
H 0.5267710007 -0.2664984783 -3.3857264458
H 1.4645820049 1.2419037127 -3.3450516857
H 2.0505967078 -0.1048272915 -4.3220107815
H 5.9708762706 1.1122115502 -2.3672488159
H 7.3555553045 0.0636705686 -1.9176546631
H 6.1375782457 -0.5123049459 -3.1024129150
H 2.3938604984 -2.0770720720 1.7051184949
H -0.0269893640 -1.3677954357 -0.6828946370
H -3.2152830775 -2.4151764313 2.8539362475
H -3.8526017183 -0.9883022325 4.7790240890
H -3.4593255166 1.4681293145 4.6650899022
H -2.4508288180 2.4663220852 2.6479099747
H -1.0367065309 0.6651215904 -0.1974819143
H -1.0789522306 2.1560239127 0.7350156809
H -3.4515563254 1.0543050198 -0.8754621736
H -3.4168980561 2.5977388770 0.0017822112
