45
CONF92
C 3.7629266593 -3.6055248693 -0.1145209080
C 3.2236650908 -2.2100388426 -0.4225310860
C 2.9095980323 -1.4233067887 0.8506953897
C 2.3984103366 -0.0101611159 0.5998827675
N 1.1087054098 -0.0506059612 -0.0885897852
C 0.3515704318 1.0714867679 -0.2698809922
C -1.0058725851 0.9586754072 -0.6542216611
C -1.7681278062 2.0922703536 -0.9114976022
C -1.2385942408 3.3698912420 -0.7987435862
C 0.0909765393 3.4936559548 -0.3933751099
C 0.8726066099 2.3683424214 -0.1267218755
C 0.6399436679 4.8660284342 -0.2587042734
O 0.0122961570 5.8812243130 -0.4918034245
O 1.9247863188 4.8804419272 0.1557433718
S -3.5055250521 1.9027403636 -1.3548120213
O -4.1550318938 1.0880018061 -0.3180620032
O -4.0170966765 3.2435389996 -1.6687070251
N -3.5957219229 1.0176293837 -2.7780452584
O -1.5514479433 -0.2857948749 -0.8813525443
C -1.7688549920 -1.1271146787 0.2095342378
C -1.8152008838 -0.6588574692 1.5175806842
C -2.0417078966 -1.5724042571 2.5446439141
C -2.2273202504 -2.9241951802 2.2662666831
C -2.1849955402 -3.3684044247 0.9454835791
C -1.9514823710 -2.4726313154 -0.0925285088
H 4.6833761341 -3.5476305993 0.4769333006
H 3.0329589621 -4.1870710339 0.4593751760
H 3.9861577422 -4.1577517369 -1.0324394557
H 2.3227269503 -2.2956688561 -1.0422215051
H 3.9571277261 -1.6490281831 -1.0163968455
H 3.8167130157 -1.3447559173 1.4617882310
H 2.1730397921 -1.9710732687 1.4564389814
H 3.1223354620 0.5394777856 -0.0174990166
H 2.3051873580 0.5285487567 1.5559126142
H 0.5996597182 -0.9168038144 0.0125841441
H -1.8416893072 4.2447775031 -1.0023251102
H 1.9036574365 2.4971438835 0.1737747226
H 2.2047925624 5.8087966187 0.2181983144
H -3.1292968973 1.5051635260 -3.5410572657
H -3.1997602232 0.0874094663 -2.6524709157
H -1.6838349252 0.3969141077 1.7303898871
H -2.0789785816 -1.2163696335 3.5692708606
H -2.4055255671 -3.6273734093 3.0728353438
H -2.3296543584 -4.4197558880 0.7180644761
H -1.9074978969 -2.7998367023 -1.1260278838
