40
CONF2
C 5.7324214797 -0.3175529573 1.9767108068
O 5.0845799969 -1.6109332895 1.9142595788
C 3.7669545087 -1.6380266543 1.6857821368
C 3.1563295991 -2.8896181302 1.6314822282
C 1.7883676609 -2.8779874428 1.3934243598
N 1.0927005864 -1.7440920761 1.2278112459
C 1.7944656554 -0.6118494938 1.2989576650
N 3.1037029262 -0.4884481094 1.5213894513
N 1.1281057350 0.5978713654 1.1210545573
C -0.1994009485 0.8719077607 0.8321531048
O -0.5692716483 2.0112818067 0.5783578325
N -1.0549104555 -0.2131228965 0.8669983959
S -2.6076023286 -0.1067813985 0.1890996835
O -3.0186124554 -1.5090284900 0.0758117634
O -3.4151175221 0.8335315234 0.9694531219
C -2.3586585193 0.5634253772 -1.4058648120
C -1.6970917449 -0.0089915882 -2.4906233080
N -1.6389797041 0.7966192071 -3.5508485758
C -2.2598946880 1.9288730412 -3.1636445580
N -2.7120296369 1.8396486758 -1.8413487606
C -3.3513742212 2.8802311429 -1.2235754964
C -3.5616347478 4.0314911757 -1.9306369744
C -3.1324270406 4.1507254448 -3.2683975097
C -2.4848717624 3.1061377377 -3.8847893340
Cl -0.9722162201 -1.5720144124 -2.5093247419
O 1.1533855843 -4.0522347961 1.3295430723
C -0.2723483058 -4.0365632014 1.0784616936
H 5.6203453044 0.2127775548 1.0281267480
H 6.7814869076 -0.5408261364 2.1674855305
H 5.3143711774 0.2803824699 2.7899421945
H 3.7098935720 -3.8089124101 1.7663428928
H 1.7192688910 1.4191220224 1.1409169219
H -0.6175345773 -1.1486595878 0.9215659116
H -3.6571767371 2.7291492584 -0.1991828203
H -4.0668665081 4.8524449548 -1.4368990693
H -3.3134153959 5.0720877609 -3.8102111029
H -2.1358543028 3.1587796912 -4.9091150033
H -0.4869928301 -3.5658107657 0.1149113890
H -0.5652435708 -5.0855121658 1.0607593786
H -0.7968527027 -3.5095214553 1.8803654852
