21
CONF96
C 0.6310312246 -1.2204300558 -0.1401334827
C -0.1664435099 0.0771766760 0.0702669569
C 0.6496016521 1.3191685649 -0.3184509772
O 0.8823850679 1.4320656380 -1.7368395996
C -1.4685616387 0.0129604768 -0.7442066428
O -1.2807963188 -0.3680896883 -2.1129089478
C -0.5338491633 0.2445257763 1.5583678002
O -1.0538473398 -0.9474095736 2.1537368926
O 1.6112898851 -1.4554227075 0.8845013007
H 1.1007534173 -1.2273609990 -1.1319655197
H -0.0506201091 -2.0757159807 -0.0969842342
H 0.0891590564 2.2178339428 -0.0345221935
H 1.6052161751 1.3394328176 0.2239116009
H 1.6628320868 0.9084157711 -1.9573009792
H -2.1295759110 -0.7412599381 -0.3031587853
H -1.9749100928 0.9898912230 -0.6788295547
H -0.6084205767 0.2398594404 -2.4588394896
H 0.3436695967 0.5991714638 2.1163952183
H -1.3183082527 1.0045444644 1.6521088217
H -0.3048711635 -1.5492905945 2.2606565988
H 2.3142662158 -0.8000664318 0.7941952213
