46
CONF5
C 3.2292839102 0.6913905212 -4.5522555693
C 2.4646959095 1.0421335369 -3.2804586103
C 3.0421941200 0.3694457415 -1.9794819976
N 1.9310587758 0.2534327634 -1.0658055132
C 0.6062311362 -0.0389627156 -1.6235829888
S 0.7209998611 0.3553658018 -3.4183591353
C 0.0049423399 0.9983482204 -0.6118890560
C 1.4664775508 1.1659738664 -0.1278836801
O 2.0415361272 1.8529365150 0.6840231802
N -1.0109317618 0.6088841265 0.3157069179
C -0.7886849270 -0.3223310890 1.2758780476
O 0.3069878952 -0.8633368407 1.4280544987
C -1.9742214762 -0.6466586940 2.1350600750
C -2.8136440110 -1.7093891033 1.7826508164
C -3.8907669733 -2.0596497533 2.6019208080
C -4.1032600249 -1.3317324945 3.7690773616
C -3.2816080253 -0.2727662258 4.1438433942
C -2.2078292918 0.0674145525 3.3153034450
O -1.3268204045 1.0742898926 3.5623860774
C -1.5217071281 1.8530108296 4.7530887566
O -2.4908266064 -2.3345885910 0.6178861622
C -3.3196034351 -3.4287528442 0.1965356834
C 3.6475009231 -1.0000381854 -2.2470335744
O 4.9575358042 -0.9039558931 -2.5253138073
O 3.0289673400 -2.0407786601 -2.2261648519
C 2.4244613726 2.5565575362 -3.0779705753
H 4.2573233953 1.0591990582 -4.4739814865
H 3.2500105067 -0.3858313607 -4.7377022773
H 2.7607380077 1.1796062103 -5.4112468491
H 0.2627850099 -1.0670834950 -1.4872088390
H -1.9326091317 1.0121683365 0.2317088330
H -4.5526231920 -2.8764236097 2.3450472332
H -4.9381522587 -1.5992306635 4.4094156534
H -3.4798052005 0.2685537791 5.0596761398
H -1.4416222419 1.2254785151 5.6476031811
H -2.4948564391 2.3559914678 4.7353391352
H -0.7231250542 2.5948095665 4.7507008446
H -3.3010510916 -4.2390044418 0.9337102561
H -2.8898146038 -3.7757034047 -0.7431578865
H -4.3507647806 -3.0967743553 0.0324656818
H 1.9027757275 2.8326794331 -2.1574903567
H 1.9099730793 3.0318782990 -3.9169095194
H 3.4478699709 2.9458350925 -3.0275745986
H -0.3078510572 1.9079489056 -1.1322212481
H 3.8072772833 1.0241887958 -1.5504431446
H 5.2969811759 -1.7926235789 -2.7330796802
