28
CONF7
C 3.9289657869 0.1793010223 0.3547341856
C 3.5999210267 -0.0935283395 -1.0614071933
C 2.5009601490 0.4387307226 -0.1417390279
C 1.4601601827 -0.4814764488 0.2858439651
C 0.1181915260 -0.1224264158 0.5977878456
C -0.3385187885 1.2694070031 0.6864057384
O 0.4149577376 2.2432482652 0.6464865914
C -1.8198471327 1.5136324227 0.9138906503
C -2.7103200186 0.3810735245 0.4325080768
C -2.2595279482 -0.9204363984 1.1028439619
C -0.7999081076 -1.1953699854 0.8752791298
O -0.4178385623 -2.3989908651 0.9390472492
C -2.6830643941 0.2752490889 -1.0810548805
O -2.0755706224 1.0200830828 -1.8221497180
O -3.4358693946 -0.7507516648 -1.5228444654
O 1.8093061261 -1.7381126376 0.3460590330
H 4.0520769944 -0.6682722385 1.0196334141
H 4.4968371945 1.0694666942 0.6011651152
H 3.5091927771 -1.1275540602 -1.3730587369
H 3.9352592367 0.6084098533 -1.8167638485
H 2.2073375828 1.4691456956 -0.2558903019
H -2.0710593577 2.4672691358 0.4449688773
H -1.9602100451 1.6347141455 1.9967051397
H -3.7540261674 0.5712354719 0.7102048542
H -2.8289008412 -1.7899911348 0.7683062199
H -2.4139418603 -0.8267901393 2.1864496619
H -3.3935279776 -0.7667818113 -2.4946479503
H 0.9289644109 -2.2604839994 0.6388226016
