65
CONF284
C 2.2262802027 4.3700620846 1.8444549966
C 1.9913406442 2.9030009574 2.1967802970
C 1.6162629103 2.0397363982 0.9710924165
C 0.3168078910 2.4860793771 0.3045055126
C 1.6226815983 0.5897581050 1.4079302281
O 2.6424165477 -0.0366469960 1.6379861541
O 0.3864046381 0.0810854105 1.5464969344
C 0.2633370935 -1.3147512647 1.9738374479
C 0.1342089901 -1.3875844540 3.4865122853
C -1.1178127409 -0.6887539347 4.0422911912
C -2.2883698279 -0.8406941715 3.1213191092
C -2.2430596134 -1.3547927772 1.8777513602
C -0.9615620368 -1.8863879461 1.2648611000
C -0.9455396892 -1.6617088773 -0.2638352466
C -2.1869796696 -2.3050686119 -0.9212279907
C -3.4386385299 -1.8996510640 -0.1984082388
C -3.4448081854 -1.4532056988 1.0671927033
C -2.1218995082 -3.8387363816 -1.0404663737
C 0.3736579928 -2.1227941037 -0.8983589439
C 0.4735897400 -1.8956807802 -2.4102748292
C 0.4507437814 -0.4343455534 -2.8231442115
C 0.4226894991 -0.2398562542 -4.3250750140
C 0.6249605578 1.2232227608 -4.6731606267
C 1.9862071618 1.6619167365 -4.1540264244
C 2.3063777808 1.2194071859 -2.7465650261
O 3.2054386006 1.7262540011 -2.1016738265
O 1.6385754750 0.1878065105 -2.2029440125
O -0.4344456344 1.9608888047 -4.0418775364
C -0.8916903661 0.7969219223 4.3783754756
H 2.9797654282 4.4639526399 1.0544635507
H 1.3102944959 4.8574566254 1.4985048469
H 2.5835482326 4.9197906880 2.7205918810
H 2.8990931469 2.4863139181 2.6474306969
H 1.1933533059 2.8220285446 2.9462871773
H 2.4368053178 2.1133750525 0.2471949159
H -0.5044083255 2.5329789849 1.0269983275
H 0.4435331978 3.4783752424 -0.1366759039
H 0.0297410156 1.7980495709 -0.4955163212
H 1.1682580810 -1.8400706593 1.6625747161
H 0.0963913751 -2.4546576647 3.7381889727
H 1.0385142200 -0.9814837896 3.9528961190
H -1.3744376623 -1.1842829625 4.9905213482
H -3.2462425819 -0.4781603158 3.4959684178
H -0.9256449885 -2.9723953942 1.4446486479
H -1.0452659792 -0.5787454343 -0.4154202711
H -2.2648735227 -1.9068660346 -1.9429757543
H -4.3766553946 -1.9919982512 -0.7428358090
H -4.3819308858 -1.1575125979 1.5360701189
H -1.3024082672 -4.1607000031 -1.6900518804
H -1.9895924963 -4.3053871449 -0.0589462819
H -3.0559535681 -4.2198912711 -1.4654799573
H 1.2105924120 -1.5973689689 -0.4284956697
H 0.5251194932 -3.1889140309 -0.6878880085
H 1.4022830265 -2.3420014205 -2.7868754728
H -0.3485420455 -2.3943859095 -2.9363356023
H -0.4052035078 0.0819316578 -2.3763869543
H 1.2079016778 -0.8370352755 -4.8036090204
H -0.5454634635 -0.5908902369 -4.6965319524
H 0.5845089833 1.3655555594 -5.7615915846
H 2.7739431602 1.2329044639 -4.7880985195
H 2.1084894666 2.7483439904 -4.1979616649
H -0.3216432384 2.8928630549 -4.2669331929
H -0.6697993839 1.3703592848 3.4750098358
H -0.0552439987 0.9091083468 5.0765495035
H -1.7860013210 1.2238790486 4.8443621410
