59
CONF215
C 6.5177223153 -3.0247533710 1.4204710851
C 6.7611471156 -3.3851276966 -0.0734178717
C 6.4090943851 -2.1116759532 -0.8646965620
C 5.3923804760 -1.3692140307 0.0159073455
C 5.9969398351 -1.5723334341 1.4201655123
C 4.0052193832 -2.0056289829 -0.0863421976
C 2.9447695806 -1.2836924508 0.7033741516
O 1.9511573625 -1.8551111974 1.1298765936
N 3.1180512322 0.0866299986 0.9209538063
C 4.1800601940 0.8333129897 0.4019697428
O 4.2232660159 2.0444246090 0.5660160078
C 5.2379657151 0.0938410102 -0.3743339518
C 2.0649084933 0.8047108595 1.6637255344
C 0.9521463025 1.2878700401 0.7389070174
C -0.1442106371 2.0051851978 1.5220942053
C -1.2347570324 2.5926624691 0.6276673032
N -1.8392941329 1.6162536121 -0.2863817803
C -2.7301085819 2.2961231125 -1.2335364301
C -3.3301017810 1.2988167897 -2.2199110641
N -4.0544033886 0.2546108951 -1.4939346895
C -3.1828947396 -0.4290012743 -0.5372986706
C -2.5788724042 0.5772821353 0.4383006709
C -5.4065054360 0.3265825620 -1.3018941956
N -5.9552515495 -0.5125403114 -0.3894278684
C -7.2798062504 -0.4663518898 -0.2637023952
C -8.0870467032 0.3882543451 -1.0058635261
C -7.4226638893 1.2136078537 -1.9058930503
N -6.1012497524 1.2036251328 -2.0674348727
H 7.4281886071 -3.1164900741 2.0186661775
H 5.7787080416 -3.7001124650 1.8622399059
H 7.7912161686 -3.7002588628 -0.2601976231
H 6.1147839525 -4.2147753159 -0.3764543965
H 6.0216509711 -2.3166590245 -1.8683054120
H 7.2967539516 -1.4756579933 -0.9719445393
H 5.2846813344 -1.3761392648 2.2291477246
H 6.8310851837 -0.8705027302 1.5390720811
H 3.6747462188 -2.0029550101 -1.1353959549
H 3.9939650866 -3.0455662473 0.2500168014
H 6.1727720682 0.6485849654 -0.2513641719
H 4.9556530137 0.1681054302 -1.4352866457
H 2.5398002671 1.6470679844 2.1708564179
H 1.6673211877 0.1171857263 2.4135774800
H 1.3725167891 1.9650290884 -0.0154377716
H 0.5296202582 0.4308915876 0.2038049462
H 0.2925156280 2.8359015779 2.0913344325
H -0.5761307552 1.3231492442 2.2651366401
H -0.7926245946 3.3838717206 0.0079731524
H -2.0063619183 3.0729228386 1.2625888160
H -3.5553295586 2.8233055307 -0.7114194751
H -2.1513528012 3.0466604704 -1.7851253686
H -2.5250556956 0.8159713393 -2.7881689805
H -4.0009844216 1.8023953929 -2.9141649268
H -3.7465864786 -1.1900086338 0.0001036346
H -2.3785656445 -0.9160544480 -1.1031844235
H -3.3897241476 1.0154988732 1.0564018524
H -1.8962945014 0.0442929103 1.1086458418
H -7.7150145728 -1.1438612705 0.4705887258
H -9.1626921503 0.4141590278 -0.8856093047
H -7.9755122306 1.9202124445 -2.5245224443
