39
CONF11
C 3.6445208504 -1.0348479552 -0.8482605564
C 2.5705907371 0.0281541674 -0.5942159965
C 3.2055085374 1.2101117191 0.1442973517
C 1.3845260929 -0.5441223522 0.1973174012
C 0.5944087527 -1.6810626790 -0.5893710430
C -0.8220914725 -1.2913721674 -1.1465875422
C -1.7793360099 -0.6060257924 -0.0903599982
C -0.9166749515 -0.3873536910 1.1523538734
C 0.2423351675 0.4285069203 0.4542286237
C -0.0403964324 1.8814683094 0.8691891931
C -1.6071450240 1.7140607681 0.9108238867
C -1.6827315511 0.6293559952 1.9945166180
C -2.1215663031 0.9097681888 -0.3120499354
C -2.8031427597 1.4118120470 -1.3367225555
C -3.0457844865 -1.4426432457 0.0985671957
H 4.0562731922 -1.3885672585 0.1047585136
H 4.4712355523 -0.6193315111 -1.4333707090
H 3.2611481902 -1.9042365934 -1.3889198269
H 2.1889466987 0.3833439410 -1.5648785013
H 3.5482639724 0.8947914079 1.1374066921
H 2.5056668713 2.0368450839 0.2799909150
H 4.0753325152 1.5890357012 -0.4023644411
H 1.7807046776 -0.9717093583 1.1310508555
H 0.4739480407 -2.5506669707 0.0648352926
H 1.1914234627 -2.0283927675 -1.4384485562
H -1.2877946675 -2.2205885122 -1.4939883183
H -0.7229687095 -0.6602194558 -2.0372788501
H -0.5842622594 -1.2914988654 1.6667221776
H -0.0657575322 0.5644462650 -0.5858861961
H 0.2867929196 2.5977923515 0.1095661525
H 0.3201858968 2.2105693573 1.8505609306
H -2.1559388107 2.6435081567 1.0788456644
H -2.6987157805 0.3058488867 2.2352633328
H -1.1731072187 0.9168464778 2.9184906932
H -3.1604943269 0.7769118810 -2.1436512480
H -3.0278716646 2.4722860573 -1.4065037263
H -3.5969296355 -1.5197421372 -0.8450655888
H -3.7237903188 -1.0058993383 0.8364678341
H -2.7853108106 -2.4571827298 0.4226698894
