40
CONF16
C -6.0453617560 -0.4174462336 0.9080331748
C -4.5812444012 -0.5053030541 1.2724527221
O -3.8253562596 -0.1572881739 0.0959801212
C -2.4650161014 -0.1714940412 0.1996155024
C -1.7466037018 -0.4936700165 1.3422105760
C -0.3468760734 -0.4799704184 1.3558032081
C 0.3457132738 -0.1362660696 0.1996916085
C -0.3684380397 0.1920214810 -0.9668544778
C -1.7561639046 0.1763874610 -0.9755821564
O -2.5239134412 0.4768097620 -2.0565919135
C -1.8522845202 0.8378742919 -3.2817081608
C -2.9215561553 1.1116228544 -4.3135712508
N 1.7497494920 -0.0865868841 0.1006985224
C 2.6761149900 -0.3853609511 1.0571902302
O 2.4444513708 -0.7457734193 2.2016584350
O 3.9186914890 -0.2306285861 0.5321660179
C 5.0496419900 -0.4344849144 1.4448044800
C 5.2780989987 0.8321323878 2.2492315022
C 6.2253782933 -0.7991734022 0.5618337255
H -6.3063953960 0.5962474251 0.5910313474
H -6.2871237710 -1.1142035676 0.1003713599
H -6.6528265227 -0.6746853178 1.7804257893
H -4.3121334978 -1.5216864492 1.5906067497
H -4.3321604716 0.1913099532 2.0844632765
H -2.2647182308 -0.7636437728 2.2543364294
H 0.1818943978 -0.7352065236 2.2617712640
H 0.1795341465 0.4581091166 -1.8630560298
H -1.2008343148 0.0112360348 -3.5949769570
H -1.2318055667 1.7267610332 -3.1062973677
H -3.5351080502 0.2221337383 -4.4820729900
H -2.4490425944 1.3906657206 -5.2596267130
H -3.5689049164 1.9333355263 -3.9943495992
H 2.1258160219 0.1933337719 -0.7938357942
H 4.7930263495 -1.2675721790 2.1061870936
H 6.1210332404 0.6849044070 2.9313170371
H 5.5138515977 1.6672274543 1.5816654727
H 4.3952665458 1.0855920067 2.8417747427
H 7.1047948605 -0.9778237250 1.1869574732
H 6.4540151116 0.0165224991 -0.1314592580
H 6.0167952266 -1.7059582201 -0.0122953685
