38
CONF21
O 2.1753519223 1.2516196182 0.7849911129
P 1.2501507641 0.1031706076 0.8544036175
O 1.1502537486 -0.4945363215 2.3333581751
C 0.2458979251 -1.5248233401 2.6648247482
C 0.6816346264 -2.8404834363 2.6071042599
C -0.1985216209 -3.8485197805 2.9940642242
C -1.4844506758 -3.5323422389 3.4278304507
C -1.8948723281 -2.2017368871 3.4803019991
C -1.0265023595 -1.1819365951 3.0980120739
O 1.6220715539 -1.2118464159 0.0079040834
C 1.5126225703 -1.1690450588 -1.3965424095
C 0.4412591988 -1.8256031247 -1.9842859952
C 0.3382123429 -1.8194899643 -3.3728847378
C 1.2928950851 -1.1609840058 -4.1460988113
C 2.3603678783 -0.5108364969 -3.5308324202
C 2.4807920670 -0.5120578637 -2.1424372482
O -0.2591890881 0.3880276944 0.3769143629
C -0.7003947630 1.6796139231 0.0425203984
C -1.0792969355 2.5549420976 1.0495259620
C -1.5672093342 3.8094201418 0.6899736824
C -1.6708935109 4.1662992080 -0.6531278512
C -1.2843652223 3.2668849289 -1.6450923334
C -0.7922203762 2.0099347473 -1.3014473236
H 1.6876831830 -3.0643437507 2.2700721618
H 0.1264864101 -4.8832649110 2.9567591330
H -2.1649475672 -4.3222058297 3.7283572730
H -2.8939641821 -1.9510878302 3.8219714932
H -1.3243768513 -0.1397401194 3.1346728073
H -0.4938142582 -2.3282849729 -3.8488651668
H 1.2058082833 -1.1567750047 -5.2276103887
H 3.1082247674 -0.0012278127 -4.1297907816
H 3.3077197645 -0.0165271959 -1.6456480234
H -0.9927357312 2.2568758764 2.0893359419
H -1.8675452922 4.5070643207 1.4650986267
H -2.0528217203 5.1444122227 -0.9264575162
H -1.3630843138 3.5412839788 -2.6921534982
H -0.4829078674 1.2930978142 -2.0557139163
H -0.2935554126 -2.3237848438 -1.3608491383
