39
CONF8
C 3.6384262244 -1.0249732005 -0.8867546270
C 2.5702883780 0.0339708592 -0.5940106702
C 3.2118495082 1.1848016550 0.1867543542
C 1.3809119193 -0.5607074837 0.1753031395
C 0.5831896722 -1.6598165418 -0.6560205136
C -0.8297576418 -1.2370396771 -1.1977669506
C -1.7831646135 -0.5901018743 -0.1140300279
C -0.9191579162 -0.4277003856 1.1364095287
C 0.2450813279 0.4083284874 0.4718166475
C -0.0282860168 1.8450684459 0.9454160793
C -1.5961102264 1.6863382000 0.9810895578
C -1.6790546430 0.5587307828 2.0194179674
C -2.1155890416 0.9359184402 -0.2736072838
C -2.7936793607 1.4837116735 -1.2769456715
C -3.0542798292 -1.4265603601 0.0400065913
H 4.0485543742 -1.4145264713 0.0529178050
H 4.4672520742 -0.5938028328 -1.4573554974
H 3.2499744657 -1.8726966218 -1.4573663777
H 2.1909633814 0.4265908110 -1.5511495179
H 2.5145704236 2.0072003170 0.3574080356
H 4.0804178673 1.5823537365 -0.3484584219
H 3.5574010173 0.8309949847 1.1658251958
H 1.7740306820 -1.0278264190 1.0912103913
H 0.4555106692 -2.5537613273 -0.0369657178
H 1.1779843133 -1.9781000892 -1.5179733334
H -1.3015766863 -2.1471865487 -1.5852527682
H -0.7247938698 -0.5697887158 -2.0611183938
H -0.5921377099 -1.3539541762 1.6134882968
H -0.0628351380 0.5878609905 -0.5616525616
H 0.3032894741 2.5892180765 0.2150637266
H 0.3350275974 2.1316015959 1.9390601314
H -2.1383760632 2.6119413957 1.1873251274
H -2.6973003135 0.2318499211 2.2456773470
H -1.1683697676 0.8046797251 2.9546923946
H -3.1542618911 0.8844944489 -2.1093166812
H -3.0111104367 2.5476533465 -1.3039001801
H -3.6064033705 -1.4601492498 -0.9055618058
H -3.7295643189 -1.0190237581 0.7969058026
H -2.7989131020 -2.4555918637 0.3194183841
