44
CONF21
C 4.4906341554 2.5750474477 -0.9797897043
C 3.6019542025 1.3390133896 -1.0640015046
C 2.6237671861 1.3463566761 -2.2990201754
N 1.4785527207 0.5580755011 -1.9036943992
C 1.0404172022 0.6246614171 -0.5027509133
S 2.4715756781 1.3013608872 0.4369923493
C 0.7748033037 -0.9202926819 -0.5657987899
C 1.2938652345 -0.8155562220 -2.0170115159
O 1.4965483991 -1.5827509600 -2.9283916257
N -0.5453436490 -1.4158618470 -0.3595524793
C -0.8888379279 -2.1634768340 0.7197280004
O -0.0926048398 -2.5265215760 1.5828623426
C -2.3865920231 -2.4942413299 0.8278015925
C -2.9899974752 -1.5270419562 1.8276552223
C -3.2527060534 -0.2007296580 1.4744212366
C -3.7725457335 0.6960288214 2.4004851842
C -4.0291513417 0.2719722225 3.7062840409
C -3.7657933231 -1.0471223422 4.0759659282
C -3.2505677114 -1.9332986703 3.1377155889
O -4.5407873748 1.1036809358 4.6614886206
N -3.0553230017 -2.3862571844 -0.4751874796
C 2.2544855634 2.7494183637 -2.7539566089
O 1.1779905141 3.2348078585 -2.1150282463
O 2.8855137067 3.3622616357 -3.5861488253
C 4.4507439759 0.0682349699 -1.1133334364
H 3.9079455942 3.4963751418 -0.8993844755
H 5.1231093066 2.6317259151 -1.8717262894
H 5.1435049519 2.5030954717 -0.1055245258
H 3.1225705828 0.8641911025 -3.1453554497
H 0.1528822162 1.2373331102 -0.3253577247
H -1.2938027569 -1.1668571821 -0.9966885397
H -3.0529612400 0.1391817339 0.4628944186
H -3.9773389901 1.7242035454 2.1135442053
H -3.9725408714 -1.3676828392 5.0919436754
H -3.0516249103 -2.9604576803 3.4301952738
H -4.6811349899 1.9819645078 4.2830698300
H -2.8172950410 -3.1907911672 -1.0475423699
H -4.0596810335 -2.4170898492 -0.3345388401
H 5.1296795407 0.1122811779 -1.9728140466
H 5.0467850990 -0.0168917308 -0.2012005519
H 3.8355471138 -0.8316606919 -1.2011270117
H 1.0109934003 4.1380323381 -2.4372337125
H -2.4245652387 -3.5023823505 1.2654481388
H 1.4797993852 -1.4755802121 0.0609744926
