65
CONF76
C -0.7253267850 2.9957752610 -0.2130396561
C -0.9268063773 3.4673842097 1.2244423232
C -1.3562365750 2.3418520032 2.1773889772
C -1.5810096175 2.8755427173 3.5989115867
C -0.2934225027 1.2631070681 2.2246921038
O 0.8667385081 1.4618888004 2.5367658581
O -0.7860336790 0.0555716602 1.8942643878
C 0.1244750371 -1.0943291849 1.9695823966
C 0.1260132485 -1.6629424625 3.3798246923
C -1.2376596255 -2.2069105279 3.8372769722
C -1.9802831388 -2.8519863910 2.7088670853
C -1.6166858965 -2.8154895970 1.4129334655
C -0.3563765446 -2.1149894466 0.9420330746
C -0.5457512910 -1.5311717027 -0.4757398297
C -0.9686193817 -2.6394180007 -1.4670675868
C -2.1126275243 -3.4371248781 -0.9121089652
C -2.4067398811 -3.4892977639 0.3965768127
C 0.1740795545 -3.5787069541 -1.8944839177
C 0.6844692097 -0.7501862803 -0.9495754891
C 0.4885864248 -0.0783975174 -2.3085936602
C 1.6357024494 0.8341880324 -2.6881248914
C 1.4291456744 1.5971630838 -3.9816993966
C 2.6080549614 2.5381163669 -4.2542675264
C 3.8887974453 2.0221500908 -3.5791216593
C 3.9307016033 0.5327807280 -3.3734857344
O 4.9004124926 -0.1681614660 -3.5896469306
O 2.8162249853 -0.0303519213 -2.8674429766
O 2.3882499504 3.8483579690 -3.7053892461
C -2.1201545532 -1.1512545568 4.5294033995
H -1.6324842143 2.5202086101 -0.6018907163
H -0.4703292169 3.8319294197 -0.8711438322
H 0.0891028774 2.2662752170 -0.2757375852
H -0.0037042169 3.9179701902 1.6086105273
H -1.7009389243 4.2427714820 1.2606080611
H -2.2823599573 1.8901259536 1.8054722075
H -2.3665664267 3.6367192771 3.5847925138
H -1.8861258202 2.0790062165 4.2840563264
H -0.6629690007 3.3311973437 3.9824859522
H 1.1274076219 -0.7418834998 1.7200501522
H 0.8609718485 -2.4771504394 3.3789199917
H 0.4901659026 -0.9048225602 4.0814175032
H -1.0406080573 -2.9840809775 4.5907040062
H -2.8994235185 -3.3756798610 2.9738103843
H 0.4451546515 -2.8681213194 0.8854047177
H -1.3885325446 -0.8271894676 -0.4232714029
H -1.3330333821 -2.1449786663 -2.3782532852
H -2.7139287232 -4.0006855978 -1.6232494936
H -3.2606201884 -4.0706979559 0.7407407112
H 0.6392140049 -4.0568655054 -1.0263747970
H -0.2166943129 -4.3714684071 -2.5404086113
H 0.9488875445 -3.0439572948 -2.4523705918
H 0.9123915753 0.0382407219 -0.2233384249
H 1.5609202721 -1.4091634290 -0.9737064080
H 0.3513112066 -0.8138352508 -3.1101696495
H -0.4196044693 0.5377206779 -2.2794026575
H 1.8579451317 1.5235784995 -1.8611556227
H 1.3281140528 0.8706787451 -4.7975760796
H 0.5006581275 2.1750989074 -3.9323762537
H 2.7725538291 2.6178195691 -5.3361623194
H 4.7893745263 2.3339626742 -4.1082415334
H 3.9197060179 2.4639968574 -2.5727432202
H 1.6621593263 4.2514318354 -4.1989691545
H -1.5908882521 -0.7084260993 5.3798812789
H -3.0421936668 -1.6099919328 4.9016055105
H -2.3929510923 -0.3528925750 3.8348064219
