42
CONF14
C 0.9625885329 1.7376505942 4.6206939767
C 1.9311909426 1.8993934394 3.6355809831
C 1.6021562968 1.7052681688 2.2975416150
C 0.3028372308 1.3534374739 1.9318086879
C -0.6634643788 1.1921700800 2.9243175184
C -0.3346896591 1.3813949244 4.2613168557
C -0.0215669929 1.1170147941 0.4743146726
C -1.3361279769 1.7403282992 0.0346709929
C -2.5128344144 0.9955796081 -0.0614959492
C -3.7111079310 1.5971983659 -0.4353255643
C -3.7249570597 2.9578137656 -0.7086681130
C -2.5672359264 3.7240745777 -0.6201106785
C -1.3797147006 3.1065892298 -0.2520802837
Cl -5.2281741308 3.7270553194 -1.1797630818
C -0.0091172842 -0.3671617294 0.1136990966
O -0.0518577138 -1.2704392948 0.9122835859
C 0.1103325726 -0.6406186650 -1.3936616092
C -0.4722951017 -2.0099721715 -1.7528255953
O -1.6471439715 -2.2967962289 -1.7660942822
C 0.6663109378 -2.8993912546 -2.0841458529
C 0.6476499513 -4.2543784347 -2.3922091912
C 1.8599471972 -4.8669619393 -2.6901980990
C 3.0595409108 -4.1407600371 -2.6829120323
C 3.0757295054 -2.7847810330 -2.3765535784
C 1.8620064346 -2.1762606732 -2.0753969268
C 1.6083938943 -0.7600116191 -1.7273536053
O 2.4177907397 0.1408658503 -1.6875549527
H 1.2163578384 1.8896441103 5.6648071898
H 2.9445582080 2.1773848166 3.9072042736
H 2.3610992334 1.8236360493 1.5284002896
H -1.6773413946 0.9206514830 2.6479868627
H -1.0941058650 1.2517771591 5.0257611771
H 0.7755574444 1.5637525165 -0.1384544604
H -2.5076546566 -0.0712176284 0.1456695412
H -4.6201994949 1.0130782149 -0.5159554098
H -2.5976556966 4.7850743622 -0.8387729092
H -0.4723399525 3.6985329348 -0.1746332873
H -0.3541105006 0.1758533817 -1.9553001405
H -0.2879527938 -4.8033490951 -2.3949111155
H 1.8833990116 -5.9242522413 -2.9338446440
H 3.9879368294 -4.6498995675 -2.9206909178
H 3.9962633818 -2.2109159282 -2.3671451762
