44
CONF103
C -3.9576119411 -1.7149877153 -2.3811186531
S -3.3029284806 -0.2512627447 -3.2123990756
O -4.2656637061 0.8535198424 -3.0651632866
O -2.8612577414 -0.6660999135 -4.5543974003
C -1.7705172245 0.1621540878 -2.2790026583
C -1.7720767070 0.8196969959 -1.0342209555
C -0.5123704254 1.0957411106 -0.4838599713
C 0.6817857645 0.7505077910 -1.1215056962
C 0.6284832537 0.1406323450 -2.3710711558
C -0.5959612061 -0.1633323679 -2.9456672663
C 2.0432509839 1.0000638288 -0.5409694089
O 2.8752371963 1.6153646566 -1.1771099321
C 2.3556023099 0.2935614772 0.7770928922
C 3.0026182483 1.2344425142 1.8124909942
O 2.3997088037 1.5263836854 2.8180857137
C 4.4133410555 1.6565438650 1.5075839070
C 5.2890112300 0.4105653886 1.2906920593
C 4.7451108508 -0.4828641748 0.1655367419
C 3.3141250254 -0.8737348346 0.4221770746
O 2.8892566220 -2.0036447730 0.3869654927
Cl -0.3696088873 1.9812789867 1.0274465618
C -3.0508773450 1.1745388863 -0.3046286952
O -3.6449858924 0.0220178596 0.3121625016
C -2.9083945016 -0.4808859702 1.4062232553
C -3.6503154116 -1.6933610910 1.9322199043
F -2.9704041099 -2.2241438745 2.9726118122
F -3.7717428853 -2.6541978382 0.9867933381
F -4.8897029516 -1.3873027609 2.3587592441
H -4.8271253332 -2.0147503398 -2.9728052623
H -3.1927732540 -2.4943430107 -2.4011502897
H -4.2384630845 -1.4508522904 -1.3612335763
H 1.5547620494 -0.0984406430 -2.8823654750
H -0.6511791978 -0.6363765058 -3.9189066288
H 1.4505117309 -0.1376969869 1.2045855740
H 4.4050548729 2.2513656398 0.5856304492
H 4.7789909507 2.2690379400 2.3342376359
H 5.3481819743 -0.1641575015 2.2225647437
H 6.3060964080 0.7241423579 1.0402008117
H 5.3328277812 -1.3958219731 0.0479350031
H 4.7732920795 0.0806673490 -0.7766343869
H -2.8604146739 1.9464929308 0.4472976389
H -3.7967178641 1.5366321107 -1.0100917822
H -1.8973188036 -0.8094697807 1.1212840033
H -2.8288364942 0.2523759543 2.2222014948
