45
CONF117
C 7.8134249953 -0.4818480263 0.7621571430
C 6.7788228035 -0.3180079351 1.8730948657
C 5.3902688854 0.0367252017 1.3412209280
C 4.3475287781 0.1746265756 2.4508415517
C 2.9797898330 0.6703985967 1.9742349247
C 2.2883085821 -0.2620537975 0.9789450431
C 0.8717015461 0.1903442045 0.6329692496
C 0.1866332257 -0.7278523540 -0.3934685900
C -1.2203807484 -0.3062682576 -0.7243376501
C -2.2614919013 -0.7278449872 0.0958714800
N -3.5080059741 -0.3029817552 -0.2394511926
C -3.7519101725 0.5214330451 -1.3372541747
N -5.0672722523 0.7677724273 -1.3866086300
C -5.5457049722 0.0892354586 -0.3240184912
N -4.6599981644 -0.5837912439 0.4215941905
N -2.7663490255 0.9431178932 -2.1292578385
C -1.5363322416 0.5377220355 -1.8241079268
C -0.4270116906 1.0138186097 -2.7358162983
C -0.8595087675 2.0404132227 -3.7749597050
N -2.1695373806 -1.5617745903 1.1676467113
H 8.8001331065 -0.7290990716 1.1651532479
H 7.9114853646 0.4402542240 0.1790411863
H 7.5242088669 -1.2812225210 0.0713360996
H 7.1070265289 0.4623872950 2.5721480963
H 6.7140041640 -1.2449994750 2.4581287697
H 5.0781983801 -0.7342913286 0.6246115474
H 5.4475636769 0.9779403721 0.7753590771
H 4.7296383627 0.8693844985 3.2104159595
H 4.2264272515 -0.7940013236 2.9560843032
H 3.0906906976 1.6643811924 1.5191363451
H 2.3261248042 0.8045940851 2.8466323609
H 2.2577190153 -1.2803842489 1.3941393905
H 2.8762171544 -0.3267757048 0.0543451804
H 0.2653808997 0.2439274764 1.5484566318
H 0.8948401432 1.2135608766 0.2364111577
H 0.7910333803 -0.7542531295 -1.3047868081
H 0.1880793388 -1.7610398362 -0.0190863328
H -6.5970426931 0.0733805548 -0.0639511294
H 0.0029243111 0.1356272431 -3.2388077933
H 0.0003197037 2.3406268568 -4.3810811158
H -1.2798303754 -1.6373803703 1.6283481190
H -2.9925650959 -1.6231865145 1.7493871522
H -1.6299419292 1.6345952744 -4.4332518093
H 0.3847061767 1.4224126828 -2.1203125849
H -1.2784921019 2.9291901118 -3.2969471070
