35
CONF34
C -0.4961183435 -4.2518738138 3.0546238140
C -0.7120572969 -4.6422083839 1.6126948995
O -0.3040453792 -3.5439036246 0.7121162020
C -1.1542869933 -2.5676649238 0.5155217123
N -2.3650774133 -2.5102399460 1.0070723544
C -3.1214691373 -1.4511534621 0.7037225741
C -2.7767096436 -0.3834440055 -0.0806134502
C -1.4792520126 -0.4468161347 -0.6040913132
N -0.7720030520 0.3649992010 -1.3973766711
C 0.3996981080 -0.2967489012 -1.5054072601
N 0.5326904854 -1.4545460085 -0.8725128720
N -0.6914552337 -1.5523821466 -0.2844543645
S 1.7928648835 0.4130208479 -2.3976021323
O 1.2243613210 1.2408831068 -3.4588153315
O 2.7533337020 -0.6574926391 -2.6628042636
N 2.5659441826 1.4541826742 -1.2900152613
C 1.8759301477 2.6126382125 -0.8513779510
C 1.9450972167 3.8069452023 -1.5872317906
C 1.2646712950 4.9499773226 -1.1868991954
C 0.5263008467 4.9278152970 -0.0104015059
C 0.4768840814 3.7827541807 0.7756209031
C 1.1450607244 2.6446913361 0.3488127720
Cl 1.0991011563 1.2192536054 1.3655803147
Cl 2.9561948384 3.9028626530 -3.0088155946
F -4.3431916934 -1.4837643686 1.2521922933
H 0.5471111494 -3.9757464377 3.2289310126
H -0.7353927427 -5.1136266684 3.6852848207
H -1.1444105794 -3.4220352099 3.3463956972
H -0.0578652727 -5.4587558243 1.3062071156
H -1.7504050232 -4.8971349779 1.3919117156
H -3.4415555301 0.4444054181 -0.2840470164
H 2.9859257518 0.9042456466 -0.5411002151
H 1.3324052694 5.8525459916 -1.7824580567
H -0.0018118178 5.8198094323 0.3083849413
H -0.0764678789 3.7685073590 1.7070455967
