47
CONF20
C -4.7965130184 -1.8634902115 -0.2446853613
C -3.6058747059 -0.9730514949 0.0371987596
C -2.2178400736 -1.5531671385 0.0452332975
C -2.6902009069 -0.7222875453 -1.1641687366
C -2.0662267823 0.5647247306 -1.5027719990
O -2.0966941416 1.0735901447 -2.6044751819
O -1.4226227199 1.1408228804 -0.4444142921
C -0.7569196082 2.3925621086 -0.7368282691
C -0.6776745397 3.0942719206 0.5458598629
N -0.5835825973 3.6722283964 1.5410519273
C 0.6199271307 2.1720358123 -1.3219860852
C 1.5007951452 1.3058798590 -0.6727329642
C 2.7752478358 1.1057071210 -1.1883884895
C 3.1353761179 1.7816546384 -2.3591575262
C 2.2669655579 2.6318789890 -3.0130485502
C 0.9933314964 2.8336677501 -2.4869660522
F 4.3726457446 1.5805879170 -2.8571552362
O 3.7042992800 0.2523142100 -0.6610965133
C 3.6293816271 -0.0734861512 0.6916676081
C 3.7161449135 -1.4193631159 1.0217540299
C 3.7163653681 -1.7846921448 2.3662774708
C 3.6261078820 -0.8128935816 3.3596751463
C 3.5486727726 0.5337886494 3.0066966915
C 3.5553702255 0.9148493220 1.6683568221
C -1.9427866591 -2.9790210147 -0.1448599001
C -0.8009455474 -3.5824446773 0.1884296742
Cl 0.5748950150 -2.7603150999 0.8737305283
Cl -0.5491500533 -5.2932935273 -0.0436418910
C -3.9092701648 0.1346924313 1.0215068348
H -5.6461523062 -1.2483965018 -0.5580332386
H -5.0837056082 -2.4012704597 0.6655720390
H -4.6035347169 -2.5927523159 -1.0342112185
H -1.5137717981 -1.0235907029 0.6781270763
H -2.9583779715 -1.2791380669 -2.0557753987
H -1.3671047300 2.9890796398 -1.4243417572
H 1.1972140919 0.7864598778 0.2302332109
H 2.5924313919 3.1282743608 -3.9206860741
H 0.2979394178 3.4986098246 -2.9876725919
H 3.7828216806 -2.1610470789 0.2330122973
H 3.7821332906 -2.8347002566 2.6333411348
H 3.6214709355 -1.1019452188 4.4053668805
H 3.4903529545 1.2968559984 3.7762947876
H 3.5033336501 1.9612613883 1.3855779348
H -2.7089100781 -3.6061601968 -0.5900371874
H -4.3185472470 -0.3069010632 1.9362531277
H -4.6624724885 0.8143122442 0.6081292328
H -3.0243447818 0.7132974450 1.2874182260
