25
CONF1
C 2.9687443024 0.6645201924 0.7436206002
C 2.2600132296 1.2887097732 -0.4560566151
N 1.8988758113 0.3049608217 -1.4736608124
C 0.8190070363 -0.4879559192 -1.4081218281
N -0.0573052730 -0.3135233204 -0.4080993532
C -1.1155430546 -1.1370065587 -0.4288923971
N -1.3399594916 -2.1045887658 -1.3735920999
C -0.3911916017 -2.1443688156 -2.2808213980
N 0.6966315591 -1.4194275490 -2.4062819048
Cl -0.6156895143 -3.3788564056 -3.5436336959
N -2.0327504555 -1.0425996519 0.5450454464
C -2.0256930224 -0.0161462933 1.5842292608
C -2.6102354416 1.3110451174 1.1070755920
H 3.8890409217 0.1618090644 0.4315874081
H 3.2284327048 1.4424460960 1.4682276888
H 2.3213951284 -0.0655635789 1.2377797735
H 1.3507638503 1.8057625940 -0.1366772087
H 2.9085425090 2.0238756050 -0.9414067031
H 2.5637980851 0.0939350269 -2.2025475405
H -2.8451216315 -1.6337652707 0.4528173496
H -2.6080916080 -0.4091768868 2.4226660659
H -0.9965147396 0.1205859395 1.9278796189
H -3.6468301319 1.1832080226 0.7811383911
H -2.0279821857 1.7122278457 0.2726251568
H -2.5923372777 2.0398927159 1.9232367174
