51
CONF67
C 0.3236034113 1.4193630261 -1.5681647870
C 1.3214865054 0.7097899606 -0.7128089848
C 1.0521845672 -0.3118094388 0.1868105640
N 2.2090260537 -0.6285678954 0.8292100409
N 3.2291441095 0.1456938456 0.4187729976
C 2.7059323353 0.9528454564 -0.5256333460
C 3.5596096789 1.9421247192 -1.1888466743
C 4.6362892889 2.5262860065 -0.5035062556
C 5.4572600230 3.4548500604 -1.1328377517
C 5.2148440442 3.8276477832 -2.4548048213
C 4.1482436309 3.2551128292 -3.1441619644
C 3.3290575709 2.3189641386 -2.5197437081
C 2.3947041752 -1.6187978217 1.8746675579
O -0.1023329659 -0.9265581848 0.5276336956
C -0.6953309455 -1.7380778895 -0.5368544354
C -1.9044969167 -2.4242572398 0.0228036417
C -1.9642353539 -3.8169474887 0.0475675700
C -3.0755006578 -4.4811270218 0.5636985787
C -4.1457231685 -3.7544441412 1.0743222491
C -4.1062365136 -2.3625443904 1.0557264986
C -2.9968467215 -1.7047222059 0.5349743511
N -3.0099364545 -0.2739281012 0.5137085243
C -2.3642119773 0.5099853654 1.4499121667
O -2.0493195727 1.6737896728 1.2866719581
O -2.2040192565 -0.1870996559 2.5922237680
C -1.4938646734 0.5205323930 3.6358130133
O -3.0033342753 0.2710818685 -0.7840510619
C -4.3449270456 0.6538803692 -1.1499509460
H -0.6759134468 1.3344721028 -1.1327100076
H 0.2811486754 1.0132477367 -2.5859345877
H 0.5701144145 2.4823607799 -1.6494515544
H 4.8178597844 2.2507848000 0.5300958382
H 6.2842859523 3.8983239678 -0.5864091004
H 5.8531316112 4.5575013644 -2.9429277467
H 3.9569095463 3.5310579577 -4.1767693392
H 2.5196693235 1.8595719647 -3.0766211174
H 2.5377463605 -1.1308478053 2.8441424470
H 3.2684491006 -2.2326148654 1.6434494498
H 1.5050150696 -2.2487569066 1.9148720371
H -0.9572221065 -1.0854730173 -1.3760765812
H 0.0421667320 -2.4766014677 -0.8675495985
H -1.1242369270 -4.3871521064 -0.3384156385
H -3.0986352080 -5.5659997910 0.5719741632
H -5.0120587270 -4.2652090135 1.4816716417
H -4.9297544631 -1.7742288691 1.4470733950
H -1.4423032327 -0.1792696051 4.4690291971
H -2.0381685430 1.4222406548 3.9257551498
H -0.4891406601 0.7828612348 3.2938013528
H -5.0129689469 -0.2148565717 -1.1396006584
H -4.2581427117 1.0437907764 -2.1664755052
H -4.7190204773 1.4317305488 -0.4760758925
