45
CONF11
C 1.3829802084 -3.2540870454 0.6880239638
O 2.1002743051 -2.6352332449 1.7803461327
C 2.3727291282 -1.3318039598 1.6785840327
C 3.0678327826 -0.7252391722 2.7179931039
C 3.3282544051 0.6322992041 2.5503045780
O 4.0037801934 1.2523318147 3.5295454888
C 4.2758329373 2.6559999600 3.3567057415
N 2.9411811777 1.3322584304 1.4810730797
C 2.2779283256 0.6340442001 0.5553144521
N 1.8725787242 1.3836269512 -0.5430457739
C 1.0770964189 1.0617448282 -1.6447827651
O 0.7421803600 1.9262379879 -2.4361958385
N 0.7271928740 -0.2694527844 -1.7490614729
S -0.5038072677 -0.7629386349 -2.8123817995
O -0.0764371361 -0.5266870284 -4.1858864531
O -0.8554577123 -2.1009232838 -2.3426579044
C -1.8558987563 0.3377432612 -2.4567395768
C -2.6925684976 0.3550805423 -1.3376179741
C -3.6476920719 1.3379564106 -1.6485397781
N -3.4192759669 1.8844302186 -2.8418924982
N -2.3309756873 1.2731650277 -3.3250600451
C -1.7960206310 1.7024119049 -4.6155099541
C -2.6048532822 -0.3838105346 -0.1014967510
N -3.6527474455 -0.5629031541 0.7138273063
N -3.0965539061 -1.2218821459 1.7189745099
C -3.8430231355 -1.6752399301 2.8794678153
N -1.7960813711 -1.4508984887 1.5666561443
N -1.4661396716 -0.9211587324 0.4173165229
N 1.9802898603 -0.6638404207 0.5873082195
H 1.9612983987 -3.1876405559 -0.2381385588
H 0.4045174313 -2.7872970916 0.5522722124
H 1.2690495784 -4.2959439318 0.9859631541
H 3.3883394327 -1.2709832402 3.5938152871
H 4.8853069299 2.8256309780 2.4650742311
H 4.8214402884 2.9483117716 4.2539320731
H 3.3454214650 3.2236198829 3.2712036254
H 2.1109028267 2.3639431739 -0.4998750605
H 0.8621015985 -0.8485985773 -0.9082059097
H -4.4780222693 1.6691838775 -1.0414785502
H -1.8834753462 0.9001987386 -5.3506412991
H -2.3916092108 2.5631591648 -4.9178402430
H -0.7457751181 1.9745079959 -4.4996669505
H -4.3193689706 -0.8198468401 3.3639058002
H -4.6077082746 -2.3911891742 2.5680311959
H -3.1350182286 -2.1502879566 3.5584410621
