49
CONF33
C -3.1585127729 -1.7927029529 -1.0877788580
C -3.1584870089 -1.4806341697 0.3938794935
C -2.3665316548 -0.2722119522 0.9318840188
C -1.9357810988 -1.7293875230 1.2257657033
C -2.0703027874 -2.1640873159 2.6724239114
C -0.6760401496 -2.2816153781 0.5931502610
C -1.5805724619 0.6134953204 0.0761141512
O -0.9813407318 0.3560767385 -0.9482191051
O -1.5888968963 1.8884543513 0.6127031048
C -0.7481873863 2.8480716725 -0.0814405198
C -1.3805509889 4.1500289256 0.1204466696
N -1.8602629566 5.1900304511 0.2670410865
C 0.6644333474 2.8018192520 0.4573374769
C 1.6362201779 2.1354679793 -0.2840819074
C 2.9172272416 2.0033640924 0.2456277279
C 3.2407250954 2.5529392523 1.4829252463
C 2.2625191300 3.2318172988 2.2031431408
C 0.9703786788 3.3523459077 1.7028687695
O 3.9341104080 1.3854147459 -0.4512502071
C 3.6278266285 0.2979203711 -1.2585261557
C 2.7880226637 -0.7235917632 -0.8198562301
C 2.5750974699 -1.8216972500 -1.6475842981
C 3.1988086269 -1.9040328599 -2.8917317548
C 4.0432280722 -0.8774994335 -3.3086165383
C 4.2596270160 0.2320570165 -2.4951858791
C -4.5387053291 -1.6623460776 0.9969161312
H -3.8801371626 -1.1489292556 -1.6025094723
H -3.4779160783 -2.8315499849 -1.2304299828
H -2.1900168217 -1.6595363273 -1.5649423449
H -2.8255226044 0.2396828070 1.7712045123
H -2.9105830048 -1.6957714464 3.1861970576
H -2.2006581147 -3.2516117076 2.7213996431
H -1.1566454641 -1.9111696349 3.2206997486
H -0.5043833656 -1.9226604738 -0.4195770319
H -0.7350258692 -3.3759637021 0.5710349707
H 0.1941718275 -2.0056795510 1.1992987723
H -0.7525775915 2.6270666159 -1.1550615020
H 1.3936701436 1.7107745949 -1.2513570186
H 4.2492730271 2.4431214730 1.8670672069
H 2.5114343025 3.6613676239 3.1679622531
H 0.2067416992 3.8693591849 2.2757114995
H 2.3081586453 -0.6596965070 0.1512179815
H 1.9227218324 -2.6212792432 -1.3105850771
H 3.0290306744 -2.7644454459 -3.5304202019
H 4.5340720375 -0.9333183123 -4.2751622085
H 4.9103861158 1.0426668490 -2.8059341263
H -4.6043841192 -1.3211684207 2.0305222877
H -5.2732580673 -1.1000551619 0.4106646465
H -4.8226033588 -2.7206996783 0.9647124149
