47
CONF53
C -2.8862778788 1.3299117480 3.4825370780
C -2.8278829611 1.3237607659 1.9711302161
C -4.1040342293 1.2221217549 1.1712476639
C -3.1908965318 0.0001489652 1.2979201969
C -2.4749720841 -0.4581209989 0.0958282140
O -2.2451075849 0.1866540949 -0.9027420188
O -2.0765982858 -1.7569833032 0.2632914200
C -1.2682933467 -2.2955595230 -0.8244053192
C -1.5904351550 -3.7175240979 -0.9016785530
N -1.8211666323 -4.8460196585 -0.9791229345
C 0.1982782457 -2.0423543785 -0.5594400614
C 0.9134164319 -2.8572432130 0.3181643364
C 2.2430008758 -2.5612430225 0.5931727229
C 2.8673741150 -1.4677556261 0.0025099111
C 2.1434988613 -0.6694612615 -0.8814402894
C 0.8097564784 -0.9480342835 -1.1653445960
O 2.6672032378 0.4621907780 -1.4628483046
C 4.0184635146 0.5020476200 -1.7665721517
C 4.6476632449 -0.5476762814 -2.4305013682
C 5.9888897886 -0.4202747717 -2.7741045858
C 6.6909955883 0.7432836499 -2.4683620626
C 6.0430056529 1.7869280788 -1.8144863549
C 4.7035211639 1.6705195212 -1.4562895315
C -5.4275365212 1.1820313211 1.7972608872
C -6.5229958771 1.7807539557 1.3262786411
Cl -8.0564090770 1.6757590026 2.1435569968
Cl -6.5615327742 2.7264029707 -0.1308730278
C -1.7159902978 2.1775978467 1.4057707561
H -1.9112577135 1.0479278064 3.8927651107
H -3.6286414547 0.6362232106 3.8824915861
H -3.1286017286 2.3349291931 3.8448888107
H -4.0542593221 1.6904122144 0.1929784235
H -3.5062284421 -0.7915694889 1.9688777720
H -1.5727401839 -1.8093827919 -1.7582691330
H 0.4346495554 -3.7172905388 0.7746110901
H 2.8043918607 -3.1875900917 1.2785891991
H 3.9039899105 -1.2355851002 0.2192348438
H 0.2613765861 -0.3008547966 -1.8407073490
H 4.0909665232 -1.4461308267 -2.6747417600
H 6.4841600532 -1.2337849034 -3.2943144625
H 7.7361194862 0.8365359971 -2.7427291480
H 6.5818002330 2.6981847683 -1.5758954416
H 4.1795503206 2.4711562823 -0.9460932376
H -5.5487685947 0.6223889801 2.7189467992
H -1.8327210563 3.2058237809 1.7641729289
H -1.7169834976 2.1874577274 0.3153934937
H -0.7417398941 1.8092872252 1.7463883775
