33
CONF2
N 1.8204295523 3.2529147281 0.2182307917
C 2.1054097121 1.9436855286 0.3985909721
N 1.1624209929 1.0313312821 0.2028340942
C 1.5668138164 -0.2269321870 0.4769492642
C 2.8214361972 -0.6461167385 0.9176288989
N 2.8603057019 -2.0187969308 1.0746255764
C 1.6612470322 -2.4195406563 0.7321487443
N 0.8236509845 -1.3805789129 0.3614963444
C -0.5615929328 -1.5238111551 -0.0393968680
O -0.7406061440 -0.9218339773 -1.3086296382
C -2.0935145255 -0.3765037441 -1.4081799125
C -1.9850866176 1.0866445737 -1.7956698282
O -1.4353460910 1.8902602755 -0.7566892799
C -2.7674414743 -0.6273865767 -0.0559803642
O -3.5429617306 -1.8281041309 -0.1520001910
C -1.5754055649 -0.8402440913 0.8955740878
O -1.8560194234 -1.5846657247 2.0600013983
C 3.8451448921 0.3237330650 1.1225798810
O 5.0064076326 0.1613928766 1.4975206213
N 3.3691180683 1.6234793330 0.8259433195
H 2.5707554437 3.9210323732 0.1329790716
H 0.9692545814 3.4726783027 -0.2761207087
H 1.3074375551 -3.4431304254 0.7241635244
H -0.7620935194 -2.6065070425 -0.0712791544
H -2.6280661287 -0.9247142060 -2.1939698402
H -1.3896316510 1.1605492264 -2.7181370973
H -2.9902058230 1.4684779273 -2.0071599976
H -0.5432071983 1.5441370745 -0.5392773170
H -3.3922076923 0.2181227455 0.2495086541
H -4.1945852231 -1.8213127538 0.5610409303
H -1.1849741529 0.1285203650 1.2188900266
H -2.2928574267 -2.4047826043 1.7847903297
H 4.0459712627 2.3680019582 0.9484206812
