52
CONF5
C -1.2784706663 -0.7415549730 -3.3199840076
O -2.3221222114 -0.1001332090 -2.5746054849
C -2.0236488305 0.3061641839 -1.3092842995
C -0.7724578516 0.1517211245 -0.7073068580
C -0.5692671089 0.5968524255 0.5993506324
C -1.6038141560 1.2177054525 1.2998634911
C -2.8555694102 1.3741688547 0.6992043255
C -3.0710961576 0.9223156838 -0.6109034111
O -4.2864702333 1.1231140009 -1.2209492603
C -5.2070424719 0.0326813911 -1.0063124132
O -3.9291161108 1.9596102965 1.2976048378
C -3.7610499926 2.4145504634 2.6474863879
C 0.7752239990 0.4012221924 1.2912479053
C 0.8743913662 -0.9165319054 2.0643019037
C 0.9506606307 -2.1127867537 1.1313396156
C 0.6203027487 -3.2602938377 2.0740883842
O -0.3306496529 -2.6698159642 3.0258482906
C -0.2003995877 -1.3166712293 3.0468945488
O -0.8476035825 -0.6329520789 3.8048585731
C 2.2938798589 -2.1179477549 0.4331530748
C 2.6114494718 -0.7255074809 -0.1127116173
C 3.6600020296 -0.6389310790 -1.0557003550
C 3.9794535909 0.6009053013 -1.5474453030
C 3.3073651251 1.7468436208 -1.1371195717
C 2.2899623009 1.6934283115 -0.2183170870
C 1.9373000263 0.4317111465 0.3062933969
O 3.8161421783 2.8455802510 -1.7758703199
C 4.8930397707 2.3625611230 -2.6109524946
O 4.9454288272 0.9260655377 -2.4638053155
O 2.3708977469 -3.1301849451 -0.5779432090
H -0.4281601380 -0.0656969356 -3.4682020262
H -0.9407807735 -1.6557637372 -2.8174237526
H -1.7193172721 -0.9939179615 -4.2847026156
H 0.0496435986 -0.2944434510 -1.2521937333
H -1.4257428272 1.5638060068 2.3094454931
H -6.1288095034 0.2973067835 -1.5279631673
H -5.4098964338 -0.0937703672 0.0634856799
H -4.8013166397 -0.8981526752 -1.4194963953
H -3.4968783743 1.5837387009 3.3120435829
H -4.7269289146 2.8270708000 2.9401338139
H -2.9935643753 3.1947396161 2.7069516816
H 0.9024339652 1.2288414206 1.9987536994
H 1.8002633117 -0.8808043081 2.6653344791
H 0.1546347433 -2.0279936292 0.3791831325
H 1.4962671903 -3.5987360981 2.6397119077
H 0.1202963050 -4.1090157277 1.6073546664
H 3.0715268060 -2.3958271264 1.1592252617
H 4.1854880991 -1.5297086576 -1.3799289206
H 1.7621156880 2.5884344484 0.0950766799
H 4.6794180885 2.6120581343 -3.6552481625
H 5.8387840686 2.7965524464 -2.2680663005
H 1.7438021744 -2.8926086206 -1.2757998035
