48
CONF39
C -4.0231556207 -1.6776915039 -2.1641819586
C -3.8962529344 -0.6664595323 -1.0341701252
C -2.4263278903 -0.3475622933 -0.7668490459
N -2.3057118043 0.6453329862 0.3062741761
C -3.0642151323 1.8770302819 -0.0099875795
C -4.5185218078 1.5346055026 -0.2776538502
N -4.5936363373 0.5774238398 -1.3867912573
C -1.0645233600 0.7977762016 0.8988268228
C -0.9290290020 1.4987500177 2.1278925613
C 0.2621527122 1.6509323150 2.7758069624
C 1.4317464643 1.0830738798 2.2414505516
C 1.3249818071 0.3568747980 1.0383919487
C 0.1002002911 0.2231065968 0.3816897802
N 2.4817879972 -0.2164205126 0.4987070156
C 3.6716169605 -0.0953040177 1.1207788370
C 3.8301760250 0.5807898272 2.3037487475
C 2.6995438891 1.2202460127 2.9295951181
O 2.8028437581 1.8628655491 4.0107907230
C 5.1887879953 0.6429930304 2.8981159350
O 6.1673738081 0.1143543797 2.3949555350
O 5.2727632280 1.3261144089 4.0419136254
C 2.4233834206 -0.9324763754 -0.7425068884
C 2.4088443274 -0.2287950211 -1.9438959001
C 2.3561699771 -0.8699654318 -3.1678142247
C 2.3218149073 -2.2559665441 -3.1459526289
C 2.3370642296 -3.0016828722 -1.9776263915
C 2.3840883788 -2.3220405567 -0.7664046508
F 2.2709530064 -2.9045803808 -4.3266800395
F 2.4411106230 1.1141755380 -1.9076475770
F -2.0455289275 1.9876392390 2.7172013527
H -3.5764962098 -1.2849341248 -3.0835904061
H -3.5217451458 -2.6143505536 -1.9021324289
H -5.0768115406 -1.9002930439 -2.3606953805
H -4.3097734456 -1.1055966504 -0.1052946012
H -1.9204101986 -1.2674048587 -0.4560596305
H -1.9584474262 0.0130683790 -1.7008645576
H -2.6246452266 2.3464575195 -0.9060711274
H -2.9950633986 2.5832433802 0.8165724595
H -4.9693828913 1.1421849233 0.6524867218
H -5.0509594906 2.4513537968 -0.5534202319
H -5.5681032370 0.3610242255 -1.5744317802
H 0.3056420972 2.1793974819 3.7214158640
H 0.0572551409 -0.3188454836 -0.5528454559
H 4.5166428032 -0.5652206682 0.6289131462
H 4.3361357755 1.6664527996 4.2520167044
H 2.3466932949 -0.3119547859 -4.0966732261
H 2.3090946189 -4.0839103893 -2.0195750139
H 2.3898722047 -2.8658115111 0.1722705864
