30
CONF4
O 5.2548242291 1.0785519001 1.2464854595
S 5.2389669195 0.0676625128 -0.0164188588
O 5.1910145813 0.9090335960 -1.2002796612
O 6.2221192523 -0.9950443791 0.1628402543
C 3.5351336488 -0.8007157592 0.2399026479
F 3.5661807550 -1.9230351873 -0.4952357862
F 3.4724546883 -1.1175224140 1.5431140639
C 2.3216878078 0.0763591447 -0.1962867135
F 2.3743965223 1.2413491374 0.4910519492
F 2.4482432082 0.3210781913 -1.5168490530
C 0.9178076496 -0.5879792197 0.0434676586
F 0.8649673432 -1.0916703541 1.2942613923
F 0.7761887052 -1.5967856580 -0.8462416372
C -0.2775732676 0.4224827328 -0.1270260376
F -0.3626780345 1.1709609284 0.9956456217
F -0.0326830707 1.2327674088 -1.1788278615
C -1.6531190773 -0.2991238329 -0.3627105053
F -1.7285127077 -1.3738363549 0.4536014939
F -1.7048215409 -0.7135057795 -1.6482479373
C -2.8890231734 0.6275447013 -0.0811570554
F -3.0632603238 0.7200804259 1.2560876038
F -2.6383723749 1.8596378659 -0.5787966747
C -4.2141178554 0.0961400913 -0.7284648583
F -4.1948155685 0.3712058636 -2.0496809304
F -4.2945098518 -1.2432046070 -0.5538045783
C -5.5127071701 0.7312696850 -0.1299288597
F -5.4082334906 2.0671298411 -0.1032255705
F -6.5530473431 0.3927191835 -0.9027017897
F -5.7378033607 0.2823870821 1.1090328105
H 5.5966069261 0.6265723044 2.0427630668
