43
CONF69
C 7.2057227809 -1.0823716264 -0.7508418954
O 5.8082289424 -1.2617348996 -0.4834178752
C 4.9868751464 -0.1779333415 -0.5963974468
C 3.6407577458 -0.4246028008 -0.3234551621
C 2.7779829449 0.6579480470 -0.4319670215
C 3.2166677523 1.9574673837 -0.7964663323
C 4.5678561127 2.1785257495 -1.0625266041
C 5.4462280063 1.1084565138 -0.9615724090
N 2.1430029508 2.8347644425 -0.8162189883
C 1.1142892738 2.0876433828 -0.4749594635
N 1.4218065478 0.7747957965 -0.2367189699
S -0.5561369580 2.7744796036 -0.4759608367
O -1.2716088150 2.2247508858 -1.7123777366
C -1.2416775079 1.8113872357 1.0151174015
C -1.8503969590 0.5132629515 0.5961579001
N -1.0046264238 -0.5202515838 0.4601198790
C -1.4866152817 -1.7067455705 0.0836856185
C -2.8354087466 -1.9509804401 -0.1566628923
C -3.3346798560 -3.2997319643 -0.5738381041
C -3.7028838364 -0.8629131368 -0.0109237498
O -5.0330207825 -1.0567922594 -0.2857616705
C -5.8561086384 -1.1939637502 0.8950711088
C -3.2267246922 0.4069932178 0.3424183616
C -4.1484315923 1.5896969793 0.4200450312
H 7.6517874426 -0.3623655026 -0.0551714574
H 7.6595175823 -2.0625983304 -0.6025946457
H 7.3712520142 -0.7536125083 -1.7833190458
H 3.3066106059 -1.4174104218 -0.0436586471
H 4.9276966491 3.1632835367 -1.3424595872
H 6.4961671173 1.2728573858 -1.1672390900
H 0.7316870117 0.0687112916 0.0713144260
H -0.4069017502 1.6733581495 1.7062098106
H -1.9694063961 2.4925099364 1.4568270984
H -0.7624672001 -2.5125533725 -0.0267744383
H -3.7942572397 -3.2531259519 -1.5664829055
H -4.0996946670 -3.6694026607 0.1159126449
H -2.5136899064 -4.0193642740 -0.6031621923
H -5.5476172616 -2.0733701089 1.4717045450
H -5.7912221022 -0.3003938935 1.5252124994
H -6.8794089007 -1.3220420600 0.5398662153
H -3.7129770580 2.4558925898 -0.0850960191
H -5.1023030515 1.3625994468 -0.0578312232
H -4.3458723161 1.8748765303 1.4599211246
