32
CONF5
C 3.5201793795 0.2998349047 -0.9507344641
C 2.5246407818 1.2458244116 -1.1167411348
C 1.5173965267 1.4072324576 -0.1582256809
C 1.5487321966 0.6005854785 0.9951787710
C 2.5483172467 -0.3363764464 1.1908013922
C 3.5151324987 -0.4755958551 0.2031284801
N 4.5715011819 -1.4768098653 0.3977640510
O 5.4160842088 -1.5963717170 -0.4845751145
O 4.5537974574 -2.1408769505 1.4298951210
Cl 0.3054686907 0.7659562896 2.2116220993
N 0.5145098341 2.3775957733 -0.3631036170
S -0.6633833978 2.0493008706 -1.5824454999
O 0.0699566155 1.7996819637 -2.8255832887
O -1.6341735543 3.1404041343 -1.4652244011
C -1.4274818792 0.5153262482 -1.0646444521
C -2.5707243604 0.5709450897 -0.2789701203
C -3.1352007883 -0.6119684107 0.1856322616
C -2.5224645504 -1.8306154993 -0.1395180945
C -1.3757814265 -1.8715049619 -0.9258384326
C -0.8210525224 -0.6908796622 -1.3994515586
Cl -3.1735823220 -3.3476188823 0.4198595753
C -4.3879715123 -0.5478577586 1.0230904289
F -5.4164868895 -1.2130610173 0.4447966175
F -4.2044580823 -1.0840426285 2.2528716898
F -4.7991916714 0.7237426796 1.2075035799
H 4.2984033097 0.1789429085 -1.6926826709
H 2.5183662173 1.8846294903 -1.9911401899
H 2.5665614566 -0.9553116476 2.0783017436
H 0.0197365532 2.6380219259 0.4904231301
H -3.0195956981 1.5252383087 -0.0327278270
H -0.9222199611 -2.8246413656 -1.1706212512
H 0.0649846832 -0.7197297689 -2.0237970611
