50
CONF74
C 0.7076185045 -2.2585585167 -1.2625143522
C 1.7406098814 -1.2253317610 -1.6459880116
C 1.8720803544 -0.0789156440 -0.8597359224
C 2.7330026370 0.9603568291 -1.2601463018
C 3.4400049655 0.8976761596 -2.4344924850
C 3.3480747704 -0.2470037527 -3.2537872655
C 2.5441278798 -1.3477405665 -2.8187400061
C 2.6719172725 -2.5238964580 -3.6561605481
N 3.2982543768 -2.4834478313 -4.8284806729
C 3.9053123830 -1.3264401339 -5.1832133251
N 4.0298448763 -0.2385839171 -4.4341821133
N 4.4319420067 -1.3001352138 -6.4464217869
N 2.1804061597 -3.7371797672 -3.3037666103
C 1.0720349087 0.1169463645 0.4024590410
N -0.2300965825 0.7178414574 0.0869402204
C -1.2706895048 0.6721679608 1.0043491972
C -1.0182859485 0.4851977631 2.3713017029
C -2.0866134672 0.4958665403 3.2733728858
C -3.4026054529 0.6764961388 2.8313449230
C -3.6391443787 0.8665551325 1.4598099753
C -2.5870542004 0.8591426743 0.5470632795
O -4.9472129250 1.0397503270 1.1172503317
C -5.2442435873 1.2522420768 -0.2686867358
O -4.4541848072 0.6395938703 3.7241099306
C -4.7711946286 1.9370976551 4.2657663303
O -1.9437027446 0.3283830188 4.6187968688
C -0.6150242188 0.1582180001 5.1285567623
H -0.0845024329 -1.8101795557 -0.6617977359
H 0.2342716269 -2.6958043744 -2.1432926776
H 1.1365282356 -3.0707043064 -0.6609676339
H 2.8147455555 1.8408387542 -0.6279614466
H 4.0702227617 1.7180687639 -2.7619540262
H 4.6022623202 -2.1911550875 -6.8859986870
H 5.1049845289 -0.5748865308 -6.6399494791
H 2.4746321412 -4.5141904975 -3.8767959392
H 0.9454535649 -0.8355966511 0.9384460154
H 1.6305424983 0.7837750648 1.0718972746
H -0.5180290907 0.5795404759 -0.8716780833
H -0.0055392142 0.3514759239 2.7240201260
H -2.7618866146 0.9974491419 -0.5130607768
H -4.9447618494 0.3880113550 -0.8730580848
H -4.7484315779 2.1552085699 -0.6435904880
H -6.3260291201 1.3787674266 -0.3211866611
H -5.6087860679 1.7945255857 4.9522612196
H -3.9127231847 2.3471664053 4.8111120478
H -5.0634898284 2.6277764715 3.4656461564
H 0.0067801956 1.0338976405 4.9087476279
H -0.7269582648 0.0498961081 6.2078115167
H -0.1456049396 -0.7420487581 4.7152575836
H 1.9774310175 -3.9476827287 -2.3427878101
