46
CONF4
C 1.2313463930 -2.0264178454 2.4406863979
C 1.0732372801 -2.5628796383 1.0223927367
C -0.3755575365 -2.7735243073 0.6238965845
O -1.0882840602 -1.5201260231 0.6432540771
C -0.5082385289 -0.5519287271 -0.1163326654
C 0.8597862893 -0.5855971279 -0.4370556437
N 1.6593360786 -1.6174577969 0.0432302144
C 2.9596395973 -1.6751578107 -0.2601553111
C 3.5867300634 -0.7388902862 -1.0532864116
C 2.8520330085 0.3925879498 -1.5534137562
O 3.3916511574 1.2938875937 -2.2546190661
C 1.4429575429 0.4471315310 -1.2023591093
C 0.6421877363 1.5154192904 -1.6198566697
C -0.6872458283 1.5274622352 -1.2858375919
C -1.3262229024 0.5192606924 -0.5296325062
N -2.6642846768 0.5349729263 -0.1656997013
C -3.5416118527 -0.5229874548 -0.6882885100
C -4.7224324059 -0.7218376212 0.2474958750
N -5.4537037057 0.5359202451 0.4268577172
C -4.5498837608 1.5521720971 0.9733651839
C -3.3814917647 1.7973820106 0.0263183130
C -6.5993883007 0.3395415632 1.3137472702
F -1.4470404392 2.5437088256 -1.7591197720
C 5.0278250902 -0.9199056470 -1.3426160082
O 5.6831329041 -1.8679200071 -0.9364638390
O 5.5800936016 0.0395364877 -2.0909505523
H 0.7040724117 -1.0759314356 2.5605994738
H 0.8153312693 -2.7487474840 3.1483160948
H 2.2880906252 -1.8752740711 2.6751698867
H 1.6049653228 -3.5127790886 0.9074309507
H -0.8805636885 -3.4181832138 1.3441473121
H -0.4446267740 -3.2086273309 -0.3807563734
H 3.5162474367 -2.5082962436 0.1577505895
H 1.0628992051 2.3048763694 -2.2312465241
H -2.9814567570 -1.4550538594 -0.7787579025
H -3.9066584409 -0.2383722572 -1.6900246178
H -5.4001744056 -1.4680510709 -0.1839454049
H -4.3540502337 -1.1154549527 1.2166866632
H -5.1056152380 2.4890770626 1.0980976110
H -4.1599688881 1.2522491664 1.9670835105
H -3.7665725101 2.1999273823 -0.9232860082
H -2.7045375065 2.5329106458 0.4692276157
H -7.1482963560 1.2809945964 1.4218263552
H -7.2746328021 -0.4080766718 0.8842437876
H -6.2999837965 -0.0038736415 2.3223895012
H 4.8428756460 0.7101670950 -2.3001951750
