35
CONF777
C -0.5738571320 2.3341941346 0.7926268716
C -2.0444454342 2.6683525463 0.8238343776
C -2.8959610926 2.0059344574 -0.2313483631
Br -2.3252786573 2.6205823892 -2.0380543711
Br -2.8243611095 2.0583371372 2.5696528269
O -0.4289904450 0.8985901995 0.7055905870
P 0.7986850372 0.1539108720 1.4080942983
O 1.2545124576 0.7203775223 2.6998509658
O 1.8873629267 0.0734246669 0.2431893040
C 3.3045667474 0.0986236159 0.5273272223
C 3.9682342366 1.1490594756 -0.3306761289
C 3.6337028844 1.1125088913 -1.8017071166
Br 4.3073999584 -0.5841429252 -2.5991100634
Br 3.3877045833 2.9683109992 0.2839961167
O 0.2661984441 -1.3530338166 1.4321188211
C -0.7602248010 -1.7049293960 2.3933165529
C -1.5477584902 -2.8741993325 1.8576475645
C -0.7386441056 -4.0360177412 1.3353585968
Br 0.3067966244 -4.8471453037 2.8239149489
Br -2.6591619394 -2.2739098863 0.2985269957
H -0.0691133589 2.7235396381 1.6805987084
H -0.1281387209 2.7819883576 -0.1030996451
H -2.1697871477 3.7522891502 0.8311740396
H -2.7820247729 0.9233633619 -0.2374533068
H -3.9414537155 2.2937217969 -0.1490710032
H 3.7132768856 -0.8827321223 0.2629092913
H 3.4869583272 0.2945777598 1.5865465117
H 5.0453358938 1.1311795561 -0.1556929540
H 2.5609124128 1.1221292525 -1.9854507458
H 4.1361939898 1.9044866108 -2.3519402683
H -0.2737256879 -2.0040830004 3.3288151497
H -1.4245488157 -0.8574406760 2.5881071301
H -2.2773725440 -3.1880035480 2.6058103770
H -0.0065555396 -3.7329290454 0.5894797078
H -1.3733049626 -4.8369790166 0.9637072336
