48
CONF1
C 5.2370665461 -4.3453387262 -1.1003031331
O 3.8097618825 -4.3736357442 -0.9600209198
C 3.1372691968 -3.2020445220 -1.1159080772
C 1.7441376348 -3.2776685071 -0.9820831701
C 0.9712710808 -2.1405075325 -1.1217353786
C 1.5586470231 -0.8930742594 -1.3950660158
C 2.9471477795 -0.8390542954 -1.5475358557
C 3.7395927831 -1.9737362996 -1.4042557880
C 0.7110117516 0.2979382183 -1.5176118300
Cl 1.1109794089 1.3079039262 -2.9358742573
C -0.2979836980 0.6741271497 -0.6974673204
C -1.2634842300 1.7487722604 -1.0139783954
C -1.5253715899 2.7539917260 -0.0792762582
C -2.4480120574 3.7657248844 -0.3309836230
C -3.1509028547 3.7659904492 -1.5390076841
O -4.0815895565 4.6955227070 -1.8905170068
C -4.3523045897 5.7493729494 -0.9566384859
C -2.9202881527 2.7512484187 -2.4768841467
C -1.9876261005 1.7627211195 -2.2159032636
C -0.4689350191 0.0185499806 0.6211169102
C -1.7459033046 -0.3676437040 1.0585671216
C -1.9286119174 -0.9756357641 2.2882189464
C -0.8321213705 -1.1978485242 3.1311811709
O -1.1119298490 -1.7981670194 4.3206640513
C -0.0168667715 -2.0459183940 5.2126279057
C 0.4445659630 -0.7955406497 2.7271693634
C 0.6103564738 -0.1954824345 1.4828161359
H 5.6919087919 -3.6900904417 -0.3484958898
H 5.5686750524 -5.3716913085 -0.9419805551
H 5.5255014898 -4.0147062553 -2.1047635888
H 1.2858069779 -4.2403870509 -0.7797962816
H -0.1067704410 -2.2102303920 -1.0202644254
H 3.4258730743 0.1092230204 -1.7698606617
H 4.8128516964 -1.8863460667 -1.5197259426
H -0.9912845775 2.7523908831 0.8665947566
H -2.6096481612 4.5340710157 0.4149917399
H -4.7386078903 5.3479258583 -0.0123936185
H -3.4523971150 6.3455372371 -0.7656682578
H -5.1121992123 6.3729044201 -1.4282117390
H -3.4882409420 2.7509379146 -3.4018563091
H -1.8270843093 0.9766454403 -2.9467446285
H -2.6040842127 -0.1966589776 0.4153718244
H -2.9158407849 -1.2849153300 2.6165376197
H -0.4519285151 -2.5338047487 6.0851271207
H 0.7237578067 -2.7084710126 4.7498256814
H 0.4629081353 -1.1079162248 5.5155528483
H 1.3068978635 -0.9330214933 3.3679535983
H 1.6040285090 0.1180359087 1.1785932023
