49
CONF47
C -3.9453256270 -1.0145718181 -0.6451552400
C -3.0041767939 -1.5005755654 0.4375645169
C -1.9262846808 -0.5674215555 1.0176635049
C -1.5652266675 -1.7838445457 0.1249896586
C -0.8361038812 -2.9108731049 0.8282945007
C -1.0111897346 -1.5411369690 -1.2626602809
C -1.7075914566 0.7991210969 0.5549641611
O -2.0020846676 1.3066592919 -0.5072442308
O -1.0360111533 1.5084316376 1.5402707412
C -0.7387276756 2.8848158704 1.2279060677
C -1.1118974623 3.6630149571 2.4080267143
N -1.4190667699 4.2776861657 3.3356497675
C 0.7167293418 3.0628909239 0.8291807714
C 1.2704835758 2.1377510809 -0.0539799444
C 2.5812887019 2.3138286890 -0.4843875875
C 3.3402825717 3.4016444101 -0.0626670385
C 2.7713321807 4.3201386283 0.8108034961
C 1.4649571224 4.1551301527 1.2653497326
O 3.1550567236 1.4670701644 -1.4118481473
C 2.9610546774 0.0998638484 -1.2945278663
C 2.9749233738 -0.5429358324 -0.0582010838
C 2.8719739631 -1.9304453092 -0.0205258024
C 2.7572119225 -2.6677770952 -1.1978135522
C 2.7458327451 -2.0074776636 -2.4244071450
C 2.8441512732 -0.6198559257 -2.4795999537
C -3.7360149161 -2.3452301875 1.4648745823
H -4.3987754343 -1.8853095114 -1.1326465693
H -3.4626746473 -0.4035076916 -1.4037140289
H -4.7531364391 -0.4241602431 -0.1992708149
H -1.7052164644 -0.7051406951 2.0708509671
H -1.0179153807 -3.8540380623 0.2994513458
H 0.2417957986 -2.7201074560 0.8100287867
H -1.1393124621 -3.0363913609 1.8680838933
H 0.0724159193 -1.3870119794 -1.2036133421
H -1.4480611367 -0.6782288301 -1.7626961972
H -1.1872167022 -2.4278327800 -1.8826979208
H -1.3838541148 3.2027131830 0.3960245827
H 0.6986833699 1.2894435109 -0.4133804656
H 4.3589454076 3.5128175779 -0.4181339189
H 3.3553416483 5.1683924973 1.1522977349
H 1.0386828410 4.8763864654 1.9544992236
H 3.0759222168 0.0315185212 0.8565984964
H 2.8912034169 -2.4368934526 0.9395121035
H 2.6759860762 -3.7489946962 -1.1581954861
H 2.6541169728 -2.5717596316 -3.3471867783
H 2.8377628512 -0.0898907335 -3.4263389633
H -4.0757261339 -3.2800182328 1.0041456141
H -3.1248808635 -2.5932089685 2.3334802030
H -4.6196624315 -1.8046777328 1.8200507285
