59
CONF29
C 1.9753455969 -2.6917200267 -1.0362544259
C 3.3466577604 -2.9299632075 -1.6810648234
C 4.3025256413 -2.7420880844 -0.5011826589
C 3.7537187102 -1.5069384292 0.2429229225
C 2.2148391247 -1.5424830205 -0.0327849966
C 4.3742502425 -0.2209448826 -0.3038194038
C 3.8974489059 1.0175993937 0.4090620047
O 3.8588974359 2.1093824781 -0.1396988362
N 3.5119537169 0.8879694544 1.7482802058
C 3.5936816387 -0.3089119516 2.4701967042
O 3.2917926283 -0.3475458812 3.6543099621
C 4.0763777096 -1.5321179202 1.7323068176
C 3.0212671540 2.1051688890 2.4300039948
C 1.5725795886 2.4279871980 2.0693583526
C 0.5568690878 1.4035936427 2.5721845214
C -0.8576779823 1.7087503394 2.0767775661
N -1.0018275477 1.4960690328 0.6290753651
C -2.1055688141 2.2827820460 0.0694104331
C -2.1721437256 2.0956180233 -1.4448522774
N -2.3295371525 0.6786407907 -1.7728900207
C -1.2634711269 -0.1366395332 -1.1910877772
C -1.2125027249 0.0782660491 0.3185027046
C -3.5381753511 0.1463503640 -2.1208038643
N -4.5415777534 1.0093327878 -2.4171497116
C -5.6935028800 0.4671709383 -2.8059491412
C -5.8952285194 -0.9045268689 -2.9084396709
C -4.8051867556 -1.6996341230 -2.5735055251
N -3.6335195737 -1.2053156184 -2.1801374337
H 1.6659941785 -3.5967968865 -0.5009234426
H 1.1920075584 -2.4552404150 -1.7625152208
H 3.4342884114 -3.9152668379 -2.1486054945
H 3.5423622041 -2.1760707143 -2.4534806519
H 5.3512789468 -2.6174548846 -0.7902385287
H 4.2372781652 -3.6166684232 0.1591767387
H 1.8827830461 -0.5856690975 -0.4523379486
H 1.6519810782 -1.6956746474 0.8936954587
H 5.4673950383 -0.2549621986 -0.1879824898
H 4.1635111012 -0.0759145603 -1.3666360142
H 3.6324209292 -2.3986408059 2.2304980670
H 5.1648034707 -1.5917479990 1.8804938365
H 3.6758089133 2.9282930772 2.1350803166
H 3.1267967111 1.9342289946 3.5025316028
H 1.3395596074 3.4094226217 2.5025814051
H 1.4831352192 2.5322510307 0.9832469471
H 0.5514396175 1.3951323738 3.6693134785
H 0.8512628863 0.3940016023 2.2599836509
H -1.0815901561 2.7628650577 2.2863190133
H -1.5965419578 1.1077004411 2.6398066003
H -3.0814457484 1.9932837864 0.5105827744
H -1.9353141575 3.3427446966 0.2909853894
H -1.2330111152 2.4447471261 -1.8939799153
H -2.9986967833 2.6657949932 -1.8658966853
H -1.4328522006 -1.1870655562 -1.4229691007
H -0.3103476864 0.1779818488 -1.6369743648
H -2.1573288313 -0.2923285251 0.7670378764
H -0.3922714986 -0.5138185603 0.7348140881
H -6.4952652860 1.1659400206 -3.0438290616
H -6.8412401284 -1.3261820623 -3.2236209280
H -4.8750751780 -2.7862095341 -2.6199953587
