45
CONF14
C -0.6165274446 2.1648768037 -1.5936178145
C -1.5704389599 1.6651551319 -0.5575608281
C -1.8612071221 0.3759535972 -0.3483285910
C -2.8013899844 -0.0780442042 0.6871381628
C -2.4659552435 -1.3194350955 1.5743202169
C -3.6155461320 -1.3441796375 0.5921703918
C -3.5805445258 -2.1919803489 -0.6606510790
C -4.9869006647 -1.2981156787 1.2364277228
C -1.1546066511 -1.9454055020 1.3542591983
O -0.7398440280 -2.4885616786 0.3491509146
O -0.3744962648 -1.7733937930 2.4627192504
C 1.0299800518 -2.0970980305 2.2858646819
C 1.6672863745 -1.1267228702 1.3307690753
C 1.6752413960 0.2370177900 1.6077421041
C 2.1747112436 1.1620684746 0.7047708618
C 2.6994855580 0.7733670902 -0.5227073117
C 2.7155466857 -0.5909946146 -0.7871409948
C 2.2103973369 -1.5189302404 0.1124296849
F 2.2492945298 -2.8187338450 -0.2221819648
F 3.2227599722 -1.0366327421 -1.9507965610
C 3.2736121078 1.7668492949 -1.4873367318
O 4.6703243612 1.8882850584 -1.2091276973
C 5.2865633199 2.8236605267 -2.0976770038
F 2.1463956631 2.4653151338 1.0368423550
F 1.1754651112 0.6789001778 2.7755330458
H -1.1233863896 2.8175550467 -2.3152850085
H -0.1497726415 1.3394356895 -2.1397338404
H 0.1758586220 2.7692813086 -1.1346624554
H -2.0561453687 2.4205577324 0.0622382021
H -1.3723718493 -0.3793821366 -0.9603776592
H -3.2525664400 0.7274850211 1.2627471561
H -2.7171266985 -1.1853223668 2.6215209502
H -4.3303423868 -1.8144721747 -1.3647715100
H -3.8395958058 -3.2278647046 -0.4161524000
H -2.6089097898 -2.1939783097 -1.1497476514
H -5.3100934912 -2.3076099898 1.5142351441
H -5.7181895874 -0.8874026312 0.5316586014
H -4.9881717427 -0.6758936245 2.1362542623
H 1.4577231177 -2.0007365096 3.2849375198
H 1.1426546607 -3.1221872007 1.9307471148
H 2.7731983259 2.7377840243 -1.3688412266
H 3.1168328460 1.4216933525 -2.5190560606
H 4.8386555367 3.8218227247 -1.9907589223
H 6.3436628817 2.8687989121 -1.8285433542
H 5.1884803034 2.4972147526 -3.1427528405
