44
CONF108
C 5.1714968802 1.2053034159 -1.1182408560
C 3.7738123132 0.6171194111 -1.2768044721
C 2.7454165868 1.5957829295 -1.9581182630
N 1.4441891920 1.2202310249 -1.4579243231
C 1.3418657552 0.7401181318 -0.0754393500
S 3.0557511458 0.2948590125 0.4292047354
C 0.3449746912 -0.3605707369 -0.5825459271
C 0.5471600309 0.2916706706 -1.9725366125
O 0.1658228230 0.0771144359 -3.0986584632
N -0.9686872053 -0.4777954895 -0.0337289757
C -1.8824712388 0.5176497462 -0.1455268561
O -1.6255216098 1.5806488780 -0.7084084916
C -3.2887844057 0.2105598710 0.3957210067
C -3.3031227638 -0.8018738978 1.5176284896
C -3.8108674546 -2.0856278707 1.3182493368
C -3.8040815793 -3.0309577028 2.3412215361
C -3.2826203686 -2.6890139651 3.5883460772
C -2.7702673451 -1.4064877850 3.8060373789
C -2.7847738063 -0.4772374671 2.7770876488
O -3.2465829043 -3.5630836782 4.6365638568
N -3.8949556438 1.4787214298 0.8150748949
C 3.0761222372 3.0609202409 -1.7184460571
O 2.5240254925 3.5388483855 -0.5922596272
O 3.7820173799 3.7095363299 -2.4587424801
C 3.8267194697 -0.6808279260 -2.0836681937
H 5.1705412860 2.1139292219 -0.5105278956
H 5.5821857522 1.4403114075 -2.1056407807
H 5.8297128805 0.4727552128 -0.6429268011
H 2.7775450094 1.4414065359 -3.0411179093
H 0.9162572380 1.4565025970 0.6309978228
H -1.2130914750 -1.3118680798 0.4803726071
H -4.2209565916 -2.3559627786 0.3486394020
H -4.2072808994 -4.0262923299 2.1741288151
H -2.3664613942 -1.1552014364 4.7816362172
H -2.3873692671 0.5185174533 2.9487843529
H -3.6262545734 -4.4092459854 4.3643075343
H -3.7641249688 2.1582104389 0.0710061073
H -4.8953239429 1.3408908683 0.9154892580
H 4.2780600536 -0.4842089894 -3.0630227348
H 4.4356055042 -1.4221319098 -1.5600821224
H 2.8314997318 -1.1061897237 -2.2398897340
H 2.7899641013 4.4696481114 -0.4905800370
H -3.8023697479 -0.2479070060 -0.4709514012
H 0.8276971488 -1.3420117967 -0.5773978192
