37
CONF15
C -2.4722128607 -1.7622600083 2.0894415106
C -2.1603102966 -0.5266649404 1.2487715561
C -1.7618228311 0.6829144205 2.0923406941
N -1.1405240270 -0.8042203643 0.1918441804
C -1.4623767260 -0.3629392395 -1.1307888188
C -2.3385677870 -1.1128117847 -1.9154868209
C -2.6994752664 -0.6706506840 -3.1831655986
C -2.1637535964 0.5222023494 -3.6423763375
C -1.2903452078 1.2872271250 -2.8857003622
C -0.9472887618 0.8417724652 -1.6143209477
F -2.5060750079 0.9532565854 -4.8742001162
C 0.1074334973 -1.2352900805 0.5350904394
O 0.4782680900 -1.4254669098 1.6824022160
C 1.0409704273 -1.5830567009 -0.6389745673
O 2.4070191774 -1.6033279225 -0.1760652342
C 2.8670642837 -0.4233329560 0.2084383468
N 2.2641517536 0.7253375415 0.0375472700
N 2.9901306049 1.7632756693 0.5224954103
C 4.1151057480 1.3953212618 1.0484875875
S 4.4242308236 -0.3314116408 1.0130738255
C 5.1174914448 2.3632234280 1.6082585957
F 5.5925289902 1.9241519443 2.7984229336
F 6.1857144024 2.4876103801 0.7831817216
F 4.5862381092 3.5758995162 1.7854937805
H -2.7229441156 -2.6151475188 1.4511860777
H -3.3358391176 -1.5485832776 2.7266467164
H -1.6276751403 -2.0338447413 2.7237899376
H -3.0609466375 -0.2683521816 0.6797677965
H -2.5751686531 0.9326452566 2.7807221901
H -0.8630048372 0.4679952454 2.6734709441
H -1.5728136302 1.5544161447 1.4582467580
H -2.7361116190 -2.0457015267 -1.5284096387
H -3.3768102379 -1.2358281883 -3.8130074871
H -0.8959869532 2.2137563767 -3.2870871052
H -0.2556037000 1.4086647372 -0.9992233614
H 0.8410099494 -2.6077841416 -0.9634126716
H 0.9483012908 -0.9029959413 -1.4869007119
