49
CONF268
C 1.0247013241 3.6593114955 -2.4688651816
C 0.8713224831 2.4513801676 -1.5489175714
C 2.1604510089 2.2498485086 -0.7251931865
C 2.0265069276 1.2141666766 0.3585000535
C 1.6111943095 1.5809056392 1.6446551076
C 1.4508323432 0.6399858979 2.6511616717
C 1.6802915071 -0.7156711552 2.3856475021
C 2.0948000651 -1.1051042678 1.1122298984
C 2.2786448342 -0.1379496266 0.1251827188
O 1.4561754789 -1.5678391106 3.4256647069
C 1.5140891427 -2.9700408131 3.1483584780
N 0.6388835838 1.2301322399 -2.3285708849
C -0.5943851081 1.1549412298 -3.1011358113
C -1.8898560980 1.0363870691 -2.2773301829
C -1.8634975538 -0.1822433702 -1.3884703244
C -1.7174544612 -0.0638357290 -0.0132286517
C -1.6391010117 -1.1849731996 0.8192534444
C -1.7074665145 -2.4743169169 0.2595257833
C -1.8764801155 -2.5852303275 -1.1258928827
C -1.9444690612 -1.4674065633 -1.9377330352
O -1.5644170577 -3.6138079356 0.9697352275
N -1.4151467548 -0.9358466742 2.1991997734
C -1.7707571126 -1.6574249913 3.2831029066
O -2.3742947741 -2.7316034954 3.2772978856
O -2.9451437130 0.9783825707 -3.2469755134
H 0.0997426943 3.8861329827 -3.0057439998
H 1.8126909362 3.4723043704 -3.2060021787
H 1.2893962598 4.5463782621 -1.8854831113
H 0.0553954594 2.6649941428 -0.8282856008
H 2.9608836996 1.9735261607 -1.4216296539
H 2.4305434065 3.2104151827 -0.2729123028
H 1.4276364661 2.6292968355 1.8660055990
H 1.1655831162 0.9344159923 3.6572806715
H 2.2845450125 -2.1451504728 0.8782723417
H 2.6330643673 -0.4517352516 -0.8531964798
H 1.2241825876 -3.4666522234 4.0750906646
H 2.5308079969 -3.2770719921 2.8733983532
H 0.8119983036 -3.2437036786 2.3500533174
H 0.6656744546 0.4324702714 -1.6988018116
H -0.5420597835 0.2725532412 -3.7518118044
H -0.6813911471 2.0237471642 -3.7612568599
H -2.0058820444 1.9337230933 -1.6477149784
H -1.6531509231 0.9244830893 0.4376778039
H -1.9354071232 -3.5858842030 -1.5406582115
H -2.0722566788 -1.5815981411 -3.0095624151
H -1.9075436030 -3.4546627857 1.8900557075
H -0.8810176250 -0.0969921030 2.3919212556
H -1.4567796441 -1.1751575619 4.2240763376
H -3.7620800875 0.7720195863 -2.7783137702
