141
CONF722
C 5.4561139088 2.7596619806 3.7459652795
C 6.2688658497 2.2723100551 2.5480506658
C 5.4406247294 2.2119444636 1.2769788938
O 4.4200767733 1.1718033313 1.4708178543
C 3.1305702729 1.5044717143 1.3561721788
O 2.7285136142 2.6208806956 1.0596849267
C 2.2220925298 0.3480409185 1.6932696704
C 0.8740765378 0.3998888236 0.9548332174
O 0.1875291199 1.6032034348 1.3438184405
C 0.9879648766 0.2605453795 -0.5806509132
C 2.0462628801 -0.7805416216 -0.9726222655
C -0.3588506339 -0.1501956567 -1.2273002348
O -1.4732936598 0.4961074102 -0.5827392599
C -2.3909663111 -0.3010995060 0.1296913169
O -3.5486500153 -0.5855936527 -0.6518084957
C -4.5086350355 0.4968484059 -0.6173813841
C -5.4634923063 0.3077955771 -1.7731404124
C -5.1732659107 0.5545987859 0.7704091653
O -6.3568005557 -0.2689231909 0.8303148789
C -7.4500936125 0.3006538559 1.5474108029
C -8.3111270251 -0.8323618348 2.0846690893
C -9.0639422327 -1.5807393869 0.9848668220
C -10.0186052261 -2.6059540135 1.5776639713
O -8.1533504367 -2.3206185465 0.1353514497
C -9.8160723997 -0.5522235667 0.1145626462
O -10.4307137122 -1.1934493349 -1.0043956895
C -8.8801335582 0.5580106553 -0.3759435135
C -9.6140896857 1.6599730248 -1.1104266070
O -8.2035814031 1.1897984884 0.7375175732
C -4.1847908242 0.0401211595 1.8294684739
C -2.7528896861 0.4371464647 1.4488320397
O -2.6493885346 1.8513005010 1.3173225761
N -4.6376537895 0.3221584322 3.1942815707
C -4.5102389473 1.7134470622 3.6326681634
C -4.0279730837 -0.5740936979 4.1755413805
C -0.4365118155 0.1615256444 -2.7374786837
C -1.6264632899 -0.5796463161 -3.3473062684
C -1.4423560952 -2.0471436737 -3.5512136298
O -0.4193567596 -2.6680485400 -3.3261196776
C -0.5057479415 1.6777259478 -3.0152573832
C 0.2018373465 2.1402560299 -4.3223542102
C -0.4619732410 1.6444417155 -5.6024865259
C 1.6631874197 1.7268175071 -4.2484819422
O 2.0938138922 0.7737202044 -4.8996864776
C 2.5128738162 2.4724416539 -3.3089434053
C 3.6240374752 1.9009096873 -2.7964025505
C 4.5050815245 2.4721647847 -1.7998850572
C 4.4081639592 3.9390099500 -1.4985961141
C 5.3300368840 1.6118262638 -1.1614921768
C 6.2445107096 1.9074912282 -0.0094309753
C 7.2770072112 0.7958815005 0.1458672938
O 6.5922071060 -0.3867485252 0.5749629474
C 7.4027847842 -1.5249656773 0.6870718444
O 7.7774592499 -2.0668026716 -0.5738999540
C 6.6597624834 -2.4568437808 -1.4019324996
C 7.2330654808 -2.9363351875 -2.7174472450
C 5.8560817695 -3.5304847244 -0.6736957477
O 4.7259978776 -3.8613795482 -1.4819837768
C 5.4032040837 -3.0314768248 0.6941586407
O 4.7297613837 -4.1232108159 1.3290914278
C 3.5553429560 -3.7440997832 2.0552385515
C 6.6098073754 -2.5658713449 1.5006369240
O 6.1412614825 -2.0599606169 2.7416241328
C 7.1831197205 -1.8182528783 3.6900896578
H 5.0430382316 3.7565700380 3.5588640251
H 6.0820873838 2.8128527537 4.6412109846
H 4.6243008526 2.0805530863 3.9589560758
H 6.6922694190 1.2828825431 2.7540710155
H 7.1095406281 2.9514084346 2.3601804776
H 4.9123099976 3.1574098649 1.1312215470
H 2.7433267644 -0.5985042530 1.5390153563
H 2.0177402028 0.4269673576 2.7694572832
H 0.2694630770 -0.4320274949 1.3381025445
H 0.8238789693 2.3232981796 1.1896983713
H 1.3004202801 1.2376569675 -0.9711757763
H 3.0543714605 -0.4519879024 -0.7054933995
H 1.8517596293 -1.7374570550 -0.4734385846
H 2.0437445352 -0.9601924555 -2.0509400525
H -0.4626750664 -1.2367203204 -1.0922406579
H -1.9567577963 -1.2831824399 0.3584845059
H -3.9649531531 1.4407801098 -0.7477416716
H -4.9174943557 0.3747506626 -2.7182711026
H -6.2249519499 1.0928152376 -1.7554978501
H -5.9614220456 -0.6640656222 -1.7189842226
H -5.4637486199 1.5953590316 0.9556067119
H -7.0662421401 0.9187955503 2.3658300952
H -7.6913144305 -1.5308698783 2.6572623586
H -9.0436781855 -0.3909244487 2.7692364685
H -10.5029510149 -3.1794493177 0.7830794379
H -10.7910560200 -2.1087004478 2.1712375234
H -9.4675215812 -3.2956593476 2.2240184807
H -7.3383088468 -1.7985949312 0.0564127380
H -10.6230675267 -0.1051253759 0.7098357022
H -9.7611551879 -1.7987403355 -1.3599059638
H -8.1305842412 0.1025659395 -1.0386536267
H -10.1364312045 1.2494676725 -1.9773734263
H -8.9083228723 2.4210037045 -1.4558408142
H -10.3474712741 2.1333576468 -0.4488908326
H -4.2134110930 -1.0533866858 1.7288032548
H -2.0542016903 0.0811573344 2.2205815245
H -1.7092029254 2.0027948549 1.1081217685
H -4.9247448183 2.3938432099 2.8841031233
H -5.0780856554 1.8410009221 4.5618499410
H -3.4661739948 2.0138381231 3.8217486449
H -4.1875416107 -1.6166629199 3.8806171177
H -2.9414066428 -0.4116473095 4.3040118442
H -4.5019402353 -0.4158252306 5.1505420517
H 0.4735194969 -0.2427728826 -3.1935219491
H -2.5269843216 -0.4491740263 -2.7280056119
H -1.9127213292 -0.1767652630 -4.3284012124
H -2.3339867058 -2.5736039473 -3.9561102554
H -0.0619043518 2.2281519641 -2.1792589428
H -1.5526211002 1.9990702954 -3.0682606148
H 0.1748318287 3.2383494237 -4.3043877308
H -1.5245169552 1.9061390295 -5.6065457522
H 0.0096329885 2.1027336573 -6.4772491303
H -0.3655871470 0.5613739817 -5.7105635285
H 2.1702639193 3.4495509646 -2.9780326760
H 3.8493745262 0.8825564418 -3.1113274491
H 4.3731834789 4.5156124144 -2.4284197097
H 3.4916600134 4.1568413125 -0.9395785261
H 5.2550474222 4.2898933940 -0.9058072901
H 5.2953414822 0.5692493239 -1.4724604575
H 6.8076955247 2.8297984489 -0.2126255400
H 7.7717195380 0.6232477376 -0.8203146304
H 8.0445163242 1.0662610295 0.8841478659
H 8.3592266667 -1.2784141917 1.1694861237
H 6.0071564452 -1.5872888234 -1.5667919160
H 7.8156852033 -2.1388592848 -3.1869336531
H 6.4257582234 -3.2226882863 -3.3954307458
H 7.8820760208 -3.8034049257 -2.5567805713
H 6.4978880453 -4.4165176401 -0.5299378549
H 4.1663166390 -4.4377659227 -0.9421798438
H 4.7050345579 -2.1918982830 0.5545164610
H 3.7994864234 -3.0791867473 2.8913271447
H 2.8317240248 -3.2461242287 1.3946062447
H 3.1143876723 -4.6672020732 2.4389791437
H 7.2794563948 -3.4251928644 1.6721085753
H 7.8108820464 -2.7109739040 3.8200494260
H 6.6952432278 -1.5779844382 4.6372810671
H 7.8176941746 -0.9722748210 3.3940858783
