41
CONF3
C -4.1143547035 -2.8304327369 3.0988834744
C -3.3951358792 -1.9801103728 2.1020786825
C -3.8794344324 -0.7357494557 1.7040869040
C -3.1389299355 -0.0050143214 0.7797366807
N -1.9918291238 -0.4958175779 0.2831221799
C -1.6179952695 -1.7076431248 0.7103195497
N -2.2533509230 -2.4762776930 1.5978927944
N -0.4499923523 -2.2662447576 0.1977625151
C 0.4455828708 -1.8052607181 -0.7593894072
O 1.4248953700 -2.4688479497 -1.0723529317
N 0.1405791787 -0.5766642566 -1.3029637589
S 1.1876796159 0.2432801507 -2.3501831373
O 0.5975088136 1.5863946322 -2.4465243586
O 1.3754331976 -0.5627076809 -3.5588250710
C 2.7801349209 0.3715784430 -1.5220880655
C 3.7916512195 -0.4816428113 -1.9508458383
C 5.0737595978 -0.3333196734 -1.4335872646
C 5.3421462226 0.6793779391 -0.5181132663
C 4.3298765740 1.5407522104 -0.1093575114
C 3.0299538797 1.3882742509 -0.5925930873
C 2.0007236831 2.3439948449 -0.0765110562
O 2.1144417247 3.5488360627 -0.1413663045
O 0.9979558947 1.6997260200 0.5328786963
C -0.0560783288 2.5440309612 1.0656119830
C -3.5674519346 1.3489355916 0.3144926917
H -5.0300668400 -2.3494932512 3.4457372711
H -4.3614446266 -3.7989795453 2.6522980989
H -3.4630954603 -3.0275911931 3.9566529278
H -4.8083693062 -0.3449074978 2.1026737834
H -0.2186003264 -3.1811469397 0.5620888970
H -0.6479200397 -0.0539580592 -0.8812753645
H 3.5751683167 -1.2444975665 -2.6881636587
H 5.8628019938 -1.0019701768 -1.7600301727
H 6.3446040669 0.8053219669 -0.1230761983
H 4.5361049935 2.3359909422 0.5993439517
H 0.3648019009 3.2820509506 1.7515120146
H -0.7260244028 1.8648176888 1.5900301282
H -0.5741603359 3.0453626598 0.2442367891
H -3.2868019150 2.1014237667 1.0610438454
H -4.6532860131 1.3926903861 0.2005213125
H -3.0814817865 1.6054373892 -0.6286001880
