25
CONF5
C 1.3407069755 -0.0109827634 -1.8422727954
C 0.3714932813 0.7562844672 -1.2210300240
C 0.5738849130 1.1867373870 0.0899455464
C 1.7408268477 0.8559900408 0.7787675731
C 2.7087286029 0.0925831141 0.1536832876
C 2.5226949244 -0.3571382643 -1.1658255790
N 3.4646226035 -1.1653412853 -1.7681671406
S -0.6893103199 2.1202213160 0.9176200326
O -1.5708681655 2.7099530102 -0.0909867011
O -0.0865336631 2.8885100680 2.0073897271
N -1.6724740410 0.9504759781 1.7507737021
C -2.2703413179 -0.0888016012 1.0447168517
N -2.1809708429 -1.3347393348 1.4185533184
C -2.9465126420 -2.1357899502 0.6090852545
C -3.6147062227 -1.5101677365 -0.3981324616
S -3.3139730650 0.2014727904 -0.3430875203
H 1.1879693763 -0.3462488618 -2.8638866210
H -0.5322768840 1.0377899878 -1.7487982100
H 1.8923034842 1.2152093236 1.7909128313
H 3.6212787818 -0.1618416252 0.6845966351
H 3.4434850247 -1.2136868041 -2.7737232440
H 4.3956490062 -1.1388602692 -1.3854774140
H -1.1794852401 0.5951987836 2.5669481590
H -2.9700576629 -3.2030202051 0.7951313633
H -4.2361335377 -1.9438074599 -1.1685996830
