43
CONF6
C -2.5758561728 -1.1857519431 1.1556588896
C -2.6772217058 -2.4332637032 0.2343455866
C -2.4408558903 -1.8607349549 -1.1859777865
C -2.2643090480 -0.3359268496 -0.9470485415
C -0.7775638306 0.0396188005 -0.7118162684
C -0.2210228913 -0.8638645398 0.3933732884
C -1.1310154579 -0.9332466953 1.6106904152
O 1.0928317096 -0.4257661125 0.8395508564
C 2.1446225033 -0.7589953076 0.0668374465
O 2.0553425731 -1.4206238991 -0.9525264166
C 3.4227325551 -0.2252280710 0.6037495344
C 3.4657452649 0.6193599950 1.7190577407
C 4.6874397578 1.1017424996 2.1746367554
C 5.8679366636 0.7442275339 1.5255559215
C 5.8273862224 -0.0972301565 0.4145290091
C 4.6093368248 -0.5790048952 -0.0473924904
C -0.6884145973 1.5200194059 -0.3966160165
O -0.4110180286 2.0285967272 0.6682445595
O -0.9780366316 2.2369907391 -1.5034542423
C -0.9769416509 3.6751313284 -1.3338760770
N -2.9872916609 -0.0439097995 0.3055053804
C -4.4399525067 0.0010418770 0.1011204722
H -3.2283968619 -1.2542391373 2.0313348220
H -1.9446911244 -3.1974793832 0.5102561834
H -3.6677880316 -2.8886012336 0.3132189270
H -1.5726155425 -2.2988417641 -1.6865930423
H -3.3069359187 -2.0335838736 -1.8298725283
H -2.6591318713 0.2680682739 -1.7677807105
H -0.2242708647 -0.1362122395 -1.6409749450
H -0.0965214285 -1.8624844246 -0.0343228520
H -0.7962971971 -1.7434514430 2.2674448708
H -1.0847009573 0.0088964998 2.1629397580
H 2.5473968170 0.8996099707 2.2211563942
H 4.7191764343 1.7589904142 3.0376498272
H 6.8199441019 1.1223403653 1.8849175118
H 6.7461683758 -0.3757331080 -0.0914375844
H 4.5627519258 -1.2324081356 -0.9117191417
H -1.2440603709 4.0815564058 -2.3086194176
H -1.7125789631 3.9665790686 -0.5802944602
H 0.0156454206 4.0190598513 -1.0329752800
H -4.8641765521 -0.9207606207 -0.3311598485
H -4.6819157766 0.8328444786 -0.5682619672
H -4.9308758175 0.1826681402 1.0624727483
