38
CONF31
C -6.5088417040 0.0749255189 1.6932129874
C -5.1428118797 0.4672641271 1.1477749072
C -5.0335958044 0.0304910448 -0.3131216084
O -4.5669055470 -1.0216966911 -0.6879859803
O -5.5734850904 0.9590260033 -1.1141081177
C -5.6108108188 0.6233520566 -2.5272634579
O -4.1699579361 -0.2085970619 1.9412261641
C -2.8501958217 0.1071087007 1.7588474447
C -1.9519570138 -0.6057052635 2.5604887640
C -0.5908546914 -0.3618128727 2.4671280353
C -0.1368682628 0.5925163679 1.5663260119
C -1.0093527648 1.3087855041 0.7691977963
C -2.3801714218 1.0686891649 0.8621291180
O 1.2338595697 0.9023180666 1.5210120304
C 2.0380896215 0.1195229829 0.7711552205
C 3.4162860880 0.4141291605 0.7812837515
C 4.2667267755 -0.3608688194 0.0254477202
C 3.7225391051 -1.4090871253 -0.7238573354
C 2.3547807611 -1.6283589743 -0.6762791120
N 1.5321189974 -0.8722454620 0.0600019343
C 4.6319378166 -2.2719758620 -1.5385699021
F 5.4582097198 -3.0173724259 -0.7560753030
F 5.4378893544 -1.5335062740 -2.3444170910
F 3.9543931423 -3.1317773389 -2.3285459899
Cl 4.0283108193 1.7371399417 1.7351105208
H -6.6457568175 -1.0077096725 1.6240104505
H -7.2947340434 0.5736718367 1.1213998617
H -6.5835755371 0.3812743033 2.7392457562
H -5.0069058516 1.5540944596 1.2154706364
H -6.2019625190 -0.2823307583 -2.6796516176
H -6.0792588782 1.4774951712 -3.0134293827
H -4.5950840066 0.4735144749 -2.8997799731
H -2.3371027558 -1.3455446464 3.2539756288
H -0.6267927423 2.0505126498 0.0762592930
H -3.0507822280 1.6404665921 0.2319155388
H 5.3319542146 -0.1556675055 0.0155767500
H 1.8946423446 -2.4311940070 -1.2448336696
H 0.1157594734 -0.9071682020 3.0838263734
