49
CONF1
C -4.1804602433 2.6616984602 0.3000496453
C -2.7615833314 2.1045369972 0.2519425179
C -1.9442532503 2.7771501363 -0.8656826564
C -0.5137743449 2.3028954863 -0.9045108570
C -0.0813806364 1.3555629140 -1.8419737265
C 1.2238811106 0.8833844304 -1.8455752310
C 2.1416129515 1.3562411765 -0.9025568318
C 1.7342447406 2.3002692341 0.0442865656
C 0.4166376768 2.7570737225 0.0322322935
O 3.4040872650 0.8439105155 -0.9914943671
C 4.4020056337 1.3838995966 -0.1135731894
N -2.7735966170 0.6504985634 0.0205483565
C -3.0067632021 -0.1386044113 1.2330811262
C -2.8835955141 -1.6269163938 0.8863658696
C -1.4966979488 -1.9381119769 0.3354268270
C -0.3735920085 -1.6640428888 1.1213755327
C 0.9138239340 -1.8605977140 0.6301824530
C 1.0882025386 -2.4035371237 -0.6544229035
C -0.0249730362 -2.7138724063 -1.4241258394
C -1.3083051089 -2.4667918968 -0.9389035481
O 2.3736203471 -2.5911476926 -1.0746511484
N 2.0581472511 -1.5334175652 1.3833125431
C 2.1486772375 -0.4950844599 2.2531473025
O 3.1546982436 -0.2400102070 2.9095433411
O -3.9224263974 -2.0101086411 -0.0159841824
H -4.6816268058 2.5053735725 -0.6615727425
H -4.1595885384 3.7354281310 0.5122444230
H -4.7743023349 2.1764833671 1.0803823286
H -2.2595092034 2.3337430646 1.2118613838
H -2.4331793846 2.5753384259 -1.8268483093
H -1.9769935477 3.8598415192 -0.7000397679
H -0.7803090365 0.9820745071 -2.5866294652
H 1.5497124127 0.1493166389 -2.5758653373
H 2.4243263724 2.6871745884 0.7846696557
H 0.1124530781 3.4932439570 0.7722958474
H 5.3281503590 0.8670796391 -0.3672320496
H 4.1523621854 1.1938793448 0.9359246996
H 4.5232700040 2.4613709023 -0.2773497217
H -1.8491692537 0.3907093030 -0.3202704111
H -4.0187937710 0.0452861269 1.6114736120
H -2.2998414909 0.1109681656 2.0438963276
H -3.0449471461 -2.2112104423 1.8010016816
H -0.5025451710 -1.3067405387 2.1381697666
H 0.1160545437 -3.1312551947 -2.4177729122
H -2.1670795803 -2.6994726970 -1.5579895711
H 2.3715915282 -2.9749358978 -1.9621572906
H 2.9110206391 -2.0470419737 1.1938142445
H 1.2303064734 0.1130182680 2.3135012787
H -3.9723702662 -1.3046892601 -0.6794888681
