38
CONF87
C 2.9658133316 2.3410328743 -1.8010658247
C 2.5307167323 2.6971210074 -0.3804602436
C 1.4600376666 1.7706940486 0.1569639155
O 0.2750456145 1.9266549035 -0.6473892693
C -0.7405284566 1.0087682684 -0.2974165301
C -0.3727890375 -0.4277649864 -0.6304438418
N -0.4702188872 -1.4363314806 0.1398594019
C -0.8406618744 -1.3142706717 1.4826456315
C 0.1351901695 -1.0542121086 2.4512377976
C -0.1885996587 -1.0181909848 3.7996927279
C -1.5015627377 -1.2568438840 4.1877905906
C -2.4916779560 -1.5299610083 3.2563893609
C -2.1597031867 -1.5620392354 1.9038946073
C -3.2216388631 -1.8520741649 0.8842098274
F -4.4372152782 -2.0359271405 1.4429821020
F -3.3560619465 -0.8376697393 -0.0153328217
F -2.9496466551 -2.9696611750 0.1625759381
Cl -1.9197987222 -1.2177896851 5.8932704670
N 0.1155773046 -0.6501274290 -1.9304408188
C -0.0089169805 0.1817645688 -3.0389465166
C 0.6004304967 -0.4801284193 -4.0616330995
N 1.1149949313 -1.6936213951 -3.6228075182
C 0.8060480252 -1.7706764693 -2.3530864106
H 3.7787935111 2.9919279203 -2.1362229157
H 3.3183167170 1.3041876505 -1.8485556278
H 2.1355468407 2.4443651651 -2.5051764152
H 3.3862127504 2.6357266697 0.3026966994
H 2.1643238129 3.7301016139 -0.3378995477
H 1.8071444774 0.7252136917 0.1077006727
H 1.2162083369 2.0016248844 1.2050068891
H -0.9851297001 1.0607067176 0.7723442369
H -1.6364828892 1.2826205632 -0.8671472849
H 1.1573629505 -0.8794741856 2.1326083380
H 0.5760883897 -0.8069400476 4.5386691826
H -3.5100865611 -1.7121405870 3.5757525882
H -0.5095904457 1.1342442959 -2.9941261134
H 0.7049289678 -0.1569529702 -5.0877878947
H 1.0515281058 -2.5739568005 -1.6728177806
