68
CONF30
C 1.6366930152 -4.5898042094 -0.7310103388
C 2.3522732097 -3.4474228455 -1.4487559675
C 1.5989104502 -2.0954783854 -1.4282156643
C 0.2646564097 -2.1915922967 -2.1733070980
C 1.4457020513 -1.6873849831 0.0363949981
O 0.1659038041 -1.5521247365 0.4187942945
C -0.0948256844 -1.1443374391 1.8026638526
C -0.2107614876 -2.4099386592 2.6348401045
C -0.4969207340 -2.0861493440 4.1002473050
C -1.6035094549 -1.0800564026 4.1905978332
C -2.0188134704 -0.3060425497 3.1708038178
C -3.1150609825 0.6361108429 3.3418963946
C -3.4271357126 1.5645499753 2.4247260680
C -2.6331923576 1.7776944682 1.1682382766
C -1.2361124674 1.1285241665 1.2962211215
C -1.3885602250 -0.3344257701 1.7885724759
C -0.3959810086 1.2711905341 0.0237588445
C -0.2492248800 2.7122747484 -0.4675062933
C 0.7333760670 2.8199382270 -1.6171548868
C 0.9079273513 4.2235177810 -2.1659639939
C 1.8835347835 4.2466892258 -3.3573711845
C 2.0964008018 2.8233549906 -3.9192339105
C 0.8584933120 1.9736820105 -3.8755767655
O 0.1966694388 1.9752465167 -2.6985145019
O 0.4350051022 1.2955708836 -4.7901551934
O 1.4613376169 5.1585875627 -4.3754753936
C -3.4365106010 1.3153451153 -0.0606855165
C -0.8292914225 -3.3547084567 4.8929674255
O 2.3931542159 -1.4985418433 0.7783938932
C 2.4780726046 -1.0249166804 -2.1003754134
H 2.2482838908 -5.4966914921 -0.7550523036
H 1.4509033744 -4.3447112384 0.3213597220
H 0.6755319833 -4.8248850388 -1.1972154814
H 3.3391691289 -3.2925581254 -0.9984933114
H 2.5173520352 -3.7100925824 -2.5011245707
H -0.4244158097 -2.8973086277 -1.7052259336
H -0.2275412955 -1.2156025045 -2.2179286861
H 0.4560806570 -2.5227829816 -3.1995228121
H 0.7459449190 -0.5328175540 2.1499305182
H 0.7125739428 -2.9918810407 2.5427057067
H -1.0336155083 -3.0160302766 2.2317468017
H 0.4108897541 -1.6450788497 4.5443446101
H -2.1013932836 -0.9776574718 5.1552064136
H -3.6945228528 0.5582260465 4.2599577219
H -4.2850152111 2.2152089747 2.5846615066
H -2.4871823900 2.8622747610 1.0653661665
H -0.7120507776 1.6727116888 2.0978938467
H -2.0832878908 -0.8552801497 1.1120032364
H -0.8118255153 0.6491812193 -0.7748850542
H 0.6128885566 0.8905433124 0.2205444720
H -1.2091343189 3.1318764448 -0.7903050640
H 0.1248846784 3.3491118673 0.3445490246
H 1.7001564639 2.3915661675 -1.3163947075
H 1.2467163508 4.8940223938 -1.3711382305
H -0.0763341569 4.5782459139 -2.4986581375
H 2.8590012191 4.6258568486 -3.0409892765
H 2.4749785574 2.8642196870 -4.9412884890
H 2.8489132032 2.3144857021 -3.3009508423
H 0.5696582027 4.9125750891 -4.6567112126
H -2.9367218912 1.5845111891 -0.9960592247
H -4.4236082380 1.7886284097 -0.0594472781
H -3.5889423069 0.2316647221 -0.0507590787
H -0.0086017445 -4.0765478992 4.8293476528
H -1.7347957770 -3.8263670190 4.4954678430
H -1.0006181605 -3.1214687348 5.9486330172
H 3.4498097453 -0.9483426968 -1.6058509456
H 2.6351653697 -1.2922390517 -3.1503938614
H 1.9884955564 -0.0459181208 -2.0665774788
