47
CONF147
C -2.9909178232 0.9907938949 2.4532106854
C -2.5314097343 0.2204486829 1.2361571502
C -3.5463150359 -0.3939486488 0.2978799147
C -2.8155860711 0.8803876179 -0.1164842194
C -1.8218712371 0.7967910412 -1.1961306358
O -1.3490181564 -0.2081190262 -1.6814151117
O -1.4491226753 2.0558943821 -1.5873775091
C -0.3380439220 2.0885447510 -2.5287150060
C -0.4264179069 3.3889129526 -3.1895348913
N -0.4619823682 4.4142710372 -3.7186582526
C 0.9764701279 1.9030366742 -1.8067059912
C 1.6878353893 0.7172930745 -1.9791774732
C 2.8479940311 0.4983502820 -1.2513269555
C 3.2857940846 1.4787866472 -0.3617504479
C 2.5919433918 2.6617929126 -0.1810350810
C 1.4279610634 2.8728691483 -0.9111415664
F 4.4150611347 1.2527635123 0.3369410491
O 3.5811672646 -0.6480674484 -1.4520995774
C 3.6357960848 -1.5706941781 -0.4145176208
C 4.6410835731 -2.5291761146 -0.5070125093
C 4.7333520843 -3.5089897162 0.4749892860
C 3.8348375626 -3.5311375876 1.5415161749
C 2.8356624405 -2.5647652574 1.6155433773
C 2.7247690404 -1.5777028007 0.6378225929
C -4.9880735652 -0.3268892547 0.5466355183
C -5.8544111886 -1.3142689264 0.3175586877
Cl -5.4130457333 -2.8733406963 -0.3226210843
Cl -7.5606963701 -1.1486951807 0.6438539506
C -1.2377166879 -0.5323314067 1.4482392644
H -3.8763907665 1.5991494361 2.2595347664
H -2.1897502119 1.6568732778 2.7894568045
H -3.2185301925 0.2951094481 3.2684171917
H -3.1915396401 -1.2821277018 -0.2157392953
H -3.3623614404 1.8158900985 -0.0640418232
H -0.4740849103 1.3062731025 -3.2841065643
H 1.3406317574 -0.0538744402 -2.6581445455
H 2.9676360857 3.4014147114 0.5173265897
H 0.8719246504 3.7953566406 -0.7765800288
H 5.3349407469 -2.4962881973 -1.3403832766
H 5.5168381792 -4.2571865335 0.4068964410
H 3.9130844804 -4.2959773200 2.3067872376
H 2.1266062608 -2.5735496966 2.4376179557
H 1.9380768041 -0.8330077961 0.6957218373
H -5.4035038850 0.5932284448 0.9460635815
H -0.4296144817 0.1673684454 1.6916036221
H -0.9445837524 -1.1121260447 0.5714961769
H -1.3544782174 -1.2193361531 2.2930597291
