44
CONF72
C 3.7393021647 -1.4090721879 -2.2008047126
C 3.0974642484 -0.4343296642 -1.2177563197
C 4.0028333662 -0.0894749395 0.0241621897
N 3.1041599289 0.1982430867 1.1216886683
C 1.8812686004 -0.6155811432 1.2201988139
S 1.5729423855 -1.2542207616 -0.4745378556
C 1.1301967613 0.6696818330 1.7314735054
C 2.4517776076 1.3981050820 1.3799921199
O 2.8158351554 2.5476251645 1.3056755368
N -0.0258915834 1.1270833560 1.0390292256
C -1.2707848123 1.0823714827 1.5719505417
O -1.5113777781 0.7191329891 2.7227313207
C -2.3921038229 1.5599576192 0.6335019451
C -3.5607232887 0.5968491917 0.6827482532
C -3.3661774017 -0.7630092297 0.4230580963
C -4.4354784601 -1.6493221229 0.3938844189
C -5.7296494700 -1.1773647213 0.6298518678
C -5.9419595668 0.1753293039 0.8942339001
C -4.8592680383 1.0488525422 0.9189517851
O -6.8228415232 -1.9977926003 0.6160441994
N -1.8930609876 1.8216985407 -0.7298911688
C 4.9295749664 -1.2337366180 0.4024351931
O 6.1151900122 -1.1219079210 -0.2162924058
O 4.6314313699 -2.1380947637 1.1505940751
C 2.7023779318 0.8566036531 -1.9350458139
H 4.6364089575 -0.9558293297 -2.6346773920
H 3.0418856669 -1.6210550583 -3.0158645350
H 4.0113335702 -2.3557493637 -1.7265550924
H 4.5986525939 0.7994525061 -0.2045025662
H 1.9330990153 -1.4458347147 1.9263695910
H 0.0321620788 1.4258960218 0.0715617435
H -2.7161959363 2.5187526767 1.0588061678
H -2.3624790459 -1.1423554552 0.2417263475
H -4.2707308196 -2.7048562803 0.1936501678
H -6.9505506668 0.5308786214 1.0799416763
H -5.0312721817 2.1018771611 1.1255039425
H -6.5439009813 -2.9041330126 0.4272034537
H -1.9367715966 0.9630334671 -1.2722153558
H -2.5203240106 2.4720633144 -1.1910453738
H 1.9847305267 0.6352207283 -2.7293331727
H 2.2463775684 1.5832893797 -1.2580162498
H 3.5924072147 1.3113723209 -2.3848532504
H 0.9211077178 0.6260690243 2.8046524818
H 6.6599217533 -1.8965058861 0.0112031027
