46
CONF5
C 0.8113954938 -3.5071766589 -0.5977790460
C 0.9688584310 -2.2782245134 -1.4884887712
C -0.3634341945 -1.7143670575 -1.9603594998
O -1.1494866756 -1.2785623943 -0.8454169602
C -0.4954442279 -0.3858859891 -0.0364070081
C 0.9071668644 -0.3164750578 -0.0054719706
N 1.6653744992 -1.1933580082 -0.7758087241
C 3.0096827018 -1.1182394527 -0.7753464670
C 3.7117602013 -0.1979719630 -0.0443491009
C 3.0151201898 0.7536243976 0.7905972470
O 3.6066414695 1.6096383728 1.4843442537
C 1.5561516830 0.6612469108 0.7745042946
C 0.7836987444 1.5273550854 1.5537269534
C -0.5814140300 1.4015785182 1.5495023906
C -1.2857897995 0.4687449476 0.7537321020
N -2.6670786940 0.3888616926 0.6786904214
C -3.3374761773 -0.8550916022 1.0665148666
C -4.6376514033 -1.0004277837 0.2916035388
N -5.4962264881 0.1614971107 0.5180918786
C -4.8027793425 1.3794402830 0.1002710596
C -3.5121534129 1.5620732459 0.8913998673
C -6.7636015465 0.0166383725 -0.1876935083
F -1.3007490019 2.2035638946 2.3672120027
C 5.2013059903 -0.2337084336 -0.1542137359
O 5.7804153093 -1.0333920988 -0.8608431372
O 5.8440596677 0.6746752636 0.5824880399
H 0.1928508176 -3.2776619151 0.2742742091
H 0.3338448225 -4.3163823655 -1.1581071846
H 1.7873311475 -3.8554039826 -0.2500420899
H 1.5712552398 -2.5233619996 -2.3714042229
H -0.9536574937 -2.4834489088 -2.4627125227
H -0.2011780774 -0.8697607009 -2.6441210903
H 3.5449281639 -1.8334722039 -1.3945155675
H 1.2762062317 2.2591570937 2.1830924540
H -3.5576138101 -0.8391121065 2.1481897042
H -2.6857907749 -1.7052883734 0.8584367576
H -4.3998004487 -1.1313416936 -0.7845882627
H -5.1638643962 -1.8996308625 0.6349943767
H -4.5650733711 1.3615869130 -0.9836496184
H -5.4575493227 2.2390356949 0.2884402468
H -2.9902086655 2.4528098003 0.5320939033
H -3.7569839692 1.7057331647 1.9552560046
H -6.6377008430 -0.0604411390 -1.2857266845
H -7.2797539880 -0.8842045773 0.1607510878
H -7.4048205859 0.8790621916 0.0225811802
H 5.1524116300 1.2111912798 1.0715246621
