44
CONF43
C -4.0328084509 -2.7236974871 -0.3596969886
C -2.6557080542 -2.2887020455 0.1030461434
C -1.5567433624 -2.4669829531 -0.9491054734
O -1.5814971273 -1.2175489597 -1.6462417133
C -1.8070771187 -0.2452278596 -0.6415765118
O -2.6449827450 -0.8576591919 0.3246932053
C -2.5559766979 0.9513397882 -1.2513723421
N -3.8006112492 0.5575429571 -1.8754172043
C -3.9941043452 -0.0587084497 -3.0650160219
N -5.2799175552 -0.3086150329 -3.2498034923
C -5.8412562500 0.1849390309 -2.1094737567
N -4.9893125831 0.7166858586 -1.2437210491
C -0.4962532418 0.2127796494 0.0087181971
C -0.3974567036 0.2337136519 1.4035304862
C 0.7578928141 0.6259345045 2.0603017226
C 1.8596867309 1.0241245608 1.3111430898
C 1.8006545216 1.0393446310 -0.0790865963
C 0.6282763355 0.6367909504 -0.7084813206
Cl 0.6459360534 0.6992778079 -2.4669682551
O 2.9608896446 1.4572627268 2.0102847091
C 4.2141188745 1.3661540064 1.4296497293
C 4.6736278690 0.1757455873 0.8730696128
C 5.9668153649 0.1100190851 0.3702371158
C 6.7845600664 1.2332990288 0.4414333316
C 6.3321356930 2.4193901129 1.0066588224
C 5.0339309666 2.4852060103 1.5003748757
Cl 8.4164860673 1.1481620860 -0.1909064482
H -4.2584650978 -2.3009541982 -1.3434137221
H -4.7937566312 -2.3808405637 0.3455932009
H -4.0818492284 -3.8160343538 -0.4234964591
H -2.3856043625 -2.7735344562 1.0495057570
H -0.5712635217 -2.6290950668 -0.4888747614
H -1.7680451489 -3.2587844940 -1.6707306250
H -2.7896681156 1.6553954799 -0.4502100440
H -1.9156584047 1.4422242536 -1.9880238944
H -3.1813860732 -0.2975180535 -3.7369593977
H -6.9047230554 0.1583251473 -1.9116395249
H -1.2615753249 -0.0838064427 1.9748628052
H 0.8189613198 0.6301372427 3.1424325869
H 2.6493320166 1.3651015265 -0.6676617576
H 4.0251524465 -0.6928048112 0.8346531704
H 6.3410586558 -0.8091633355 -0.0648648802
H 6.9839954100 3.2835587607 1.0557230885
H 4.6521886036 3.3972235214 1.9453081832
