41
CONF103
C -4.7531273446 1.4564867772 1.1081274153
C -4.2303441998 0.4326438045 2.1155963988
N -3.3537808316 -0.5750447772 1.5157675983
C -3.8771129209 -1.9369479270 1.4497249826
C -4.8782481568 -2.1354142704 0.3127698050
O -4.2987333123 -1.9163425309 -0.9658980728
C -2.0871597009 -0.2451613321 1.0904662547
C -1.3199677826 -1.1285338552 0.2831379490
C -0.0466185809 -0.8024259399 -0.1207951618
C 0.5325691823 0.4279193668 0.2447577829
C -0.2265898184 1.3149648784 1.0205822489
C -1.5041521287 0.9985154438 1.4323399668
N 1.8045833394 0.8609575198 -0.1100890102
N 2.4826075728 0.0501073692 -0.8081161118
C 3.7660834195 0.5168583701 -1.1458532415
C 4.5275019331 -0.3451776530 -1.9481168286
C 5.8069458793 0.0051651542 -2.3437475539
C 6.3208229323 1.2283803818 -1.9263886420
C 5.5854003028 2.1034238435 -1.1263997672
C 4.3088457901 1.7482940106 -0.7367304034
N 7.6788814115 1.6103303140 -2.3392645337
O 8.3039718887 0.8219072416 -3.0421339840
O 8.1073190358 2.6945625713 -1.9556266479
H -5.3729635867 2.2025879293 1.6147119638
H -5.3648159157 0.9697241643 0.3423995293
H -3.9328857065 1.9773896141 0.6074977581
H -5.0742733069 -0.1005729275 2.5634282798
H -3.7148644527 0.9361010801 2.9444923176
H -4.3718936612 -2.1674037269 2.4041748125
H -3.0497029990 -2.6418698511 1.3442700027
H -5.2274296013 -3.1736276598 0.3205628021
H -5.7578821782 -1.4892337077 0.4680763258
H -3.9662482374 -1.0097859348 -0.9899435890
H -1.7504967555 -2.0606613041 -0.0601025244
H 0.5187565082 -1.4851429545 -0.7442775683
H 0.2200111404 2.2645400971 1.2977258578
H -2.0456286141 1.7136434814 2.0372792553
H 4.0883195746 -1.2898840298 -2.2497893546
H 6.4096173110 -0.6458958897 -2.9639654624
H 6.0278157795 3.0448044103 -0.8251505567
H 3.7148677917 2.4069769629 -0.1155008062
