44
CONF8
C -3.6099223461 1.2028134768 -1.7082015400
N -3.9186088796 0.3014148564 -0.6121064240
C -3.6351106411 -1.1248777272 -0.8217901644
C -4.0982622514 -1.7155984247 0.5254238031
C -3.8478609085 -0.5656495447 1.5430023039
C -3.2694010460 0.5728547189 0.6776971569
C -1.7308482091 0.4839383516 0.5838503541
C -1.3147774686 -0.9078114657 0.1157965726
C -2.1338945613 -1.3861763900 -1.0741603933
O 0.0855527882 -0.8894212317 -0.3146167681
C 1.0171030915 -0.9504040897 0.6483829342
O 0.7763642314 -1.0947490471 1.8315940356
C 2.4123120625 -0.7952517011 0.0670565035
C 3.4710344545 -1.1240606676 1.1327416949
O 3.3488704441 -2.4462637087 1.6317100833
C 2.6014298958 0.6086095651 -0.4652961078
C 3.1591815892 0.8266753789 -1.7250237578
C 3.3714537512 2.1206813572 -2.1907501192
C 3.0250218050 3.2129117190 -1.4014315107
C 2.4674531587 3.0043906314 -0.1429131247
C 2.2592229297 1.7110407784 0.3229679739
H -2.5481275542 1.2437214740 -2.0073858423
H -4.1916374398 0.9077878964 -2.5887769675
H -3.9155868930 2.2184078046 -1.4327664149
H -4.2193071828 -1.5042657656 -1.6685509803
H -5.1617168632 -1.9603093761 0.4771520472
H -3.5561171975 -2.6316454000 0.7786052988
H -3.1644988554 -0.8523228979 2.3477315164
H -4.7874233870 -0.2462484497 1.9993820975
H -3.5577213198 1.5655519858 1.0431329122
H -1.2775542854 0.6990837979 1.5573187058
H -1.3526419046 1.2284303961 -0.1269597418
H -1.3873003304 -1.6179769876 0.9453073601
H -1.8096616425 -0.8527298381 -1.9749364527
H -1.9553333352 -2.4534100387 -1.2477040141
H 2.5059461959 -1.5088632481 -0.7596448490
H 4.4613908413 -1.0458005518 0.6732136678
H 3.4110423008 -0.3795626823 1.9399426098
H 2.5406612443 -2.4602236748 2.1610886806
H 3.8050347061 2.2752243153 -3.1737442946
H 3.1880071196 4.2221726426 -1.7652770111
H 2.1934515734 3.8515793044 0.4778283213
H 1.8194513399 1.5529397736 1.3045500273
H 3.4252053264 -0.0242018075 -2.3458121467
