41
CONF116
O 8.8348181636 0.6808590058 -0.7648721405
N 8.1216417518 -0.3179159580 -0.6286122660
O 8.5702380206 -1.4674979320 -0.5829369218
C 6.6874918818 -0.1317952767 -0.5174758334
C 6.1617794574 1.1604285809 -0.5720041555
C 4.7948874064 1.3263122823 -0.4669445375
C 3.9419138090 0.2173986612 -0.3078236885
C 4.4994673333 -1.0786974017 -0.2545005229
C 5.8637635438 -1.2517057129 -0.3589886525
N 2.5814192959 0.5168883196 -0.2151170453
N 1.8242337153 -0.5073415991 -0.0782336126
C 0.4768776786 -0.2581071050 0.0154413814
C -0.3592743029 -1.3865016809 0.1594494916
C -1.7226861203 -1.2669725260 0.2624256530
C -2.3475478441 0.0122141371 0.2237337915
C -1.4935603579 1.1512201755 0.0778175419
C -0.1337794183 1.0187025333 -0.0211754524
N -3.6912830468 0.1631017098 0.3170188849
C -4.6256260114 -0.9625372902 0.3424144310
C -5.0831975927 -1.3276057276 1.7544649107
O -4.0188185412 -1.7802209890 2.5933214171
C -4.3270315215 1.4882709194 0.3029233110
C -4.5467048175 2.0141981988 -1.1138272643
H 6.8188949862 2.0118017167 -0.6951811843
H 4.3570481253 2.3182246864 -0.5064993633
H 3.8514705509 -1.9373038230 -0.1310539202
H 6.3006514343 -2.2417710630 -0.3193408006
H 0.1021884878 -2.3688476570 0.1958667832
H -2.3115309130 -2.1635855682 0.3934320925
H -1.9163435258 2.1457948247 0.0291026270
H 0.4826893388 1.9025580376 -0.1366592662
H -5.5110058342 -0.6759944451 -0.2387564885
H -4.1919617691 -1.8322253786 -0.1566488964
H -5.8761946624 -2.0843014469 1.6730169433
H -5.5055000485 -0.4468230032 2.2489489431
H -3.7609581745 -2.6626602286 2.2985136304
H -5.2896890456 1.3861159958 0.8122079406
H -3.7354033671 2.1871214326 0.9001673634
H -5.0524537411 2.9833601656 -1.0721189059
H -5.1727574163 1.3244529149 -1.6878198954
H -3.5981666225 2.1413867159 -1.6430363078
