11
CONF2
C 1.2749328033 0.1936121425 -0.0460897460
N 1.1309405562 1.5348942105 -0.1849774664
N 2.4195430958 -0.3727658899 0.0819767661
N 0.0939937596 -0.6044093120 -0.1545801577
N -1.2226622049 -0.2455514600 0.0352895454
O -2.0191886279 -1.1762115029 0.0735607121
O -1.5142814885 0.9423028891 0.1323165415
H 2.3506569010 -1.3846231075 0.1296554773
H 0.2044575826 -1.6108639703 -0.1090656994
H 0.2263821001 1.9488828940 -0.0222050284
H 1.9446053191 2.0760820193 0.0634260502
