37
CONF216
C -0.3386877669 -4.1413438038 -0.3946530442
C 0.2513555658 -2.9178224400 0.2647202320
O -0.7082520019 -1.8064548148 0.1838249342
P -0.5695388733 -0.6927641146 -0.9444833094
O 0.1681328640 -1.0506082805 -2.1716484201
O -2.0534814551 -0.2014888130 -1.1925324099
C -2.9571928541 0.1142002729 -0.0809283600
C -3.9864342903 -0.9813853985 0.0661900243
O 0.0525993331 0.6055725725 -0.1608532425
P 1.5723397793 0.7588652194 0.4188885595
O 2.0297351951 -0.3862741617 1.2316505971
O 2.4766134215 1.0441287765 -0.8475727214
C 2.0750988270 1.9883804417 -1.8952428749
C 3.1948130726 2.0358908667 -2.9049579557
O 1.4692622815 2.1725810078 1.1482750945
C 1.1618080316 2.2316663339 2.5790086384
C -0.2713329716 1.8432986920 2.8706913175
H -0.4997311322 -3.9645599645 -1.4617683501
H -1.2905157292 -4.4139155046 0.0700985261
H 0.3544593846 -4.9815936721 -0.2837501989
H 0.4206939384 -3.0606638853 1.3338840229
H 1.1937491894 -2.6159341103 -0.1984781779
H -3.4152387672 1.0695861070 -0.3499299963
H -2.3771827834 0.2522425219 0.8372517422
H -4.6907121341 -0.7113061852 0.8597143709
H -4.5457267383 -1.1126325244 -0.8638963328
H -3.5088038497 -1.9279567759 0.3311088439
H 1.9013422156 2.9661561674 -1.4332619638
H 1.1466477267 1.6226917583 -2.3442329883
H 3.3621167198 1.0460155530 -3.3372843802
H 2.9235279001 2.7256773102 -3.7097922080
H 4.1222332854 2.3850714557 -2.4434542229
H 1.8700606589 1.5873593063 3.1090958904
H 1.3562683241 3.2728282512 2.8448828180
H -0.4484925794 0.7863557772 2.6500865486
H -0.4747906309 2.0063262789 3.9339111935
H -0.9667423634 2.4518094823 2.2854382372
