37
CONF2
C -3.3455351448 -0.4070729131 1.1571935159
C -1.8256345846 -0.3829641819 1.3329951134
C -1.3854863172 -1.5296008876 2.2488910450
C -1.0922714433 -0.4403341129 -0.0409713444
C 0.4287948301 -0.2769905817 0.0705603228
C 1.2276671237 -0.7589747846 -0.9682977209
C 2.6100302571 -0.6087770772 -0.9643588374
C 3.2035996156 0.0468389143 0.1073871592
C 2.4372068380 0.5450399292 1.1518160664
C 1.0585007459 0.3841295509 1.1277014877
O 4.5753058974 0.2735660094 0.2515164676
C 5.4547664792 -0.1822674079 -0.6724480083
F 5.4180080115 -1.5263023767 -0.8110348092
F 6.6762231531 0.1637005327 -0.2625517090
F 5.2520808148 0.3517866392 -1.8969810114
C -1.6231288437 0.6490494289 -0.9600095907
C -1.3586961718 1.9953737083 -0.7138673043
N -1.8370982410 2.9801328547 -1.4746894993
C -2.5867534451 2.5997185649 -2.5142381793
N -2.8966640676 1.3506184294 -2.8615277559
C -2.4130278722 0.3812150551 -2.0761379571
O -1.3925317550 -1.6844821287 -0.6891498680
H -3.7123706684 0.4772465962 0.6301945142
H -3.8329365442 -0.4423075352 2.1360570124
H -3.6510154468 -1.2930464518 0.5922146528
H -1.5583873125 0.5717427085 1.8033523167
H -0.2975904095 -1.6168059821 2.3240741783
H -1.7810726672 -1.3777419581 3.2573772713
H -1.7883641515 -2.4842879694 1.8913370563
H 0.7565640786 -1.2595419438 -1.8071701293
H 3.1913318474 -0.9958403077 -1.7904593563
H 2.9288966697 1.0514716952 1.9745753296
H 0.4837677042 0.7780381976 1.9580347535
H -0.7280245682 2.2936264912 0.1237392903
H -2.9827961945 3.3952018728 -3.1447446778
H -2.6619878878 -0.6413004266 -2.3438251294
H -0.9513693294 -2.3798582469 -0.1869492606
