49
CONF15
C -5.5204784383 -0.4744912754 -2.5867438497
C -4.2543302403 -1.1066759224 -2.0014478810
C -3.2819597110 -1.4892743389 -3.1212848076
C -3.5863777999 -0.1463681797 -1.0157236690
C -4.3806261731 0.2260494530 0.2690325201
C -4.4190015298 -1.1419045225 1.0183574620
C -3.0349031826 -1.7705492667 0.6846307877
C -2.3644333427 -0.6882312416 -0.2166016118
C -2.1013938105 0.4930687294 0.6884257776
C -3.3481490346 1.0578343953 0.9865660446
C -3.4650962157 2.1307146179 1.8565152363
C -2.2912971607 2.6493591885 2.4107254201
C -1.0425560438 2.0986937229 2.1327976347
C -0.9360323947 0.9903350963 1.2731021861
N 0.2814565054 0.3696255299 0.9395642151
C 1.5214711143 0.5444540678 1.4932266370
O 1.7570663366 1.2948910674 2.4433097656
C 2.5925656931 -0.2496326468 0.8677595716
C 2.6349049096 -0.8863056756 -0.3689725977
N 3.8547098556 -1.4491461016 -0.4752403872
N 4.6237804757 -1.2338739637 0.6053566068
C 3.8689090461 -0.5029687259 1.4246423925
C 4.4002447869 -0.0432526503 2.7406508755
F 5.3605388339 -0.9127850102 3.2030213818
F 5.0333940264 1.1822598183 2.5912776358
C 4.3817859966 -2.2135249584 -1.5983647196
H -6.2585719015 -0.2530954963 -1.8096973175
H -5.9877820482 -1.1469756853 -3.3136095799
H -5.2781650625 0.4633646777 -3.1014258014
H -4.5458594928 -2.0251754773 -1.4772357138
H -2.4010233836 -2.0097536756 -2.7328650165
H -3.7689446870 -2.1489752185 -3.8469573424
H -2.9402223381 -0.5940115516 -3.6551003669
H -3.3024268735 0.7656884086 -1.5593298018
H -5.3544984347 0.7003584436 0.1396521762
H -5.2398545953 -1.7597753014 0.6421391382
H -4.5713050481 -1.0002511151 2.0913720746
H -3.1432000176 -2.7101962408 0.1347487790
H -4.4323134142 2.5633348134 2.0940942277
H -2.3425935466 3.5061196237 3.0760178780
H 1.9127487425 -0.9610588399 -1.1701314224
H 3.6291678165 0.0719863984 3.5051543566
H 5.2543904418 -1.7033484450 -2.0135117082
H 3.6036370939 -2.2909545100 -2.3580272338
H 4.6678411206 -3.2118958170 -1.2590666719
H -2.4346223955 -1.9708649509 1.5759218683
H -1.5244614286 -1.0557095413 -0.8093982000
H 0.2063209814 -0.3551409197 0.2416239223
H -0.1536018201 2.5218567765 2.5769795909
