47
CONF348
C -5.4014417002 -2.5228878314 -0.7015221975
C -4.5180242683 -2.4926856659 0.5454944290
C -4.2647719756 -1.0826194138 1.0887644541
C -3.4581203942 -0.1940858426 0.1405565272
C -3.1339471043 1.1960216918 0.7091557850
C -4.3634692635 2.1195712024 0.6896876684
C -4.2395182852 3.3616499325 1.5720601876
C -1.9976669419 1.8390190899 -0.0711814484
O -0.8005023655 1.0599684781 0.1595862307
C 0.2999599609 1.4654986952 -0.5307128917
O 0.2994609929 2.4140215759 -1.2899908007
C 1.4431929823 0.6004541050 -0.2188532243
C 2.6358563214 0.8237340549 -0.7999351832
C 3.8645893044 0.0774597739 -0.6172912301
C 3.9761584994 -1.0380898692 0.2358870850
C 5.1677132375 -1.7158296588 0.3741089990
C 6.3025807015 -1.3024348478 -0.3399595577
C 6.2212481293 -0.1997450367 -1.1925937795
C 5.0110709141 0.4714469107 -1.3191590042
O 7.4241917153 -2.0392774497 -0.1315560126
C 8.6046893855 -1.6652006384 -0.8392762790
H -5.6270824060 -3.5511938507 -0.9999830329
H -6.3530303084 -2.0114271794 -0.5170958088
H -4.9196025760 -2.0330837497 -1.5527640805
H -4.9892671740 -3.0935254711 1.3330291298
H -3.5551212601 -2.9727475697 0.3259488148
H -3.7209002530 -1.1589478113 2.0396601985
H -5.2314207278 -0.6167470204 1.3224044091
H -3.9954366010 -0.0595674954 -0.8082907198
H -2.5195785450 -0.7084481037 -0.1004687101
H -2.7995999374 1.0806571856 1.7511324017
H -4.5668699209 2.4149977911 -0.3493474950
H -5.2374803911 1.5451110230 1.0151544680
H -4.0541358843 3.0796765345 2.6139917466
H -5.1604649465 3.9518063805 1.5450878179
H -3.4234208316 4.0175485512 1.2549945771
H -2.2149879641 1.8520012728 -1.1469919897
H -1.8061719229 2.8696658032 0.2440821807
H 1.2689696716 -0.2052720244 0.4858979014
H 2.6842615615 1.6646690424 -1.4907725039
H 3.1128038913 -1.3774165067 0.7980283776
H 5.2544045425 -2.5749973335 1.0302916946
H 7.0805255593 0.1417104759 -1.7558881845
H 4.9517332267 1.3287940549 -1.9835699214
H 9.3713958893 -2.3779297016 -0.5341215470
H 8.9227261564 -0.6495376691 -0.5720819691
H 8.4544996017 -1.7317859693 -1.9242192046
