47
CONF155
C -3.0064197589 -0.4569738166 2.5649537473
C -2.4501321649 -0.7153662601 1.1829656789
C -3.3600881739 -1.2007301213 0.0778398738
C -2.9044287757 0.2577895796 0.0913483989
C -1.9577887471 0.7001573616 -0.9422580136
O -1.3014106294 0.0000825432 -1.6827592002
O -1.8771441626 2.0681757484 -0.9496434367
C -0.8403424396 2.6036893234 -1.8211563850
C -1.2358699426 3.9829261538 -2.0974543905
N -1.5159730050 5.0794122821 -2.3254429140
C 0.5113801467 2.5202437124 -1.1510762208
C 1.4540498012 1.6115639312 -1.6279782385
C 2.6619877358 1.4608649460 -0.9635369412
C 2.9136134314 2.2312518545 0.1705794227
C 1.9899327037 3.1408014248 0.6538543201
C 0.7795889805 3.2836859518 -0.0143884750
F 4.0904100502 2.0718213285 0.8061044164
O 3.6162120903 0.5977288612 -1.4513562058
C 3.8556885156 -0.5691614639 -0.7366359583
C 2.9949235880 -1.0414180195 0.2499460341
C 3.3008671131 -2.2409234843 0.8907187601
C 4.4436696470 -2.9587722723 0.5503670692
C 5.2903445738 -2.4692857341 -0.4442432940
C 5.0034799877 -1.2730272769 -1.0917811396
C -4.7776489007 -1.4953468130 0.2982720316
C -5.4523993582 -2.4945665031 -0.2711936711
Cl -4.7548651197 -3.6338385523 -1.3894907501
Cl -7.1441066602 -2.7767642818 0.0510756288
C -1.0284405506 -1.2292026603 1.1879281111
H -2.3365796650 0.2159777230 3.1099854106
H -3.0689823119 -1.3980786377 3.1224814957
H -3.9980286194 -0.0008037374 2.5435018474
H -2.8604442110 -1.8015698194 -0.6757094216
H -3.6207460992 1.0064563228 0.4122556397
H -0.8340249462 2.0492614062 -2.7664358461
H 1.2545335870 0.9984028056 -2.5000804815
H 2.2251417683 3.7250064968 1.5366423880
H 0.0438684660 3.9901075905 0.3571137752
H 2.0981332035 -0.4919636261 0.5149481187
H 2.6312320587 -2.6127910359 1.6601328644
H 4.6738536694 -3.8916885214 1.0537748169
H 6.1848894014 -3.0197002682 -0.7183852852
H 5.6535006097 -0.8780426456 -1.8653818769
H -5.3406150109 -0.8578964290 0.9731894583
H -0.9791562875 -2.1451710089 1.7860896719
H -0.3615743819 -0.4894566554 1.6458830461
H -0.6640909214 -1.4528675920 0.1840662272
