47
CONF20
C -5.0296457696 -3.9749233386 1.3732971986
C -4.0371401128 -3.3866118442 0.4078968834
C -4.3927747179 -2.3038077621 -0.4028851521
C -3.4900882990 -1.7455268516 -1.2989042918
C -2.2125414179 -2.2804933796 -1.3821027349
C -1.8257259312 -3.3553774813 -0.5995877124
C -2.7449310148 -3.9005065018 0.2923976709
O -1.3149322433 -1.7605250875 -2.3297403249
P -0.2935042274 -0.5847814408 -1.9794186157
O 0.5289890162 -0.1553911230 -3.1200055454
O 0.4919827280 -1.1948514542 -0.7040834278
C 1.6296048976 -0.5810739151 -0.1553813219
C 2.7553528397 -0.3259126072 -0.9266187322
C 3.8504738116 0.2819442793 -0.3224404315
C 3.8434759677 0.6247916560 1.0319562415
C 2.6998830598 0.3330928896 1.7783190999
C 1.5924444010 -0.2705177906 1.1948728573
C 5.0469768188 1.2628978333 1.6704587352
O -1.2927301111 0.5254253721 -1.3546503180
C -0.7956728784 1.4938920715 -0.4743277658
C 0.2552433684 2.3256446305 -0.8410605830
C 0.7395822667 3.2352674323 0.0895511023
C 0.1786326532 3.3433726105 1.3656095124
C -0.8997709734 2.5171755661 1.6844641810
C -1.3904897287 1.5870896687 0.7729254602
C 0.7301868934 4.3294723291 2.3582275758
H -4.6104194383 -4.8367035342 1.8976697984
H -5.3326689477 -3.2374008864 2.1243447897
H -5.9369954451 -4.3024600924 0.8551167031
H -3.7617870512 -0.9063612539 -1.9288697440
H -0.8216262417 -3.7530848682 -0.6905212710
H 2.7560992220 -0.5732725614 -1.9813112032
H 4.7309535198 0.4942918112 -0.9228001515
H 2.6674794525 0.5906403468 2.8332957939
H 0.6936403170 -0.4749187738 1.7652294126
H 5.8096077044 0.5119950750 1.9082182382
H 4.7806150006 1.7685650855 2.6022404892
H 5.5088308299 1.9959008383 1.0025779959
H 0.6994062535 2.2340650881 -1.8265357199
H 1.5772181602 3.8719224569 -0.1816178298
H -1.3569920088 2.5886583084 2.6673163498
H -2.2093620013 0.9207240129 1.0227446411
H 0.2402005692 4.2323001585 3.3299686966
H 1.8053315478 4.1786477598 2.5026351720
H 0.5900944330 5.3593821221 2.0120269589
H -2.4474922752 -4.7447855744 0.9074922899
H -5.3957920670 -1.8913171178 -0.3347844106
