33
CONF114
C 4.8755502730 0.8676648701 -0.7909446647
C 5.7444399819 1.9398656754 -1.4594404775
O 5.7263691829 1.8829816760 -2.8862204664
C 3.4069574221 1.2150878589 -0.7857027390
C 2.5029369872 0.0687259105 -0.2360174889
C 1.0243264069 0.4775402965 0.0881544392
C 0.0504020380 -0.7511241313 0.1905961875
C -1.2808177367 -0.4189327126 0.9570454075
C -2.4267416967 -1.4475341327 0.6811643250
C -3.6358240391 -1.4436127247 1.6881258159
C -4.3815749768 -0.0938015287 1.9224599242
F -3.6124505427 0.7572736740 2.6130153507
F -4.7218101101 0.4677704224 0.7554855141
F -5.4929511107 -0.3353081571 2.6287191701
F -3.2159296945 -1.9014697896 2.8861557983
F -4.5378619590 -2.3176622670 1.1810642607
F -2.9193918039 -1.2326304927 -0.5568044439
F -1.9052507900 -2.6974858143 0.7362240261
F -1.7184785867 0.8042370462 0.5728490395
F -1.0179049141 -0.4012290414 2.2820127689
F -0.2559932460 -1.1630118914 -1.0602228810
F 0.6760119044 -1.7548935981 0.8456223894
F 0.5626591539 1.3030776284 -0.8774250907
F 1.0111734202 1.1375586947 1.2709764220
F 2.4894004024 -0.9321925855 -1.1548292910
F 3.0604350710 -0.4050052891 0.9066658996
F 3.1716908975 2.3280762005 -0.0169483939
F 2.9658921230 1.5131640210 -2.0522820453
H 5.0144330698 -0.0920762027 -1.2989323178
H 5.1874911768 0.7483997230 0.2511256421
H 6.7804742149 1.7533244288 -1.1649079896
H 5.4685065160 2.9392437855 -1.0972645434
H 4.8854195157 2.2399574689 -3.1945541412
