48
CONF34
C 3.4348371968 -2.6953304388 -3.0412866081
C 2.2322722175 -2.3241958160 -2.1787799830
C 2.3221509267 -0.9004051819 -1.6330098937
C 1.0157988743 -0.5350931870 -0.9288211425
O 0.0410186535 -0.1479075691 -1.5705673406
N 0.9957647724 -0.7082073416 0.4138307794
C -0.1532760864 -0.3836242109 1.1995719971
C -1.4988054918 -1.1573121724 1.0106983001
N -2.1456296528 0.1250010503 0.6989644929
C -0.9921700779 0.8735756533 0.8520656155
O -0.7945356484 2.0653277298 0.8162837705
C -3.4660390927 0.3876343977 1.2373444780
C -3.9619420712 -0.9599063977 1.8809867656
S -2.3768378360 -1.7445485962 2.5113629785
C -4.8964333009 -0.7043388373 3.0552501702
C -4.6133612271 -1.8831549653 0.8501587252
C -4.4792427265 0.9005211247 0.2257119474
O -5.5102751707 1.4433476768 0.5601278583
O -4.1247957233 0.6742393713 -1.0473037624
O 3.4541675212 -0.8537435487 -0.7549274993
C 3.9402285769 0.3772045611 -0.3818023149
C 5.1186695649 0.3485083491 0.3690894224
C 5.6869319063 1.5375350224 0.8056228932
C 5.0903588535 2.7619724893 0.5012401811
C 3.9168497016 2.7792999349 -0.2442788426
C 3.3306204621 1.5943034810 -0.6911718522
H 4.3628137277 -2.6539409456 -2.4649863729
H 3.3225375931 -3.7103181477 -3.4326457488
H 3.5284137920 -2.0111109824 -3.8911259194
H 1.3085697582 -2.3893149191 -2.7637255977
H 2.1314999470 -3.0144574075 -1.3323540560
H 1.8371797840 -1.0192095301 0.8781227842
H -1.5126102472 -1.8888077989 0.1983624877
H -3.4020752573 1.1539369476 2.0198143315
H -5.8039360791 -0.2107008809 2.6939504747
H -4.4254874687 -0.0677460020 3.8090583803
H -5.1869304873 -1.6517180604 3.5180730497
H -3.9605252244 -2.0671532787 -0.0072515209
H -4.8537897462 -2.8403421047 1.3181461086
H -5.5477551294 -1.4408426524 0.4844128040
H -4.8332966542 1.0132504056 -1.6222759733
H 5.5737812234 -0.6099722795 0.5972122206
H 6.6036981747 1.5068108837 1.3864449511
H 5.5363040317 3.6897075001 0.8436681802
H 3.4379275000 3.7232994550 -0.4853343251
H 0.1293475904 -0.3442386939 2.2549208294
H 2.4545571669 -0.1933284021 -2.4625381051
H 2.4116546825 1.6430437669 -1.2633542307
