38
CONF145
C 2.0865070311 -2.1632384576 1.8858601501
C 2.8804411120 -1.1736421465 1.0388641100
C 4.0369874244 -0.5816085421 1.8412873371
N 1.9650839008 -0.1056091649 0.5879468841
C 2.4275858535 0.6285159841 -0.5965118281
C 1.7085548952 1.9843548933 -0.7017746497
O 1.6782695348 2.6072536976 0.5848557640
C 0.3182524173 1.9020462872 -1.3121855433
O -0.4701222436 0.9865735922 -0.5370276736
C -1.7555001773 0.7542340567 -0.9286795033
C -2.3859962250 1.3512806362 -2.0144614928
C -3.7239829711 1.0281716482 -2.3257907517
C -4.4579180016 0.1184597628 -1.5825814001
C -3.8078349092 -0.4729661023 -0.4937279516
N -4.2601300203 -1.3964687029 0.4188517863
C -3.2594326722 -1.6850543306 1.3204539639
C -2.1392277302 -0.9536551274 1.0091943228
C -2.4663239427 -0.1752988876 -0.1456142307
H 2.7379043461 -2.9605198967 2.2551334097
H 1.6436499539 -1.6522232119 2.7487674709
H 1.2793268353 -2.6221184336 1.3040539512
H 3.2957170706 -1.7163639895 0.1698326209
H 4.6041581932 0.1539379605 1.2632529331
H 4.7303850481 -1.3721839969 2.1454850412
H 3.6522701301 -0.0892351472 2.7414655505
H 1.0610743787 -0.5144302520 0.3753775623
H 3.4977432278 0.8281313448 -0.4795080122
H 2.2984308203 0.0663089675 -1.5359082177
H 2.2890446182 2.6329082683 -1.3715138026
H 1.6401808451 1.8518945891 1.2032546101
H -0.1489001462 2.8959912455 -1.3048989513
H 0.3910864601 1.5480752448 -2.3504565011
H -1.8632518883 2.0699815719 -2.6335134737
H -4.1855475810 1.5138388299 -3.1800986707
H -5.4858088104 -0.1238349037 -1.8305050607
H -5.1832757327 -1.7997417285 0.4287679640
H -3.4288773683 -2.3934723077 2.1189579486
H -1.2005237612 -0.9702927483 1.5427632267
