65
CONF77
C 1.0628324860 -7.5367782929 1.4639328023
O 1.9815464189 -6.9079396434 0.5775810944
C 2.4066695267 -5.6509623746 0.9016551648
C 3.3045166084 -5.0652867594 0.0032952450
C 3.7902119037 -3.7906452013 0.2436182972
C 3.4031774287 -3.0625541967 1.3750402553
C 2.5189321109 -3.6674512146 2.2646060120
C 2.0144293629 -4.9483113747 2.0416940513
C 3.8545125790 -1.6426361025 1.5733816538
C 2.9970898527 -0.6177350214 0.8079489377
N 1.5856622210 -0.6565151370 1.2080542843
C 0.7810915133 -1.4591330620 0.2838956819
C -0.6513100589 -1.6082650852 0.7904882179
C -1.3157942599 -0.2508873473 1.0248354153
C -0.4074459762 0.6071849975 1.9163829392
C 1.0089096644 0.6835991208 1.3587298322
N -1.5804762086 0.3790519060 -0.2797125364
C -2.3201156099 1.5298647097 -0.3193355294
N -3.0930557363 1.9907769259 0.6408694653
C -3.6698345007 3.1335448169 0.1096177619
C -4.5663940402 4.0294742493 0.6852032302
C -4.9802746820 5.1244663904 -0.0698838874
C -4.5150832838 5.3316806210 -1.3732052208
C -3.6170677531 4.4453704661 -1.9701648655
C -3.2142795407 3.3571329322 -1.2118556223
N -2.3491025704 2.3017780195 -1.4746320892
C -1.5898717033 2.0531003761 -2.6838693059
C -0.0935657961 2.1429874310 -2.4609738295
C 0.7593080833 1.1563204377 -2.9549769957
C 2.1327876335 1.2176082098 -2.7313022928
C 2.6303938761 2.2838324815 -2.0038113880
C 1.8138425870 3.2845594945 -1.4986413498
C 0.4465298362 3.2037955082 -1.7293736700
F 3.9576091130 2.3433230968 -1.7612590123
H 0.8474602080 -8.5131242382 1.0275786863
H 0.1308148461 -6.9621189089 1.5479235321
H 1.4990296356 -7.6731565448 2.4623885452
H 3.6087140570 -5.6300134507 -0.8715699455
H 4.4841805821 -3.3460006613 -0.4656456850
H 2.1965154713 -3.1178315584 3.1439319751
H 1.3276005824 -5.3794016948 2.7597080156
H 3.8179346663 -1.3888356900 2.6381789071
H 4.8950680416 -1.5299146135 1.2430934432
H 3.1065929993 -0.7799718349 -0.2800193285
H 3.3993140739 0.3823782685 1.0121581179
H 1.2353054000 -2.4488567943 0.1824635819
H 0.7907106460 -1.0083344051 -0.7355687769
H -1.2390906503 -2.2009531944 0.0810588984
H -0.6240251460 -2.1494788990 1.7429636064
H -2.2873949131 -0.3801123258 1.5111502427
H -0.8329510305 1.6103231543 2.0169611904
H -0.3733722093 0.1538056655 2.9144151349
H 1.0050616682 1.2343695398 0.3936788504
H 1.6397973989 1.2589688787 2.0460879828
H -0.7791040151 0.3876840382 -0.8976207996
H -5.6788322744 5.8343977304 0.3609118505
H -4.8572486681 6.1956072145 -1.9330025126
H -3.2609815866 4.6140198985 -2.9818646063
H -1.8463762318 1.0640127333 -3.0870107400
H -1.9087661841 2.7915441276 -3.4272606137
H 2.8059647387 0.4521578069 -3.0998269858
H 2.2482422602 4.0974870463 -0.9278708816
H -0.2138715930 3.9639188361 -1.3215177643
H 0.3499802639 0.3203697046 -3.5163590186
H -4.9252810144 3.8692157371 1.6962149211
