47
CONF80
C -3.8040051587 -4.2130372168 0.6336304077
O -4.1576411991 -3.7631625969 -0.7110003096
P -5.1658664824 -2.5450175964 -0.9169481163
S -5.4263672585 -2.0980578729 -2.7824097818
O -6.4260729464 -3.0045818999 -0.0482339066
C -7.6065595398 -2.1562495453 0.0193109978
O -4.6201208415 -1.3296855158 0.0278478829
C -3.6716580498 -0.4084501463 -0.4171622624
C -4.0315300216 0.9310678343 -0.4264743003
C -3.0871915848 1.8855139755 -0.7900465835
C -1.8022068785 1.4902802030 -1.1693325249
C -1.4623170199 0.1349762951 -1.1745171815
C -2.3931629137 -0.8181072184 -0.7814775105
S -0.6645124187 2.7558626162 -1.7195139023
C 0.9064191007 2.1840266233 -1.0841626197
C 2.0226589280 2.2450671781 -1.9203062751
C 3.2763862648 1.8831152616 -1.4371145358
C 3.3937682602 1.4348481406 -0.1300172419
C 2.2895702227 1.3561012738 0.7132082640
C 1.0460155199 1.7494836133 0.2370645859
O 4.6509992723 1.0099949743 0.2974500137
P 5.4328737745 1.7172019842 1.5453215283
S 5.2386429948 3.6392038639 1.6666225133
O 6.8893782551 1.0980161447 1.3249232679
C 7.6994345873 1.5374997960 0.1984760345
O 4.9486149899 0.9644057106 2.8649407368
C 4.9872282281 -0.4945201264 2.9420495289
H -3.0271140298 -4.9635333906 0.4925012058
H -4.6768488655 -4.6538686262 1.1192649422
H -3.4178445236 -3.3760126945 1.2213657558
H -7.3516568055 -1.1941211498 0.4715795337
H -8.0188203344 -2.0120396191 -0.9827770313
H -8.3174639300 -2.6917108253 0.6476092991
H -5.0349012246 1.2215195481 -0.1343567552
H -3.3533249957 2.9374644058 -0.7764422069
H -0.4694654729 -0.1803173891 -1.4768300487
H -2.1289081697 -1.8704379742 -0.7707643379
H 1.9163123368 2.5741852543 -2.9486608825
H 4.1548925442 1.9309526125 -2.0714535387
H 2.4015493317 1.0049364328 1.7337348192
H 0.1831689366 1.7086415829 0.8934300732
H 7.1990792082 1.2909645468 -0.7417192937
H 7.8791940528 2.6135688842 0.2669618108
H 8.6381961802 0.9909341950 0.2809676870
H 4.4475711313 -0.9311535228 2.0975559483
H 6.0235442805 -0.8377797042 2.9553269541
H 4.4900611641 -0.7479881293 3.8776233420
