22
CONF344
C 2.5088353990 -0.0493498987 -0.0982525719
C 1.0247677165 0.1737061028 -0.3923001264
C 0.1238947149 -0.3602569549 0.7301645548
C -1.3356373139 0.1325860738 0.7108550121
C -2.1752223338 -0.2460939301 -0.5056130442
O -1.7734067414 0.4528445292 -1.6973536580
O -1.2894549281 1.5628099968 0.8446931793
O 0.1466000995 -1.7877712017 0.7448468284
O 0.7689247332 -0.5263456198 -1.6172552982
O 2.9590643385 0.7108443916 1.0265348709
H 3.0817269859 0.2941595198 -0.9653512984
H 2.7039959302 -1.1211169157 0.0405445250
H 0.8491596788 1.2522531531 -0.5103551747
H 0.5360247959 -0.0187235027 1.6887120973
H -1.8211932089 -0.3216375736 1.5875549844
H -2.0891858301 -1.3166279693 -0.7167197908
H -3.2290164740 -0.0223154961 -0.2881292159
H -1.7127217558 1.3899817473 -1.4559110873
H -2.1526072757 1.8621872532 1.1587747465
H 0.1993957525 -2.0600176484 -0.1853846075
H -0.1032541398 -0.2059107403 -1.9273469240
H 2.7793106608 0.2047948636 1.8272919988
