30
CONF1
O -4.2798485415 1.6748153847 -1.2746712148
C -2.9508964677 1.4376945629 -1.1856134009
O -2.1573872859 2.2921686645 -0.8509562442
C -2.5975374196 0.0058204668 -1.5055440966
C -2.2705763335 -0.7484553102 -0.2355057588
C -1.0112500325 -0.6083258661 0.3761844261
N -0.0757163571 0.2807581047 -0.1882546901
C 1.2748119765 0.2593436500 0.1394578304
C 2.0872841378 -0.8677696758 -0.0947551292
Cl 1.3948582757 -2.2831858185 -0.8514034711
C 3.4386161940 -0.8852003998 0.2204000710
C 4.0386415605 0.2539306627 0.7432443534
C 3.2872174178 1.4036146601 0.9503308391
C 1.9302624971 1.3911443188 0.6616444291
Cl 0.9950113864 2.8434132350 0.9539805494
C -0.7199321846 -1.3502893012 1.5242661496
C -1.6627577284 -2.2134614524 2.0636210497
C -2.9179628461 -2.3404894052 1.4767749871
C -3.2111202925 -1.6032277956 0.3354375084
H -4.4177984953 2.5990686464 -1.0104981847
H -3.4297439287 -0.4741353509 -2.0227951294
H -1.7192602656 0.0216017093 -2.1608370945
H -0.4579780058 1.2017810239 -0.3858819877
H 4.0156723524 -1.7813608876 0.0264241813
H 3.7390768447 2.3037663223 1.3492577314
H 0.2503263509 -1.2374136830 1.9968449097
H -1.4177726864 -2.7792673257 2.9566780656
H -3.6590199387 -3.0105401491 1.8984919069
H -4.1835478573 -1.7016340671 -0.1387873657
H 5.0969020947 0.2489223328 0.9785434599
