70
CONF243
C -1.4170233501 -1.4146425581 1.8744892439
C -2.6593618690 -1.6469169148 2.7665666818
C -2.2692167781 -1.5406246270 4.2039979785
C -2.7517872670 -2.0627528956 5.3760102132
N -1.9526400670 -1.6270496791 6.4316413128
C -0.9379871649 -0.8315389614 5.9444117093
C 0.1350377730 -0.1641042792 6.5361117565
C 0.9792821370 0.5374646643 5.6820434331
C 0.7827400290 0.5920016388 4.2856157789
C -0.2914990161 -0.0624513125 3.6972610546
C -1.1322058539 -0.7691107640 4.5526945282
C -0.6826448770 -0.0866893195 2.2345069356
C 0.5098468851 0.1551183104 1.3087780459
C 0.0703441067 0.0836515760 -0.1587644273
C -0.5966539620 -1.2644447274 -0.4000687342
N -1.7891628952 -1.3705631504 0.4495536797
C -2.6431643511 -2.4825095736 -0.0103272942
C -2.0425999240 -3.8560943929 0.1225850683
C -1.7242619211 -4.6334775973 -0.9083629835
C 1.2659487871 0.2544819877 -1.0800166519
O 1.8194566747 -0.7487828747 -1.5304917341
N 1.7511957677 1.5385495273 -1.2991093272
C 0.9903726992 2.7467747647 -0.9176003230
C 0.1881102675 3.3605333094 -2.0685023092
C -1.0458895649 2.5788275980 -2.5147350424
N -0.7747357469 1.2230931724 -3.0036359517
C 0.0369090599 1.2260475841 -4.2171540616
C -2.0349463728 0.5245837711 -3.2360856819
C 2.9484943991 1.8446115241 -2.0455394588
O 3.2537471189 3.0181418843 -2.2313895211
N 3.6800654793 0.7994542601 -2.4840943282
C 4.8438305750 1.0287661722 -3.3300914088
C 4.4691631515 1.3162258993 -4.7827097937
H -0.6976724757 -2.2359058155 2.0764589270
H -3.4167590271 -0.8946204941 2.5016994598
H -3.0961440005 -2.6293199282 2.5642955004
H -3.5953694270 -2.7113624830 5.5656629590
H -2.0870724176 -1.8812875060 7.3937123119
H 0.3171268228 -0.1873276472 7.6056034660
H 1.8283997507 1.0639329884 6.1061475047
H 1.4908783884 1.1543780110 3.6863902058
H -1.4139481263 0.7207692810 2.0628212489
H 0.9645084710 1.1262677415 1.5331201501
H 1.2784784849 -0.6081812109 1.4912094129
H -0.6815996358 0.8513527494 -0.3524166116
H -0.9024188093 -1.3361119253 -1.4484665300
H 0.1257219587 -2.0773892445 -0.2193242019
H -3.5977616217 -2.4363888120 0.5258412756
H -2.8728014015 -2.2935896816 -1.0663621317
H -1.8473517278 -4.2127383105 1.1339788109
H -1.8971169081 -4.3088835650 -1.9321623940
H -1.2831855435 -5.6157475413 -0.7710922679
H 1.7173359056 3.4816415098 -0.5659608744
H 0.3356721588 2.5051894255 -0.0806755528
H -0.1606729411 4.3445025528 -1.7303361975
H 0.8645148802 3.5567459868 -2.9049343653
H -1.5801231285 3.1753123883 -3.2849016180
H -1.7362257526 2.4872501954 -1.6638530125
H 1.0180390013 1.6687103633 -4.0251414528
H -0.4382367446 1.7861980791 -5.0468741915
H 0.1997805266 0.1947295859 -4.5455246992
H -2.6762153813 1.0354051783 -3.9819754796
H -1.8356421458 -0.4887799831 -3.6006469743
H -2.5964661415 0.4471402746 -2.2973623862
H 3.2779545604 -0.1252346311 -2.3540331983
H 5.4112801348 1.8685839858 -2.9174626373
H 5.4723651211 0.1341771883 -3.2655037226
H 3.9006582592 0.4844576145 -5.2105981644
H 5.3691423534 1.4657594436 -5.3878065462
H 3.8621611363 2.2237899280 -4.8411137276
