51
CONF30
O 3.5237166360 0.6717496257 1.5241364021
C 2.8351068364 0.2023271046 0.3566964910
C 2.2547341205 1.3625525250 -0.4594046970
C 1.3204088998 2.2874554203 0.3276523647
C 0.1470946063 1.5447609521 0.9437417259
C -0.8908816259 0.8912519038 -0.0325297018
N -1.9207275988 1.7278270785 0.6361831482
C -1.0264917397 2.3795913477 1.4558278236
O -1.1664324663 3.2893526683 2.2532543269
C -3.2895840301 1.8419968472 0.3922697228
C -4.1016726791 2.6216130459 1.2276538360
C -5.4635153825 2.7227402130 0.9699898291
C -5.9915955035 2.0370472583 -0.1114789019
F -7.3255294591 2.1338288658 -0.3582886006
C -5.2144828745 1.2570158025 -0.9495663712
C -3.8507532929 1.1618922623 -0.6950967886
C -1.0869383734 -0.5915224271 0.0466794218
C -0.7442991289 -1.3995863469 -1.0394236868
C -0.8560312814 -2.7828044907 -0.9698123596
C -1.3291272803 -3.3766122830 0.2007508525
O -1.4260327031 -4.7382086842 0.2197881346
C -1.6886963987 -2.5821706470 1.2933903394
C -1.5625270491 -1.2010767585 1.2105436758
C 3.7021224025 -0.6825659942 -0.5164955184
C 5.0475392101 -0.3888705931 -0.7460064833
C 5.8207555010 -1.1865025855 -1.5859314670
C 5.2188767299 -2.2766514460 -2.1911805141
F 5.9695363413 -3.0637141672 -3.0089537474
C 3.8886936104 -2.6036746513 -1.9921935911
C 3.1366946451 -1.7946984713 -1.1441833361
H 4.0606013149 1.4359406093 1.2753910400
H 2.0157531744 -0.4182839268 0.7400844422
H 3.0895715496 1.9477084250 -0.8694505850
H 1.7229916020 0.9362120474 -1.3192106981
H 1.8728001255 2.7976151079 1.1244584513
H 0.9430357893 3.0637631271 -0.3492744158
H 0.4729675445 0.8332972437 1.7104285683
H -0.7338204290 1.2071207550 -1.0711005531
H -3.6676539403 3.1444476425 2.0707731244
H -6.1083590913 3.3225837966 1.6029881798
H -5.6654298803 0.7361198274 -1.7870725313
H -3.2250521559 0.5577208111 -1.3425796814
H -0.3792927502 -0.9396482322 -1.9542467900
H -0.5850099914 -3.4084775576 -1.8142516412
H -1.7648504707 -5.0278560137 1.0777483974
H -2.0645747363 -3.0472294287 2.2010408052
H -1.8441801754 -0.5910118760 2.0649448121
H 5.5110928859 0.4660689333 -0.2630836955
H 6.8684317087 -0.9717371590 -1.7674506647
H 3.4594273016 -3.4725239402 -2.4796258744
H 2.0915897672 -2.0361738845 -0.9668169252
