48
CONF19
Cl -3.9763245620 -4.6844922623 1.7656965537
C -3.6046378335 -2.9646248317 1.7748744960
C -4.1047677049 -2.1749655777 2.8046436346
C -3.8053918426 -0.8194535329 2.7694087982
C -3.0271541563 -0.2689852832 1.7565876295
C -2.5283819109 -1.0763563574 0.7196850104
C -2.8381961147 -2.4496461428 0.7455330367
N -1.7765524380 -0.5570358696 -0.3442267494
C -0.5480710696 -1.2922461034 -0.6824297700
C 0.0622546084 -0.7868650403 -1.9786380622
N 0.3336027709 0.6449343159 -1.8900783499
C 1.0087929036 1.1584003138 -3.0863447369
C 2.4975395281 0.8134790747 -3.1456514723
C 3.3525139141 1.5502939320 -2.1107809379
N 3.0343159806 1.1806471817 -0.7463362000
N 3.2845911953 -0.1026510732 -0.3125261920
C 2.6435217006 -0.1829188287 0.8318972899
C 2.5210293145 -1.2549177918 1.7495269868
C 1.7297046395 -1.0870788038 2.8501151142
C 1.0432551614 0.1434802196 3.0952559359
C 1.1804631627 1.1795430137 2.2281886070
N 1.9783589285 1.0083565417 1.1301806963
C 2.1823302464 1.9010884463 0.0568956275
O 1.7141109485 3.0210244803 -0.0750789251
C -0.9268607272 1.3434404251 -1.6559463734
C -1.5599487317 0.8874194929 -0.3508548949
H -4.7037514812 -2.6071787973 3.5960741750
H -4.1770144421 -0.1742897131 3.5595318036
H -2.8014745857 0.7882905884 1.7910352484
H -2.5157321987 -3.1074131205 -0.0506449853
H 0.1909804494 -1.1933105082 0.1317962062
H -0.7722178761 -2.3542328510 -0.7975305100
H 0.9987805396 -1.3301814063 -2.1441587241
H -0.6224094015 -1.0139634017 -2.8223346141
H 0.5109376771 0.7969487622 -4.0089172313
H 0.9066560116 2.2511926697 -3.0789986715
H 2.8728214638 1.0918300306 -4.1379877278
H 2.6599977992 -0.2646538123 -3.0434640891
H 3.1946811663 2.6319962964 -2.1774706555
H 4.4142542593 1.3405117118 -2.2805008275
H 3.0433484888 -2.1808963024 1.5417779347
H 1.6094293887 -1.9031884233 3.5539307985
H 0.4126387874 0.2557504367 3.9675750449
H 0.7148160509 2.1539534772 2.3227357594
H -1.6436365763 1.1819604572 -2.4874976608
H -0.7240562056 2.4175081910 -1.5779927121
H -2.5269089425 1.3900383016 -0.2435268807
H -0.9122376967 1.2038971804 0.4869720691
