55
CONF154
C 4.4586261480 -0.1845614959 -5.5550790249
O 3.1077528472 -0.0602543948 -5.1234038043
C 2.8394647199 -0.3206400571 -3.8123446645
C 3.7940996883 -0.7001583838 -2.8684648620
C 3.3932863011 -0.9412742181 -1.5565769509
C 2.0651896289 -0.8094555846 -1.1611524896
C 1.1205383062 -0.4351897805 -2.1247212441
C 1.4995648090 -0.1919880352 -3.4315648495
C 1.7043212432 -1.0525379044 0.2792124308
S 0.3283291270 -2.3076099703 0.3435737987
C -0.3183775487 -2.0722816125 1.9886707424
C -0.2234752993 -3.1185221291 2.9106098229
C -0.8056312347 -3.0150002886 4.1672787625
C -1.4634000917 -1.8419352283 4.5275205466
C -1.5481284443 -0.7870880889 3.6297973280
C -0.9956239281 -0.8909065497 2.3499682400
N -1.1434700643 0.1881525488 1.4444501338
C -2.4955748321 0.6743554067 1.1318005507
C -3.0742200609 -0.1024868248 -0.0682655226
N -4.4074421011 0.2945219659 -0.4995740399
C -5.4414897581 0.0537384309 0.4966114193
C -4.4684859641 1.6535506411 -1.0240218425
C -0.1037440970 0.7247170777 0.7260268011
O -0.2646210763 1.5987550692 -0.1121074842
C 1.2932943179 0.1962248430 1.0788650971
O 2.2717987426 1.1981674343 0.7805216057
C 2.1798368599 2.3269294766 1.5378709722
C 3.1313869904 3.3713072225 1.0379690649
O 1.4158355756 2.4418606455 2.4658623842
H 4.8277112459 -1.2099200847 -5.4214343787
H 5.1148853652 0.5140137220 -5.0194410859
H 4.4563329463 0.0636303785 -6.6172408299
H 4.8376636874 -0.8140251730 -3.1337725461
H 4.1417394416 -1.2325352007 -0.8248212116
H 0.0783137838 -0.3306273528 -1.8473995517
H 0.7716021300 0.1010325807 -4.1800065215
H 2.5752373752 -1.4833422413 0.7849937265
H 0.3061912958 -4.0197327390 2.6208251582
H -0.7323650140 -3.8406071432 4.8670566982
H -1.8969288191 -1.7393891539 5.5167935164
H -2.0297683695 0.1401944432 3.9215224124
H -2.4229826578 1.7413525800 0.9092084361
H -3.1210257008 0.5357416799 2.0165894925
H -2.3851722987 0.0184615865 -0.9124937078
H -3.0924355768 -1.1712471649 0.1851420801
H -5.3707270850 -0.9760621248 0.8637912409
H -6.4278472394 0.1805227416 0.0357655433
H -5.3963269357 0.7356904030 1.3683245656
H -5.4273791011 1.8032552908 -1.5335668711
H -4.3785793091 2.4388390962 -0.2495180439
H -3.6663618260 1.8047896738 -1.7535530125
H 1.3307072172 -0.0316071778 2.1492760045
H 3.2184341717 4.1688716958 1.7745570003
H 4.1079417635 2.9349600722 0.8168385216
H 2.7314969215 3.7773506980 0.1032300403
