65
CONF624
C -0.2782701256 4.2147692936 0.1439098088
C 0.3328501680 2.8405033430 0.4054080043
C 0.7322718136 2.6203642345 1.8838750164
C 1.7957232651 3.6024789613 2.3662718382
C 1.2168629990 1.1925771288 2.0098638852
O 2.3813601629 0.8426436253 1.9646136404
O 0.1797934390 0.3412434122 2.1171838235
C 0.4751169266 -1.0937428336 2.1029522216
C 0.7404919981 -1.5903152937 3.5152028219
C -0.4582016497 -1.4321069252 4.4647564154
C -1.7538407451 -1.6874976641 3.7588944150
C -1.8999661128 -1.8440685436 2.4296173183
C -0.7280142528 -1.7862648828 1.4695789774
C -1.1636639295 -1.1685980700 0.1214927386
C -2.3201807971 -1.9881379861 -0.4948647997
C -3.4037458138 -2.2098474948 0.5204950484
C -3.2027535923 -2.1148499004 1.8445069515
C -1.8881144969 -3.3277991824 -1.1170577102
C 0.0112195404 -0.9713508308 -0.8414350761
C -0.3911192508 -0.3044332492 -2.1569430378
C 0.7971187504 0.0986946859 -3.0098953206
C 0.4073592317 0.8844461530 -4.2446279339
C 1.5997288959 1.0565229539 -5.1672718599
C 2.0853007127 -0.3212652737 -5.5951757465
C 2.2099976249 -1.3276179883 -4.4766497333
O 2.8749788539 -2.3401765210 -4.5870867365
O 1.5073024648 -1.1512339185 -3.3444664358
O 2.6121984616 1.7580872216 -4.4280752807
C -0.4887789495 -0.0747668680 5.1926011998
H -1.1377642919 4.3893621181 0.8004089828
H 0.4440053485 5.0194043970 0.3080253975
H -0.6239412288 4.2851235089 -0.8920054243
H -0.3863074580 2.0633028828 0.1218692543
H 1.2231869629 2.6984668638 -0.2216330665
H -0.1742995270 2.7167878322 2.4943255803
H 2.1218299209 3.3564608842 3.3809809163
H 2.6713808770 3.5776675334 1.7106058933
H 1.3988707093 4.6203601473 2.3759624058
H 1.3681813519 -1.2423033154 1.4914468590
H 0.9930107484 -2.6538743123 3.4230329136
H 1.6220486005 -1.0854285154 3.9239944201
H -0.3555306022 -2.1971715159 5.2488574993
H -2.6441431401 -1.7381781569 4.3867072410
H -0.3994602898 -2.8190151105 1.2740531792
H -1.5784627995 -0.1754812013 0.3461271739
H -2.7565260560 -1.3852214547 -1.3034411246
H -4.3924174669 -2.4633155895 0.1420059862
H -4.0329755499 -2.2619744789 2.5334165284
H -1.2018681214 -3.1797458410 -1.9567051013
H -1.3968019322 -3.9675808881 -0.3771352102
H -2.7647386425 -3.8664527360 -1.4910087847
H 0.7630885725 -0.3295536247 -0.3672062991
H 0.5033280153 -1.9314139860 -1.0377455867
H -1.0436849289 -0.9511710035 -2.7555041410
H -0.9581731733 0.6113507094 -1.9410220914
H 1.5083711932 0.6780636088 -2.4095618629
H -0.3951239297 0.3703615479 -4.7866028744
H 0.0289591750 1.8599748123 -3.9225214520
H 1.3131818076 1.6356159142 -6.0556463112
H 1.3702421371 -0.7534596357 -6.3085127692
H 3.0493101617 -0.2723071679 -6.1100786240
H 3.3710679950 1.8867632254 -5.0110725763
H -1.3282781071 -0.0377955021 5.8947785411
H -0.5990907095 0.7499706434 4.4837685766
H 0.4364994679 0.0741505186 5.7593617992
