39
CONF3
C -2.4080387603 -2.1258282645 0.1339238487
C -2.0753937514 -0.6313621660 0.2287310648
C -2.6437989324 0.1285819804 -0.9425028808
C -2.0176676132 1.1271897217 -1.5710786863
C -0.6352060899 1.6099824427 -1.2244096092
C -0.2043910594 1.1378814361 0.1747060930
C -0.5824159582 -0.3569396316 0.3849901502
C 0.0053583399 -0.6496486366 1.7903365584
C 1.2246383443 0.3170306541 1.8906465794
C 1.3116311757 0.8863687189 0.4612612708
C 1.7107774604 -0.2868820387 -0.5009242636
C 0.3406884405 -1.0332015278 -0.6564305175
C 2.7655219083 -1.2452839726 0.0818742232
C 2.3176323978 0.2196184049 -1.8214005962
C -0.8736832361 2.1001208336 1.1704325310
H -3.4921783931 -2.2801519150 0.1218102067
H -1.9942754614 -2.6719910383 0.9878652184
H -1.9951280400 -2.5599715983 -0.7825803699
H -2.5705622627 -0.2480490898 1.1375687594
H -3.6402756522 -0.1656484578 -1.2725717261
H -2.5102804566 1.6183722649 -2.4092771912
H 0.0342806376 1.2705420208 -2.0161932452
H -0.6044994127 2.7071559479 -1.2708475577
H 0.2996419655 -1.6999696606 1.8875687870
H -0.7333890834 -0.4488951886 2.5734306141
H 1.0405285890 1.1161668051 2.6131573223
H 2.1422126208 -0.1821436503 2.2042839136
H 1.9661488058 1.7607243490 0.3685071498
H 0.4498378678 -2.1064594855 -0.4666470085
H -0.0690236908 -0.9208429944 -1.6665485671
H 2.3917772733 -1.8254590391 0.9287088109
H 3.6638786219 -0.7026154953 0.3990722572
H 3.0627914476 -1.9585942896 -0.6955778224
H 2.3280761772 -0.5839339696 -2.5671084608
H 3.3553755972 0.5307853757 -1.6527222994
H 1.7954882278 1.0746736918 -2.2516944260
H -1.9017149681 2.3026342121 0.8522762704
H -0.9181238551 1.7204095827 2.1920809366
H -0.3362392373 3.0556336463 1.1852827889
