22
CONF9
C 2.6162801889 -0.1279565100 -0.5381503750
C 1.3226353786 -0.6220454283 0.0852585475
C 0.1311889192 0.3145018572 -0.2144972391
C -1.2131525662 -0.3653353720 0.0360697275
C -2.3774087642 0.6123400180 -0.0508415071
O -3.6016718807 -0.0335127109 0.3339908370
O -1.1718422232 -0.9502295451 1.3456067069
O 0.1063123829 0.7130491930 -1.5883609940
O 1.5583481349 -0.6905519698 1.4998301565
O 2.8786416957 1.2484395003 -0.2315633658
H 2.5626442437 -0.2011534932 -1.6271412597
H 3.4365678509 -0.7717452809 -0.1898936534
H 1.1107761640 -1.6250329355 -0.3230009598
H 0.2205831021 1.1917940650 0.4444336551
H -1.3452630715 -1.1591214678 -0.7195143385
H -2.2245132782 1.4258367960 0.6671302423
H -2.4477302243 1.0332509121 -1.0599760786
H -3.8613186084 -0.6265270238 -0.3834057985
H -2.0840371824 -1.1766004132 1.5787499671
H 0.8065430806 1.3678453517 -1.7075397415
H 0.7022614468 -0.8858267736 1.9110613958
H 2.8741554275 1.3285812307 0.7317541493
