35
CONF2
C -5.5511044695 -1.0524044899 -0.4506930391
C -4.3212896668 -0.4405769424 0.2088437571
C -4.7456394077 0.7405736756 1.0776187229
O -4.7052160572 1.9015977877 0.7428597711
O -5.2176461091 0.3076408038 2.2614511602
O -3.4617960780 -0.0050154038 -0.8387205898
C -2.1943185316 0.4055538393 -0.5168402170
C -1.6677929173 0.4232411881 0.7759958284
C -0.3563469983 0.8533728276 0.9765490895
C 0.4057457969 1.2557194206 -0.1048836584
C -0.1103361259 1.2492579082 -1.3945676544
C -1.4132350686 0.8222203021 -1.5996102293
O 1.6955935608 1.7614866521 0.1168439212
C 2.7487175898 0.9097158556 0.0068866406
N 2.5321793894 -0.3681448276 -0.2639940347
C 3.6002343479 -1.1718948773 -0.3603643921
C 4.8991790883 -0.7190502397 -0.1879564645
C 5.1080640285 0.6370043876 0.0984660097
C 4.0189426095 1.4729778619 0.1997898345
C 6.0719141845 -1.6328928420 -0.3123435894
F 6.8838686836 -1.2782838423 -1.3466803242
F 6.8533456825 -1.6111784364 0.8011507149
F 5.7128101341 -2.9191253102 -0.5185753163
H -5.2425543094 -1.8934165640 -1.0757120534
H -6.2435546903 -1.4132813745 0.3127492442
H -6.0558959449 -0.3076133088 -1.0720671870
H -3.8211458294 -1.1905117105 0.8354372033
H -5.5373120089 1.0756588591 2.7660780967
H -2.2484332303 0.1126915477 1.6365287283
H 0.0681601538 0.8725919150 1.9747233126
H 0.5052194998 1.5736316874 -2.2270176496
H -1.8423634363 0.8067843832 -2.5958214442
H 3.3982285031 -2.2160176287 -0.5833590579
H 6.1122625498 1.0247576366 0.2381437546
H 4.1215150666 2.5290240649 0.4190910056
