21
CONF1
C 1.9884981339 -0.4961399598 -1.3192717069
C 1.5561712544 0.0298612071 0.0405799904
O 0.8531849892 1.2743456225 -0.0337751725
C -0.4844723758 1.1226979829 -0.5033311495
O -1.1869589708 0.2112452573 0.3399914924
C -0.5385094969 -1.0593657376 0.3246028563
O 0.7988505523 -0.9191286459 0.7982928273
C -1.2711907092 -1.9909833986 1.2503503925
C -1.1601588807 2.4646755629 -0.4397696011
H 1.1521265906 -0.7249558343 -1.9819788475
H 2.5763093325 -1.4066782685 -1.1747262088
H 2.6196807378 0.2541815650 -1.8031714893
H 2.4364521874 0.2406472393 0.6542283115
H -0.4763739841 0.7161208460 -1.5281703594
H -0.5299152006 -1.4362183976 -0.7114921540
H -2.3036603931 -2.1076043242 0.9127133392
H -1.2657628757 -1.5863415420 2.2661597592
H -0.7852512955 -2.9694401442 1.2493005011
H -0.6303459388 3.1746861815 -1.0790595003
H -2.1914836701 2.3744674662 -0.7887566663
H -1.1571903998 2.8339273220 0.5894725832
