45
CONF51
C -7.0409645162 -0.2393988282 -0.0800328122
C -8.5213507692 0.0978765375 -0.2993330509
O -9.0049250094 -0.5001046259 -1.4975652665
C -6.5042268270 0.3767343759 1.1897701862
C -5.0567030506 -0.0486167205 1.5989355757
C -3.9658119146 0.1529303375 0.4966214423
C -2.4972709707 0.1135269592 1.0494277118
C -1.4258195175 -0.1523083341 -0.0677241912
C 0.0286894505 0.2470037372 0.3726919679
C 1.1407509008 -0.4268298185 -0.5080361516
C 2.5356083085 0.2852292879 -0.3828262030
C 3.7275395976 -0.6182390933 -0.8616559693
C 5.0328998654 0.1993330666 -1.1654821228
C 6.3221896752 -0.6900720758 -1.1921086502
C 7.5469708635 -0.0118282277 -1.8899784208
F 7.3698633739 0.0543682680 -3.2131242002
F 7.7313946471 1.2250277441 -1.4069468099
F 8.6417211220 -0.7421004435 -1.6405797699
F 6.0603871696 -1.8413476402 -1.8536350434
F 6.6809209587 -0.9773844722 0.0764867571
F 5.1904210000 1.1465369962 -0.2134569228
F 4.8961543531 0.8008514138 -2.3685720772
F 3.9976115907 -1.5225650842 0.1055624503
F 3.3577392132 -1.2676382976 -1.9881315714
F 2.5149186849 1.4091984656 -1.1333457595
F 2.7416960856 0.6157933449 0.9111410691
F 1.2747117293 -1.7145828025 -0.1200892928
F 0.7535013102 -0.3884695433 -1.8025877162
F 0.1543752292 1.5894491523 0.2769543618
F 0.2134327842 -0.1284881229 1.6574245996
F -1.7531439240 0.5640192189 -1.1668597260
F -1.4408578954 -1.4689870585 -0.3741266217
F -2.4020668827 -0.8671777868 1.9730937160
F -2.2285817768 1.3038623782 1.6312665397
F -4.1610108583 1.3455348705 -0.1116993350
F -4.1101503350 -0.8317117994 -0.4287043258
F -4.6961984405 0.6617033568 2.6949603020
F -5.0896023617 -1.3653565759 1.9220411133
F -6.5341281335 1.7424674351 1.1178940248
F -7.2887941260 0.0226054166 2.2576000024
H -6.4447603900 0.1335959825 -0.9197534432
H -6.9142375548 -1.3252055195 -0.0316950232
H -9.1233857587 -0.3215227799 0.5100463219
H -8.6690389702 1.1864450432 -0.3024928119
H -8.6175809486 -0.0373177484 -2.2485405047
