47
CONF11
C -7.6257977835 0.4402309597 2.6620024106
O -6.9436788776 1.2210237645 1.6552536408
P -6.0944139789 0.4792644138 0.5136450454
S -6.8738287619 -1.0875569661 -0.3016807531
O -5.7197927799 1.7108802818 -0.4434815534
C -6.6231712550 2.0929886327 -1.5060089576
O -4.6863674272 0.2828938578 1.2982384689
C -3.6219058841 -0.3915766466 0.6946192009
C -3.4702852346 -1.7527695285 0.9086811452
C -2.3642276835 -2.4022697655 0.3713622503
C -1.4364366017 -1.6935500993 -0.3940044621
C -1.6154930969 -0.3249951968 -0.6135795302
C -2.7041370845 0.3320741013 -0.0576259694
S -0.0878620484 -2.5975466892 -1.1401883206
C 1.3012934562 -1.5032661120 -0.8863475046
C 2.2291301134 -1.3657193769 -1.9204780922
C 3.3660408245 -0.5846941220 -1.7414719632
C 3.5485622346 0.0725372791 -0.5340329328
C 2.6315780517 -0.0459877258 0.5028293567
C 1.5116315425 -0.8464889414 0.3291928469
O 4.6479826126 0.9211814088 -0.3777887018
P 6.0658225228 0.3433159655 0.1629168174
S 6.0197306283 -0.7582697454 1.7477889384
O 6.9112538512 1.7055919550 0.2318398201
C 6.8068303601 2.5534874965 1.3972774426
O 6.6426706950 -0.3093524579 -1.1840555447
C 7.8145569018 -1.1544314165 -1.1268911661
H -8.2849971955 -0.2945827334 2.1906620151
H -8.2068469449 1.1534922570 3.2474175614
H -6.8988213404 -0.0651608995 3.3056342487
H -6.1033471389 2.8662457673 -2.0725333815
H -6.8417244208 1.2327673102 -2.1449151635
H -7.5505074805 2.4960427823 -1.0874173845
H -4.2060158246 -2.2888871902 1.4966823691
H -2.2187628437 -3.4622116270 0.5507467214
H -0.8991822346 0.2256604755 -1.2136827830
H -2.8576658802 1.3942701124 -0.2104034653
H 2.0576225007 -1.8630072693 -2.8692900242
H 4.0971718656 -0.4655573350 -2.5327716716
H 2.8147484723 0.4669667865 1.4398900543
H 0.7982022208 -0.9613882128 1.1379442918
H 7.5443185118 3.3443369868 1.2565679234
H 5.8036138438 2.9868219818 1.4605493747
H 7.0272528030 1.9822115745 2.3038126656
H 8.6928832366 -0.5646297822 -0.8471538074
H 7.6623984608 -1.9655964846 -0.4093127339
H 7.9399730072 -1.5547896153 -2.1333927416
