51
CONF8
C -0.5640638556 -2.1684183889 1.5317757694
C -0.9352081060 -0.7308553515 1.3134956620
C -2.1879770335 -0.3731624046 0.9947615888
C -2.6410656390 1.0225655191 0.7929765575
C -2.5057527989 1.7373924779 -0.5822302478
C -3.8656434510 1.3724137178 0.0118065169
C -4.7107405259 0.2879057227 -0.6154170235
C -4.6745149491 2.5603811693 0.4914379237
C -1.8758881728 1.0173720902 -1.6953307597
O -2.0180464363 -0.1553222936 -1.9926839726
O -1.0423068752 1.8552964764 -2.3730537347
C -0.2626312543 1.2587173286 -3.4588768162
C 0.9992829756 0.6580695493 -2.9497455310
C 1.1840848972 -0.5929277915 -2.2676328702
C 2.5134155809 -0.7046545140 -1.9993819157
O 3.1730463209 0.4047339800 -2.4780224414
C 2.2357410751 1.2198522317 -3.0461583874
C 3.3381595556 -1.7213320685 -1.2933614215
C 3.5456422393 -1.4137490029 0.1800056407
C 3.2018034812 -2.3563028372 1.1504217165
C 3.3768429000 -2.0801059636 2.5055076081
C 3.8999184974 -0.8539842560 2.9066829203
C 4.2516667805 0.0912874284 1.9437085076
C 4.0768267802 -0.1870666543 0.5912183524
C 0.1949880070 0.2471845059 1.4389229094
H 0.1965210164 -2.4792678538 0.8035821630
H -1.4291755791 -2.8303533960 1.4394945699
H -0.1154337084 -2.3099421490 2.5234778119
H -2.9360813176 -1.1566730098 0.8887968940
H -2.4023510678 1.7088499241 1.6039578140
H -2.2357343699 2.7866165170 -0.5280171572
H -4.1172110018 -0.5506361588 -0.9766027108
H -5.4329568547 -0.0802887490 0.1222053720
H -5.2737115074 0.6985248643 -1.4607898592
H -5.4051476164 2.2361405922 1.2411502184
H -4.0351259916 3.3238287821 0.9441018065
H -5.2209607267 3.0153610211 -0.3420492542
H -0.0476553804 2.0944805911 -4.1268868750
H -0.8830179468 0.5224600935 -3.9752726741
H 0.4192497826 -1.3107239765 -2.0111735611
H 2.6002733172 2.1362237190 -3.4858305823
H 4.3109837572 -1.7999630791 -1.7947878787
H 2.8427793514 -2.6910679578 -1.3909229538
H 2.7870018290 -3.3126529823 0.8436989565
H 3.0989767713 -2.8234256793 3.2467930452
H 4.0336691207 -0.6351995831 3.9615526148
H 4.6637759263 1.0490463344 2.2472279042
H 4.3514598112 0.5563795024 -0.1512290215
H 1.0022628337 -0.0266282987 0.7464216241
H 0.6287841647 0.2095698006 2.4467120424
H -0.1087546170 1.2740501641 1.2252683237
