41
CONF1
C -2.4369653826 1.4486375940 -3.5291975419
C -2.8917263128 1.6787159110 -2.4375722412
C -3.4478743873 1.9384342672 -1.1154327282
N -3.8512846085 0.7064855203 -0.4230919693
C -2.8947969712 -0.0694099106 0.2654784835
C -1.5261631263 0.1256454205 0.1167845923
C -0.6221669155 -0.6013511933 0.8924031479
C -1.1144209982 -1.5299119411 1.8034072644
C -2.4678494079 -1.7791767863 1.9385968765
C -3.3550846436 -1.0459975025 1.1641505764
O -4.6924041371 -1.2418117397 1.3348228624
C -5.4570267459 -1.0370695972 0.1348152028
C -5.1391607367 0.2647013649 -0.5707109606
O -5.9777687243 0.8459887538 -1.2485218265
F -0.2461010368 -2.2134151772 2.5776480205
N 0.7659512420 -0.3920612296 0.7661311692
C 1.6984097199 -1.3692563817 0.3662215349
O 1.4227483061 -2.5082384602 0.0498525285
C 3.0323860961 -0.7108286588 0.3978886533
C 2.8776996087 0.5655518749 0.7855094159
C 1.4334277689 0.8210351294 1.0340299640
O 0.8979107386 1.8465677319 1.4006181724
C 3.9798359934 1.5460383386 0.9531540406
C 5.3260246202 0.8048146570 0.9545679420
C 5.3907143508 -0.2506918686 -0.1571864831
C 4.3262963708 -1.3416794951 0.0357068080
H -2.0327348247 1.2583789451 -4.4977286276
H -2.7235860566 2.4688398316 -0.4877869496
H -4.3376035799 2.5681120010 -1.2046087744
H -1.1343056307 0.8418776278 -0.5949176597
H -2.8319577004 -2.5193419813 2.6416839485
H -5.2829948710 -1.8666693702 -0.5672609732
H -6.5063991086 -1.0272578738 0.4291083277
H 3.8366729100 2.1178523158 1.8774560325
H 3.9386949442 2.2773036436 0.1333210581
H 6.1416405682 1.5249090250 0.8405719543
H 5.4601091191 0.3123752605 1.9260594543
H 5.2283780434 0.2379255527 -1.1263163088
H 6.3840347318 -0.7080296926 -0.1868879430
H 4.2075593440 -1.9496622562 -0.8688148341
H 4.6218820232 -2.0383298251 0.8332063897
