22
CONF143
C 1.9595027799 -1.2760798183 0.2978580093
C 1.1226371185 -0.0620728397 -0.0915315959
C -0.3693561273 -0.4036061944 -0.1728053558
C -1.2644869065 0.8322135684 -0.2985447422
C -1.3241562302 1.6748322966 0.9660764533
O -1.7805811305 0.9285376852 2.0972303476
O -2.6144616759 0.4256309362 -0.5666620054
O -0.6119537711 -1.1886311228 -1.3625293512
O 1.5926153901 0.4727068445 -1.3367974687
O 3.3498591281 -0.9495967822 0.3431559979
H 1.7786309494 -2.0985519234 -0.4129745087
H 1.6769052832 -1.6151046372 1.3001939247
H 1.2863360693 0.7237131300 0.6545389494
H -0.6675598520 -0.9705062786 0.7185914053
H -0.8877766926 1.4629875963 -1.1200108322
H -0.3346330704 2.0644881865 1.2186281189
H -1.9851715493 2.5322758471 0.7722362401
H -2.6183412585 0.5212881226 1.8371989246
H -2.5542743403 -0.3175696558 -1.1849902508
H -0.5570277338 -2.1242359452 -1.1340194964
H 1.2521620504 -0.1176659679 -2.0271135453
H 3.5511323790 -0.5150528574 -0.4977292242
