47
CONF169
C -2.4378392263 0.2104035811 2.4526013149
C -3.1276338051 -0.0732128921 1.1212155989
C -3.8092658436 1.1680707579 0.5463684933
C -4.4975807506 0.9271175595 -0.7842269059
O -3.5274147892 0.5262915479 -1.7991880774
C -2.9033166826 1.5198076215 -2.4454191999
O -3.1399381987 2.7006619303 -2.3287046059
C -1.8634249754 0.9845903605 -3.4336298254
C -2.5305026320 0.6669740720 -4.7624837241
O -1.2380088457 -0.2184517520 -2.9869300267
C -0.5687872654 -0.1833130913 -1.7965609875
C -0.1788304464 -1.4272516246 -1.2909127326
C 0.4863242642 -1.5085788724 -0.0782234970
C 0.7661726031 -0.3432161897 0.6277431338
C 0.3942684785 0.8948343741 0.1333703213
C -0.2779618686 0.9829324709 -1.0846186662
O 1.3628906506 -0.4258801523 1.8852189006
C 2.7200224086 -0.5282469842 1.9508458676
C 3.5426099701 -0.4579739736 0.8166780463
C 4.9055649529 -0.5688716432 1.0102430128
C 5.4008776900 -0.7455895203 2.3026978704
C 4.4926491917 -0.7959390592 3.3546486627
N 3.1747883818 -0.6904963297 3.1856331350
C 6.8751689298 -0.8486977058 2.5231649513
F 7.1832086837 -1.2064778546 3.7883554714
F 7.5051882338 0.3304912641 2.2768530399
F 7.4416965361 -1.7624145679 1.6934526421
H -1.9321097540 -0.6799327304 2.8372500669
H -1.6803573392 0.9933686511 2.3410175370
H -3.1565238100 0.5452880690 3.2086964406
H -2.3949083707 -0.4513034655 0.3999513646
H -3.8750608679 -0.8674413259 1.2514949519
H -4.5716501988 1.5340976185 1.2478825764
H -3.0820792450 1.9815955590 0.4283811643
H -5.0240340468 1.8182852733 -1.1357940955
H -5.1889907518 0.0816402169 -0.7300620345
H -1.1185890595 1.7802446775 -3.5678831704
H -3.0235266302 1.5614720547 -5.1510181813
H -3.2713621085 -0.1256437632 -4.6310149553
H -1.7777673943 0.3346497853 -5.4813076750
H -0.4264859874 -2.3194286880 -1.8550566738
H 0.7788672785 -2.4685455442 0.3340901825
H 0.6196847586 1.7888547552 0.7049528767
H -0.5727787340 1.9598571602 -1.4482923937
H 3.1245103966 -0.3204499146 -0.1724101696
H 5.5840601845 -0.5213099394 0.1644119674
H 4.8381750450 -0.9300618445 4.3765172715
