39
CONF11
C 3.6573613046 0.8826676766 -2.7466767989
C 2.3437568915 1.1012997242 -2.0005257026
C 2.4334035908 0.6634147159 -0.5388566144
C 1.1428859007 0.8614957584 0.2251405506
C 1.1439779678 0.3567583620 1.6589120829
O -0.2369117926 0.0543646028 1.8951228467
C -0.8354766636 -0.2619888124 0.6450306271
C -1.1493493458 -1.7749168421 0.5943882978
N 0.0545994082 -2.5665169408 0.7199825908
C 0.9754451141 -2.8495302523 -0.2314447750
N 2.0041882973 -3.4895132944 0.2985600236
C 1.6539890285 -3.5681098475 1.6142042449
N 0.4859566968 -3.0199977604 1.9231087365
O 0.1114425477 0.0400936418 -0.3635355352
C -2.1216405593 0.5500246093 0.4912400768
C -2.8265065148 0.6623506534 -0.7126974476
Cl -2.2899586971 -0.1219513439 -2.1907071915
C -3.9969255998 1.4083607803 -0.8126649258
C -4.4827662268 2.0447338348 0.3205550859
Cl -5.9542159663 2.9826046417 0.2004816603
C -3.8247279551 1.9475427931 1.5387162474
C -2.6561334976 1.2020223584 1.6056708065
H 3.5780631702 1.1955468869 -3.7917865469
H 4.4723798116 1.4523888972 -2.2871287754
H 3.9433271589 -0.1744264932 -2.7338183873
H 1.5370903232 0.5440938695 -2.4900203115
H 2.0600748654 2.1609148585 -2.0452844724
H 3.2203503042 1.2345173874 -0.0267526599
H 2.7154584346 -0.3960507906 -0.4778504549
H 0.8222937323 1.9157517333 0.1894006793
H 1.4543176572 1.1091568721 2.3887304292
H 1.7612321873 -0.5469578127 1.7662411961
H -1.8136174248 -2.0224973045 1.4252015632
H -1.6413426192 -2.0169631245 -0.3507407067
H 0.8468895362 -2.5695821955 -1.2680085530
H 2.2682858255 -4.0483086246 2.3645680647
H -4.5160451765 1.4873472591 -1.7592790218
H -4.2165906271 2.4464449800 2.4167204914
H -2.1245608817 1.1234153469 2.5458024785
