57
CONF17
C -4.8359349769 -1.8998083403 1.1325300773
C -4.4131396695 -0.7633534152 0.1932512720
C -2.9469857008 -0.4169676617 0.2945904894
C -2.0736648014 -0.5389007731 -0.7389110790
C -2.4431056140 -1.1898420967 -2.0228780307
C -2.2345326405 -0.5185513965 -3.2358568514
C -2.5590929730 -1.1180987580 -4.4478530738
C -3.0794719013 -2.4116136785 -4.4730225137
C -3.2717624265 -3.0979823980 -3.2762034042
C -2.9563228953 -2.4923966788 -2.0628463944
C -0.6919988065 -0.0000026589 -0.6933463944
C 0.3825893224 -0.7607520878 -1.1636250599
C 1.6917805962 -0.2864341791 -1.1319572972
C 1.9439982441 0.9968330780 -0.6382979333
C 0.8767739220 1.7877792261 -0.1928927542
C -0.4154370999 1.2930454776 -0.2215856136
O 3.1773491327 1.5693136638 -0.5633853992
C 4.3131727584 0.7814940858 -0.9669091853
C 5.5806241857 1.5959815778 -0.7250441157
N 6.0764158806 1.7175038658 0.6465473942
C 6.4657668548 0.4355250863 1.2277408278
C 5.1807893743 2.4485793730 1.5425364531
C -2.5101094879 0.0626948986 1.6299448931
C -1.4380809569 -0.5579013910 2.2865849802
C -1.0371490171 -0.1436435539 3.5515974945
C -1.7005744832 0.9035149127 4.1896226983
C -2.7754677473 1.5211602115 3.5539832848
C -3.1829487093 1.0980785357 2.2919723820
H -4.2935013568 -2.8222087224 0.9016817261
H -5.9075403195 -2.0989862056 1.0357220858
H -4.6303340654 -1.6431314733 2.1765140620
H -4.6692134520 -1.0128215932 -0.8388497126
H -4.9943336464 0.1325831804 0.4515497294
H -1.8195448062 0.4852532411 -3.2204675387
H -2.4031685437 -0.5764944764 -5.3759794828
H -3.3252629555 -2.8833642538 -5.4193070478
H -3.6614726357 -4.1114732038 -3.2862350588
H -3.0917463210 -3.0377742116 -1.1339525157
H 0.1965169840 -1.7572196892 -1.5544710154
H 2.4933213495 -0.9170062104 -1.4965503705
H 1.0816211746 2.7917776683 0.1656876212
H -1.2317554810 1.9196361329 0.1228762372
H 4.3270196729 -0.1616108968 -0.4048140864
H 4.2305297708 0.5453087577 -2.0371732866
H 5.4226343854 2.6048236931 -1.1284070761
H 6.3738398382 1.1288599831 -1.3235339601
H 5.6115058932 -0.2330031380 1.4436982790
H 6.9895187396 0.6124278760 2.1738952948
H 7.1482671198 -0.0884553544 0.5496565748
H 4.8834513726 3.3944560666 1.0782204637
H 5.7122809608 2.6725630118 2.4750192505
H 4.2629378606 1.8909499122 1.7998293257
H -0.9193506551 -1.3733005205 1.7916328080
H -0.2066807894 -0.6417902540 4.0429234384
H -1.3867636069 1.2305256692 5.1759898542
H -3.2997890241 2.3373637466 4.0419651419
H -4.0164696259 1.5968569474 1.8065916199
