47
CONF20
C 4.1947738135 -2.9922729757 0.7343919161
C 4.1459959206 -1.6591957890 0.1035385338
C 3.1626436123 -0.7131796732 -0.0470328912
C 3.8023586271 0.3381392730 -0.7728316537
N 5.0574416726 0.0542760780 -1.0361199549
O 5.2780756018 -1.2103890829 -0.4669268641
C 3.2432710716 1.6151446990 -1.2482526600
C 3.7113773689 2.8295421572 -0.7418703114
C 3.2154672817 4.0589779700 -1.1361092930
C 2.2010417238 4.0842920563 -2.0862076263
C 1.6971696803 2.9052500925 -2.6280152363
C 2.2224386366 1.6918554859 -2.2062715232
Cl 1.5957967846 0.2126704667 -2.9016053010
F 4.6786833152 2.7940943792 0.1956838363
C 1.7764154347 -0.8587562185 0.4240389299
O 1.2734993334 -1.9653975440 0.6326942749
N 1.0780755061 0.2945681988 0.6155505674
C -0.3121224699 0.2798509399 0.9412911453
C -1.3533469979 -0.3813219763 -0.0272397306
N -1.7816723762 -1.2328996135 1.0872258641
C -0.8650804395 -0.7134966744 1.9945599928
O -0.6745945468 -0.9374669601 3.1659944101
C -3.1946534138 -1.4733476076 1.2605898703
C -3.9209647170 -0.1457826171 0.8236157368
S -2.8537094347 0.5405035762 -0.5629982038
C -3.9342452352 0.8210773007 2.0082012348
C -5.3339495330 -0.3633431179 0.2939521181
C -3.6872746437 -2.6949196390 0.4993305075
O -4.6053481890 -3.3870708397 0.8802040315
O -3.0112454145 -2.9005360917 -0.6420094537
H 5.2227837386 -3.2451107839 1.0016025059
H 3.5583199742 -3.0106192641 1.6205847915
H 3.8151032595 -3.7481787388 0.0382366125
H 3.6184031619 4.9661465149 -0.7009176440
H 1.7949672994 5.0357240462 -2.4120207627
H 0.9102521024 2.9267363448 -3.3720905158
H 1.5325150893 1.1869772884 0.4935755378
H -0.6276575416 1.2918202232 1.2100214297
H -0.9190004967 -0.9148266225 -0.8760428807
H -3.4055341310 -1.6584564757 2.3184667192
H -4.5870986416 0.4265917046 2.7954403335
H -4.3163609458 1.7951042501 1.6924246827
H -2.9350293037 0.9669588163 2.4280856721
H -5.9543727255 -0.8058153400 1.0801194301
H -5.7764799699 0.5965390817 0.0135224648
H -5.3502325250 -1.0189568693 -0.5805653764
H -3.3868968157 -3.6815009419 -1.0850160596
