38
CONF8
O 1.0413872397 -1.7290145112 2.4015894121
P 0.1412184080 -1.1339724989 1.4028608729
O -0.8792768934 -2.1108449890 0.6377637226
C -0.4011902955 -3.1388684680 -0.1905219473
C 0.3418161335 -4.1843201742 0.3398647010
C 0.7494210171 -5.2054485404 -0.5138990997
C 0.4101169327 -5.1778087322 -1.8635986740
C -0.3398043269 -4.1193813734 -2.3693916889
C -0.7491638524 -3.0868114805 -1.5320544631
O 0.8213447750 -0.4138246275 0.1247674540
C 1.7230426928 0.6468775132 0.2108429015
C 2.5309279389 0.8701200802 1.3201892230
C 3.3918476963 1.9655446319 1.3040720688
C 3.4514239935 2.8117812106 0.2019671512
C 2.6401720086 2.5608961203 -0.9022587061
C 1.7692592933 1.4785133156 -0.9021715180
O -0.8524227647 -0.0518169984 2.0445299386
C -1.6712855187 0.7722498142 1.2562652711
C -2.8926922804 0.2957210070 0.8020793505
C -3.7104367197 1.1500758370 0.0685319429
C -3.3067367879 2.4552173917 -0.1998167939
C -2.0803209410 2.9132050332 0.2734513725
C -1.2522319191 2.0716204483 1.0094448383
H 0.5977185906 -4.1845518912 1.3931217646
H 1.3331831951 -6.0289388132 -0.1159588339
H 0.7292754805 -5.9798543554 -2.5204860258
H -0.6057905392 -4.0924872026 -3.4210180689
H -1.3280001190 -2.2467625307 -1.8996251490
H 4.0253622354 2.1482551427 2.1659173532
H 4.1283733458 3.6591774088 0.2007432062
H 2.6801690219 3.2130171296 -1.7687191908
H 1.1174879901 1.2711582470 -1.7434696290
H -3.1893776430 -0.7224883754 1.0242831180
H -4.6694684524 0.7916184652 -0.2909247064
H -3.9497241766 3.1160063386 -0.7713487405
H -1.7627019621 3.9311641393 0.0728930029
H -0.2932836544 2.4077005415 1.3883727228
H 2.4938741116 0.1992586919 2.1709126840
