45
CONF114
C -3.8022510174 5.0385534151 -1.7722289413
O -3.8722662154 3.6434879078 -2.1018942418
N -2.9662308244 2.9571966564 -1.3363876597
C -2.9343596017 1.6737876710 -1.5364280457
C -3.7039925346 0.8665493182 -2.4489767243
C -3.8342918085 -0.4979900676 -2.5891284577
C -4.7510615336 -0.7141377219 -3.6464601431
C -5.1209728719 0.5200606787 -4.0907871258
O -4.5037962367 1.4923448901 -3.3797801985
C -1.9269143215 0.9665283121 -0.6591148644
O -1.6082628243 -0.2054791177 -0.8145817639
N -1.3760671988 1.7273268604 0.3306304368
C -0.4417098779 1.1601927199 1.2444102494
C 0.8892395856 0.5244417930 0.7349184053
N 0.5240141754 -0.6960426145 1.4526713992
C -0.7194180665 -0.2399196329 1.8293426009
O -1.6429998901 -0.7618977191 2.4224137684
C 1.3790294563 -1.7752991009 1.7265629221
C 2.7111253647 -1.6367782653 1.4855128894
C 3.3677360726 -0.3426813363 1.0758151843
S 2.4379390729 1.2058732174 1.3968966304
C 3.6762213253 -2.7995698587 1.5994100964
O 4.9238905519 -2.5171679232 0.9161398934
C 5.9502332953 -2.0698007651 1.6962916814
O 5.8553103041 -1.7841786468 2.8716411804
N 7.0792685567 -1.9341939151 0.9409970664
C 0.8022510707 -3.0668986687 2.2418605553
O 1.5184678488 -4.0296808173 2.4220310026
O -0.5045449911 -3.1485595880 2.4874633712
H -4.0539355415 5.1984039602 -0.7184099166
H -2.8038250957 5.4341729571 -1.9857021674
H -4.5429132612 5.5200241013 -2.4125653055
H -3.3219414446 -1.2378680570 -1.9987181960
H -5.0915379267 -1.6637039014 -4.0293887085
H -5.7846290872 0.8623339228 -4.8693124074
H -1.6630673192 2.6910381599 0.4086946678
H -0.2499538721 1.8667071690 2.0586117728
H 0.9345512087 0.3735159552 -0.3481245710
H 4.2909205041 -0.2328372267 1.6539547075
H 3.6582313150 -0.3836713960 0.0190563534
H 3.8805344681 -3.0418449100 2.6462692797
H 3.2807623967 -3.6880663292 1.1112503329
H 7.1302498447 -2.4076366414 0.0547379744
H 7.9338458934 -1.7879823425 1.4497471296
H -1.0028796678 -2.2896846781 2.4606576810
