42
CONF40
C -3.0496511092 -1.8694240895 1.1682236698
C -2.4532269811 -0.6349398788 0.5841489008
C -3.1068940596 0.4297487562 0.0385825410
C -2.1225392400 1.4092146929 -0.4141904791
C -0.8227304966 0.9064540864 -0.1565636058
C -0.9979134841 -0.4222172694 0.4630287918
C -0.0955444604 -1.3356879581 0.8988745934
C 1.3504128141 -1.3678188257 0.7124983678
C 1.9543099713 -1.0160423000 -0.5066460119
C 3.3285165371 -1.1081936447 -0.6709442555
C 4.1119033960 -1.5400855676 0.3972058787
C 3.5422838372 -1.9320501562 1.6016190002
C 2.1629714477 -1.8571307220 1.7489286277
S 5.9126814949 -1.6936078423 0.1804278980
O 6.4480379262 -2.4135310959 1.4205713454
C 6.3049701905 0.0852310424 0.4152872290
C 0.2837928124 1.7143052581 -0.3871803294
C 0.1078594453 2.9920663130 -0.9286011803
C -1.1771107354 3.4258960419 -1.2103932414
C -2.3164506795 2.6728712301 -0.9596804129
F -1.3354107269 4.6656689403 -1.7478203780
C -4.5728602406 0.6396953436 -0.1069258243
C -5.0587541806 0.4856508720 -1.5327999908
O -4.4068573954 0.0628048401 -2.4633200908
O -6.3467305461 0.8696372190 -1.6471637922
H -4.1399521168 -1.8236445044 1.1799905701
H -2.7558076227 -2.7564179770 0.5950546175
H -2.7066730364 -2.0248243100 2.1977711503
H -0.4915554483 -2.1738346790 1.4705354826
H 1.3343337991 -0.7037629993 -1.3402296416
H 3.7825677734 -0.8536048892 -1.6246699619
H 4.1731151197 -2.2998642138 2.4044482591
H 1.7036661341 -2.1694699409 2.6823400985
H 7.3915463175 0.1778689266 0.3466287847
H 5.8220002624 0.6580674896 -0.3809633713
H 5.9406266017 0.3893204603 1.3999832747
H 1.2878452929 1.3815153181 -0.1534869184
H 0.9537162932 3.6405851621 -1.1271215616
H -3.3004494613 3.0802144855 -1.1687919177
H -4.8644023953 1.6408736438 0.2360354860
H -5.1496880166 -0.0643759841 0.5022602328
H -6.6259553409 0.7328392076 -2.5689001743
