54
CONF179
C 1.6923176593 2.8499316347 1.7969008063
C 0.9679874721 1.6167364098 2.3194651588
C 1.6846517211 0.3205884432 2.0584151265
C 1.1077579187 -0.9035568731 2.3549531386
C 1.7708242572 -2.0914710448 1.9880196123
N 3.0057280301 -2.0215890816 1.4627204196
C 3.5013500369 -0.8020341286 1.2704466133
N 2.9125298884 0.3661369012 1.5048187605
N 1.2016762713 -3.3152853620 2.1474959429
C 1.7049912041 -4.4966691451 1.4566713181
C 1.6646070027 -4.3891241797 -0.0708250559
O 0.3589034098 -4.0241463280 -0.5340301492
C 0.0710968828 -2.6757105256 -0.6415901241
C -1.1898895881 -2.2486868748 -0.2051554697
C -1.5372971929 -0.8892858030 -0.3270881356
C -0.6139276665 0.0344156856 -0.8459781011
C 0.6236873571 -0.4337683065 -1.2906189776
C 0.9671570717 -1.7731639606 -1.2092786564
C -0.9263453853 1.5017793985 -0.9971232303
C -1.6894391256 1.7703234357 -2.3029251299
O -2.1748618362 3.0993154325 -2.4246538422
C -1.1514582503 4.0726945482 -2.6132043611
C -1.8167909691 5.3861880581 -2.9679838986
C -2.8990158618 -0.4594021707 0.1516565634
C -2.1547424298 -3.2286847497 0.4023097746
Cl -0.4675303987 -0.9944203920 3.1313633153
H 2.6674305598 2.9700819557 2.2737056979
H 1.0924168835 3.7432476363 1.9931816615
H 1.8660065078 2.7756621975 0.7203821828
H -0.0318221343 1.5398182433 1.8727927424
H 0.7922871926 1.7020552145 3.4004133395
H 4.5093324081 -0.7595630228 0.8564282076
H 0.2139293327 -3.3043816811 2.3493791301
H 1.0901501296 -5.3398922021 1.7860447354
H 2.7400868548 -4.6906409623 1.7615878798
H 1.8812560144 -5.3710731083 -0.5044205453
H 2.4241397940 -3.6832323372 -0.4128111354
H 1.3387034210 0.2710545704 -1.7065929938
H 1.9311314368 -2.1042672349 -1.5767007969
H 0.0154744563 2.0602719311 -0.9984495264
H -1.5206261852 1.8847083292 -0.1606500782
H -1.0430585565 1.5130496542 -3.1597473053
H -2.5740121747 1.1258584097 -2.3515415483
H -0.4723697206 3.7479108632 -3.4205843663
H -0.5485246675 4.1871908298 -1.6980108715
H -2.3961965104 5.2854103823 -3.8896400144
H -2.4937472926 5.6974405224 -2.1675806628
H -1.0637641804 6.1672246795 -3.1094709805
H -3.1189680395 0.5794460624 -0.0910541543
H -2.9836784532 -0.5719105431 1.2397237986
H -3.6856415546 -1.0782502327 -0.2926076638
H -2.5271894274 -2.8677211592 1.3675732550
H -3.0310931929 -3.3750436028 -0.2403712082
H -1.6856211849 -4.2024159915 0.5442397178
