47
CONF29
C -2.9230613430 2.8624925073 3.1828531696
C -2.0556580705 2.4157644282 2.0260646743
C -1.9205322744 0.9512225518 1.7097639202
C -0.7717520654 1.6854185163 2.4288763026
C 0.5424929117 1.8655417553 1.7953985164
O 1.5746190781 2.0654133656 2.4025219944
O 0.4970844067 1.7704625061 0.4337039530
C 1.7743727450 1.9051920301 -0.2334709233
C 1.4544687864 2.3467638486 -1.5921707002
N 1.2401123976 2.6801343561 -2.6767461511
C 2.5374648600 0.5975932709 -0.2568339425
C 1.8830530547 -0.5587045178 -0.6806370128
C 2.5933779614 -1.7542326183 -0.7196872207
C 3.9336115405 -1.8020433696 -0.3332618830
C 4.5641797130 -0.6412796747 0.0942640254
C 3.8731903570 0.5682730358 0.1318049215
O 2.0230589537 -2.9543762946 -1.0785916507
C 0.9134858928 -2.9648043463 -1.9142459160
C -0.1453921298 -3.7867376739 -1.5475878109
C -1.2490507640 -3.8875868821 -2.3918437179
C -1.2909884035 -3.1695225094 -3.5843922374
C -0.2154134544 -2.3564692780 -3.9399119982
C 0.8973995435 -2.2526023795 -3.1108398182
C -2.6491232433 -0.0934066177 2.4331775843
C -2.8172102740 -1.3423993156 1.9967655754
Cl -3.7200865257 -2.5310729980 2.9004170255
Cl -2.1583399615 -1.9524555618 0.5030818232
C -2.0611399335 3.3869832502 0.8665021159
H -2.6395950561 3.8768606814 3.4812419418
H -2.8255130504 2.2182191342 4.0590674064
H -3.9747830225 2.8795634797 2.8765034311
H -1.7029077004 0.7341835509 0.6693337265
H -0.6749965113 1.5023293703 3.4938750720
H 2.3719568177 2.6825049863 0.2555528964
H 0.8382864787 -0.5252045314 -0.9711820117
H 4.4613490168 -2.7491092740 -0.3701904841
H 5.6047692383 -0.6792312541 0.3991599722
H 4.3645671147 1.4761615893 0.4659231974
H -0.0961186875 -4.3355400417 -0.6130340750
H -2.0797442141 -4.5265682960 -2.1090773394
H -2.1543260639 -3.2463575151 -4.2369408243
H -0.2357702249 -1.8036313975 -4.8738392088
H 1.7408911623 -1.6282279610 -3.3868556387
H -3.0882615624 0.1457305399 3.3967283510
H -1.6239179733 4.3444269196 1.1702462201
H -3.0972612112 3.5699610184 0.5627555805
H -1.5128468173 3.0103682987 0.0028038522
