37
CONF3
C -7.6595059753 2.3995113474 0.7407416995
C -6.6483956725 1.7069866129 -0.1603194847
N -5.8412763752 0.7000509878 0.5585122271
S -4.4379278495 1.0588269636 1.3111517553
O -4.2879349595 0.2293951297 2.5111143704
O -4.2239944161 2.5077792138 1.3087194709
C -3.1538800810 0.3520865129 0.0755698620
C -1.7159047225 0.2684010679 0.6768109966
C -0.5940954570 0.1299672123 -0.4128094196
C 0.7708769690 -0.3859388068 0.1688465575
C 1.9912506441 -0.0937179163 -0.7747890704
C 3.2535068068 -0.9640236829 -0.4322401712
C 4.5809816802 -0.3793745036 -1.0243154407
C 5.7652921901 -1.4009919398 -1.0652953514
F 5.9107545041 -1.9948685859 0.1273453787
F 6.8917966284 -0.7388816452 -1.3605114286
F 5.5620452564 -2.3348629905 -1.9999428813
F 4.9710530212 0.6688207068 -0.2686073863
F 4.3597662069 0.0427126271 -2.2908022619
F 3.3853796227 -1.0401011046 0.9114703616
F 3.0679408788 -2.2080129666 -0.9276442260
F 1.6276306898 -0.3524136498 -2.0509995893
F 2.3203783115 1.2123826606 -0.6631366548
F 0.9933013390 0.2177398378 1.3575096076
F 0.6810446142 -1.7215845099 0.3582919881
F -1.0163220636 -0.7408453608 -1.3576139819
F -0.3967644793 1.3400967957 -0.9828809850
F -1.4798853241 1.3896604684 1.3950943989
F -1.6580671103 -0.8047304611 1.4978701211
F -3.5607898312 -0.8800898995 -0.2839536349
F -3.1538434387 1.1521460417 -1.0128928062
H -8.3383793095 1.6713434344 1.1948449363
H -7.1546966474 2.9533702229 1.5372641526
H -8.2555422501 3.1030261044 0.1512800572
H -7.1457020356 1.1754269923 -0.9778928792
H -5.9617854967 2.4283312501 -0.6102358392
H -6.3104824180 -0.1210244072 0.9264520207
