68
CONF13
C 2.9738895558 -1.0184276830 -2.0986179542
C 2.6432654546 -2.4765528942 -1.7863307351
C 1.2279754491 -2.7074919033 -1.2246315814
C 1.0151466242 -4.2215811351 -1.0081818771
C 1.1310646111 -2.0836460400 0.1664170523
O -0.1282481403 -1.7285150974 0.4778778617
C -0.3823557659 -1.2583990105 1.8418483434
C -0.6682481400 -2.4826511486 2.6957216265
C -0.9455179711 -2.0925923812 4.1460248360
C -1.9348205207 -0.9682091369 4.1841396132
C -2.2352587998 -0.1795036688 3.1357063457
C -3.2253917472 0.8807757026 3.2559251918
C -3.4048208752 1.8194233183 2.3138655773
C -2.5534291516 1.9195618341 1.0817423561
C -1.2438145587 1.1177901279 1.2629802820
C -1.5748775852 -0.3089590081 1.7728911909
C -0.3531313482 1.1493844719 0.0171476061
C -0.0258226261 2.5657165635 -0.4593092333
C 1.0450378457 2.5850352323 -1.5320600398
C 1.3719485630 3.9723336070 -2.0542867831
C 2.4292105914 3.9253419881 -3.1718837681
C 2.5627513366 2.4942421301 -3.7371280995
C 1.2593539623 1.7486914071 -3.7863290977
O 0.5229509006 1.7892042570 -2.6557924929
O 0.8428241210 1.1204756345 -4.7395235751
O 2.1571428323 4.8786433365 -4.2033025826
C -3.3651319672 1.5319595374 -0.1672697187
C -1.4316389954 -3.2951017830 4.9618944048
O 2.0691378632 -1.9714211568 0.9340207339
C 0.1565155082 -2.1748999966 -2.1840099097
H 4.0235029528 -0.9158516042 -2.3907085270
H 2.3619834469 -0.6406375508 -2.9230299131
H 2.8051038034 -0.3763929584 -1.2265784093
H 2.7314881574 -3.0769732610 -2.7001181978
H 3.3688697154 -2.8758294231 -1.0704522368
H 1.0674790184 -4.7319496205 -1.9754344850
H 1.7885673635 -4.6357081250 -0.3536457026
H 0.0338449040 -4.4209633827 -0.5659595682
H 0.5107720640 -0.7366461473 2.2042229029
H 0.1789581150 -3.1749692551 2.6404696794
H -1.5494897347 -2.9933978271 2.2841515888
H -0.0031064773 -1.7434576213 4.5998779031
H -2.4435784952 -0.7875385223 5.1314130001
H -3.8373465778 0.8864831811 4.1560835514
H -4.1898335791 2.5637211442 2.4353429426
H -2.2803390185 2.9783087903 0.9696029900
H -0.6860411477 1.6124804289 2.0740318210
H -2.3065682016 -0.7618493374 1.0865712473
H -0.8143189359 0.5785421230 -0.7947929569
H 0.5958246029 0.6493215387 0.2446294416
H -0.9144010465 3.0773470222 -0.8472756947
H 0.3483580473 3.1639732138 0.3817881863
H 1.9465534643 2.0762369277 -1.1633882954
H 1.7032258259 4.6110237678 -1.2306297968
H 0.4454575333 4.4051185781 -2.4537649385
H 3.4073923272 4.2191178436 -2.7816582414
H 3.0102018466 2.5109691057 -4.7316788654
H 3.2290686369 1.9222805836 -3.0769698393
H 1.2669351211 4.7151457848 -4.5432406424
H -4.2926714564 2.1122986689 -0.2036121028
H -3.6379117443 0.4722500340 -0.1506976124
H -2.8097606652 1.7294409885 -1.0890496968
H -2.3766137701 -3.6753335271 4.5580496518
H -1.5946155853 -3.0169677205 6.0080030203
H -0.6947559344 -4.1042215448 4.9323545455
H 0.3313008054 -2.5970004006 -3.1796006871
H -0.8457319686 -2.4641049040 -1.8596341218
H 0.1864897510 -1.0848926573 -2.2656566031
