54
CONF3
C 0.1538165477 -0.9222143426 -4.1567980050
C -0.2888713708 -0.1113031148 -2.9485000568
C 0.0905990838 -0.7664781028 -1.6428016246
O 0.5304376882 -1.8901590183 -1.5365743133
O -0.2113952555 0.0627462259 -0.6199300073
C 0.1136041817 -0.2738227988 0.7610423480
C -0.6909819274 -1.5346577125 1.1758974346
C -2.1250280244 -1.5234856073 0.7052533201
C -3.0955620989 -0.7373825671 1.3338295084
C -4.4077470211 -0.7229163501 0.8728773226
C -4.7755987347 -1.4978777786 -0.2232807167
C -3.8212250502 -2.2931061788 -0.8495193042
C -2.5080257725 -2.3047992316 -0.3881768851
C -0.3130954819 0.9626624675 1.5514410788
C -0.4510983055 0.9157176307 2.9435017766
C -0.8045828412 2.0463606212 3.6713261855
C -1.0324499099 3.2560403573 3.0236086026
C -0.9016609274 3.3175409998 1.6416983207
C -0.5450232431 2.1855088618 0.9144255073
C 1.6544486011 -0.5220974790 0.8683877346
C 2.1388526898 -0.7200643756 2.3065017273
C 2.4709645274 0.6004750682 0.2032650447
N 2.5871627991 0.4816942768 -1.2541824958
C 3.5501301990 -0.5489912827 -1.6290295126
C 2.9560975102 1.7618188308 -1.8475769614
H 1.2401692553 -1.0447229571 -4.1631144807
H -0.1456631825 -0.4242389756 -5.0830821140
H -0.2881722276 -1.9211588441 -4.1385706324
H -1.3788329645 0.0212414815 -2.9330684266
H 0.1428089622 0.8950925098 -2.9537316748
H -0.1808671514 -2.4085084511 0.7648422188
H -0.6635197306 -1.6223816816 2.2648407206
H -2.8215501963 -0.1284128517 2.1892677994
H -5.1465217092 -0.1059663996 1.3751441789
H -5.8003513192 -1.4881606988 -0.5808380842
H -4.0986082971 -2.9105472620 -1.6984726465
H -1.7657705537 -2.9251619512 -0.8811176907
H -0.2950801780 -0.0126495360 3.4804150906
H -0.9080475563 1.9765169683 4.7496014505
H -1.3141453335 4.1377079280 3.5900595721
H -1.0834424333 4.2512939763 1.1186943022
H -0.4618421801 2.2464802387 -0.1629516989
H 1.8328643619 -1.4548629952 0.3280114061
H 2.0957672237 0.2096801502 2.8816965636
H 3.1808675738 -1.0538577574 2.2878692532
H 1.5614528794 -1.4824298632 2.8372164452
H 3.4774184890 0.6267120221 0.6689477940
H 2.0016417682 1.5641722271 0.4375286170
H 3.2389691339 -1.5218940023 -1.2393124417
H 4.5707423641 -0.3283239734 -1.2569519750
H 3.5929103668 -0.6331441168 -2.7198619774
H 2.1924283112 2.5129897124 -1.6167608863
H 3.9322529934 2.1432019873 -1.4861870517
H 3.0183542714 1.6601224458 -2.9367998614
