45
CONF17
C -0.1060376879 -2.6632816856 2.4963792686
N 1.1576674708 -1.9923209378 2.8090611097
C 2.2554424939 -2.9497241976 2.6731754811
C 1.3738502669 -0.8482568522 1.9131313867
C 0.5208791429 0.3601049748 2.2909123286
C 0.5678552024 1.4743574542 1.2459452567
N 0.0605222419 1.0473479649 -0.0675353362
C 0.4574946324 1.7888423392 -1.2060550367
C 0.9565508710 3.0929633279 -1.0208324936
C 1.3977071244 3.8703301652 -2.0825930039
C 1.3381403517 3.3708642666 -3.3777206471
C 0.8387684554 2.0898022308 -3.5711133075
C 0.3980625159 1.2737056721 -2.5240312895
C -0.0866217899 -0.1049809477 -2.9304493472
C -0.2337714218 -1.1442044404 -1.8164226960
C -1.3446677979 -0.7634370469 -0.8898830094
C -2.5532228487 -1.4595132980 -0.8557917601
C -3.5912654076 -1.0609957502 -0.0186934418
C -3.4308883432 0.0648289962 0.7848613501
C -2.2380500789 0.7788801522 0.7510211032
C -1.1887851626 0.3672755507 -0.0767088149
H -0.9491449071 -1.9728111077 2.5890767969
H -0.2678174138 -3.4885797987 3.1974980873
H -0.1161733881 -3.0740570300 1.4666348482
H 3.2028600545 -2.4742306508 2.9474501056
H 2.0906001368 -3.7989404282 3.3447772994
H 2.3507292703 -3.3434515567 1.6414758376
H 2.4319216027 -0.5628466018 1.9707825319
H 1.1794586947 -1.1344796235 0.8619006329
H -0.5139029045 0.0553692154 2.4669507609
H 0.8861019131 0.7774704544 3.2363425277
H 0.0378509636 2.3591381324 1.6364988078
H 1.6125630345 1.7713100139 1.0984546769
H 0.9809259582 3.5209752267 -0.0268087618
H 1.7734728655 4.8707668543 -1.8907332908
H 1.6769729216 3.9622144593 -4.2218795431
H 0.7987562842 1.6829187205 -4.5790143732
H -1.0579142896 -0.0044897076 -3.4343456015
H 0.6092387029 -0.4868909645 -3.6868952645
H 0.7112673795 -1.2242747754 -1.2662641860
H -0.4425049335 -2.1206992343 -2.2641696698
H -2.6714004106 -2.3365953634 -1.4867973171
H -4.5188190608 -1.6240054621 0.0055674184
H -4.2361012747 0.3938114561 1.4344197723
H -2.1185717375 1.6597904369 1.3732812847
