51
CONF1
C 5.5306188009 1.3510287407 2.2316647440
C 5.5117441049 0.4385959208 1.0350047891
C 6.6236717283 -0.1047406667 0.4784212760
C 8.0445046322 0.0887794938 0.8831935807
O 8.8201643827 0.6668111746 -0.1940378491
C 4.2258786678 0.1153223111 0.4506298878
C 3.0153315691 0.5423145141 0.9010820020
C 1.7841743007 0.1795525667 0.2722937442
C 0.5171148522 0.5465693101 0.6406523456
C 0.2212409298 1.4259199657 1.8223090831
C -0.5896111571 0.0616158090 -0.1505706937
C -1.8995897430 0.3133550829 0.0879082652
C -3.0252333130 -0.1829556227 -0.7012086500
C -3.0122339335 -0.2224443987 -2.0581619355
C -1.9368285109 0.3811486075 -2.9189071876
C -4.1190008797 -0.8512784095 -2.8646282925
C -5.0554902318 -1.7192080352 -2.0374892232
C -5.4427578293 -0.9560237011 -0.7806274295
C -4.2336973492 -0.6605047451 0.1244515982
C -4.6736544150 0.4206024723 1.1318298914
C -3.8405930188 -1.9244729847 0.9124008252
H 5.0066266899 2.2859458454 2.0053964073
H 5.0084509374 0.8880740698 3.0767068654
H 6.5415050727 1.5974607380 2.5544767679
H 6.4887106456 -0.7468475379 -0.3924471174
H 8.1450725679 0.6935717370 1.7915726280
H 8.5165746638 -0.8817494591 1.0762967554
H 8.3857989694 1.4945113270 -0.4375358073
H 4.2484649005 -0.5350207952 -0.4242271038
H 2.9782963073 1.1842423884 1.7763288734
H 1.8736666450 -0.4638392927 -0.6039277333
H -0.3154761618 2.3280915962 1.5070531611
H -0.4273241428 0.9044189969 2.5360489822
H 1.1218362772 1.7359345070 2.3513846742
H -0.3240580012 -0.5749658569 -0.9928291026
H -2.1491882261 0.8842272784 0.9785967013
H -1.3208397489 1.1058783992 -2.3837366671
H -2.4011735566 0.8754726309 -3.7815836091
H -1.2718520040 -0.3914838487 -3.3268149625
H -4.6890712865 -0.0516682165 -3.3644224519
H -3.6625262403 -1.4323372712 -3.6784113504
H -5.9444474358 -1.9841157515 -2.6205029833
H -4.5554047806 -2.6589735553 -1.7726539962
H -6.1915616961 -1.5025444198 -0.1941605127
H -5.9013469794 -0.0025786362 -1.0793112512
H -5.6278579321 0.1219774488 1.5801521770
H -3.9570867807 0.5515494264 1.9476039822
H -4.8176769729 1.3860278668 0.6344785136
H -3.5829221668 -2.7496198902 0.2411872957
H -2.9711144745 -1.7270699592 1.5481581991
H -4.6698306667 -2.2445581715 1.5540191887
