41
CONF1252
C -2.9650938241 3.7321728783 2.0940340105
C -2.0050490070 4.1755844888 0.9920130160
C -2.6570887015 5.2289084484 0.1025713338
N -1.6217317278 3.0226464742 0.1520574173
C -0.6120610344 2.1423535782 0.7470882880
C -0.5858661393 0.8292941870 -0.0373479872
O -1.8977231141 0.2746595855 -0.1004192014
C 0.3306501930 -0.1719875604 0.6271091395
O 0.4696852747 -1.2858566181 -0.2573795115
C 1.2441227242 -2.3345995220 0.1406976212
C 1.9307114772 -2.3820621120 1.3557541162
C 2.7065676241 -3.4984506907 1.6667118258
C 2.8005603561 -4.5620124225 0.7787312414
C 2.1070095063 -4.5026853702 -0.4299153337
C 1.3239610009 -3.4047930693 -0.7706489539
C 0.6008335971 -3.3360529364 -2.0864782421
C 1.3055012161 -2.5413960170 -3.1558906748
C 2.5004488877 -1.9670102677 -3.0476688685
H -3.2269637471 4.5825377198 2.7313492990
H -3.8830477503 3.3314589529 1.6508507066
H -2.5287493493 2.9596682632 2.7333056764
H -1.1101477836 4.6229442637 1.4642944677
H -1.9641619186 5.5849006869 -0.6679438197
H -2.9721666398 6.0906654750 0.6975843995
H -3.5404437521 4.8103163362 -0.3924844290
H -1.2552077046 3.3734273015 -0.7285915914
H 0.3966109062 2.5903609011 0.7697148775
H -0.9022178906 1.9219501628 1.7813721866
H -0.2072182566 1.0219831451 -1.0571665889
H -2.4817613771 1.0449769587 -0.2062390188
H -0.1050824678 -0.4959276790 1.5829078351
H 1.3125179609 0.2878751916 0.8125303908
H 1.8691725263 -1.5637265885 2.0625700327
H 3.2365950376 -3.5267653698 2.6137762836
H 3.4024929758 -5.4312702098 1.0213190041
H 2.1734790382 -5.3293088348 -1.1326884533
H 0.4413975289 -4.3549657010 -2.4638146712
H -0.3991930118 -2.9068918649 -1.9441779198
H 0.7567243950 -2.4569470843 -4.0939724165
H 3.0778620320 -2.0282173800 -2.1287267466
H 2.9340714580 -1.4171173142 -3.8767887306
