52
CONF6
C 1.8530434323 0.4294401292 -0.1550338373
C 3.0499404470 1.0450945913 -0.8976445686
C 4.2747979980 0.2459152477 -0.3809958258
C 3.7074762371 -0.8736756302 0.5540483723
O 4.4143648743 -2.1183687554 0.4391020657
C 3.7524105028 -0.4290127414 1.9502438656
C 3.8320662541 -0.0567265012 3.0956427858
C 2.2450809456 -1.0458003479 0.0408114696
C 2.2897016302 -1.8307647222 -1.2806407300
C 1.2516935984 -1.6878791394 1.0065901661
C -0.1847463172 -1.5427816245 0.4813336163
C -0.5675331128 -0.0802883336 0.1861690563
C 0.4564425807 0.6156999975 -0.7379787642
C 0.1096618224 2.0960418072 -0.8723242868
C -1.2979571437 2.2704537227 -1.4392864541
C -2.3393385932 1.5349110456 -0.6499569144
C -3.5414861014 2.1103462102 -0.4204654513
C -4.5550666505 1.3190012962 0.2026590807
C -4.3497524074 0.0904455459 0.7598690780
C -2.9687609337 -0.4583294248 0.8534955132
C -2.0489291674 0.0705688596 -0.2907732957
C -2.3413922263 -0.7417349251 -1.5732106922
C -5.6312809154 -0.2870349164 1.2091806797
N -6.5490845933 0.6253182089 0.9455450213
O -5.8540254700 1.6736431322 0.2913774939
H 1.8298122733 0.8747501525 0.8528571593
H 3.1472286705 2.1159593180 -0.7013153874
H 2.9341869530 0.9202184020 -1.9801843630
H 4.9896372541 0.8727816996 0.1569046113
H 4.8131444914 -0.2442473808 -1.1968369158
H 5.3004367811 -1.9846034681 0.8005531844
H 3.8919273317 0.2644628951 4.1104508817
H 3.0399841111 -1.4397303455 -1.9719363364
H 1.3233912432 -1.7946921345 -1.7870979239
H 2.5284811259 -2.8791359653 -1.0845258877
H 1.3271776977 -1.1910284722 1.9816183959
H 1.4858710393 -2.7485984267 1.1603146634
H -0.3070611777 -2.1516033232 -0.4203688572
H -0.8652780324 -1.9608088750 1.2296192336
H -0.5106930693 0.4632487501 1.1446389118
H 0.4228027748 0.1631266382 -1.7395338490
H 0.8293669704 2.6005838102 -1.5264301046
H 0.1772481820 2.5725955170 0.1160728549
H -1.5717272933 3.3280706605 -1.5109006604
H -1.3014481284 1.8748472830 -2.4664107896
H -3.7594871342 3.1214187398 -0.7508497935
H -2.9817643803 -1.5514203022 0.8289947827
H -2.5381086354 -0.1671978604 1.8234199892
H -3.3804612358 -0.5825717989 -1.8801350100
H -2.2048065557 -1.8115010883 -1.3923222934
H -1.6921433484 -0.4459554699 -2.4009775674
H -5.9350448902 -1.1934511740 1.7206405251
