47
CONF39
C -3.2191322698 1.9155298799 2.9220851770
C -2.0715797515 2.0362695127 1.9430203691
C -1.9741150046 1.0837086660 0.7770106386
C -1.0515552546 0.8969000498 1.9934731757
C 0.4049825007 1.0703152184 1.8933051994
O 1.2090640849 0.5997365779 2.6708500722
O 0.7805838343 1.8173345185 0.8122485285
C 2.2058929204 1.9748663863 0.6476690572
C 2.3652896973 3.1094086644 -0.2641427292
N 2.5322196036 3.9897380879 -0.9923063395
C 2.8527893255 0.7273089831 0.0769379265
C 2.1707915019 -0.0231316505 -0.8760097133
C 2.7717803602 -1.1745949558 -1.3730913337
C 4.0445021531 -1.5595653560 -0.9652072676
C 4.7215287332 -0.7827498746 -0.0298537457
C 4.1260070765 0.3556217171 0.5041038774
O 2.1563469470 -1.9331623635 -2.3509816770
C 0.8850990325 -2.4328481841 -2.1273541743
C 0.1966911272 -2.8585830647 -3.2618964514
C -1.0548673415 -3.4463038229 -3.1186106638
C -1.6241207062 -3.6007716445 -1.8557272198
C -0.9280616788 -3.1606793953 -0.7333548001
C 0.3319652375 -2.5782175395 -0.8562162974
C -2.9927096052 0.0698882746 0.5002836295
C -3.3118718698 -0.3827702089 -0.7131199095
Cl -4.5764952460 -1.5580752266 -0.9608985010
Cl -2.5361024721 0.1343322828 -2.1835176053
C -1.6274744910 3.4646124636 1.7206248293
H -2.9538103187 2.4146680386 3.8596405563
H -3.4716355092 0.8790935048 3.1538688839
H -4.1088042171 2.4082701268 2.5148814523
H -1.4711917397 1.4926263277 -0.0925083203
H -1.3084112338 0.0938767419 2.6764660721
H 2.6711938578 2.2316190179 1.6067147633
H 1.1810763177 0.2660716040 -1.2155236957
H 4.4867642374 -2.4600362810 -1.3776965592
H 5.7120267668 -1.0795806342 0.2985389506
H 4.6419286997 0.9479285596 1.2531926056
H 0.6536949688 -2.7337423687 -4.2380460177
H -1.5889505993 -3.7814933937 -4.0023143788
H -2.6025208652 -4.0556062038 -1.7483568012
H -1.3614567197 -3.2743561309 0.2557056575
H 0.8741807019 -2.2537630093 0.0250528797
H -3.5474877182 -0.3518460641 1.3326418476
H -0.8624143117 3.5517966271 0.9490995096
H -1.2379829318 3.8898518740 2.6522013965
H -2.4936463221 4.0605043765 1.4141638516
