45
CONF472
O 0.9407075420 -2.4660094216 -0.7122972672
C 1.4703342278 -2.2786563705 0.6030444832
C 1.9489190839 -0.8663392718 0.8630342779
O 3.1133893588 -0.5863964435 0.0337932982
C 3.0185930282 0.7222715239 -0.5457815528
O 2.5687148944 0.6587583323 -1.8840709330
C 4.3972437179 1.3667767089 -0.4709644906
O 4.8963988847 1.4151490232 0.8580524620
C 1.9065017762 1.4161287637 0.2547971902
O 1.3241803096 2.5400748234 -0.3828885074
C 0.9670787921 0.2447813945 0.5119370630
O 0.0510344597 0.4976014659 1.5762046805
C -1.3039466789 0.4126377980 1.2141390467
O -1.5291961910 -0.9119608968 0.7450173756
C -2.8680009464 -1.1849837722 0.3056974934
C -2.8373005172 -2.6309516577 -0.1751115126
O -1.9169774356 -2.8304069890 -1.2589793942
C -3.3468252701 -0.1843485568 -0.7554264124
O -2.6293675345 -0.2782741873 -1.9861421010
C -3.1809371605 1.2257010319 -0.1963614727
O -3.6342979798 2.1724429521 -1.1599374005
C -1.7165231711 1.4411994213 0.1541546747
O -1.5513255645 2.7665106378 0.6539598699
H 1.6144541948 -2.1958359065 -1.3515079045
H 0.6591073904 -2.5053188801 1.3010786316
H 2.2977171088 -2.9776887286 0.7893724181
H 2.2356000805 -0.7832364194 1.9221320513
H 3.2894825737 0.3456493675 -2.4484661674
H 4.3236476968 2.3981408461 -0.8290155694
H 5.0778334290 0.8120610183 -1.1378388754
H 4.9347305685 0.5031562340 1.1778603302
H 2.3173414150 1.7668336347 1.2079036329
H 1.1732431940 2.3010702266 -1.3101812421
H 0.4400205926 -0.0219437277 -0.4096112421
H -1.8630125418 0.5978120445 2.1451437838
H -3.5639928175 -1.1227540656 1.1600388123
H -2.5818018418 -3.2832551677 0.6701256281
H -3.8285118360 -2.9107236848 -0.5451661354
H -1.0123083189 -2.6530852617 -0.9378494802
H -4.4195421300 -0.3739714682 -0.9260007157
H -2.3093957113 -1.1970671313 -2.0534342871
H -3.7866859059 1.3036163527 0.7234262954
H -3.3379002028 3.0400390809 -0.8516797338
H -1.1277761249 1.2959503123 -0.7586460299
H -0.6206481214 2.9988451095 0.5055788492
