26
CONF15
C 0.1502548851 -2.5258042837 1.3246443417
C 0.7297652880 -1.1297417435 1.5401412794
N 1.1835221164 -0.5065307339 0.2895676065
C 2.5764081567 -0.7920173676 -0.0865526163
C 3.5413517150 0.2543362369 0.4598373174
C 0.4067208816 0.2774515018 -0.4882118725
S 0.9235118665 1.0220346218 -1.8932591324
S -1.2797755357 0.4321961045 0.1252880932
C -2.0010624509 1.5925481557 -1.1071612008
C -3.3966588030 1.9261605380 -0.7027308163
C -4.4931897358 1.5360007964 -1.3427822171
Cl -3.5229445421 2.9443961770 0.7305798514
H 0.8888454747 -3.1908632352 0.8672914017
H -0.7275992193 -2.4851734790 0.6751799462
H -0.1493872654 -2.9577571981 2.2842982154
H 1.5985978958 -1.1767637008 2.2065283316
H 0.0008064927 -0.4753852955 2.0287189881
H 2.8160298359 -1.7858255318 0.3089610597
H 2.6350212590 -0.8315043899 -1.1770085475
H 3.4883685141 0.3145943757 1.5515253305
H 4.5676062156 -0.0046181603 0.1823039900
H 3.3055810219 1.2352742532 0.0404663228
H -1.3634351080 2.4801470036 -1.1470061036
H -1.9959818791 1.1118708115 -2.0879104882
H -4.3984612433 0.9043000519 -2.2194173200
H -5.4838957411 1.8306746712 -1.0210054613
