48
CONF20
C -3.6955681193 2.6250280499 -1.1711574646
O -4.3759626487 1.3740536264 -1.3484247706
C -3.8635034111 0.2866500805 -0.7143612191
C -4.5766914868 -0.9174732059 -0.9404431959
C -4.1640757568 -2.0794270302 -0.3501874693
C -3.0224889339 -2.1078144409 0.4916043837
N -2.6842531617 -3.2959350458 1.0625198475
C -1.6358836061 -3.3043602089 1.8669851990
C -0.8547358569 -2.1708693236 2.1458124157
C -1.1458110809 -0.9593687259 1.5544248783
C -0.3017432436 0.2659672606 1.8531555328
O 0.3260669454 0.1613785556 3.1298839599
C 0.8134404380 0.6258574371 0.8276545688
C 0.4571442926 0.6847831556 -0.6688939780
C 1.7497814577 0.3838955950 -1.4537169299
C 2.0327737048 -1.1162105170 -1.3083971960
C 1.9348728802 -1.4588581400 0.2002470373
N 2.0090074512 -0.2324519223 1.0330920149
C 3.1802378161 0.5480048867 0.5806459213
C 2.9140391567 1.1894543018 -0.8206659255
C 4.1515618065 1.2087328763 -1.6561882025
C 4.7397507986 2.3127470303 -2.1179423883
C -2.2913758745 -0.8952223163 0.7069407504
C -2.7440616336 0.3005639029 0.0918696527
H -4.2568433983 3.3520368039 -1.7581088155
H -3.6932544389 2.9222024844 -0.1160127420
H -2.6655548404 2.5643254662 -1.5417112839
H -5.4514170921 -0.8904292565 -1.5824459036
H -4.7057892462 -3.0064214115 -0.5093783517
H -1.3804849591 -4.2571032381 2.3295066323
H -0.0145516474 -2.2579305112 2.8255479250
H -0.9725958120 1.1321246534 1.9039733159
H 1.2208448128 -0.1767057353 2.9252464855
H 1.1252783009 1.6284850807 1.1471715753
H 0.0518672128 1.6699541908 -0.9236141505
H -0.2973862029 -0.0631053322 -0.9361692742
H 1.6311833707 0.6616329783 -2.5055619442
H 3.0212309855 -1.3663500267 -1.7072793209
H 1.2969768727 -1.6937280910 -1.8783248983
H 2.7465384066 -2.1257269623 0.5108582926
H 0.9936749827 -1.9658698702 0.4197899501
H 4.0376601464 -0.1341579371 0.5313929998
H 3.4112382911 1.3263026978 1.3164649793
H 2.5774932005 2.2258462279 -0.6883032631
H 4.5983948804 0.2386714852 -1.8793327829
H 5.6460222296 2.2656175238 -2.7146702116
H 4.3296244944 3.2988596973 -1.9101235680
H -2.2026739865 1.2223426975 0.2510668444
