29
CONF145
C -3.1181412762 -0.4118037505 -1.9777561179
N -2.9918039296 -0.4142690202 -0.5072946441
C -3.2420659379 -1.7085424388 0.1686040040
C -4.7374404916 -1.9132976593 0.3777144694
O -5.2920807583 -0.9541116083 1.2772451905
S -1.9912335142 0.6915008063 0.1927714340
O -2.1294996229 1.9720354196 -0.5045311119
O -2.1087006506 0.5860232625 1.6498783640
C -0.2066840049 0.0889018596 -0.2170992295
C 0.8721432459 0.7023366578 0.7243563227
C 2.3318385088 0.5851928308 0.1678115109
C 3.4445182237 0.7900308975 1.2475417411
F 3.1997444359 1.8980065261 1.9613231153
F 3.5068221664 -0.2597754087 2.0733612740
F 4.6277975168 0.9222450062 0.6336493378
F 2.5088388176 1.5188912331 -0.7912762578
F 2.5048846262 -0.6436908360 -0.3736247112
F 0.8091991792 0.0716137150 1.9185643343
F 0.5907773212 2.0147752811 0.9033289125
F 0.0551451739 0.4243212075 -1.4979890982
F -0.1990413874 -1.2547228475 -0.1047261809
H -4.1173840410 -0.7761512674 -2.2272284061
H -3.0163418634 0.6035067709 -2.3609597444
H -2.3699748786 -1.0675511662 -2.4384748818
H -2.7409007663 -1.7145813879 1.1388288981
H -2.8285911063 -2.5181908062 -0.4463987906
H -5.2701018335 -1.9060555543 -0.5833402111
H -4.8816156640 -2.8968906071 0.8353619914
H -5.2126670581 -0.0848959217 0.8621731975
