23
CONF1
C -3.1525361103 1.2559933401 1.1215529591
C -2.0048456217 0.5675495458 1.4938120793
C -1.4436301274 -0.3788970893 0.6455938321
C -2.0394712219 -0.6452041468 -0.5883729292
C -3.1845612833 0.0394062694 -0.9798010985
C -3.7249779840 0.9839193438 -0.1152953783
Br -5.2999360007 1.9187660578 -0.6450917180
Br -1.2985747069 -1.9622738812 -1.7355255519
O -0.3490332227 -1.0930786417 1.0836156576
C 0.8805289843 -0.7842286318 0.5662608441
C 1.1258609719 0.3727141840 -0.1637934981
C 2.4040546568 0.6423788937 -0.6417366828
C 3.4491938428 -0.2439205262 -0.3869720216
C 3.2034205036 -1.4009206725 0.3491964641
C 1.9291775307 -1.6720345312 0.8197042015
Br 1.6087578323 -3.2592468410 1.8070368680
Br 5.2166102014 0.0607491747 -1.0080082629
Br 2.6564543051 2.2403083702 -1.6344076879
H -3.5925699839 1.9920833323 1.7827089657
H -1.5290713725 0.7520444415 2.4509618418
H -3.6461266152 -0.1707399790 -1.9359681185
H 4.0104086882 -2.0943690124 0.5486741139
H 0.3185781920 1.0665880020 -0.3645301813
