47
CONF61
C -7.3599507929 1.1966535174 2.0052914533
O -6.3259175170 1.8968150008 1.2791126577
P -5.2947455432 1.0543038061 0.3786777342
S -5.9725166442 -0.2354990239 -0.8687329136
O -4.4402097369 2.2307395184 -0.2933862085
C -3.8080484832 3.2389563318 0.5347410508
O -4.3467235148 0.4759104963 1.5878033547
C -3.3604548510 -0.4827404881 1.3838569395
C -2.4505821538 -0.3933480168 0.3346536251
C -1.4547834568 -1.3531808585 0.2132830271
C -1.3493272182 -2.3817859049 1.1517773066
C -2.2629553920 -2.4517206849 2.2055307250
C -3.2788527824 -1.5101725634 2.3133833172
S -0.1260996594 -3.6781682758 1.0142404649
C 1.2847884136 -2.7948552259 0.3657817894
C 1.7811317009 -1.6543995586 1.0030311793
C 2.8994496346 -1.0033233117 0.5036534557
C 3.5295982795 -1.5110470331 -0.6283430236
C 3.0618455750 -2.6519668612 -1.2624106289
C 1.9309136224 -3.2915616188 -0.7663939746
O 4.6825807481 -0.9270694243 -1.1432985031
P 4.8056035859 0.6611990721 -1.4598575520
S 3.2416523669 1.5340253730 -2.1785253238
O 6.1389678830 0.6701492209 -2.3529898028
C 6.0503397915 0.3967818722 -3.7696022158
O 5.3837134899 1.1882860507 -0.0580889030
C 5.5779675888 2.6088887928 0.1330157061
H -7.9543671745 0.5853285019 1.3198151266
H -7.9818639133 1.9685589590 2.4596741071
H -6.9165893979 0.5671548744 2.7834375750
H -3.1489690342 2.7701136758 1.2720031658
H -3.2246547629 3.8572473324 -0.1480706782
H -4.5658032267 3.8444088726 1.0386488663
H -2.5295710034 0.4047609758 -0.3955864516
H -0.7550626329 -1.2955931887 -0.6133903301
H -2.1796308575 -3.2428472916 2.9434595926
H -3.9991183533 -1.5549391298 3.1225645294
H 1.2855429748 -1.2747967632 1.8901468423
H 3.2910171975 -0.1193039837 0.9939270566
H 3.5719724817 -3.0183366813 -2.1460768877
H 1.5392645072 -4.1692468420 -1.2691487546
H 7.0550739146 0.5494023493 -4.1647160742
H 5.7376863730 -0.6389778187 -3.9357221135
H 5.3434847170 1.0828456080 -4.2452273263
H 4.6446371954 3.1480311355 -0.0547904251
H 5.8842297526 2.7289456845 1.1725756789
H 6.3653352236 2.9753737495 -0.5326822501
