49
CONF32
C -3.1768082959 -1.7588471134 -1.0909697880
C -3.1636851960 -1.4704550921 0.3954850011
C -2.3605042832 -0.2754812953 0.9470542506
C -1.9361598639 -1.7396325181 1.2137199797
C -2.0627694647 -2.1977435580 2.6539428294
C -0.6843966040 -2.2890298995 0.5631552123
C -1.5760899964 0.6194662083 0.0995955375
O -0.9861248730 0.3752641751 -0.9332985908
O -1.5729348756 1.8856310457 0.6568064260
C -0.7334924802 2.8521128731 -0.0293706965
C -1.3591675907 4.1533327045 0.1966326322
N -1.8340863079 5.1926505171 0.3623946805
C 0.6830666369 2.7919834810 0.4971610473
C 1.6453801018 2.1308585502 -0.2612068119
C 2.9300463782 1.9853853581 0.2560536414
C 3.2664417331 2.5167361600 1.4979210084
C 2.2976268940 3.1906890165 2.2351874578
C 1.0020037780 3.3242482637 1.7473146094
O 3.9382666912 1.3722164904 -0.4572787492
C 3.6193924097 0.3010441564 -1.2813418326
C 2.7787474063 -0.7242477555 -0.8532878814
C 2.5526567106 -1.8061146849 -1.6987263182
C 3.1643550763 -1.8687849570 -2.9499860156
C 4.0099367905 -0.8389104946 -3.3561269412
C 4.2393471675 0.2546942052 -2.5248376237
C -4.5402134144 -1.6543259375 1.0062709545
H -3.5046418504 -2.7930766311 -1.2473781918
H -2.2109716752 -1.6251240055 -1.5732298064
H -3.8976941085 -1.1021847911 -1.5902260848
H -2.8101254418 0.2253179500 1.7980229360
H -2.8946963539 -1.7310378732 3.1825299522
H -2.2023617011 -3.2847664958 2.6855045391
H -1.1425587734 -1.9622215300 3.1989766904
H -0.5174865798 -1.9155735360 -0.4451401027
H -0.7500164186 -3.3825490215 0.5245960301
H 0.1917237035 -2.0277806020 1.1672854289
H -0.7474572226 2.6471871729 -1.1060776722
H 1.3928522869 1.7202556939 -1.2320114504
H 4.2775686597 2.3967949686 1.8721392812
H 2.5565961308 3.6060518507 3.2035691533
H 0.2457559796 3.8373227835 2.3332954626
H 2.3084403858 -0.6756701285 0.1233504362
H 1.8994822581 -2.6085175260 -1.3700833052
H 2.9844093242 -2.7166645326 -3.6025152316
H 4.4914269326 -0.8795802112 -4.3281296935
H 4.8911163457 1.0677334405 -2.8269950498
H -4.8297038950 -2.7106547222 0.9604037849
H -4.5962261531 -1.3284157642 2.0453519315
H -5.2762653721 -1.0795853780 0.4341664271
