45
CONF25
C 2.5336514030 -1.1135267161 3.7701959564
N 2.3751536883 -1.2335295524 2.3214767449
C 2.8987456317 -2.5226268959 1.8720332213
C 0.9717743732 -1.1029080405 1.9218085266
C 0.3929454680 0.2872747330 2.1711896323
C -0.9546120901 0.4643049186 1.4660667852
N -0.8280772089 0.4710247153 0.0019279701
C -0.1204779950 1.5335907187 -0.6169244754
C 0.0728896433 2.7280127262 0.1036733171
C 0.7629902933 3.8071673828 -0.4283319441
C 1.2793711162 3.7315353758 -1.7164921495
C 1.0945727116 2.5589436413 -2.4349450026
C 0.4162420679 1.4466414123 -1.9237149126
C 0.3488172501 0.2480745312 -2.8512127271
C -0.1178290163 -1.0773440421 -2.2477907924
C -1.5461399026 -0.9898222619 -1.8133269464
C -2.5695923330 -1.6544439180 -2.4886261695
C -3.8948026814 -1.5481612870 -2.0754663272
C -4.2076175176 -0.7560505224 -0.9744335913
C -3.2012819499 -0.0725975151 -0.2995509989
C -1.8693558237 -0.1831888320 -0.7130337043
H 2.2313207990 -0.1189398424 4.1101377666
H 3.5870854947 -1.2506313833 4.0349361503
H 1.9384625478 -1.8663325338 4.3255012679
H 3.9575997793 -2.6063657356 2.1386517702
H 2.3625691240 -3.3822277168 2.3213132977
H 2.8116512588 -2.5987851705 0.7828616544
H 0.9152211518 -1.3095159236 0.8465206317
H 0.3371764475 -1.8614815668 2.4289674431
H 0.2268742547 0.4557573309 3.2413780970
H 1.1118561706 1.0411706929 1.8323689834
H -1.5885063379 -0.3929515124 1.7146852712
H -1.4745868634 1.3544058303 1.8517740318
H -0.3315707288 2.8229106675 1.1030702251
H 0.8858747691 4.7067651991 0.1669208586
H 1.8222514407 4.5639562194 -2.1516312862
H 1.5061835301 2.4810498701 -3.4386676845
H -0.3161334920 0.4913806322 -3.6914335884
H 1.3472384907 0.1125447283 -3.2843156885
H 0.5196562710 -1.3363648755 -1.3939032521
H -0.0063282176 -1.8665278018 -2.9977373975
H -2.3156919643 -2.2804513378 -3.3401620909
H -4.6759647574 -2.0823569632 -2.6066652630
H -5.2372990667 -0.6582640683 -0.6446934579
H -3.4523075363 0.5588852927 0.5464603706
