52
CONF77
C -2.3075626357 0.4026106580 0.4010491730
C -2.9010473199 0.5901863794 -0.9679124601
C -2.2315081466 1.1717084936 -2.0582200561
C -2.8516947402 1.3375553967 -3.3037996017
C -4.1470688994 0.8611692588 -3.4875088551
C -4.8195472193 0.2594282269 -2.4316075987
C -4.2084617676 0.1449460703 -1.1915550303
C -2.2449173054 2.0518756923 -4.4750347360
O -2.0004369356 1.5222967294 -5.5368879228
O -2.1390567281 3.3635549281 -4.2247868055
C -1.5398703748 4.1507942835 -5.2869014447
S -0.5011035295 1.6547115079 -1.8984693955
O 0.0552628074 1.8809226445 -3.2353479755
O -0.3366883217 2.6792688524 -0.8581975333
N 0.2540120546 0.2863330066 -1.2387050561
C 0.1655925124 -0.9568836545 -1.8245577609
O -0.3580650624 -1.1754292462 -2.9052868784
N 0.7302776399 -1.9987563255 -1.0866983950
C 1.2987885470 -2.0104358071 0.1733908897
N 1.3837989014 -0.8773166749 0.8575858018
C 1.9538960929 -0.9866579589 2.0886624803
N 2.4054490323 -2.1537066093 2.6019296470
C 2.2498914535 -3.1943668910 1.8016255710
N 1.7135247141 -3.2207234042 0.5827786402
O 2.7275395023 -4.3424454918 2.3358152200
C 2.5813817546 -5.5648584752 1.6109551268
C 1.3675074159 -6.3140592930 2.1276294920
F 1.4632415770 -6.5839843891 3.4492631963
F 1.2464543523 -7.4932853334 1.4769021800
F 0.2191414460 -5.6238175538 1.9483468377
N 2.0628027210 0.1380345905 2.8079196567
C 2.6089590868 0.1590274819 4.1617607978
C 1.5776161030 1.4071267877 2.2633229218
H -1.7403333974 -0.5338256927 0.4571400578
H -1.6401228134 1.2177782515 0.6839990365
H -3.1128261025 0.3410195394 1.1358826069
H -4.6247639197 0.9829097649 -4.4538955915
H -5.8304601522 -0.1077650974 -2.5738370676
H -4.7467938060 -0.3072970796 -0.3643783224
H -2.1468570776 4.0836271915 -6.1924530159
H -0.5284140445 3.7883304586 -5.4852610207
H -1.5186518244 5.1720952315 -4.9100715257
H 0.6245617794 0.3295665267 -0.2732908846
H 2.4726505999 -5.4033789874 0.5371722012
H 3.4679954867 -6.1668400884 1.8221865546
H 1.8459046699 0.5182805253 4.8614720130
H 2.9229905888 -0.8408529277 4.4527840270
H 3.4690560774 0.8362620096 4.2020784006
H 2.0677275823 1.6409232559 1.3129368118
H 0.4938160954 1.3817726849 2.1040030775
H 1.8098937260 2.1936393655 2.9820126404
H 0.6724647848 -2.8990683030 -1.5454504569
