61
CONF11
C -0.0936138724 -0.3548470141 -3.4369394618
C -1.0863143526 -1.3281700141 -2.7855345831
C -2.0132635738 -0.6285200208 -1.8229015264
C -3.2448670844 -0.1550359336 -2.2819596401
C -4.1130897809 0.5542320960 -1.4542271712
C -3.7260443336 0.7780978885 -0.1311601133
C -2.5099530330 0.3141515705 0.3688589479
C -1.6392670662 -0.3882869161 -0.4884770940
C -0.3329080477 -0.8724982902 -0.0078856009
C 0.8114375647 -0.1485519060 0.1568879403
N 1.8414359762 -0.8978848050 0.6512731803
C 3.2472195115 -0.6951274640 0.2840779240
C 3.7075601211 -1.5613888125 -0.8887565247
O 4.1099102558 -2.8725728631 -0.4954713337
C 3.0284727533 -3.7545874886 -0.1957526389
C 2.2003494134 -3.3276412700 1.0135661337
N 1.3430431815 -2.1923950038 0.7354480883
C 0.0104868772 -2.2390550753 0.3384758298
O -0.6764762413 -3.2726481399 0.3397640153
O 1.0059920242 1.1545952506 -0.1884265291
C 1.1394285254 2.1082332280 0.8230263888
O 1.2349436139 1.7977584497 1.9798695695
C 1.1153480989 3.5011987484 0.2297337984
C 2.2113501350 3.6236573363 -0.8437120968
C -0.2745244077 3.7204304750 -0.4025794824
C 1.3515224526 4.5163226123 1.3496310028
C -2.1867729993 0.5104254121 1.8286093155
C -2.4977602036 -0.7470416962 2.6525745031
C -5.4402748487 1.0525403118 -1.9574795174
H 0.5669393583 -0.8813639003 -4.1333371393
H 0.5273984299 0.1335809428 -2.6792828875
H -0.6256413419 0.4255146164 -3.9909389228
H -1.6844788722 -1.8093520108 -3.5669175023
H -0.5331409927 -2.1194046001 -2.2694847542
H -3.5270873769 -0.3418265807 -3.3160416022
H -4.3927716727 1.3238941849 0.5335792748
H 3.3433968233 0.3630480301 0.0249124798
H 3.8816307610 -0.8847137233 1.1564701532
H 4.5986540039 -1.0983186329 -1.3228172893
H 2.9220042171 -1.6064370252 -1.6606852947
H 2.3675027329 -3.8569660039 -1.0710355918
H 3.4887482642 -4.7243398870 0.0163518579
H 1.5250334817 -4.1444600329 1.2876019780
H 2.8429101913 -3.1100076155 1.8740646888
H 2.0379422168 2.9366690158 -1.6754020918
H 2.2061916388 4.6466653516 -1.2320518220
H 3.2000018849 3.4226183300 -0.4186078047
H -0.3209961507 4.7393261769 -0.7990870236
H -0.4554123620 3.0175468432 -1.2197253894
H -1.0671064656 3.6036458661 0.3439224025
H 2.3247282171 4.3610510710 1.8239613273
H 0.5765009242 4.4424135354 2.1171743302
H 1.3273735809 5.5246466457 0.9266251353
H -2.7720290454 1.3529302870 2.2123660985
H -2.2635031806 -0.5864065081 3.7096869034
H -3.5574295326 -1.0095879605 2.5694319942
H -6.2652243799 0.5082246313 -1.4836642573
H -5.5771087895 2.1128778901 -1.7216143606
H -5.5277787218 0.9238513340 -3.0390994295
H -1.1307588573 0.7657766271 1.9564652701
H -1.9103063295 -1.5987477661 2.2955480964
