43
CONF59
C 5.8400253600 1.4390221574 2.8350648853
C 5.5002414528 1.0390528193 1.4210340786
O 4.5238321555 -0.0514761847 1.5033432724
C 4.1122056092 -0.5648043211 0.3404905395
O 4.4576908300 -0.1765834660 -0.7549260231
C 3.1772837274 -1.7498590123 0.5880170556
C 4.0027666944 -3.0078443307 0.8190083922
O 2.3661756888 -1.9910639603 -0.5604748961
C 1.4024266832 -1.0725215225 -0.8798490680
C 1.1240671607 0.0778519563 -0.1384889628
C 0.1088940057 0.9367362387 -0.5591819665
C -0.6079228202 0.6383264946 -1.7034220945
C -0.3387683766 -0.5003005129 -2.4514579051
C 0.6700799012 -1.3567840200 -2.0374967514
O -1.5791739054 1.5454417498 -2.1609951773
C -2.8564802450 1.3692173998 -1.7412835079
C -3.7902839452 2.3297607949 -2.2404165812
N -5.0543417081 2.2828158384 -1.9157902567
C -5.4457405715 1.2734684956 -1.0778061871
C -6.8001040894 1.1842104086 -0.6996527030
C -7.1816519247 0.1669595487 0.1420176974
C -6.2682635736 -0.7833487762 0.6348424095
C -4.9433742464 -0.7028941731 0.2699490533
C -4.5031933329 0.3230846872 -0.5905687935
N -3.1859562598 0.3934200810 -0.9437844793
Cl -8.8654244033 0.0361827705 0.6284905860
H 6.5694052068 2.2537506698 2.8091964270
H 6.2782862302 0.6011965223 3.3843300398
H 4.9512804494 1.7886500097 3.3676288139
H 6.3729856258 0.6726191584 0.8725301533
H 5.0453212097 1.8583267493 0.8565080869
H 2.5516506609 -1.5438462805 1.4655691066
H 4.6386629288 -2.8779939745 1.6976719508
H 3.3339505822 -3.8548704388 0.9889225705
H 4.6314623726 -3.2135281920 -0.0518120663
H 1.6748290969 0.3281381932 0.7603714934
H -0.1182042894 1.8340424060 0.0068343442
H -0.9137389320 -0.7101621355 -3.3473240099
H 0.9037757403 -2.2522076928 -2.6036642352
H -3.4435520671 3.1190568288 -2.9048522387
H -7.5072420341 1.9139303209 -1.0773162758
H -6.6117307223 -1.5703202983 1.2965400415
H -4.2221515128 -1.4248530759 0.6384189751
