49
CONF8
C -4.6494819444 0.3995612065 -0.9158326958
C -3.7513229716 0.7661439915 0.2449860189
C -2.6368010124 1.7578143257 0.0721137537
C -2.3040431848 0.2756885609 0.1230070297
C -1.5433654282 -0.2152787015 1.2824274265
O -1.4290740864 0.3157813210 2.3649979360
O -0.9515483680 -1.4108840307 0.9754981191
C -0.1292500132 -1.9616436633 2.0321102860
C 0.0358194489 -3.3762682769 1.6942213154
N 0.2074638025 -4.4925025761 1.4537286574
C 1.2201618929 -1.2772920756 2.1304439883
C 1.9084037644 -0.9653511919 0.9590136528
C 3.1576991971 -0.3595817695 1.0572412185
C 3.7153473192 -0.0710896569 2.3040470507
C 3.0113388275 -0.3875064689 3.4575907025
C 1.7588834112 -0.9939730910 3.3811647441
O 3.8947964052 0.0371012424 -0.0346066548
C 3.6055186762 -0.4875928695 -1.2882723593
C 3.4170966716 0.4173107132 -2.3260711052
C 3.1940032174 -0.0658785428 -3.6140454420
C 3.1598356953 -1.4367951577 -3.8541658240
C 3.3626584547 -2.3298209415 -2.8020961129
C 3.5924018890 -1.8618336704 -1.5121404827
C -2.4155339101 2.5266072593 -1.1910661985
C -1.0449314613 3.2074734747 -1.3043713611
Br -0.8660985472 4.1558435511 -3.0216922846
Br 0.3454482151 1.7941894985 -1.2741374985
Br -0.6946958172 4.4575141076 0.1671975785
Br -3.8642664502 3.9049981950 -1.3205880027
C -4.4514719367 0.7458369491 1.5838765515
H -5.4838492531 1.1047157227 -0.9824558600
H -5.0621140318 -0.6007842212 -0.7501818898
H -4.1251195058 0.3901752983 -1.8743205880
H -2.3800403120 2.3004529517 0.9783200377
H -2.0718470141 -0.2159069189 -0.8151072021
H -0.6568351992 -1.8917754215 2.9903708922
H 1.4711893729 -1.1866867892 -0.0080078077
H 4.6893336041 0.4041521978 2.3507510161
H 3.4419625553 -0.1568456771 4.4264275833
H 1.2062001415 -1.2375322234 4.2826336087
H 3.4556195338 1.4817339308 -2.1202669891
H 3.0448308632 0.6359581283 -4.4284627253
H 2.9827101802 -1.8100587004 -4.8573856692
H 3.3501087492 -3.3995584455 -2.9854575438
H 3.7578061984 -2.5496324320 -0.6892296983
H -2.5464763420 1.9174585046 -2.0872486209
H -4.8657600081 -0.2492284372 1.7779605325
H -3.7824596004 1.0131054505 2.4030423250
H -5.2802526092 1.4613470534 1.5640390037
