39
CONF106
C 2.8527267347 -2.7021274411 0.3074579308
C 2.5110748042 -1.9034516135 -0.9497428949
C 3.1308684707 -0.5046718352 -0.9851117717
C 2.7248311373 0.3967537664 0.1849397751
N 1.2778297321 0.5338875399 0.3220816258
C 0.5816964267 1.3192705052 -0.5155585547
O 1.0475371662 2.0629509374 -1.3586751988
N -0.8535998677 1.2574191212 -0.3192500473
C -1.6866049290 2.3661560460 -0.4721229094
C -1.4145509670 3.7210281695 -0.6200535282
C -2.5153835086 4.5639938512 -0.7142890025
C -3.8305007802 4.0747940467 -0.6588167740
C -4.0917772345 2.7202409774 -0.5107442433
C -3.0000812103 1.8581859637 -0.4186301788
N -2.9785759964 0.4809967368 -0.2606585708
C -1.7142934365 0.1676850847 -0.2016149877
N -1.2779286551 -1.1702563218 -0.1868271748
C -0.8187896422 -1.7805377109 0.9618633194
O -0.3499517429 -1.2043352744 1.9267109906
O -0.9296943237 -3.1173820344 0.8440469573
C -0.4673359090 -3.8643496299 1.9916091462
H 3.9372175301 -2.7722723539 0.4488959782
H 2.4584228897 -3.7212372449 0.2427547421
H 2.4304261789 -2.2428329216 1.2081068393
H 1.4217514267 -1.8180602019 -1.0477922599
H 2.8525570161 -2.4544824631 -1.8337139077
H 4.2261507787 -0.5833873507 -0.9775615925
H 2.8543367905 -0.0040688001 -1.9194718343
H 3.1602062124 1.3922221744 0.0460371839
H 3.0982623056 -0.0021821254 1.1329199119
H 0.7895328697 0.0428332072 1.0646466868
H -0.4003468523 4.0936662223 -0.6844780994
H -2.3520743034 5.6290454482 -0.8413175781
H -4.6571158829 4.7733276678 -0.7363368913
H -5.1033257142 2.3323924406 -0.4653270392
H -1.8308339920 -1.7706625030 -0.7844680971
H -1.0613273744 -3.6074014163 2.8718349149
H 0.5861804766 -3.6522243077 2.1849492540
H -0.6075148516 -4.9109278491 1.7237082929
