76
CONF14
C -0.5826524302 -1.9817196699 -1.0779542248
C -1.8361506580 -1.2396956061 -0.6395412044
C -3.0722097745 -1.8699252315 -1.2209330706
C -4.3269593281 -1.6952785475 -0.7816979899
C -5.4551979468 -2.4317081529 -1.4530603156
O -6.2200925445 -3.2185220942 -0.5183146088
C -4.7656582532 -0.7689502508 0.3314076646
C -3.8519975858 0.4257461341 0.6433892166
O -2.9346225307 0.1667130232 1.7257200581
C -4.6412497603 1.6771499321 1.1009590462
O -5.5114098149 1.6589859691 1.9620292399
C -4.1265848932 2.8445167185 0.3843925058
C -4.6012085543 4.2284394434 0.6624056443
C -3.2341309139 2.4240628981 -0.5345109123
C -3.0808649426 0.9332023419 -0.5861141340
C -1.7044599463 0.2994007243 -0.8852994680
O -1.4947434390 0.6052429623 -2.2675212439
C -0.5088380167 0.7977044838 -0.0260972602
C -0.3099926264 2.3137238851 -0.0107755261
C 0.8038779517 0.1571205256 -0.5203243857
O 1.7845487425 0.2957943586 0.5493310318
C 3.0106565465 0.7858072371 0.2366000693
O 3.3012411640 1.1504149800 -0.9008207631
C 3.9074440742 0.8289552121 1.3934815863
C 3.4686515916 0.3555875668 2.6434540921
C 4.2825227597 0.3747226158 3.7600672691
C 5.5813559536 0.8836406551 3.6378952874
C 6.0521977083 1.3584394763 2.4296865839
C 5.2392364837 1.3476041582 1.2687004163
N 5.7219457267 1.8152609752 0.0941127694
C 7.0565412439 2.3579398633 -0.0770408136
C 0.7485217014 -1.2843654201 -0.9566189000
O 1.7813995309 -1.5823024446 -1.9191111216
C 1.6361906333 -1.1547594401 -3.1856481252
C 2.7821578315 -1.5867683532 -4.0424834721
O 0.6763402820 -0.5137636125 -3.5811451884
C 0.4467701797 -2.4601402594 -0.0636493401
C 0.2407959122 -2.2732989413 1.4235459046
C 1.1471849808 -3.7676579925 -0.3821618580
H -0.6875006567 -2.6158381578 -1.9554367373
H -1.9238283075 -1.3306671931 0.4464627463
H -2.9255200018 -2.5473333300 -2.0617478569
H -6.1736443013 -1.7197368182 -1.8773904161
H -5.0690401656 -3.0602984501 -2.2665913123
H -5.6116481979 -3.8530046489 -0.1172694551
H -5.7505462155 -0.3734479901 0.0469417310
H -4.9445497746 -1.3323700522 1.2566497015
H -3.4700614615 -0.0275788385 2.5088794785
H -4.3821785238 4.5092021859 1.6987377471
H -4.1250528403 4.9499496220 -0.0049903636
H -5.6876024128 4.2957499123 0.5379529987
H -2.7370541445 3.0762202370 -1.2450344643
H -3.6647737226 0.6146110502 -1.4620962771
H -0.7073229907 0.1306888964 -2.5997125015
H -0.6932683387 0.4681881029 0.9980276386
H 0.6445149771 2.5597741089 0.4654365795
H -1.0955719486 2.8138775614 0.5597661679
H -0.2977283681 2.7182811403 -1.0278755322
H 1.1627473494 0.7413540938 -1.3725689914
H 2.4614975294 -0.0357415339 2.7207790844
H 3.9200536892 0.0024934197 4.7117229546
H 6.2370500401 0.9082397536 4.5036108992
H 7.0623089941 1.7447031036 2.3675735977
H 5.0961596349 1.7792875326 -0.6976011354
H 7.2233017250 3.2391925323 0.5562960498
H 7.8322571111 1.6166859506 0.1559387200
H 7.1704047055 2.6578056096 -1.1200573267
H 3.7273234710 -1.4885633352 -3.5047626973
H 2.6471004552 -2.6456826005 -4.2903337422
H 2.7958787175 -1.0041654132 -4.9629396197
H -0.4255383057 -3.0569014321 1.8015596708
H -0.1834469769 -1.3080723233 1.6972258912
H 1.2022888734 -2.3674801457 1.9387946331
H 2.1650541333 -3.7685399108 0.0229869504
H 0.5944020491 -4.5889005030 0.0862325336
H 1.2029776582 -3.9593018627 -1.4550554124
