63
CONF133
C 6.8028872905 -0.2445251297 -4.6417759222
C 7.3487186074 -0.0927607033 -3.2244829857
N 6.2781104690 -0.1087913520 -2.2208248719
C 5.4417130311 1.0824346719 -2.0630430534
C 4.9789580793 1.1954380531 -0.6319007882
N 4.2291815289 -0.0191190181 -0.2515411342
C 4.6544310176 -1.2344483728 -0.7266309298
O 4.1163177295 -2.3088316956 -0.4832432925
C 5.9219745105 -1.2612822787 -1.6266265502
O 6.5046242235 -2.3363441516 -1.7576511900
C 3.1780320595 0.1710217374 0.7088542592
O 2.9580742186 1.2942371835 1.1528282582
N 2.4879960179 -0.9235255106 1.0772482225
C 1.3779376818 -0.7859792372 1.9987957463
C 0.7444304761 -2.1338448239 2.2743551909
C 0.3191832789 -2.9466185156 1.2192934987
C -0.2881704054 -4.1705114674 1.4825686307
C -0.4846686757 -4.5868296965 2.7982800154
C -0.0690090350 -3.7753862140 3.8509900375
C 0.5449456358 -2.5528106910 3.5901512518
C 0.3005481958 0.1460687847 1.4003548019
O 0.0808243060 0.2130368323 0.1951420861
N -0.4169720598 0.8358185789 2.3182069427
C -1.4965533274 1.6910040402 1.9352013536
C -2.7484309614 1.1231704803 1.1934243041
N -2.5125342181 2.1142365942 0.1290321784
C -1.3501488228 2.6124027111 0.7006017091
O -0.5777226275 3.4721864032 0.3455400767
C -3.6499962476 2.8136171697 -0.4381679689
C -4.9182896914 2.0474852009 0.0919812341
S -4.4317519671 1.4852975582 1.8152059717
C -5.1725223762 0.8361085232 -0.8067832292
C -6.1652845189 2.9173846717 0.1847045780
C -3.6605878558 4.2768192731 -0.0063511359
O -4.1627728466 5.0543121440 -0.9791784049
O -3.2970224692 4.6846009861 1.0734918779
H 6.1186406918 0.5714800306 -4.8923923808
H 6.2700169029 -1.1939866198 -4.7488597652
H 7.6303948068 -0.2276457130 -5.3567594984
H 8.0359114091 -0.9068754263 -2.9857015458
H 7.8853253923 0.8552833572 -3.1145296406
H 4.5850116930 1.0540928823 -2.7501582370
H 6.0466553178 1.9597661322 -2.3068739895
H 5.8311431781 1.3295782928 0.0451801052
H 4.3094637010 2.0480768503 -0.5248796556
H 2.7155525418 -1.8155139197 0.6506441463
H 1.7309650724 -0.3537442416 2.9426534120
H 0.4570302898 -2.6204123882 0.1923173637
H -0.6125776025 -4.7982086989 0.6585408483
H -0.9597629310 -5.5414134134 3.0013698129
H -0.2167105199 -4.0953944582 4.8776508028
H 0.8744159266 -1.9221548391 4.4109858309
H -1.8006463052 2.3008298416 2.7904014573
H -2.6459049584 0.0858916882 0.8628851122
H -3.6616417476 2.7682728920 -1.5325890088
H -5.9920276572 0.2380752506 -0.4010266880
H -4.2867515440 0.2015698390 -0.8980523248
H -5.4527500229 1.1807713858 -1.8085388461
H -7.0044713116 2.3162528849 0.5449326951
H -6.4224295240 3.2964254549 -0.8094851966
H -6.0295209113 3.7644380078 0.8629844219
H -0.1849555659 0.7593702275 3.2976881914
H -4.2121474158 5.9691324787 -0.6498835378
