40
CONF132
C -3.0080020901 -0.5922963902 -2.9614102630
C -1.6733010688 -0.2366131307 -2.3458587445
O -1.6691417065 -0.4970759552 -0.9069153785
P -2.3772246517 0.5023610838 0.1289312892
S -2.6117904115 2.3469524212 -0.4305587959
O -3.7020195690 -0.3308163272 0.5163291438
C -4.7798406006 0.3043488174 1.2723194265
C -5.9453682207 0.5849093113 0.3515881220
S -1.2282487320 0.1932635771 1.8857888731
C 0.2741443362 1.2034003272 1.4012830213
C 0.6543403238 2.0361197167 2.6171901980
Cl 2.1292201033 3.0347184264 2.2510299077
N 1.3312411672 0.3646754319 0.9095773886
C 1.6979645173 0.3193876095 -0.4523902970
O 1.2106185631 0.9915527985 -1.3319908646
C 2.7711592340 -0.7034064795 -0.5350306415
C 3.5039583369 -1.1319671135 -1.6265731797
C 4.4641835606 -2.1215821252 -1.4042173564
C 4.6717799271 -2.6527956485 -0.1292145250
C 3.9265532707 -2.2124305526 0.9669895213
C 2.9788764289 -1.2323536426 0.7363632456
C 2.0434422350 -0.5703635465 1.6818021885
O 1.8847228750 -0.7671550015 2.8661427314
H -2.9502441196 -0.4708156195 -4.0480328518
H -3.2768189781 -1.6284879763 -2.7388610186
H -3.7972360896 0.0661357775 -2.5869199242
H -1.4074766559 0.8119276239 -2.5094779590
H -0.8658542927 -0.8677919629 -2.7241195023
H -4.4109464951 1.2234919744 1.7404987074
H -5.0401793441 -0.4124045575 2.0564479430
H -5.6597523808 1.3138335987 -0.4110668357
H -6.7803135634 0.9937267989 0.9298704835
H -6.2790442623 -0.3338964988 -0.1383819102
H -0.1604361120 2.7244935204 2.8447139552
H 0.8910902637 1.4157646539 3.4815883936
H 3.3351655449 -0.7101016091 -2.6114784044
H 5.0609094179 -2.4851327252 -2.2342907748
H 5.4261369182 -3.4202105190 0.0096556466
H 4.0789953307 -2.6166726974 1.9618571270
H -0.0267484185 1.8597262106 0.5756677921
