83
CONF3
C -2.9199276664 -2.4742918454 1.8892839071
C -2.4541118659 -2.9559241122 3.2787239314
C -2.7299979584 -4.4685160954 3.2882093813
C -3.9305183289 -4.6205976069 2.3540142357
N -3.6316674465 -3.6284069099 1.3145618650
C -3.8710518248 -3.8436859663 0.0059684352
O -4.5448390038 -4.7941062578 -0.4044772368
C -3.2093554520 -2.9098000032 -1.0188387812
C -2.3186125649 -3.7677536950 -1.9427442510
C -1.7309706138 -3.0300490576 -3.1516396491
C -0.6447568908 -3.8994102783 -3.7904214917
C -2.8083837147 -2.6732657582 -4.1760967844
N -2.4600542276 -1.8314257213 -0.3809624800
C -2.2926763605 -0.5838924814 -0.8587991273
O -2.7161213102 -0.1089510730 -1.9042725767
C -1.4573041340 0.1815016430 0.1875099381
N -0.1607018149 0.5387253638 -0.3477163767
C 0.7516884248 -0.3019690649 -0.8756303348
O 0.6419357264 -1.5351879197 -0.9227002708
C 2.0127550296 0.3968809670 -1.4012589134
C 1.7265374062 1.6960722872 -2.1628007136
N 1.3367944856 2.7385881317 -1.2106851348
C 0.6370733654 3.8590094692 -1.8368231427
C 2.4180556404 3.1352549508 -0.3062712017
C 3.4113311116 4.1975294682 -0.8793933413
C 4.4372978554 4.4721297912 0.1685684767
C 5.2578692563 5.5225012541 0.4851272979
Br 5.4240203113 7.1878781625 -0.3736424601
N 6.0347887045 5.2316240305 1.5967697452
C 5.7178856213 3.9592685270 2.0270279494
C 6.1845265990 3.1500528693 3.0634824919
C 5.6167945115 1.8795020521 3.1713218876
C 4.6208119589 1.4066479769 2.2946072315
C 4.1554058300 2.2137309160 1.2579052844
C 4.7217239528 3.4876703130 1.1513056643
C 3.1519686970 1.9090910220 0.2285371519
C 2.9423850090 0.6757403656 -0.2537470386
O -1.3440600360 -0.7403303089 1.2830774538
C -1.8302391573 -2.0338731834 0.9216786547
O -0.8128637735 -2.9697028014 0.8973845786
C -2.1674716521 1.4715997169 0.6387191796
C -1.3748677432 2.2011650638 1.7275615669
C -3.5901033462 1.1912442081 1.1209961776
H -3.6070527397 -1.6262357029 1.9824689176
H -1.4026782163 -2.7184908947 3.4514403351
H -3.0476097101 -2.4533110015 4.0468846437
H -1.8770236530 -5.0145845552 2.8741377469
H -2.9348504052 -4.8492914734 4.2912994001
H -4.0270665244 -5.6090640820 1.9017923927
H -4.8710561641 -4.3705879107 2.8639653464
H -4.0138174100 -2.4446156421 -1.6012683447
H -2.9265998622 -4.6084323006 -2.2939276403
H -1.5086396116 -4.1818542065 -1.3315656326
H -1.2563813861 -2.1058136497 -2.8012514217
H 0.1585176856 -4.1118838384 -3.0768768455
H -1.0633458242 -4.8560710732 -4.1263292142
H -0.2060816600 -3.3991933989 -4.6601547904
H -3.5872337410 -2.0377868779 -3.7445628558
H -2.3723532116 -2.1314173141 -5.0220675037
H -3.2813441679 -3.5838089666 -4.5641568830
H 0.1075388206 1.5334401383 -0.4086304049
H 2.4815985116 -0.3261375083 -2.0765994664
H 0.9008723598 1.5489750356 -2.8679634965
H 2.6211982685 1.9671193685 -2.7489237526
H 1.2253925235 4.3581052828 -2.6238663887
H -0.2912973405 3.4911410337 -2.2866082851
H 0.3803595334 4.6002302448 -1.0724774903
H 1.9395169198 3.6133029502 0.5643688230
H 2.8673653729 5.1087154640 -1.1451915398
H 3.8790090708 3.8108700187 -1.7950981544
H 6.7175378523 5.8518058483 2.0023027608
H 6.9498209769 3.4828803908 3.7564620206
H 5.9525415892 1.2290819459 3.9730861782
H 4.2072243739 0.4142323837 2.4461165875
H 3.4840992207 -0.1688120731 0.1650829727
H -0.1629877991 -2.6217219684 0.2441527645
H -2.2198718647 2.1003526852 -0.2607832721
H -0.3709902036 2.4948014420 1.4068172789
H -1.2807119288 1.5704451779 2.6170972865
H -1.9095235588 3.1117370744 2.0134882772
H -3.5747261687 0.6295397605 2.0600367019
H -4.1769397946 0.6314505882 0.3860714869
H -4.1034020563 2.1386200152 1.3078107586
