54
CONF501
C 3.8521095340 -1.0884343245 1.9669407971
C 4.6976545483 -1.1500567664 3.2363890464
C 3.9335764736 -0.5914532332 4.4081408647
C 2.5391634874 -0.4585479571 4.3480248497
C 1.8232515721 0.0864381216 5.4171390720
C 2.4830526949 0.4984036214 6.5682083849
C 3.8593144858 0.3491066570 6.6187121063
C 4.5891951624 -0.1777919693 5.5709990283
F 4.5216763379 0.7441393019 7.7446334795
O 1.8003585694 -0.8261800628 3.2540660927
C 2.4688438134 -1.6395075800 2.2600655497
C 1.5434994676 -1.6428581631 1.0499147470
C 0.1550207840 -2.2023996006 1.3860724810
N -0.5600941367 -2.5129607700 0.1417639581
C -1.1797053853 -1.3416675848 -0.4836055754
C -1.9954199311 -1.7690163775 -1.6963098731
C -2.6199382883 -0.5775786586 -2.4260152127
C -3.4067141350 -0.9716620185 -3.6627097327
C -4.0063011902 0.2801205185 -4.2975459311
C -2.9632749790 1.3587119163 -4.4262801883
C -1.7849616665 1.2996403501 -3.6694172881
O -1.5161782926 0.2874687043 -2.7842633410
C -0.7964062529 2.2780405640 -3.8013285605
C -0.9687834749 3.3363164803 -4.6848153771
C -2.1426150111 3.3877972068 -5.4185378125
C -3.1304346018 2.4283639436 -5.3100273800
F -2.3264352608 4.4213722665 -6.2903150977
O -3.0206196995 -2.6982696867 -1.3175748243
O 2.1517959197 -2.4619548818 0.0500071837
H 4.3123364297 -1.6722664351 1.1662257140
H 3.7513798460 -0.0526158640 1.6183400681
H 4.9732613246 -2.1925734701 3.4435819374
H 5.6336725235 -0.5966747186 3.1097811900
H 0.7452891578 0.1815344423 5.3356538857
H 1.9429228413 0.9218380190 7.4078525429
H 5.6690874783 -0.2621650508 5.6494525870
H 2.5485859716 -2.6658309726 2.6538446262
H 1.4545590129 -0.6054089387 0.6840682493
H 0.2843829483 -3.1374649313 1.9452531690
H -0.3882275598 -1.4906316238 2.0263945192
H -0.3979764011 -0.6459740969 -0.8053411965
H -1.8413583773 -0.7942472743 0.2160371148
H -1.3522423882 -2.3159796723 -2.3972418077
H -2.7288672321 -1.4744790685 -4.3643211387
H -4.1905203161 -1.6794780903 -3.3840068922
H -4.4264030101 0.0545995999 -5.2829838079
H -4.8356510418 0.6456109288 -3.6775613807
H 0.1067194074 2.1989772194 -3.2048466924
H -0.2121819142 4.1046694200 -4.7997740419
H -4.0281826868 2.5015922992 -5.9167722061
H 1.3900182590 -2.8156040921 -0.4496165567
H -3.2713596276 -0.0256861675 -1.7268787058
H -3.5947260610 -2.2608685456 -0.6720528919
H -1.2827505257 -3.1983269695 0.3326441314
