22
CONF510
C 1.9320965315 -0.7550527234 -0.7579396208
C 1.3015486771 -0.2869654867 0.5509823584
C -0.0093770778 0.4815034046 0.3653855724
C -1.0749781789 -0.3012693679 -0.4142338636
C -2.3992008814 0.4515102668 -0.5056079220
O -2.9731173429 0.7035849474 0.7842435673
O -1.2596427407 -1.6046707332 0.1545648613
O 0.3106770396 1.6995842237 -0.3324149818
O 2.2402697378 0.5370403245 1.2625570154
O 3.1978170523 -1.3771763028 -0.5124794251
H 2.0441789483 0.0965146691 -1.4461498764
H 1.3000534252 -1.5097013584 -1.2354293334
H 1.1209689892 -1.1564750231 1.1907358587
H -0.4005906317 0.7167744123 1.3652449058
H -0.7200085323 -0.4645146679 -1.4394675349
H -2.2344346857 1.4252309483 -0.9782663821
H -3.0914917221 -0.1232763155 -1.1340437528
H -3.4517180594 -0.0878756005 1.0586779621
H -1.5152860079 -1.4904419367 1.0807253611
H -0.2139315514 2.4144733554 0.0463140615
H 2.2153947038 1.4036387138 0.8275726909
H 3.6807725087 -0.7724357498 0.0690285731
