47
CONF53
C -5.7284111195 0.6294514487 -2.1549937785
O -4.9425919735 -0.1476098226 -1.2228174948
P -5.4803026867 -0.3884888901 0.2688301389
S -6.3282088770 1.0955073552 1.1680702741
O -6.3461877482 -1.7261185334 0.0751270666
C -7.1572743040 -2.2181743542 1.1646901628
O -4.1515724747 -1.0143338531 0.9595949716
C -3.0982736597 -0.1814377513 1.3517508486
C -3.0681675083 0.3170951315 2.6456603986
C -1.9813897514 1.0825237415 3.0502220481
C -0.9456417965 1.3626920448 2.1552214883
C -0.9985019231 0.8623311190 0.8522092373
C -2.0737807890 0.0797216373 0.4518036347
S 0.3730414714 2.4285082975 2.7226673622
C 1.7608468908 1.8578736261 1.7517772645
C 2.1898576201 0.5297377067 1.8275270463
C 3.2848776406 0.1078846384 1.0870760943
C 3.9583397332 1.0297338474 0.2931713385
C 3.5601021884 2.3554835196 0.2199168880
C 2.4489345597 2.7675085192 0.9484793034
O 5.0938171780 0.6290749109 -0.4137348410
P 4.9527617134 -0.0466753584 -1.8867126274
S 3.8655919655 0.8325194405 -3.2026710547
O 4.5064410449 -1.5368966262 -1.4374216560
C 4.0201507575 -2.4591737715 -2.4388365036
O 6.4965997238 -0.1603435197 -2.2968367097
C 7.4534981600 -0.7576700260 -1.3869776772
H -5.1032702972 0.7498504256 -3.0402993035
H -5.9726300932 1.6045025649 -1.7242017346
H -6.6459651395 0.0926973320 -2.4150808379
H -6.5195774450 -2.5737524529 1.9803292271
H -7.8258037407 -1.4313509806 1.5262580103
H -7.7329677104 -3.0488035665 0.7549866768
H -3.8848454433 0.0995928435 3.3240331095
H -1.9371872428 1.4614053908 4.0661289273
H -0.2013254260 1.0812376631 0.1503044980
H -2.1303954218 -0.3200927433 -0.5542776755
H 1.6586897119 -0.1717293417 2.4619764489
H 3.6285034638 -0.9192831187 1.1242582201
H 4.1012210479 3.0420823896 -0.4207083874
H 2.1056448152 3.7941604630 0.8825298160
H 3.1570748708 -2.0328918827 -2.9575241804
H 4.8082950169 -2.6925048630 -3.1622649991
H 3.7325629278 -3.3615696721 -1.8976984359
H 8.3759780320 -0.8669723137 -1.9580241137
H 7.6169958200 -0.0998597081 -0.5294768213
H 7.1044451120 -1.7374427113 -1.0469956721
