65
CONF1
C -0.2447945477 1.5013188903 -2.6125466959
C -1.1039542993 1.8346229429 -1.3853719321
C -2.2444382198 2.7924085251 -1.7552205542
C -0.2541505180 2.3959975047 -0.2645420219
C 0.4302970842 3.6082743676 -0.4151379988
C 1.2281081289 4.1322357457 0.5963600961
C 1.3568113449 3.4531724315 1.8057424324
C 0.6891925250 2.2480961464 1.9911414594
C -0.0894816596 1.7428683516 0.9575426810
O -0.7733096192 0.5284026433 1.1682374029
P 0.0015091461 -0.8748631368 1.1887363179
O 0.7000326424 -1.2789894007 2.4243978626
O -1.1897881552 -1.8885526472 0.8320152934
C -2.0535761563 -1.6298847199 -0.2569084662
C -1.6280664886 -1.9990967739 -1.5270187134
C -2.4622095236 -1.7699155028 -2.6147918310
C -3.7089234625 -1.1826223057 -2.4130463699
C -4.1164297913 -0.8397277873 -1.1287016702
C -3.2992899925 -1.0506369173 -0.0111041809
C -3.7747135159 -0.6792272486 1.3779745496
C -4.1539662641 0.8045263321 1.4674827762
C -4.9506583805 -1.5735048777 1.7978755309
O 0.9247652577 -0.7309225918 -0.1200846326
C 2.1340513953 -1.4311865844 -0.2775300125
C 2.1134466751 -2.8214544035 -0.2963146857
C 3.2979666326 -3.5146894510 -0.5151739252
C 4.4810053615 -2.8082642779 -0.7206324075
C 4.4725100935 -1.4183758365 -0.6961972059
C 3.2993296644 -0.6880235079 -0.4684287285
C 3.3207722174 0.8257474222 -0.4195765350
C 4.2051332922 1.3195239613 0.7336855718
C 3.7762091391 1.4232989604 -1.7571079080
H 0.2246470531 2.4028621180 -3.0211211344
H 0.5441903670 0.7892316138 -2.3532780908
H -0.8679998952 1.0557489595 -3.3950985351
H -1.5554656911 0.9045740078 -1.0316499261
H -2.8611220542 3.0271641344 -0.8819668899
H -1.8564800808 3.7313453531 -2.1645972075
H -2.8844067959 2.3303882611 -2.5143494195
H 0.3362161693 4.1485865558 -1.3525638204
H 1.7478944728 5.0723326401 0.4416706499
H 1.9745715132 3.8548472252 2.6021472482
H 0.7688604475 1.6942332704 2.9207857284
H -0.6517397563 -2.4529582216 -1.6556234428
H -2.1365579804 -2.0486086450 -3.6115628239
H -4.3671412678 -0.9969476117 -3.2557634101
H -5.0947783548 -0.3914237505 -0.9838912752
H -3.3166514435 1.4434400938 1.1718384250
H -5.0076179511 1.0353389901 0.8216600037
H -4.4337369032 1.0556461702 2.4957192063
H -5.8112288522 -1.4206142536 1.1375881176
H -4.6737160134 -2.6316143228 1.7594619175
H -5.2599534670 -1.3334422781 2.8203831689
H 1.1790923699 -3.3515007460 -0.1408254178
H 3.2917516509 -4.5995674728 -0.5286508908
H 5.4101610208 -3.3403138947 -0.8975684369
H 5.4017785266 -0.8785162384 -0.8526193975
H 2.3017875008 1.1717482182 -0.2290188004
H 5.2475699883 1.0161593185 0.5884296702
H 3.8601347524 0.9179751335 1.6918636378
H 4.1721299068 2.4124242313 0.7886568069
H 3.7138122535 2.5161023604 -1.7167665938
H 4.8138060239 1.1506866530 -1.9780199405
H 3.1463283757 1.0727885310 -2.5806361999
H -2.9532414290 -0.8585906109 2.0766671514
