44
CONF36
C -4.4697532836 -2.3095111557 -0.2844323881
C -3.0344965064 -2.1500438522 0.1772718498
C -1.9904641683 -2.6247534186 -0.8388745333
O -1.7340127803 -1.4431533563 -1.6040127067
C -1.7497829543 -0.3897582320 -0.6585189068
O -2.7199977951 -0.7428071531 0.3131237177
C -2.1980916272 0.9073731345 -1.3513699153
N -3.4914027620 0.7707797515 -1.9847810012
C -3.8051645501 0.1450053408 -3.1434524406
N -5.1120979499 0.1789448695 -3.3450455480
C -5.5608001744 0.8506971312 -2.2467174305
N -4.6208365427 1.2277638323 -1.3909237647
C -0.3805952728 -0.1991098295 0.0052207667
C -0.3038507253 -0.1219539857 1.3996359424
C 0.8954885199 0.0619124660 2.0684253661
C 2.0705557637 0.1714010791 1.3324153765
C 2.0431738106 0.0983096827 -0.0570039929
C 0.8224209078 -0.0766680995 -0.6990146280
Cl 0.8879103129 -0.1472516307 -2.4561018542
O 3.2394428136 0.2896700789 2.0453385621
C 4.3360148008 0.8935597171 1.4535517076
C 5.5538806207 0.2308761670 1.5340650485
C 6.7000606965 0.8341870539 1.0279937125
C 6.6036667981 2.0900481544 0.4410940806
C 5.3856332723 2.7576731826 0.3603749028
C 4.2442162219 2.1565368839 0.8754755773
Cl 8.0432095564 2.8499449891 -0.2069544364
H -4.7512642113 -3.3680417134 -0.2805907011
H -4.5971088244 -1.9136418088 -1.2967886514
H -5.1432927996 -1.7678278572 0.3842514062
H -2.8815065625 -2.6213913806 1.1562544838
H -1.0690461459 -2.9686274884 -0.3471882269
H -2.3607166002 -3.3933225747 -1.5203794746
H -2.2742875700 1.6927466868 -0.5967352931
H -1.4524550909 1.1942533380 -2.0967634960
H -3.0596605855 -0.3087323265 -3.7816602910
H -6.6051964624 1.0741677077 -2.0732773300
H -1.2270837001 -0.2071948139 1.9602713542
H 0.9364192942 0.1195458680 3.1499702494
H 2.9558996188 0.1702837592 -0.6353089920
H 5.5972743803 -0.7489687112 1.9961128752
H 7.6578744758 0.3306893221 1.0840823459
H 5.3325538620 3.7411280942 -0.0915181992
H 3.2872689189 2.6652612933 0.8309624800
