48
CONF21
C -4.0531659937 -1.7318828949 -2.0916131559
C -3.9276020181 -0.7275622316 -0.9548256406
C -2.4525747859 -0.3717029208 -0.7245499952
N -2.3283306953 0.6322510152 0.3372085543
C -3.1180665252 1.8457451309 0.0325329881
C -4.5787045544 1.4721436856 -0.1911907868
N -4.7624356978 0.4517829918 -1.2306717294
C -1.0796736812 0.8090534741 0.9065344001
C -0.9344958815 1.5118650010 2.1333239056
C 0.2673471154 1.6941057497 2.7531074244
C 1.4366110617 1.1464701721 2.1967070769
C 1.3188131926 0.4068175854 1.0028349950
C 0.0858250233 0.2600897527 0.3645259937
N 2.4748812033 -0.1522516668 0.4452953802
C 3.6795978187 0.0252064396 1.0248281626
C 3.8534775353 0.7392985642 2.1828196003
C 2.7197134217 1.3381000108 2.8421758337
O 2.8339817520 1.9966119350 3.9126275227
C 5.2282419017 0.8641043734 2.7283755218
O 6.2099364198 0.3718793006 2.1952760377
O 5.3233743219 1.5628811352 3.8616373745
C 2.4006336508 -0.9258395646 -0.7593722430
C 1.8769004170 -2.2158838141 -0.7246543555
C 1.7928291190 -3.0026982694 -1.8584493109
C 2.2653663951 -2.4516359643 -3.0398739204
C 2.7999240945 -1.1759139477 -3.1255210398
C 2.8584444603 -0.4105884104 -1.9671328219
F 2.2004335095 -3.2030273718 -4.1573040845
F 1.4352181995 -2.7055490941 0.4463859774
F -2.0490554200 1.9768566061 2.7450192804
H -3.4566809682 -2.6263003278 -1.8881659834
H -5.0967985679 -2.0307497145 -2.2214517614
H -3.6999627326 -1.2936202087 -3.0325135872
H -4.3081027609 -1.1769557927 -0.0256219646
H -1.9110079199 -1.2743165624 -0.4207104803
H -2.0145936329 -0.0078253645 -1.6733405173
H -2.7118143777 2.3144517848 -0.8812449346
H -3.0325594875 2.5646945461 0.8477616388
H -5.0020745915 1.0904186625 0.7474504854
H -5.1383294191 2.3722227823 -0.4684401282
H -4.4670175319 0.8448210817 -2.1234443389
H 0.3212209686 2.2315549005 3.6930487623
H 0.0370474951 -0.2619170812 -0.5811774447
H 4.5225193823 -0.4403331650 0.5253100003
H 4.3809099039 1.8656174724 4.1017916152
H 1.3845379709 -4.0056383927 -1.8186938177
H 3.1548325423 -0.7936730524 -4.0751644444
H 3.2604270652 0.5968214740 -1.9914508386
