37
CONF612
C -2.4733384705 -0.7901023855 -3.1628532463
C -1.0154513060 -0.6390044133 -2.7940295129
O -0.6985319587 -1.4615622306 -1.6221585473
P -0.7625652973 -0.7892638125 -0.1822626639
O -1.9457041545 0.0403228721 0.1428350024
O -0.4472151257 -2.0375905657 0.7386173560
C -1.1769396895 -2.2276792338 2.0015716138
C -2.4296021268 -3.0370188500 1.7634726317
O 0.6233547850 0.0804831721 -0.2064982323
P 1.2832999064 0.8590592200 1.0724368690
O 0.6608899755 0.5031509978 2.3631267939
O 2.8199580777 0.5008450130 0.9727716985
C 3.5518833281 0.5866540137 -0.2963979659
C 3.8119943930 -0.8045090469 -0.8246166414
O 1.2437337234 2.3841575230 0.6125763009
C -0.0562236505 3.0714688942 0.5641946352
C -0.3392026202 3.7594817455 1.8793150079
H -2.6778804087 -0.2180216748 -4.0736354911
H -3.1148664311 -0.4141823764 -2.3619661520
H -2.7145404254 -1.8398005894 -3.3510386078
H -0.3552386803 -1.0128311649 -3.5803983914
H -0.7554165048 0.4062063634 -2.5904621311
H -1.3905347654 -1.2490853692 2.4374063953
H -0.4638435278 -2.7501239707 2.6424184535
H -3.1251369628 -2.4935619550 1.1175796769
H -2.1908372447 -3.9996267832 1.3028304824
H -2.9250792574 -3.2235143090 2.7218648420
H 4.4797042172 1.1109904956 -0.0542324582
H 2.9841166568 1.1950377852 -1.0074335872
H 2.8732908677 -1.3156798122 -1.0541315803
H 4.4065131141 -0.7377926825 -1.7415292153
H 4.3682686388 -1.3966102178 -0.0931894610
H 0.0451772744 3.7861972425 -0.2561268260
H -0.8392298706 2.3482955494 0.3081749660
H -1.2828718551 4.3089573925 1.8006179801
H -0.4283938737 3.0280339296 2.6861438057
H 0.4564600482 4.4682189268 2.1250065965
