37
CONF12
C 3.9947982108 0.3730974243 -1.4683092588
C 3.8819395323 -0.1773484399 -0.0460834220
C 2.4705120405 -0.0780868299 0.5420713823
C 1.4648351621 -0.9657148293 -0.1856504003
C 0.0175637802 -0.8691336062 0.3750806582
C -0.8786898244 -1.8278078127 -0.4744882400
N -2.2871668776 -1.7080413972 -0.1588382919
C -3.2256534576 -0.9751744807 -0.7937477890
N -4.3747142793 -1.0306369634 -0.1327076026
C -4.0685954070 -1.8215955337 0.9346680145
N -2.8142782336 -2.2543343287 0.9652604098
C 0.0548499694 -1.3550557436 1.7560361736
N 0.1434611822 -1.7633349218 2.8335990979
C -0.5562171607 0.5465393150 0.3130007748
C -0.4444197094 1.2782952649 -0.8722505035
C -1.0211002775 2.5367300231 -0.9917229775
C -1.7209212998 3.0601810197 0.0890291309
Cl -2.4564151719 4.6514128302 -0.0555143123
C -1.8532647921 2.3559302669 1.2768176920
C -1.2675282608 1.0969005347 1.3782923379
H 3.6346573444 1.4073881906 -1.5124826842
H 3.4109960133 -0.2156835755 -2.1828757969
H 5.0348699678 0.3638498049 -1.8086994757
H 4.2107077645 -1.2246156721 -0.0248062681
H 4.5657226155 0.3761857345 0.6080509724
H 2.1348837113 0.9662955166 0.5018070744
H 2.5008149166 -0.3616543905 1.6013720256
H 1.7788388254 -2.0148741866 -0.1299423273
H 1.4138301170 -0.7063566399 -1.2465376284
H -0.7519653031 -1.5577381035 -1.5257639906
H -0.5624668698 -2.8641291541 -0.3301532292
H -3.0277879499 -0.4425509434 -1.7151143589
H -4.7825462715 -2.0932537630 1.7020834785
H 0.0905422137 0.8752570543 -1.7259124940
H -0.9276353490 3.0979510258 -1.9143788299
H -2.4037169875 2.7744174694 2.1115315880
H -1.3787406782 0.5466905394 2.3072783559
