20
CONF15
C -2.4932297189 1.3237484956 -0.5030443441
O -2.0001205408 0.3638123612 0.4677787982
P -0.9408936613 -0.7236766738 -0.0163387744
O -1.2432819008 -1.5400336729 -1.2022741059
O -0.6640253752 -1.5360750802 1.3120461621
C -0.2589493438 -0.8666918456 2.5334022425
O 0.4095053595 0.2128930790 -0.2098776574
C 1.2112293852 0.0562926763 -1.3257960053
C 2.6880991689 -0.0372899130 -0.8911720315
Cl 3.1862061429 1.3602255032 0.0883058906
Cl 3.7409105093 -0.2239769042 -2.3125183582
Br 2.8214829189 -1.6919004305 0.2056747952
Br 0.9367392850 1.6085833501 -2.5510763132
H -1.6856908546 1.9966308709 -0.8067224852
H -2.8999507052 0.8031844711 -1.3743751051
H -3.2793132392 1.8829836050 0.0039449957
H -1.0607421272 -0.2134859910 2.8867246452
H -0.0728525439 -1.6611770405 3.2559421464
H 0.6572311098 -0.2940154183 2.3640353884
H 0.9476463485 -0.8200318555 -1.9246598841
