92
CONF998
C -3.9663825336 0.1883506364 -4.4937500695
C -3.8814547086 1.1309462411 -3.2953641700
C -3.1301969944 0.5113294434 -2.1261105660
C -3.1497798327 1.3266347664 -0.8236715961
C -2.3895808179 2.6252626418 -0.9431717477
C -2.7845023399 3.9055429870 -0.3169697324
O -2.9647467715 3.6869986000 -1.7432931770
C -1.7155553104 4.9215040303 -0.0715802041
C -0.7320253058 4.8649198290 0.8348730889
C -0.5728186086 3.7681766375 1.8176316346
O -1.5391051142 3.2454573816 2.3597000107
C 0.8382426365 3.2470172464 2.0415514380
C 1.0147608111 2.2231701565 0.8934943169
C 2.3054049629 1.4063837569 0.8976252550
C 2.1440573250 0.1409776542 0.0153841598
C 1.5060822071 0.3513119330 -1.3687692946
C 1.2907805522 -0.9958659808 -2.0909468206
C 0.1891482327 -0.8998745820 -3.1682227004
C -1.1802763150 -0.8820694407 -2.5324910956
O -1.6999911779 -1.8613734278 -2.0325810270
O -1.7397271288 0.3424752189 -2.5743111846
O 2.5039669893 -1.5211431014 -2.6381951103
C 2.2989249317 1.3265009829 -2.2449095544
O 1.2517593140 -0.7715677802 0.6894873297
C 1.7461869993 -1.4464908390 1.8360507982
C 0.5757594703 -2.3072405822 2.3104040989
C 0.3387145802 -3.5077093616 1.3768429390
C 1.6688265880 -4.2315436256 1.1478260590
C 2.7442326536 -3.2720118953 0.6537067981
O 2.9212909509 -2.1774197702 1.5865170556
C 4.0985207585 -3.9347895986 0.5123548302
N -0.6778238892 -4.3807630692 2.0027340777
C -0.7747072518 -5.6955220207 1.3579223718
C -2.0009581455 -3.7409848366 1.9763476801
O 0.8682762191 -2.7540488210 3.6323902454
C 3.5542741024 2.2509294001 0.5922138353
C 4.8118941483 1.4397375654 0.6618307527
O 5.7172582286 1.4916510581 -0.1470860488
C 1.0043816290 2.6223063475 3.4229107405
C -4.0582463561 4.0964447913 0.4653752948
C -2.5912488362 0.5099352119 0.3468281102
H -4.5328163321 0.6469360917 -5.3093489815
H -2.9697300182 -0.0554617595 -4.8757285632
H -4.4630744659 -0.7491478629 -4.2206109176
H -4.8881821475 1.3829681145 -2.9418054818
H -3.4006761117 2.0720658520 -3.5792782097
H -3.5321144941 -0.4844616446 -1.9119624146
H -4.2065083129 1.5437489950 -0.6326025883
H -1.3186910372 2.4944971775 -1.1166349465
H -1.7411904939 5.7640587239 -0.7621770629
H 0.0403011725 5.6312297509 0.8287513303
H 1.5455937428 4.0742450003 1.9030671154
H 0.1798955514 1.5160711440 0.9658187435
H 0.9121934156 2.7491587200 -0.0632524241
H 2.4574129955 1.0200636883 1.9118924516
H 3.1250814926 -0.3440081239 -0.1128243627
H 0.5053426594 0.7672792136 -1.1984140633
H 0.9676231962 -1.7435541250 -1.3634796257
H 0.2422595129 -1.8058176827 -3.7788098020
H 0.3315165212 -0.0254947873 -3.8083612440
H 2.8314152103 -0.9064376468 -3.3080938497
H 1.9666684224 1.2752516935 -3.2868419906
H 2.1565023653 2.3599966253 -1.9252612392
H 3.3717515719 1.1079327511 -2.2199059370
H 2.0225558991 -0.7449152054 2.6356866032
H -0.3039598707 -1.6475389686 2.3178801910
H -0.0256377233 -3.1205135313 0.4054107405
H 1.5556386687 -5.0140800044 0.3915820195
H 2.0066900565 -4.7053964953 2.0783740079
H 2.4418017576 -2.8542272878 -0.3161987154
H 4.0415228585 -4.7462522518 -0.2188053550
H 4.4236105238 -4.3498058817 1.4718984698
H 4.8437756578 -3.2110442235 0.1698386446
H 0.1442886136 -6.2691060726 1.4948565181
H -0.9869896442 -5.6201773869 0.2752917083
H -1.5898376243 -6.2550318454 1.8259774756
H -2.3364588501 -3.5228073994 0.9452427322
H -2.7314685195 -4.4078216986 2.4434301473
H -1.9975017276 -2.8052710516 2.5409917546
H 0.3631838658 -3.5811309841 3.7267017669
H 3.6457441702 3.0052346755 1.3901512534
H 3.5065102876 2.7846703989 -0.3584059866
H 4.8837727479 0.7601806812 1.5414771909
H 2.0503962929 2.3636572798 3.6084053542
H 0.4017118797 1.7131314311 3.5116462867
H 0.6859061149 3.3197341840 4.2031625831
H -4.4225438351 5.1195085916 0.3237737239
H -4.8336660768 3.4059709968 0.1281566730
H -3.8651890780 3.9408130154 1.5290522277
H -1.5509006796 0.2213910480 0.1634740924
H -3.1744782429 -0.4053418754 0.4838788738
H -2.6226708235 1.0915048877 1.2723542653
