35
CONF477
C -1.4814758725 1.0273930224 2.6297782717
C -0.9489397651 2.4079730057 2.9774969954
C -1.1037497879 3.4562613584 1.9033807964
Br -2.9564477201 3.6855230379 1.2737863093
Br -1.8249266703 2.9421698396 4.6692429191
O -0.9202979957 0.5944332342 1.3627875669
P 0.5814238434 0.0510630773 1.3074714175
O 1.1660565756 -0.4932206121 2.5497885910
O 1.3059467632 1.3412852917 0.6748519484
C 2.7300310148 1.3227969702 0.4527547219
C 3.0296106233 1.7467141913 -0.9683902667
C 2.4378659209 0.8669229123 -2.0444868586
Br 3.3865117029 -0.8780409963 -2.0549727065
Br 2.3022472330 3.5799219582 -1.2759806437
O 0.5564891389 -0.9330374362 0.0406853150
C 0.6016280148 -2.3659196502 0.1819987912
C -0.7718125863 -2.9828138020 0.0155545519
C -1.6211190216 -2.3814258144 -1.0772070978
Br -0.7323381146 -2.6343979492 -2.8335267160
Br -1.8409307558 -2.7824476886 1.6944244457
H -2.5608785963 1.0559863148 2.4729332044
H -1.2298412532 0.3090680142 3.4144411741
H 0.1156514400 2.3477842015 3.2310103449
H -0.7812105068 4.4349320236 2.2550775562
H -0.5259035335 3.1613639593 1.0251145095
H 3.1409231253 0.3175091332 0.6144688400
H 3.1941819266 2.0103830454 1.1647069383
H 4.1086323403 1.8555091259 -1.0944106691
H 1.3862593881 0.6435708058 -1.8694801052
H 2.5912848485 1.2821941212 -3.0377355212
H 1.2404135526 -2.7152754551 -0.6357724816
H 1.0464116336 -2.6432998110 1.1420206725
H -1.7442024712 -1.3073881215 -0.9488905884
H -2.5856457323 -2.8776512273 -1.1578638595
H -0.6636303386 -4.0626789522 -0.1058234430
