17
CONF11
C 2.9618366398 1.4891908617 0.5989228809
C 2.0709099053 1.1345019029 -0.3259792786
C 0.8702936080 0.2952720804 -0.0432383537
S -0.6465883205 1.3398956068 -0.2463254248
C -1.9283414856 0.0103095919 -0.3931809109
C -2.0513245082 -0.7765503406 0.8659244689
C -1.7228038216 -2.0638891959 0.9723248212
H 2.8552306950 1.1748746808 1.6346482147
H 3.8247708986 2.0978091945 0.3465180524
H 2.1929197162 1.4671747178 -1.3561042330
H 0.7869905500 -0.5256570921 -0.7651689001
H 0.9009031580 -0.1169426829 0.9691433199
H -2.8534631880 0.5522700407 -0.6184599562
H -1.6747048417 -0.6279073767 -1.2457911675
H -2.4169790304 -0.2320790462 1.7358574675
H -1.8219320002 -2.5964253005 1.9133347941
H -1.3477172655 -2.6218476480 0.1172480007
