45
CONF1065
N 5.1956242586 -1.1988828720 0.4841441082
C 4.9306646060 -0.4162526288 -0.7164490427
C 4.5817280092 1.0427888480 -0.3577066441
C 3.3876702344 1.1820215901 0.5884045672
C 2.0877738140 0.6076185940 0.0282192326
C 0.9000136218 0.9100632274 0.9330167697
N -0.3370582318 0.3362494825 0.3859265295
C -1.5037846963 0.5641383927 1.2404661731
C -2.7713627078 0.2786637844 0.4468262190
O -2.7015590479 0.9111845690 -0.8165520554
O -2.9221581182 -1.1389562919 0.3174477093
C -4.3311095746 -1.4639386833 0.1503674953
C -4.5545915871 -2.0753104230 -1.2181222432
O -3.8106524792 -3.2830541808 -1.3936805247
C -5.1070287295 -0.1555634159 0.3736873746
O -6.3480690768 -0.3199580024 1.0441805771
C -4.0813779215 0.7222380966 1.1044729372
O -4.3240846980 2.1127957675 1.0489818751
C 6.1033979998 -0.3871429966 -1.6888170980
O 5.7111639054 -0.0396528260 -2.9347845106
O 7.2587955416 -0.6209129498 -1.4015116873
H 5.4756568934 -2.1387132519 0.2211563891
H 5.9949016882 -0.7995050109 0.9692843187
H 4.0828978203 -0.8618266801 -1.2522571206
H 4.3802164484 1.5889930598 -1.2859084008
H 5.4670442206 1.5027497259 0.1017684658
H 3.2487860862 2.2516374859 0.7931760006
H 3.6176654886 0.7050158464 1.5473306727
H 1.8954627223 1.0200216455 -0.9712572332
H 2.1782805042 -0.4809420349 -0.0854297390
H 1.1110499218 0.5369098694 1.9518718980
H 0.7614736557 1.9965329164 1.0131166582
H -0.2072719779 -0.6656551454 0.2717883987
H -1.5239349347 1.6236466260 1.5245235424
H -1.5104696395 -0.0363042260 2.1637364731
H -1.7462841542 0.9337851629 -1.0259758805
H -4.5917624154 -2.1931235612 0.9300366626
H -5.6134404991 -2.3365709121 -1.3250268472
H -4.2953050043 -1.3364373477 -1.9909997568
H -2.8774440111 -3.0516219706 -1.2974605089
H -5.3530608961 0.3145444501 -0.5865877364
H -6.1716942763 -0.7147515747 1.9090383406
H -4.0575956633 0.4409776068 2.1657729907
H -4.1293672993 2.3915423934 0.1417079411
H 6.5001995167 0.0008330407 -3.5019232854
