49
CONF19
C -5.5014406414 0.1347618402 0.0407149454
C -4.3819198743 0.6651226267 0.9093062988
C -3.2515120901 1.4477333297 0.3084970565
C -3.0270553543 -0.0100217375 0.6947566184
C -2.0482962947 -0.2643790613 1.7629486435
O -1.7269486318 0.4862504686 2.6577054748
O -1.4854016206 -1.5009824514 1.5868908310
C -0.3104876636 -1.7523598403 2.4061135966
C -0.1915068380 -3.2062828433 2.4909065383
N -0.0626191868 -4.3511235370 2.5664128803
C 0.9079961119 -1.1168084601 1.7725423903
C 1.2864937658 -1.5064746243 0.4891413396
C 2.3562907304 -0.8651625871 -0.1293905050
C 3.0532699630 0.1517719204 0.5265869357
C 2.6686848815 0.5153473134 1.8121204621
C 1.5971717994 -0.1106784062 2.4442074819
O 2.6256351476 -1.2553817725 -1.4196756204
C 3.8709274339 -0.9599717089 -1.9668104222
C 5.0315947276 -1.4796318953 -1.4021615042
C 6.2514824709 -1.2243445311 -2.0210834211
C 6.3044699149 -0.4683073289 -3.1916860125
C 5.1302213777 0.0363477448 -3.7450944082
C 3.9026099095 -0.2045511720 -3.1313298044
C -3.1613465745 1.8305619038 -1.1341554148
C -1.7816799392 2.3540821835 -1.5642191680
Br -1.2504712549 3.9767419639 -0.5916998278
Br -1.7380528436 2.7098032561 -3.4996270817
Br -0.4399924628 0.9448185796 -1.1805392231
Br -4.5532268121 3.2200088869 -1.5130716905
C -4.8223725993 1.0551443586 2.3012273428
H -5.1662311781 -0.1394828286 -0.9625076450
H -6.2911962259 0.8864529192 -0.0521279613
H -5.9322364252 -0.7563448722 0.5085379395
H -2.7934678223 2.1594860158 0.9908002597
H -3.0040918133 -0.7296292444 -0.1162715607
H -0.4675381137 -1.3557797094 3.4152572174
H 0.7555002804 -2.2904839264 -0.0426583919
H 3.8780747884 0.6558698570 0.0360713237
H 3.2054977763 1.3093086722 2.3208813725
H 1.2900956454 0.1894343054 3.4401865867
H 4.9747959910 -2.0729526427 -0.4950295757
H 7.1629113549 -1.6265102225 -1.5900980112
H 7.2584716668 -0.2765210966 -3.6716235371
H 5.1654212111 0.6237375107 -4.6571132654
H 2.9765830720 0.1818467073 -3.5442475280
H -3.4196476684 1.0091252247 -1.8049307980
H -5.2598547449 0.1911490186 2.8124738407
H -3.9958307093 1.4357942664 2.9028367737
H -5.5897755315 1.8331273213 2.2300286358
