26
CONF2
C 2.3875136323 -1.4967658627 -0.5890473312
C 1.4350612362 -0.3840239144 -0.2897821776
C 1.4925588071 0.8359258726 -0.8385912932
C 0.4397190546 1.8615499864 -0.4972923979
C -0.5434908614 1.2964523607 0.5360465638
C 0.2699398719 0.5931561663 1.6558003417
C 0.3164275931 -0.6353910658 0.6992604713
C -1.0517548408 -0.1234630806 0.1068449265
C -1.3661012871 -0.3794769542 -1.3598529608
C -2.2452664327 -0.5831539445 0.9455278049
H 3.1532965042 -1.1909117147 -1.3076101019
H 1.8496086965 -2.3625944498 -0.9978593713
H 2.8831015849 -1.8451241595 0.3265757375
H 2.2710277302 1.0977164467 -1.5532810948
H -0.0960814129 2.1696561886 -1.4077231758
H 0.9083232227 2.7746889825 -0.1022144839
H -1.3010949247 2.0348875361 0.8232661419
H 1.2352671683 1.0346911855 1.9200734109
H -0.3156465770 0.4156494818 2.5582216541
H 0.3442444152 -1.6440058718 1.1252670688
H -0.5419548186 -0.1041641457 -2.0206446580
H -2.2536086697 0.1918183605 -1.6579486392
H -1.5885110313 -1.4418816270 -1.5170928823
H -2.1024369193 -0.4327885280 2.0179456520
H -3.1453914957 -0.0326993201 0.6469050472
H -2.4347505633 -1.6497484316 0.7772055357
