41
CONF525
C -1.8169248297 4.8754081905 -0.6606578250
C -1.9234412172 3.8383626791 0.4529877212
C -1.4584971225 4.4241685921 1.7841680228
N -1.1042656238 2.6710685377 0.0839466831
C -1.3229037710 1.5057111947 0.9413614186
C -0.6969750981 0.2706852710 0.3179302852
O -1.3552822571 0.0373659731 -0.9323203513
C -0.8598442829 -0.9397432497 1.2267154276
O -0.3076959908 -2.1109911916 0.6048468007
C 1.0529031387 -2.2638463316 0.5464825119
C 1.9603399473 -1.5801802941 1.3559991264
C 3.3237848845 -1.8472413943 1.2410320651
C 3.7861183270 -2.7852278755 0.3265553120
C 2.8700549498 -3.4548277258 -0.4830394843
C 1.5034982365 -3.2078916553 -0.3943751213
C 0.5204931495 -3.8792213396 -1.3115627771
C 0.0561402122 -3.0197225402 -2.4592742506
C 0.5547448376 -1.8326273182 -2.8033543569
H -2.1460970491 4.4602905902 -1.6197208522
H -2.4410408098 5.7457311299 -0.4371689279
H -0.7794986521 5.2099498288 -0.7686953337
H -2.9879540179 3.5476901136 0.5592568681
H -2.0395941931 5.3199031761 2.0249362135
H -0.4001136486 4.7014326678 1.7235673112
H -1.5838611820 3.7185252312 2.6107257571
H -1.3640953872 2.3942555105 -0.8591759148
H -0.8546422579 1.6721986603 1.9195130129
H -2.3984663361 1.3043135183 1.1185077650
H 0.3749256750 0.4603894150 0.1455604830
H -0.9295042171 -0.7268007626 -1.3532023551
H -1.9222581180 -1.1692708153 1.3481000396
H -0.4231649443 -0.7673239297 2.2176922177
H 1.6250025597 -0.8423551644 2.0744823250
H 4.0221466601 -1.3104973062 1.8755379140
H 4.8473124583 -2.9919097835 0.2381942738
H 3.2203752741 -4.1808729497 -1.2120484347
H 0.9724930208 -4.7890889247 -1.7289289647
H -0.3615314559 -4.2125210638 -0.7516447837
H -0.7503358775 -3.4477118434 -3.0547219943
H 1.3667925305 -1.3732255362 -2.2441401341
H 0.1708629704 -1.2937108926 -3.6640677043
