47
CONF208
C -7.2928183396 -3.2193028239 1.2443419143
O -6.2939858727 -2.4650692109 1.9644453073
P -5.1450082858 -1.7229337433 1.1364403740
S -4.2313530229 -2.6929473016 -0.2638682964
O -5.8854163090 -0.3653908460 0.6701068876
C -5.4772693144 0.3511834008 -0.5171250790
O -4.2772807335 -1.2843110302 2.4357552671
C -3.2448775658 -0.3579859181 2.2640667199
C -3.5117964992 0.9919006042 2.4514538810
C -2.4818766157 1.9136035089 2.3087088055
C -1.1880967876 1.4815387823 2.0007480935
C -0.9344712704 0.1181141553 1.8338188443
C -1.9665915500 -0.8036957014 1.9551263997
S 0.0885669201 2.7284123565 1.9119893704
C 1.3136581862 1.9605194922 0.8633167611
C 2.6099947477 1.7859482214 1.3457139225
C 3.6004686690 1.2484947521 0.5291069830
C 3.2752355660 0.8747284518 -0.7693940699
C 1.9838913585 1.0385053842 -1.2626224807
C 1.0066458170 1.5903186883 -0.4491416669
O 4.1895436944 0.2757986259 -1.6217141852
P 5.7712058260 0.7175053819 -1.7168743526
S 6.1305341822 2.6008931318 -1.7344366224
O 6.1783346161 -0.1751611946 -2.9881208023
C 5.7771489604 0.2524597412 -4.3093116233
O 6.4942934519 -0.0782917195 -0.5308613264
C 6.2726003004 -1.5016770765 -0.3613973012
H -6.8179956764 -3.9813995664 0.6192964983
H -7.9020078689 -2.5515289927 0.6265593204
H -7.9144158822 -3.6883711696 2.0073793861
H -4.4942758297 0.8077050009 -0.3677547792
H -5.4449349769 -0.3226659380 -1.3771224887
H -6.2310974887 1.1260348937 -0.6650711732
H -4.5203160753 1.3094919273 2.6921135348
H -2.6842434400 2.9724651802 2.4354128498
H 0.0683831260 -0.2257844010 1.6065426522
H -1.7905132629 -1.8640184847 1.8160827564
H 2.8460835442 2.0666945490 2.3663372062
H 4.6095159047 1.1176732659 0.9034314822
H 1.7646788611 0.7445547189 -2.2829896573
H 0.0008720237 1.7347287470 -0.8289964424
H 4.6878399971 0.2083244767 -4.4061010990
H 6.1321709508 1.2694541887 -4.5002359304
H 6.2423810915 -0.4474190233 -5.0039466709
H 5.2035132416 -1.7142817860 -0.2644425222
H 6.6908586260 -2.0521597319 -1.2077129080
H 6.7922219096 -1.7726557664 0.5579922563
