47
CONF46
C -4.3309767674 -1.9897560210 0.0531204561
C -3.4223314274 -0.7879155762 0.2026173502
C -1.9827487311 -0.9850865359 0.6087056639
C -2.3311747080 -0.6683762566 -0.8597216648
C -1.8580709967 0.5685914546 -1.4969625411
O -1.5943332459 0.6732352871 -2.6771136502
O -1.7079083423 1.6048500406 -0.6181910654
C -1.0652349312 2.7779935084 -1.1712609969
C -1.4017534433 3.8715928635 -0.2590078934
N -1.6391636998 4.7581086572 0.4414793687
C 0.4307363514 2.5732404849 -1.2693366746
C 1.1136641220 2.0282103532 -0.1823372757
C 2.4726637061 1.7791458577 -0.2824083382
C 3.1375644238 2.0963148671 -1.4663651778
C 2.4765404456 2.6553820437 -2.5447644994
C 1.1079532893 2.8877837114 -2.4441262212
F 4.4557517860 1.8350930839 -1.5515013389
O 3.1774545385 1.2691042177 0.7844733000
C 3.2992474604 -0.1112290557 0.8748560746
C 4.0715953599 -0.5773127068 1.9361799365
C 4.2274798151 -1.9473722761 2.1092206289
C 3.6202227827 -2.8467853954 1.2330293548
C 2.8540608807 -2.3617456347 0.1779198752
C 2.6869663224 -0.9910549394 -0.0132075329
C -1.4169877547 -2.2974475369 0.9241009420
C -0.4894451437 -2.5310928881 1.8544504240
Cl 0.2223768217 -1.3000617193 2.8581200100
Cl 0.1084989187 -4.1366337507 2.1826511404
C -4.1411124603 0.4336752614 0.7309323471
H -4.6964392135 -2.3029199343 1.0371337799
H -3.8363832793 -2.8404873075 -0.4194740525
H -5.1964569268 -1.7199350498 -0.5606095763
H -1.5530920192 -0.1452723034 1.1445360089
H -2.2822028277 -1.5047958405 -1.5490954518
H -1.4820447951 3.0076224808 -2.1585716278
H 0.5994200450 1.7687597583 0.7383400761
H 3.0267166944 2.8857938499 -3.4503632975
H 0.5691982146 3.3028847166 -3.2895647163
H 4.5353295888 0.1347044700 2.6107824748
H 4.8275683957 -2.3128432529 2.9367238694
H 3.7407250060 -3.9153459116 1.3753309323
H 2.3722266769 -3.0514205913 -0.5082398327
H 2.0818646130 -0.6233851780 -0.8346228353
H -1.7701310247 -3.1613919123 0.3695339381
H -4.8960880957 0.7697451045 0.0116866905
H -3.4659310728 1.2626788940 0.9410472477
H -4.6558150293 0.1651567088 1.6595044571
