45
CONF579
C 7.5507448180 1.2451848155 4.8455820809
C 7.0489373617 1.1476186396 3.6166975292
C 6.9017112750 -0.1729088078 2.9692648552
O 7.1921137413 -1.2450343676 3.4498707039
O 6.3819470929 -0.0286753415 1.7192929237
C 6.1817474159 -1.2652345272 1.0058256345
C 5.6398925701 -0.9347455476 -0.3727422307
C 4.2264465467 -0.3773023268 -0.3569921537
C 3.5935181815 -0.3504855070 -1.7774916182
C 2.2326660325 0.4090338094 -1.9880812523
C 1.0343166292 -0.0125305678 -1.0754353853
C -0.3576383164 0.4781471743 -1.6194942697
C -1.4726416523 0.4892541938 -0.5129221728
C -2.9259088752 0.5257328402 -1.1083294388
C -4.0022617996 0.9958915905 -0.0673267178
C -5.4651128312 0.6140380538 -0.4794211822
C -6.5676525946 1.4208140075 0.2826047582
F -7.7575856415 0.8525744493 0.0469443774
F -6.6101671417 2.6893414108 -0.1370634554
F -6.3316940151 1.4006378155 1.6020953372
F -5.6356580504 0.8391531886 -1.8027861012
F -5.6643952358 -0.6954919417 -0.2219777231
F -3.7376350351 0.4237323530 1.1289336124
F -3.9252707536 2.3399252029 0.0589052802
F -2.9485888271 1.3749627489 -2.1594858318
F -3.2500617327 -0.7163746942 -1.5319890544
F -1.3502184128 -0.6235594223 0.2441227845
F -1.2965966711 1.5806514536 0.2652064370
F -0.2281523912 1.7312444332 -2.1072431919
F -0.7472527252 -0.3481778826 -2.6161293875
F 1.2272511436 0.5172044720 0.1542154966
F 0.9974283476 -1.3596576732 -0.9856210878
F 2.4578347462 1.7293827718 -1.8281180659
F 1.8752560699 0.1813264712 -3.2791680717
F 3.4428979696 -1.6289453795 -2.2034506195
F 4.4776107233 0.2663527933 -2.6106192094
F 4.1954687370 0.8920585216 0.1383634341
F 3.4218415624 -1.1495869806 0.4367783586
H 7.8573677346 0.3528432660 5.3830569853
H 7.6630414496 2.2062253958 5.3350091833
H 6.7288412538 2.0143340042 3.0473629501
H 5.5008943883 -1.9082506038 1.5715255222
H 7.1390601012 -1.7885676266 0.9119563081
H 5.6297986717 -1.8558685784 -0.9648538943
H 6.2883177485 -0.2154815594 -0.8798435610
