39
CONF23
C -3.1292595264 2.9986385242 1.9239413047
C -2.3648499681 1.7212046080 2.1264952981
O -2.6904551550 0.8894436163 2.9579619265
C -1.1435397228 1.5343218251 1.2481667935
C -0.6128183140 0.0983410480 1.2052026297
C -1.5332367411 -0.9033624867 0.5202819078
C -1.1815263708 -2.2599151468 0.5608397414
C -1.9789595768 -3.2225239449 -0.0439455280
C -3.1501304381 -2.8484940148 -0.7045377021
C -3.5120145765 -1.5075805607 -0.7503160800
C -2.7101904090 -0.5400226185 -0.1412677024
C 0.7947884933 0.0856431620 0.6398963714
C 1.1001457958 -0.0009468969 -0.6967562171
C 2.4667753709 0.0356072762 -1.1524367802
C 2.8393171805 -0.0618388968 -2.5034597922
C 4.1758211518 -0.0192915756 -2.8604310291
C 5.1623937436 0.1206019674 -1.8770816038
C 4.8168803350 0.2187554845 -0.5373559586
C 3.4707718765 0.1755605230 -0.1876617556
O 3.1672770685 0.2786178115 1.1384248737
C 1.8555186989 0.2577557118 1.5988774878
O 1.7135663803 0.3958637365 2.8033843390
O 0.1906198097 -0.1176304901 -1.6753940465
H -3.8467987379 3.1548172714 2.7303913725
H -3.6631365929 2.9324291500 0.9674683809
H -2.4444116259 3.8490140862 1.8436349801
H -1.3339601520 1.9383589557 0.2465510540
H -0.3707236316 2.1861343074 1.6808016316
H -0.5206876297 -0.2333106427 2.2448508564
H -0.2691926672 -2.5547048933 1.0730236463
H -1.6893287452 -4.2678707321 0.0004339419
H -3.7736402829 -3.5998616375 -1.1784778723
H -4.4214371011 -1.2039523071 -1.2592385605
H -3.0165715636 0.4998875323 -0.1948054706
H 2.0689340777 -0.1708743436 -3.2576406001
H 4.4591411038 -0.0952214145 -3.9045886794
H 6.2092057853 0.1532892798 -2.1608841137
H 5.5661012109 0.3282114416 0.2390236762
H -0.7003878815 -0.2450947111 -1.2991122215
