52
CONF126
C -2.3202940359 4.5898043000 0.1577935453
C -1.7132406274 3.5131547981 1.0596463742
C -1.1610247651 4.1311502094 2.3445814055
C -0.5848637610 2.7700745370 0.3132303482
C 0.0670364932 1.6462750047 1.1057385875
C -0.6965342924 0.6332687344 1.6931329687
C -0.0916013117 -0.4052833271 2.3913322402
C 1.2936751475 -0.4253006870 2.4956875513
C 2.0821939243 0.5607861386 1.9173506555
C 1.4575120253 1.5912314175 1.2203041624
Cl 2.0653823010 -1.7362421901 3.3819912205
C -1.0133938343 2.1435541376 -0.9993301929
O -0.3676189015 2.1542128913 -2.0217161149
O -2.1942038284 1.4773489851 -0.8633666746
C -2.4899568396 0.5099176992 -1.9176906619
C -3.9451699982 0.4414868390 -2.0020607687
N -5.0942968658 0.3742623820 -2.0893011893
C -1.8514670152 -0.8092473075 -1.5526911203
C -0.6195927871 -1.1296049603 -2.1180062396
C 0.0458448958 -2.2742870367 -1.6899077716
C -0.5057958282 -3.1016583956 -0.7131908506
C -1.7405494277 -2.7699225185 -0.1642926603
C -2.4183601507 -1.6272261258 -0.5745447173
O 1.2257863961 -2.5735222920 -2.3349978113
C 2.2450204546 -3.1903061984 -1.6219628772
C 2.6293277894 -2.7337280839 -0.3635970033
C 3.7108542455 -3.3388767534 0.2695352354
C 4.4017764148 -4.3803456311 -0.3481532472
C 4.0061607796 -4.8184994966 -1.6099062012
C 2.9219810254 -4.2270067241 -2.2536408183
H -2.7498483146 4.1648604020 -0.7556232479
H -1.5560834254 5.3208659636 -0.1310329247
H -3.1163763561 5.1240232730 0.6850330613
H -2.4945559220 2.7904583079 1.3218579997
H -0.7556849939 3.3692420264 3.0170794443
H -1.9517460491 4.6700915451 2.8751379573
H -0.3605866647 4.8436398012 2.1124458362
H 0.1914188389 3.4959122476 0.0490169441
H -1.7772875350 0.6425813896 1.6073490557
H -0.6902296398 -1.1875866673 2.8439880539
H 3.1622100263 0.5279556891 2.0065515803
H 2.0666320866 2.3656442887 0.7635828277
H -2.1040040487 0.8850218785 -2.8722779001
H -0.1677846431 -0.4989913653 -2.8757470070
H 0.0196647173 -3.9953436780 -0.3944487504
H -2.1772599703 -3.4148383444 0.5912157928
H -3.3749165269 -1.3692854537 -0.1308687638
H 2.0921312491 -1.9166300415 0.1079648252
H 4.0170545409 -2.9855172759 1.2489061564
H 5.2451304789 -4.8454424505 0.1513745689
H 4.5388604863 -5.6286169625 -2.0979178772
H 2.5986742543 -4.5562524242 -3.2355553986
