41
CONF118
C 2.2629330945 -2.1797236798 -0.4885485903
C 2.8805121946 -0.9111054313 0.0490761718
O 2.0922939646 -0.5058472631 1.2031364307
C 2.4581735818 0.6710028254 1.7693703936
O 3.3994666800 1.3558386739 1.3897182208
N 1.6510042056 0.9756832655 2.8167187513
C 1.7020431723 2.2911610447 3.4394591131
C 1.1326711460 3.4112471725 2.5747387587
O -0.2603898756 3.1912196559 2.2906771965
C -0.6311478980 2.4516835442 1.1990733291
C -1.9542146472 1.9935855092 1.2179139025
C -2.4560562166 1.2533819205 0.1572534065
C -1.6319570655 0.9646328594 -0.9248690676
C -0.3238810369 1.4217133081 -0.9610078585
C 0.1819136582 2.1750890519 0.0965485128
O -2.1360426941 0.2527903142 -2.0122423787
C -2.1626784718 -1.1226420954 -1.9246921749
C -2.7331563153 -1.7892722954 -3.0108220059
C -2.7874463358 -3.1773420209 -3.0091454700
C -2.2783258957 -3.9069186791 -1.9337583790
C -1.7133480434 -3.2289546285 -0.8579756114
C -1.6504207422 -1.8359497983 -0.8416804879
H 1.2317054574 -2.0062538343 -0.8093814448
H 2.2697999208 -2.9709176621 0.2667489794
H 2.8402450603 -2.5219043177 -1.3524145534
H 2.8584587166 -0.1043643541 -0.6907727047
H 3.9168556260 -1.0645063179 0.3672850682
H 0.8160949247 0.4219363012 2.9353859497
H 2.7414917144 2.5396895701 3.6813870345
H 1.1409185428 2.2326149847 4.3764714363
H 1.1684241888 4.3471132461 3.1399349739
H 1.7151146514 3.5450581982 1.6600203245
H -2.5771631715 2.2253815475 2.0756046909
H -3.4787110834 0.8897776933 0.1694822254
H 0.3034113459 1.1898038769 -1.8159108443
H 1.2072687788 2.5188197615 0.0431905099
H -3.1246489055 -1.2104752621 -3.8410897268
H -3.2316929226 -3.6924023602 -3.8553979556
H -2.3228218423 -4.9908440815 -1.9367185869
H -1.3104954296 -3.7830967977 -0.0154486236
H -1.2062010377 -1.3167033394 -0.0001604225
