35
CONF2
C 5.3491980110 0.7684466032 2.7084453667
C 4.1741366199 0.1723418836 2.0108714116
N 3.7627381622 0.7388091411 0.8746341178
C 2.6875271798 0.1533841056 0.3166580364
N 2.0385923694 -0.9051014702 0.7974595853
C 2.5433702338 -1.3816328580 1.9447344117
N 3.5979890498 -0.8961993592 2.5935543593
O 1.8845904551 -2.4319142283 2.4178326590
C 2.3583079319 -3.0202700428 3.6565470539
N 2.2557680937 0.7395997797 -0.8541528505
C 1.1667365892 0.4526296361 -1.6810839291
O 0.9036784539 1.1788914342 -2.6253190116
N 0.4569387424 -0.6824012777 -1.3520370305
S -1.0540683968 -1.0238736735 -2.0560927532
O -0.8811381135 -1.1905198619 -3.4994962464
O -1.5734509670 -2.1337946711 -1.2510806314
C -2.0325582534 0.4592903864 -1.7868841867
C -2.5463069861 1.0933172951 -2.9170129641
C -3.3415808724 2.2226881458 -2.7755610498
C -3.6139229576 2.7230169597 -1.5060089517
C -3.0973977338 2.1009792786 -0.3744012434
C -2.3078717568 0.9650694873 -0.5125458239
Cl -1.6718440944 0.2273541854 0.9390354635
H 5.8491211043 1.5009455355 2.0754834216
H 6.0462475747 -0.0188133653 3.0072813350
H 5.0062466284 1.2608227190 3.6257631039
H 3.3821666343 -3.3801220441 3.5360916024
H 2.3098268123 -2.2880257432 4.4650725720
H 1.6777313945 -3.8491721628 3.8452148082
H -2.3135506840 0.6963029150 -3.8978337426
H -3.7405675348 2.7117331850 -3.6570870777
H -4.2303560329 3.6077565573 -1.3870988156
H -3.3025605091 2.4909882784 0.6160154844
H 0.6809062050 -1.1406526858 -0.4554852899
H 2.7821705210 1.5531332531 -1.1477239322
