47
CONF65
C -1.6530902734 -2.1719479849 2.1949028484
C -1.8640259265 -0.7177384616 1.8339212486
C -3.2815071349 -0.3094902486 1.5237996054
C -2.2569672940 -0.4707888436 0.3774327078
C -1.7729310764 0.6943072365 -0.3713311035
O -1.6882478063 1.8466865422 -0.0032488874
O -1.4002077756 0.3005804961 -1.6334210552
C -0.8792143655 1.3644276705 -2.4604186345
C -0.9638816280 0.8636127736 -3.8335343850
N -0.9984342410 0.4991186404 -4.9286890197
C 0.5520508336 1.7313757106 -2.1165966350
C 0.9465067540 3.0657483966 -2.1719541030
C 2.2722817611 3.3954272687 -1.9017896231
C 3.1914903572 2.4090783910 -1.5640952126
C 2.7752769650 1.0803366013 -1.5054074103
C 1.4592107748 0.7265404173 -1.7899526639
O 3.7422000492 0.1381900168 -1.2272726776
C 3.3690182305 -1.0134957750 -0.5441316217
C 2.6789718181 -0.9344203398 0.6628581945
C 2.3954399217 -2.1086053239 1.3533523162
C 2.7983534860 -3.3433412396 0.8452575125
C 3.4931213458 -3.4009341222 -0.3606721545
C 3.7813454957 -2.2335983882 -1.0651336339
C -3.8091664608 1.0025663323 1.8979192431
C -5.0915309339 1.2756821895 2.1391628184
Br -5.6550836421 3.0178550710 2.6706866717
Br -6.5058409526 0.0085446904 1.9964627553
C -0.9264407704 0.2268883307 2.5476263384
H -2.3632888984 -2.8225055810 1.6774692172
H -1.7813558485 -2.3062979621 3.2743650924
H -0.6373581465 -2.4839014214 1.9294188503
H -4.0075455067 -1.1164081128 1.5300956412
H -2.3894474475 -1.3608088451 -0.2274905209
H -1.5197675673 2.2505799476 -2.3774837068
H 0.2249150723 3.8377720299 -2.4192118004
H 2.5897989479 4.4323248889 -1.9386884237
H 4.2246545549 2.6531261579 -1.3409801285
H 1.1485146152 -0.3123924966 -1.7565533756
H 2.3771257727 0.0320437929 1.0542812253
H 1.8660881189 -2.0548674118 2.2995735705
H 2.5748814002 -4.2546590791 1.3900582524
H 3.8113938068 -4.3581097140 -0.7616273172
H 4.3195865037 -2.2597368978 -2.0068736094
H -3.1147704519 1.8284602218 2.0037202375
H 0.1078023825 -0.0842046533 2.3688680462
H -1.1132529448 0.1735418837 3.6254248310
H -1.0266709756 1.2634378974 2.2269471900
