65
CONF91
C 8.4902425220 -2.5601542448 -5.3329476494
O 7.6746827823 -3.5168816799 -4.6472280783
C 6.8154677602 -3.0429533708 -3.6963161544
C 6.6841209347 -1.6969279801 -3.3482854546
C 5.7725854864 -1.3333573906 -2.3560005174
C 4.9874155976 -2.2772042858 -1.6955163269
C 5.1354568644 -3.6207337858 -2.0631553298
C 6.0343958315 -4.0057467945 -3.0468379581
C 3.9705880152 -1.8629687751 -0.6646478715
C 2.5967315568 -1.6432666145 -1.3137611242
N 1.5843164783 -1.1403247924 -0.3787218540
C 0.4213189540 -0.6325883325 -1.1209618749
C -0.6089537365 -0.0291985088 -0.1731948053
C -1.0645259521 -1.0667870063 0.8550233183
C 0.1500272253 -1.6470533496 1.5694730250
C 1.1534808633 -2.1888363498 0.5564945228
N -1.9915290448 -0.4960055704 1.8418330831
C -3.2766112244 -0.2195313672 1.4761293637
N -3.9446591307 -0.8055801470 0.4944719578
C -5.2108007549 -0.2420536709 0.5466847023
C -6.3267346902 -0.4779177839 -0.2541942867
C -7.4898456622 0.2470316052 0.0072678056
C -7.5463662228 1.1882363984 1.0431932039
C -6.4395729376 1.4360913853 1.8593749038
C -5.2895422129 0.7072821928 1.5937718770
N -4.0353752227 0.6930362652 2.1898124172
C -3.5285964502 1.6113164257 3.1989671400
C -2.5071403613 2.5760682570 2.6313598478
C -1.3498465634 2.8795187658 3.3490287669
C -0.4004474999 3.7606794845 2.8360989043
C -0.6361534114 4.3213833277 1.5936136053
C -1.7709499528 4.0429943500 0.8483311036
C -2.7072944106 3.1632580525 1.3794876340
F 0.2841782866 5.1765564873 1.0797169308
H 9.0900436765 -3.1341428513 -6.0399642254
H 9.1506338668 -2.0318343083 -4.6347471731
H 7.8741408053 -1.8346141005 -5.8775962321
H 7.2783126074 -0.9301442577 -3.8302259483
H 5.6784920781 -0.2828471135 -2.0918260679
H 4.5379144694 -4.3800761035 -1.5646561618
H 6.1486533894 -5.0494030219 -3.3229643380
H 3.9072502850 -2.6329827757 0.1112446252
H 4.2813402930 -0.9298380633 -0.1817041565
H 2.2677387319 -2.5843723795 -1.7994180998
H 2.7151033511 -0.8995099072 -2.1119132815
H -0.0567867006 -1.4405014785 -1.7131087571
H 0.7663307385 0.1288501255 -1.8295459062
H -0.1669852600 0.8257439031 0.3573434530
H -1.4692840057 0.3376957352 -0.7443568367
H -1.5964578086 -1.8752587554 0.3400396317
H 0.6294524178 -0.8621344855 2.1706442186
H -0.1579385646 -2.4497134615 2.2484015406
H 2.0263143943 -2.5772618806 1.0894102668
H 0.6998532949 -3.0397409249 0.0066107687
H -1.5592080864 0.2046397442 2.4315093879
H -6.2848715357 -1.2043807688 -1.0599438264
H -8.3700879849 0.0798512579 -0.6057282059
H -6.4890123655 2.1673608441 2.6598703230
H -4.3876143016 2.1557149957 3.6035380563
H -3.0929817419 1.0455916521 4.0310855876
H -1.1784685709 2.4184400799 4.3178582144
H 0.5059680560 4.0002430492 3.3810640591
H -1.9115532960 4.5041501511 -0.1231063968
H -3.5983384259 2.9259332965 0.8052035473
H -8.4656185832 1.7380210601 1.2177066022
