45
CONF302
N 4.0430782964 0.3383176395 -2.5423526438
C 3.8045122248 -0.2988966404 -1.2378920492
C 3.3462640958 0.7393299287 -0.2151587518
C 3.1159504130 0.1354829679 1.1686743322
C 2.5652861309 1.1331310636 2.1917042800
C 1.2610024275 1.8099819282 1.7709245884
N 0.2659847105 0.8246718551 1.3318564664
C -1.0292914597 1.4165010831 1.0071550258
C -1.8570093515 0.4203780772 0.2103101150
O -1.1071377896 -0.0797961430 -0.8869827645
O -2.2590117385 -0.6418462337 1.0748545215
C -3.4899499978 -1.2448451067 0.5766777221
C -3.2167427778 -2.6878828231 0.1960455805
O -2.3209340833 -2.8159195344 -0.9073283240
C -3.9688620257 -0.3473338083 -0.5686692712
O -5.3839321620 -0.2001337656 -0.4899185634
C -3.1815227254 0.9500161300 -0.3464301427
O -3.0563277822 1.7801569842 -1.4855286448
C 2.7374281661 -1.3806798200 -1.3647589874
O 3.2321184802 -2.6256739120 -1.2150701305
O 1.5660531118 -1.1642610573 -1.6147926894
H 4.3496612765 -0.3569798178 -3.2168632201
H 3.1633090611 0.7075839705 -2.8945688368
H 4.7372976889 -0.7673917860 -0.9055331162
H 2.4195803952 1.1908364160 -0.5901127354
H 4.1049993111 1.5293473857 -0.1696550288
H 4.0602820191 -0.2770981448 1.5460082824
H 2.4175525439 -0.7067987915 1.0870952493
H 2.4079256593 0.6106817030 3.1443642955
H 3.3067043939 1.9184880958 2.3853009388
H 0.8933995612 2.4274617133 2.6098962296
H 1.4424588854 2.4961871170 0.9336567183
H 0.1382426479 0.1316021774 2.0644721576
H -0.8635791504 2.2935757217 0.3690764868
H -1.6096154455 1.7419933215 1.8856420127
H -0.1717616304 -0.0944174130 -0.6017596100
H -4.2286172835 -1.2209327358 1.3885163778
H -2.8258915478 -3.2129736738 1.0809379384
H -4.1617608634 -3.1635340352 -0.0929152084
H -1.6550534316 -2.1116172090 -0.8289606193
H -3.6808371053 -0.7752277091 -1.5393976983
H -5.6778118647 0.2308245433 -1.3024258621
H -3.6825294038 1.5404495195 0.4300865071
H -2.4549885311 1.3270068455 -2.0948972225
H 2.5040759730 -3.2598908005 -1.3412836792
