59
CONF156
C 7.4841204749 -1.6866330237 -0.1277450651
C 6.8440054427 -3.0645601714 -0.3170256904
C 5.6136872654 -2.9788585870 0.5904574191
C 5.0779971716 -1.5334332819 0.4146022779
C 6.2803713997 -0.7346905390 -0.1874505284
C 4.6069424612 -0.9430182242 1.7398322998
C 3.9730816861 0.4185431172 1.6104682453
O 3.9728791400 1.2212207150 2.5332325107
N 3.3708196600 0.7485295326 0.3916648552
C 3.3046869259 -0.1174590561 -0.7075385503
O 2.7848228263 0.2387761695 -1.7546276748
C 3.8706693092 -1.5002652931 -0.5216302396
C 2.7618590148 2.0904862997 0.2763845372
C 1.3719284400 2.1579194244 0.9072608223
C 0.3475422813 1.2386040209 0.2431338507
C -1.0244402614 1.3873801686 0.8949659723
N -2.0065798223 0.3995825440 0.4285673337
C -2.3736844929 0.6243449387 -0.9757918056
C -3.3953182063 -0.4106922666 -1.4390464816
N -4.5808719547 -0.3710364719 -0.5836657586
C -4.2327296917 -0.5832017455 0.8210838224
C -3.2110421186 0.4584809917 1.2669205777
C -5.7122594298 0.3013860180 -0.9510913270
N -5.8260009916 0.6730746037 -2.2502457469
C -6.9614642917 1.2755149190 -2.5966811258
C -7.9937298079 1.5306168581 -1.7010714552
C -7.7713836988 1.1169560275 -0.3926105428
N -6.6531903182 0.5119908143 0.0023965825
H 8.2462736763 -1.4488414671 -0.8758111622
H 7.9577850149 -1.6371414247 0.8608330297
H 6.5380024767 -3.1930220981 -1.3633025297
H 7.5080377580 -3.8943922075 -0.0566875898
H 5.9242567742 -3.1250312814 1.6325820705
H 4.8476121500 -3.7280610542 0.3665717903
H 6.4602156616 0.2059492354 0.3438398698
H 6.0671290709 -0.4804872160 -1.2326608255
H 3.8554141420 -1.6033630363 2.1975119459
H 5.4282562792 -0.8445914448 2.4559162548
H 4.1094780059 -1.8894273312 -1.5149150859
H 3.0616677382 -2.1202186364 -0.1078827725
H 2.7120968670 2.3264682183 -0.7877838069
H 3.4342067001 2.7969111319 0.7677808929
H 1.4470592022 1.9250041135 1.9757831912
H 1.0346926676 3.1998198288 0.8328790383
H 0.6654700743 0.1916910069 0.3304116068
H 0.3002659366 1.4726473754 -0.8258245664
H -1.3964638371 2.4208970932 0.7408473125
H -0.9135828833 1.2490721878 1.9786439648
H -2.7951826948 1.6402521888 -1.1231007702
H -1.4822634460 0.5359136865 -1.6046428055
H -2.9580693195 -1.4146866416 -1.3638795839
H -3.6786230561 -0.2270522322 -2.4742979446
H -5.1283757363 -0.5286340932 1.4380080878
H -3.7971463083 -1.5865277782 0.9129152647
H -3.6837088205 1.4615372934 1.2291114678
H -2.9260797075 0.2616241666 2.3072525978
H -7.0468197006 1.5714250145 -3.6420523728
H -8.9086689659 2.0251640864 -2.0017237182
H -8.5242427695 1.2820706553 0.3778610703
