47
CONF85
C -7.9385374152 -0.7241122082 -0.4906666035
O -6.9642313555 0.1998632659 -1.0512706480
P -5.5017526451 -0.3176002137 -1.4377419238
S -5.3706736722 -1.9966665523 -2.4034560413
O -4.8783272394 0.9843309131 -2.1238989476
C -5.1697437982 1.2801922155 -3.5196829475
O -4.7727507643 -0.2710302464 0.0110986610
C -3.5679580293 -0.9330668960 0.2590358523
C -2.3950127480 -0.5256172733 -0.3673543767
C -1.2063947342 -1.1763600877 -0.0637894860
C -1.1921297957 -2.2024754061 0.8853135407
C -2.3775122204 -2.5901921310 1.5130035741
C -3.5759816942 -1.9624287193 1.1877600222
S 0.3029264056 -3.1070118841 1.2674678719
C 1.5282339110 -1.8102967287 1.3961500511
C 2.8037658349 -2.0589673939 0.8854989448
C 3.8090336295 -1.1057782854 1.0202830635
C 3.5137571213 0.0967603766 1.6456265555
C 2.2504958424 0.3607644510 2.1610860852
C 1.2580116069 -0.6034252030 2.0479011135
O 4.5168024936 1.0590900283 1.8165254572
P 4.8953708948 2.0882998307 0.6214637192
S 3.4422727332 3.0436172693 -0.2309006219
O 5.7682463697 1.1124596273 -0.3090030094
C 6.2396525172 1.5808215783 -1.6035249785
O 5.9140080128 3.0664355269 1.3643136540
C 7.0980568997 2.5305728171 2.0316432593
H -8.8396968446 -0.1344073736 -0.3259087488
H -7.5721285956 -1.1267744139 0.4577546673
H -8.1356447399 -1.5333046177 -1.1981365615
H -4.6069486967 2.1842813445 -3.7493492539
H -4.8383800938 0.4536270455 -4.1531638464
H -6.2404721508 1.4578978430 -3.6501956815
H -2.4141509232 0.2821772807 -1.0909675408
H -0.2896338469 -0.8763765962 -0.5602423055
H -2.3682084257 -3.3803998585 2.2564203154
H -4.5067595038 -2.2545808212 1.6617049466
H 3.0147519071 -2.9941008252 0.3771019324
H 4.8038209893 -1.2877272670 0.6301588527
H 2.0563949287 1.3068305735 2.6543643124
H 0.2731868558 -0.4112488568 2.4600775608
H 5.3884379232 1.8247873684 -2.2439384596
H 6.8843218861 2.4553220867 -1.4778220960
H 6.8079766746 0.7522150797 -2.0252007921
H 7.6780849146 1.9174070978 1.3376858275
H 7.6762061118 3.4009675466 2.3397997337
H 6.7992123842 1.9452288992 2.9040212763
