45
CONF20
C 0.7573154827 -2.7021398109 3.1689537996
N 1.6729916270 -1.5893782773 2.9134884424
C 1.6381940233 -0.6588456739 4.0413727781
C 1.3141813218 -0.8765631884 1.6818093090
C 1.4523136032 -1.7364118756 0.4278384732
C 1.4724304688 -0.8945047377 -0.8493519683
N 0.3291930947 0.0236109653 -0.9457453854
C 0.5781516852 1.2680674034 -1.5842545189
C 1.3841885835 1.3441696083 -2.7243257740
C 1.6499629110 2.5756133582 -3.3153932777
C 1.1049302127 3.7387850271 -2.7788362498
C 0.3062736964 3.6612861563 -1.6407152165
C 0.0461122001 2.4380457052 -1.0238548054
C -0.7900792162 2.3245391943 0.2116850384
C -2.1377559339 1.6632009352 -0.0833120289
C -2.1210248700 0.2254015055 -0.5662326843
C -3.3669362353 -0.4105040476 -0.6101009460
C -3.5305257434 -1.7286077361 -1.0133763517
C -2.4080560786 -2.4490475478 -1.4054774517
C -1.1602342503 -1.8433442860 -1.3872747481
C -0.9824846911 -0.5125527112 -0.9654959043
H 1.0173982694 -3.1757950535 4.1209820816
H 0.8408572689 -3.4595429707 2.3847175124
H -0.3004424083 -2.3747934122 3.2231790417
H 0.6315659120 -0.2248333466 4.2048238580
H 1.9384526000 -1.1761107959 4.9586842628
H 2.3390431816 0.1643707457 3.8662150123
H 0.2808377608 -0.4786480407 1.7427006724
H 1.9827994069 -0.0093661133 1.5919395251
H 2.3985045170 -2.2901042718 0.4722805689
H 0.6477580837 -2.4759800535 0.3825570462
H 2.3638503121 -0.2590328680 -0.8291888661
H 1.5757522241 -1.5508702213 -1.7289167604
H 1.7954366487 0.4371857961 -3.1555365457
H 2.2739428955 2.6221590551 -4.2025538782
H 1.3064778817 4.7010571307 -3.2383925658
H -0.1060174392 4.5676995671 -1.2048869183
H -0.2509500598 1.7402310153 0.9674071730
H -0.9721497516 3.3203043665 0.6279145178
H -2.6583415481 2.2736604706 -0.8340175012
H -2.7587510338 1.7006023366 0.8201890315
H -4.2377691726 0.1610755216 -0.2970361287
H -4.5158672432 -2.1826943069 -1.0199158919
H -2.4980168831 -3.4784573792 -1.7385578124
H -0.3035135893 -2.4129365399 -1.7251274622
