21
CONF8
C 1.3293641301 0.0555553636 0.5166951540
C -0.1410234445 0.1804401222 0.0688448028
C -0.4789574601 1.6690290756 -0.1324781002
O 0.2960263984 2.3004640831 -1.1395996365
C -0.3806750026 -0.6049549733 -1.2362132997
O 0.5915738771 -0.3126367471 -2.2461780431
C -1.0787923281 -0.3686307004 1.1426825060
O -0.6385313436 -1.6902304982 1.5010652698
O 1.8979439700 -1.2293518227 0.2550405820
H 1.4061265112 0.3118250755 1.5850956328
H 1.9370134053 0.7743318134 -0.0397546395
H -1.5579154337 1.7584538295 -0.3540531170
H -0.2913538693 2.2200812756 0.7998437665
H 0.4494408045 1.6489435011 -1.8424850519
H -0.4064196155 -1.6813650230 -1.0287492765
H -1.3529793749 -0.3178953825 -1.6551242451
H 1.4154840787 -0.7206829079 -1.9435701212
H -1.0535218601 0.2926792139 2.0226995009
H -2.1130945174 -0.3999675507 0.7642709049
H -1.1940715664 -2.0188593848 2.2145445046
H 1.3643629477 -1.8672280506 0.7474229116
