55
CONF10
C 4.9488462909 0.9177595561 2.4222362350
C 4.5365295263 -0.4527535837 1.8843981361
C 5.6044595773 -0.9785035431 0.9066022598
C 3.1713362875 -0.4878873457 1.2360368285
C 2.5665619595 0.5913337785 0.7028309552
C 1.2388773400 0.5696096348 0.1054243541
C 0.7085042159 1.6832121474 -0.4356365864
C -0.6640065782 1.7450156354 -1.0221251079
C -1.5036878427 0.5299486863 -0.6261035740
C -0.7145226572 -0.7936293743 -0.8463941225
C 0.4726578922 -0.7391779918 0.1624153794
C 1.4625121419 -1.9070498296 0.0554950553
C 2.4981439854 -1.8335447149 1.1757625721
C -1.6182702348 -1.9890041529 -0.4804999820
C -2.9913688424 -1.9465963326 -1.1471495659
C -3.7345228945 -0.6696111474 -0.7634383315
C -2.9582025945 0.5974695303 -1.2013068726
C -3.0606690301 0.7656446139 -2.7224655198
C -3.6426038783 1.8170242684 -0.5709781057
O -4.1431369621 2.7390054601 -1.1870264634
O -3.6463832278 1.7645039247 0.7750610955
C -4.2753892022 2.8809763754 1.4488760915
C -0.1693655338 -0.9559101779 -2.2729940115
H 4.1940324718 1.3244653007 3.1026445087
H 5.8957701283 0.8361482302 2.9654084716
H 5.0975989246 1.6352579942 1.6081251335
H 4.4961080389 -1.1534316681 2.7327394846
H 5.3428788163 -1.9631671999 0.5077310911
H 5.7098876653 -0.2851910248 0.0646178906
H 6.5749791272 -1.0614917565 1.4073870499
H 3.0609382268 1.5605097645 0.7298189124
H 1.3031012207 2.5965152373 -0.4513827916
H -1.1623704862 2.6679629221 -0.6897641862
H -0.5941179445 1.8335349295 -2.1163902263
H -1.6372377419 0.5821538643 0.4628030958
H 0.0272539990 -0.8025437974 1.1698368366
H 0.9342304226 -2.8647693897 0.0968313099
H 1.9888018174 -1.8605889892 -0.9054225830
H 3.2530356304 -2.6190278098 1.0455660465
H 2.0205848854 -2.0387580784 2.1469029369
H -1.7664362559 -1.9914523798 0.6093786888
H -1.1108063645 -2.9259518814 -0.7357258378
H -3.5798717076 -2.8132822685 -0.8241805309
H -2.8954504854 -2.0302037877 -2.2360155514
H -4.7354597189 -0.6479298988 -1.2116646127
H -3.8618789379 -0.6561024261 0.3248834453
H -2.4998485751 1.6314622663 -3.0804149340
H -4.1078482027 0.9106274167 -3.0014465134
H -2.6983997791 -0.1185102567 -3.2443742318
H -3.7588187576 3.8112335838 1.1999134988
H -4.1837824794 2.6645685913 2.5126588461
H -5.3267712480 2.9534763933 1.1603636515
H 0.5465057870 -0.1658639753 -2.5201775906
H -0.9591264257 -0.9415404274 -3.0238952235
H 0.3462159347 -1.9159441924 -2.3676430833
