50
CONF178
C -0.7456248360 1.0702119165 -2.1918287024
C -2.1932505947 1.4522885584 -2.0393055842
O -2.4305734263 2.4204580607 -0.9836274031
C -1.6976748887 2.3548429935 0.1768046825
C -1.0666288650 3.5203449956 0.5973247420
C -0.3876599416 3.5719938731 1.8131368020
C -0.3362363857 2.4376382259 2.6138603765
C -0.9626932233 1.2587072721 2.2086015972
C -1.6456326646 1.2031809713 0.9910112615
O -2.2900536841 0.1019016169 0.5122130756
C -2.2995460652 -1.0872684868 1.3204529858
C -2.7559524536 -2.2300642926 0.4391070514
O -1.7401748460 -2.6292901183 -0.4871373633
C -0.7813781986 -3.5061433515 0.1082553656
C 0.4702180542 -3.5266652495 -0.7396968618
O 1.1031323460 -2.2395906187 -0.8476317336
C 1.7333737277 -1.7129646979 0.2430533501
C 1.9879040628 -2.3800450668 1.4372834054
C 2.6407254174 -1.7233676323 2.4856107655
C 3.0461755178 -0.4051384177 2.3404718972
C 2.8151668088 0.2700269858 1.1381388103
C 2.1674010787 -0.3741797884 0.0894769322
O 1.9087276853 0.1821434776 -1.1260922905
C 2.0644375713 1.6059009540 -1.2703365730
C 1.4197561941 2.0186646838 -2.5809462726
O 0.0120805245 2.2416301212 -2.4993415450
H -0.3816716209 0.5999355228 -1.2719421704
H -0.6626174227 0.3267941563 -3.0022382420
H -2.5581577902 1.9503799949 -2.9423489576
H -2.7816941330 0.5450820296 -1.8648006180
H -1.1219848340 4.3891079101 -0.0514013304
H 0.0974190659 4.4913931396 2.1239885055
H 0.1864805550 2.4576756314 3.5648921271
H -0.9256649081 0.3927224785 2.8581214914
H -2.9840418858 -0.9508915985 2.1688643579
H -1.2937964204 -1.2907151946 1.7073991635
H -3.0582644201 -3.0759940451 1.0729636633
H -3.6206663195 -1.9187137934 -0.1556417307
H -1.1816315744 -4.5314945932 0.1597292698
H -0.5486400394 -3.1863414223 1.1314378639
H 1.1700472593 -4.2784992003 -0.3537244823
H 0.2181684218 -3.7881802376 -1.7708414137
H 1.6802668811 -3.4103488904 1.5687580654
H 2.8232752562 -2.2572009062 3.4124921494
H 3.5483236214 0.1100982015 3.1527461960
H 3.1465078216 1.2958024701 1.0258099026
H 3.1326892509 1.8619251170 -1.2836874098
H 1.5810381571 2.1265169889 -0.4313169579
H 1.8479887244 2.9771897110 -2.8889913918
H 1.6506076292 1.2685397611 -3.3541258143
