39
CONF6
C -2.3811231487 -3.5666356830 1.7386830148
O -2.9652044567 -2.4820955665 1.0030336173
C -2.2126933812 -1.3603015443 0.8403674596
C -0.9213152523 -1.1908159718 1.3543413825
C -0.2326085559 -0.0012390112 1.1190554884
C -0.8185224706 1.0211592552 0.3720468433
C -2.1082410546 0.8557871509 -0.1372419454
C -2.8145680110 -0.3343482876 0.0997327556
O -4.0974209595 -0.4828538765 -0.3722596972
C -4.1433846477 -1.0439622880 -1.7014162888
O -2.7712588293 1.7872851125 -0.8747995645
C -2.0816666982 3.0127842062 -1.1592763092
C 1.1653572021 0.1882050790 1.6830437933
C 2.1534464157 0.7315368426 0.6900252828
C 2.7711064898 1.9559157532 0.8458289748
N 3.6666834920 2.4789421856 -0.0089381729
C 3.9419497772 1.7099433198 -1.0787104617
N 3.4114031489 0.5062035690 -1.3557961080
C 2.5207626277 0.0181929827 -0.4798568038
N 2.0156935805 -1.2194199970 -0.7339293625
N 4.8117736171 2.2231978180 -2.0045466625
H -3.1334570894 -4.3556174093 1.7439466165
H -1.4700868515 -3.9280110820 1.2480637746
H -2.1541596058 -3.2666200761 2.7681173045
H -0.4466306307 -1.9751182748 1.9323203171
H -0.2592883986 1.9312576189 0.1910698259
H -3.6193543317 -0.3933099478 -2.4110657536
H -3.6921804346 -2.0429931276 -1.7116650819
H -5.1984090649 -1.1127573382 -1.9735608498
H -1.8384160838 3.5505596412 -0.2358162549
H -1.1654456670 2.8246091170 -1.7308002670
H -2.7731708000 3.6058186597 -1.7582551791
H 1.5158927920 -0.7724763351 2.0822136691
H 1.1179346305 0.8795752657 2.5336602395
H 2.5345954532 2.5608556338 1.7221769602
H 2.1685191330 -1.5951471129 -1.6577877914
H 1.1576893370 -1.4949579241 -0.2796466832
H 5.4074843174 2.9741792727 -1.6929041151
H 5.2270853541 1.5684173065 -2.6485916501
