39
CONF43
N 1.3201621744 -0.3368966034 2.3900590417
C 1.7697287102 -1.4246921145 1.7162716054
N 1.7976889895 -2.5874009383 2.3864930460
C 2.2019321140 -3.6736911230 1.7067810025
N 2.2822277760 -4.8446479403 2.4143173628
N 2.5777176516 -3.7160178354 0.4150158048
C 2.5423080044 -2.5328152713 -0.2207247864
C 2.1569916488 -1.3381382007 0.3534406460
C 2.1329697713 -0.0466147279 -0.4114960530
C 0.7440281612 0.5327702709 -0.6262913429
C -0.3301556022 -0.3145765594 -0.8950541943
C -1.5980258916 0.2241886340 -1.1271281549
O -2.7115097769 -0.5132530014 -1.3924639231
C -2.5622683192 -1.9393777061 -1.4259871223
C 0.5618992520 1.9146337802 -0.5839384486
C -0.7067255714 2.4561920745 -0.8162401138
O -0.9938276290 3.7867122645 -0.7904367825
C 0.0845776598 4.6873726163 -0.5015924508
C -1.7914383078 1.6134821879 -1.0967873738
O -3.0319990451 2.1468866181 -1.3612657652
C -3.8414000616 2.2941744320 -0.1756271429
H 1.4345375508 0.5822166110 1.9958951156
H 1.2274032985 -0.4013795714 3.3916795605
H 2.3165469751 -5.6931873508 1.8711246246
H 1.7534972660 -4.8925874736 3.2713026343
H 2.8454876059 -2.5423648233 -1.2685714972
H 2.5986554001 -0.2214429792 -1.3898957190
H 2.7543609983 0.7086672011 0.0880463479
H -0.1686444980 -1.3855375109 -0.9110591920
H -3.5544905522 -2.3326427072 -1.6487556783
H -1.8598939036 -2.2428596285 -2.2107413594
H -2.2224909348 -2.3223968648 -0.4566192348
H 1.4081390285 2.5555750493 -0.3665938432
H -0.3532667954 5.6855752800 -0.5253546591
H 0.8730136928 4.6120418742 -1.2592165049
H 0.5046625710 4.4919422307 0.4916776865
H -3.3553023462 2.9684710202 0.5390923796
H -4.0150432440 1.3190037266 0.2940598259
H -4.7920554141 2.7226151444 -0.4991545826
