38
CONF54
O -0.8738962494 -0.7927357373 2.5139269907
P 0.0999308358 -0.3887951368 1.4820471486
O 1.1305102380 -1.4899434913 0.9331550813
C 0.6496138152 -2.5863117134 0.1904908435
C 0.8680380641 -2.5879907477 -1.1792431605
C 0.4404936570 -3.6875107177 -1.9189155690
C -0.1945372797 -4.7558325483 -1.2883752022
C -0.3999588774 -4.7294778709 0.0891098048
C 0.0253086134 -3.6386384522 0.8446212344
O 1.1042160016 0.7355765410 2.0186805341
C 2.0807799778 1.3198985362 1.1862871351
C 3.3648513326 0.7950835379 1.1987169577
C 4.3415360769 1.4095769319 0.4191276832
C 4.0266750203 2.5256268511 -0.3533094206
C 2.7303698504 3.0355536997 -0.3441639958
C 1.7425518124 2.4337352541 0.4319836891
O -0.5202100855 0.1520824186 0.0974249223
C -1.8094057009 0.6901805588 -0.0093440410
C -2.2347998286 1.7192309781 0.8205656339
C -3.5101698091 2.2454052699 0.6276762356
C -4.3331506541 1.7526131095 -0.3822144973
C -3.8807578476 0.7232869292 -1.2052095039
C -2.6117063020 0.1817062763 -1.0211321219
H 1.3607829213 -1.7426820896 -1.6473834576
H 0.6043380138 -3.7055926139 -2.9915584406
H -0.5266363333 -5.6094661475 -1.8699105483
H -0.8899244158 -5.5615155928 0.5843802103
H -0.1196611078 -3.6022875802 1.9186710098
H 3.5884704787 -0.0732647131 1.8084685322
H 5.3513548683 1.0122440012 0.4187831760
H 4.7919471167 2.9997870434 -0.9588623066
H 2.4818987028 3.9076006355 -0.9403835669
H 0.7290487914 2.8195420269 0.4551924461
H -1.5860492864 2.1046745391 1.6006174434
H -3.8558082613 3.0480685063 1.2710146848
H -5.3240314713 2.1696708767 -0.5275636471
H -4.5170450385 0.3339565049 -1.9933882366
H -2.2395801754 -0.6231033729 -1.6463669317
