24
CONF86
C 1.9185988552 0.7914981380 1.0936571392
C 1.6246960672 0.0121583882 -0.1862417515
C 0.1695664503 -0.4223924232 -0.3681219252
C -0.8467589574 0.7142457140 -0.3173892115
C -2.1771397070 0.3129227387 -1.0097656043
C -2.7747584528 -0.9547489883 -0.4440884760
O -3.0525280692 -1.8896416309 -1.1650297770
O -1.9711081605 0.1940277118 -2.3947782365
O -1.0921350034 1.1509459813 1.0109935757
O -0.2164912129 -1.3421860017 0.6591241381
O 2.3810445584 -1.2022942116 -0.1890089981
O 3.3411376069 0.9055293354 1.2737477076
H 1.4312325685 1.7730006172 1.0801369728
H 1.5549576018 0.2361635401 1.9628350937
H 1.9020517023 0.6298967978 -1.0599844866
H 0.0957607893 -0.9030546358 -1.3553709186
H -0.4597675013 1.5699036053 -0.8851791751
H -2.8909110070 1.1251015774 -0.7803334631
H -2.9812758611 -0.9720457207 0.6425317758
H -2.3226155110 -0.6799227478 -2.6396849606
H -1.0163398066 0.3659630813 1.5727534769
H 0.4927232674 -1.9978968168 0.7160904642
H 3.2220148577 -0.9945818740 0.2444502660
H 3.6680451156 1.5774080200 0.6643497661
