30
CONF6
C -5.1084357226 0.2459896973 -0.3685741369
O -3.7060863165 0.4906019846 -0.6424671284
C -2.8531022206 -0.4693202252 -0.2343082801
O -3.2160199298 -1.4968166376 0.3058155317
C -1.4204060686 -0.0737334260 -0.4949812616
C -0.9479386306 0.8747380171 0.6281412105
C 0.5038370696 1.2954495100 0.4022490188
C 1.4203382843 0.0743480261 0.3143422017
C 0.9480391252 -0.8742072155 -0.8087475987
C -0.5038062659 -1.2948111164 -0.5830935572
C 2.8534002286 0.4701432703 0.0550588824
O 3.2171829528 1.5007762982 -0.4782084758
O 3.7054892765 -0.4938025478 0.4561176116
C 5.1082643821 -0.2476958075 0.1853440822
H -5.2695828983 0.1409326074 0.7069906989
H -5.4407493496 -0.6587880907 -0.8830877145
H -5.6345878817 1.1193916682 -0.7516876372
H -1.3909628777 0.4817902531 -1.4411877587
H -1.0392870114 0.3552734116 1.5915745764
H -1.5919809390 1.7590060278 0.6670957396
H 0.8306581144 1.9535150617 1.2149231647
H 0.5800355388 1.8670125717 -0.5302509421
H 1.3905073858 -0.4812091391 1.2606228141
H 1.0396356456 -0.3548475432 -1.7722275039
H 1.5919630692 -1.7585775714 -0.8474856754
H -0.8306004150 -1.9527295144 -1.3959458588
H -0.5801782163 -1.8664787110 0.3493818077
H 5.4388261662 0.6564967996 0.7019249654
H 5.2714464403 -0.1409788407 -0.8897627359
H 5.6340996619 -1.1214686172 0.5680925649
