39
CONF44
C 4.8381458460 0.8071697168 -2.1397667416
C 3.5158334935 0.8997676369 -1.3812537090
C 3.0403146086 -0.4663094608 -0.8876076986
C 1.7504055308 -0.4016675532 -0.1025562891
C 1.2269107802 -1.7529523525 0.4108493589
O -0.1917334413 -1.7266139281 0.1312208259
C -0.5008801105 -0.4264329315 -0.3559333622
C -1.5703142039 -0.5782656473 -1.4476306306
N -2.8288991281 -1.0414653193 -0.8946596710
C -3.2030071898 -2.3018005287 -0.5951239781
N -4.3988610466 -2.2998763175 -0.0183860023
C -4.7122325494 -0.9734933895 0.0175143441
N -3.7914329586 -0.1702353507 -0.4990921566
O 0.6762139139 0.0384000006 -0.9711493277
C -0.9480229512 0.4779653662 0.8003884441
C -1.1030909375 1.8634728437 0.6871181367
Cl -0.7896914197 2.7151513368 -0.8200773052
C -1.5282971441 2.6508646892 1.7517660719
C -1.8146808401 2.0293727317 2.9593392564
Cl -2.3539351208 3.0144425883 4.3080124903
C -1.6865559591 0.6576112957 3.1202160471
C -1.2552680986 -0.0960370106 2.0360229065
H 4.7405783868 0.1537707013 -3.0137121664
H 5.1653868253 1.7910037561 -2.4895209754
H 5.6270753844 0.3954272356 -1.5007063640
H 2.7474524475 1.3387542447 -2.0285099178
H 3.6247546574 1.5730442017 -0.5211198677
H 3.8037509284 -0.9094271207 -0.2340362417
H 2.9034166684 -1.1532657665 -1.7332252195
H 1.8411841232 0.3137390520 0.7284516665
H 1.3962722998 -1.8771812373 1.4857256848
H 1.6620238278 -2.5958425086 -0.1360635181
H -1.7432945833 0.3765018730 -1.9454461680
H -1.2063159858 -1.3102631349 -2.1727062405
H -2.5891013664 -3.1635690474 -0.8208304854
H -5.6385479392 -0.5886741241 0.4253919369
H -1.6362843835 3.7222680232 1.6357354597
H -1.9166373182 0.1840255499 4.0672249466
H -1.1526348291 -1.1693793256 2.1441363279
