35
CONF6
C 3.5431790672 -0.6644533208 -1.0451193681
C 2.9178030225 0.4174371402 -0.2285682067
N 1.7456769346 0.1425806624 0.3552798587
C 1.2045177645 1.1590666479 1.0481771297
N 1.7374780204 2.3745670633 1.1946764243
C 2.9065987501 2.5203826621 0.5723210213
N 3.5492838432 1.5922069083 -0.1512605253
O 3.4521125438 3.7256965752 0.7130845309
C 4.7220765806 3.9588561494 0.0674746876
N -0.0058409369 0.9755456926 1.6758800173
C -0.8845996603 -0.1264192048 1.7228415181
O -1.9728077004 -0.0069280380 2.2472393400
N -0.3969457642 -1.2813853069 1.1555162705
S -1.3919658508 -2.6422251061 0.8764701154
O -0.5872785856 -3.4731281257 -0.0181546843
O -1.8784082221 -3.1501254832 2.1533857694
C -2.8096981709 -1.9628075436 -0.0066701055
C -4.0572928864 -2.1275416273 0.5895215214
C -5.1996026010 -1.6680334036 -0.0508326593
C -5.0926856182 -1.0309373295 -1.2825485142
C -3.8497083044 -0.8474686922 -1.8762756323
C -2.7050540033 -1.3147155010 -1.2390600440
Cl -1.1655275339 -1.0347708219 -2.0163568225
H 3.0834370826 -0.6679570821 -2.0404967063
H 3.3554424627 -1.6418810155 -0.5964383072
H 4.6123845773 -0.4875166720 -1.1616052477
H 4.6329750438 3.8312430823 -1.0139367039
H 4.9724716443 4.9900223435 0.3149980779
H 5.4808580809 3.2735479640 0.4524605660
H -0.3715380687 1.7917263842 2.1470541361
H 0.4653647775 -1.2098172019 0.5988761086
H -4.1079962716 -2.6081501075 1.5591656482
H -6.1682997121 -1.7995498636 0.4178252181
H -5.9798490600 -0.6642836103 -1.7880598870
H -3.7565610596 -0.3427839317 -2.8307698450
