40
CONF89
C 2.9470454900 1.5173623343 -3.5373708110
O 3.4805343056 0.5945199717 -2.5491450553
C 4.0503741947 1.1606968689 -1.4756413889
O 4.1244110142 2.3543744152 -1.2879578756
C 4.6110172819 0.0781904902 -0.5686503037
S 4.8289419511 0.5880642436 1.1606935201
C 3.1517074498 0.8073779780 1.7083427496
C 2.0300858861 0.5224672170 0.9291952735
C 0.7269740691 0.7039674384 1.4084920499
C 0.5863560443 1.2058236247 2.7074337708
C 1.6693834285 1.4994454838 3.5131465774
C 2.9444416272 1.2939241441 3.0072438439
Cl 4.3210917613 1.6605787177 4.0306711281
F -0.6578624632 1.4379212387 3.1893514773
N -0.3616851190 0.4696928093 0.5719401029
C -1.2398088854 -0.4084221230 0.8911322733
N -2.3963108266 -0.5941384810 0.1722874403
N -3.0391354540 -1.8126265312 0.4635208917
C -2.6182596072 -2.4471401282 1.5892742915
O -3.1375200016 -3.4115962386 2.1183800915
S -1.1390067940 -1.6029015914 2.2188112516
C -4.4311487064 -1.9250144284 -0.0057075460
C -4.4930829446 -1.6152352462 -1.4940973011
C -3.8648309936 -0.2512038091 -1.7654385025
C -2.4311556075 -0.2145894951 -1.2571510993
H 2.5332971019 0.8871440825 -4.3228690558
H 3.7475351785 2.1492111569 -3.9280572362
H 2.1678388105 2.1346361059 -3.0849151567
H 5.6265733357 -0.1473616098 -0.9178387113
H 4.0301622689 -0.8440348808 -0.6520596402
H 2.1243411682 0.1305121411 -0.0760832705
H 1.5146464137 1.8883511443 4.5130036253
H -4.7495486335 -2.9445573165 0.2164494893
H -5.0525395715 -1.2212781628 0.5656227577
H -3.9623809108 -2.3943867491 -2.0541134395
H -5.5411002101 -1.6303747894 -1.8072791244
H -3.8520748619 -0.0348967526 -2.8377297927
H -4.4482268054 0.5350922231 -1.2715441858
H -2.0084821637 0.7882217336 -1.3207015106
H -1.7925994170 -0.9078173302 -1.8239365946
