33
CONF113
C -0.6285713553 -2.7221319342 1.2461230171
C -2.1225848275 -2.4230822416 1.3052421268
C -2.5999759802 -1.4495965857 0.2336965339
S -1.8663677604 0.2499006482 0.4618022203
P -0.7677289026 0.4468355467 -1.3234900057
O -0.6745527514 -0.7849404648 -2.1350099556
O -1.3142386231 1.7014842429 -2.1354889046
C -1.4442376507 3.0204738312 -1.5181486152
C -0.3818200946 3.9469608538 -2.0630552340
O 0.6655908209 1.0782310180 -0.8136180137
C 1.4749172699 0.3467144083 0.0291898737
C 2.0707922654 -0.8342101073 -0.3996087858
C 2.9063244174 -1.5475030462 0.4501660894
C 3.1393791660 -1.0594688457 1.7297799554
C 2.5674070818 0.1243503507 2.1771117234
C 1.7319444455 0.8255661704 1.3150230602
Cl 1.0034873434 2.3152041399 1.8489203753
Br 4.2786077463 -2.0326855305 2.9126994227
H -0.3582163589 -3.5014884666 1.9642664361
H -0.3360655842 -3.0579059252 0.2456597394
H -0.0410205209 -1.8304803490 1.4819116833
H -2.6944292988 -3.3494284607 1.1571169044
H -2.3951963756 -2.0479861833 2.2991151441
H -3.6837746371 -1.3117642849 0.2722244872
H -2.3179928967 -1.7874468919 -0.7670755667
H -2.4521392897 3.3589177165 -1.7738320519
H -1.3771383648 2.9323861376 -0.4276935441
H -0.5284929506 4.9499189518 -1.6491888806
H 0.6151984866 3.5983259163 -1.7845772532
H -0.4462132350 4.0081244750 -3.1524836899
H 1.8522685903 -1.1920004939 -1.3995552755
H 3.3656505031 -2.4709383913 0.1201468465
H 2.7591873210 0.4996640125 3.1740575436
