21
CONF30
C 0.8458303521 -1.4405305325 0.0231414241
C 0.0802785732 -0.1188854375 -0.0462921927
C 0.9273983236 0.9185604252 -0.8000545425
O 0.1573516168 2.0757927554 -1.1966723170
C -1.2169531442 -0.4044786260 -0.8291251597
O -2.2182704661 0.6039546547 -0.6507628938
C -0.2374963399 0.4043246556 1.3637357405
O -1.2187018065 -0.3825606294 2.0493115101
O 2.1529895589 -1.2058992068 0.5675749254
H 0.9248665087 -1.8682991037 -0.9890112822
H 0.2842827914 -2.1446567370 0.6532853876
H 1.7899699578 1.2296449798 -0.2002156922
H 1.3003942454 0.4671170954 -1.7269022972
H 0.2299459917 2.7397412067 -0.5005551504
H -0.9742589639 -0.5291758212 -1.8953419007
H -1.6630176927 -1.3411021476 -0.4768478583
H -1.7906830189 1.4354105363 -0.9110231192
H 0.6720472627 0.3682589981 1.9714824717
H -0.5663937122 1.4509429126 1.3088844677
H -2.0656314989 -0.1958223004 1.6219920414
H 2.5860517571 -2.0623373812 0.6633964479
