42
CONF2
C 0.4485181993 -2.4969296832 4.1495958502
C -0.0342742195 -2.8342358680 2.7416476874
C 0.5041716565 -1.8732423578 1.6893901456
C 0.1263824206 -2.3328825460 0.2731058454
O 0.8629058398 -3.0779679606 -0.3585977985
N -1.0793538286 -1.8845039238 -0.1662468292
C -1.4334527259 -1.9520088072 -1.5868213440
C -0.8355077678 -0.7958547460 -2.3561878035
C -1.4153140458 0.4729933724 -2.2816286871
C -0.8410608871 1.5551282917 -2.9386437672
C 0.3214119061 1.3771496066 -3.6849136334
C 0.9069433675 0.1172182962 -3.7626204330
C 0.3348554930 -0.9638141867 -3.0968032795
O -0.0324028149 -0.5717230473 1.9884285616
C 0.3880018281 0.4799054042 1.2127639797
C -0.3140160031 1.6710231574 1.3970712110
C -0.0015311313 2.7918492758 0.6379256636
C 1.0240421413 2.7036112797 -0.3003132493
C 1.7328473908 1.5344746069 -0.4837692705
C 1.4148617465 0.4097104607 0.2698769741
F 1.3199671959 3.7759662185 -1.0617382128
C -0.7758012452 4.0699559092 0.7889715707
F 0.0185288695 5.1108432330 1.1219461268
F -1.7253726280 3.9691172046 1.7468996439
F -1.4104407064 4.4051582010 -0.3619998415
H 0.0553864382 -3.2162510920 4.8732139784
H 1.5416416240 -2.5268487600 4.2055952811
H 0.1203321216 -1.4985736428 4.4491973849
H -1.1297543836 -2.8242407924 2.6948528182
H 0.2916754222 -3.8393608665 2.4519709994
H 1.6010089868 -1.8511589267 1.7370103345
H -1.5083042175 -1.1518603225 0.3810614354
H -1.0637965433 -2.9047900770 -1.9728015476
H -2.5255982248 -1.9464435728 -1.6658813705
H -2.3275101527 0.6158792031 -1.7065372895
H -1.2978044392 2.5372378715 -2.8676503781
H 0.7697397075 2.2209631820 -4.1995333774
H 1.8132386156 -0.0260614497 -4.3430030606
H 0.7982014870 -1.9447358397 -3.1427522994
H -1.1092915605 1.7078048778 2.1315221715
H 2.5093103523 1.4969657697 -1.2383322941
H 1.9566145141 -0.5094675671 0.0854204055
