57
CONF120
C -2.2643202984 0.7237782684 -1.1592054900
C -1.5037943577 -0.4818836816 -0.6341365474
C -2.4560094340 -1.5781321816 -0.1025535655
C -3.4570837070 -1.1040720562 0.9166257822
C -3.1145149735 -1.0216719161 2.2703271819
C -4.0333700729 -0.5628847780 3.2105171107
C -5.3136251740 -0.1829774727 2.8115042854
C -5.6696404411 -0.2714433342 1.4674001094
C -4.7477746106 -0.7300095538 0.5295157685
C -0.5424830179 -1.1065207804 -1.6336489862
C -0.6492768258 -0.8641460687 -3.0037341281
C 0.2266236151 -1.4742771474 -3.9008314432
C 1.2201519345 -2.3321723028 -3.4397109021
C 1.3272310197 -2.5848074456 -2.0728399808
C 0.4498110996 -1.9816779320 -1.1789454704
O -0.7165622112 -0.0905247326 0.5695308465
P 0.1336540660 1.2299519073 0.7474699238
O -0.5458480721 2.4943124341 1.1028417595
O 0.9884236108 1.2692490225 -0.6218952786
C 1.5711835183 2.4262131011 -1.1434650756
C 1.4329707640 2.6216595433 -2.5118472069
C 2.0389467794 3.7298672016 -3.0970369391
C 2.7670759805 4.6276491232 -2.3185133585
C 2.8941361049 4.4109434176 -0.9483112953
C 2.2994023508 3.3030696381 -0.3481453025
O 1.1554604738 0.8042175118 1.9193210892
C 1.8725728588 -0.4031084710 1.8380337474
C 1.3837813205 -1.5077652868 2.5214443188
C 2.0988595950 -2.7010012823 2.4610186119
C 3.2815562687 -2.7757261840 1.7269941005
C 3.7586377968 -1.6495464381 1.0600793152
C 3.0543500596 -0.4483895350 1.1123764543
H -2.9850314086 0.4040508163 -1.9162258629
H -1.5923981173 1.4600708215 -1.6095165898
H -2.8190670953 1.1918813282 -0.3438107783
H -1.8352290608 -2.3762617146 0.3174842700
H -2.9717736120 -1.9868091634 -0.9778424411
H -2.1207704903 -1.3232837717 2.5875548624
H -3.7509988862 -0.5071383964 4.2576383881
H -6.0313480073 0.1722536992 3.5444890774
H -6.6679210221 0.0130428913 1.1485798488
H -5.0317614559 -0.8006367747 -0.5172303253
H -1.4099565497 -0.1939383298 -3.3872682601
H 0.1318730136 -1.2701198028 -4.9629753734
H 1.9060164323 -2.8010690784 -4.1383528505
H 2.0987510701 -3.2514901453 -1.6992644266
H 0.5524486306 -2.1767743872 -0.1161517803
H 0.8604963348 1.9100893158 -3.0980409508
H 1.9369452456 3.8908361657 -4.1655122522
H 3.2358363127 5.4913757329 -2.7782270813
H 3.4637417654 5.1031824698 -0.3365197467
H 2.4062420383 3.1253812634 0.7168440080
H 0.4558760310 -1.4297310300 3.0777375956
H 1.7259044240 -3.5742282085 2.9866662233
H 3.8327088848 -3.7091827612 1.6791967530
H 4.6825879012 -1.7015446017 0.4929830015
H 3.4123540463 0.4371667634 0.5983514708
