63
CONF434
C -9.5515608705 2.6262150412 3.1987330931
C -8.4608636459 1.6509544076 2.7597938623
C -7.9801418087 1.9208768285 1.3328786608
C -6.9794854947 0.8949939819 0.7919865936
C -5.6470590906 0.8682254600 1.5429330833
C -4.6422191292 -0.1507679842 0.9964078589
C -4.1624469084 0.1323283798 -0.4278673653
C -3.0555269961 -0.8190872597 -0.8813167144
C -2.5718309975 -0.5333909216 -2.3033991042
C -1.5452816152 -1.5385203923 -2.8321436311
C -0.2365481705 -1.5751198891 -2.0413017751
C 0.8165994272 -2.4710182489 -2.6953363945
C 2.0890624580 -2.6568410255 -1.8642847082
C 2.8687029411 -1.3658628077 -1.6131219983
C 4.1887498895 -1.6016173048 -0.8802024497
C 4.9638859454 -0.3137646160 -0.6073017742
C 6.2813477861 -0.5484080861 0.1297440408
C 7.0582885476 0.7393237378 0.4009944040
C 8.3650208075 0.5008405336 1.1570562096
C 9.1841580816 1.7679812586 1.3733504306
O 8.5304731745 2.7271841913 2.2105650417
H -9.1908095805 3.6598158122 3.1584807775
H -10.4271550665 2.5561220773 2.5442130102
H -9.8816453195 2.4269276031 4.2228171999
H -8.8372468592 0.6209226661 2.8235672712
H -7.6179934725 1.7149394447 3.4579990490
H -7.5328382475 2.9240815488 1.2865525923
H -8.8549636477 1.9469073567 0.6692326188
H -6.7961016669 1.1146117454 -0.2665536512
H -7.4321497671 -0.1067014657 0.8250352570
H -5.8296479895 0.6424719190 2.6003324718
H -5.1976076421 1.8715323320 1.5150596617
H -3.7684756043 -0.1768819774 1.6612863175
H -5.0860518118 -1.1556313517 1.0360777993
H -5.0022399649 0.0605895515 -1.1306512028
H -3.7983304889 1.1682328235 -0.4880206776
H -3.4184572799 -1.8555048616 -0.8225944305
H -2.2151388771 -0.7476839056 -0.1789082134
H -3.4395659586 -0.5229320251 -2.9765045806
H -2.1422831572 0.4776734143 -2.3419082041
H -1.9909349764 -2.5432464396 -2.8408770854
H -1.3167899156 -1.2964883985 -3.8788833275
H 0.1483951244 -0.5512340564 -1.9440722430
H -0.4236642816 -1.9337707984 -1.0204038884
H 0.3703206992 -3.4561536927 -2.8870396166
H 1.0809886872 -2.0587566389 -3.6793339694
H 1.8282539454 -3.1143755851 -0.8994976084
H 2.7463573041 -3.3733018083 -2.3750747901
H 3.0680460538 -0.8692985953 -2.5737297561
H 2.2569217706 -0.6676392062 -1.0275630788
H 3.9884039299 -2.1136715491 0.0714299590
H 4.8155146616 -2.2861166763 -1.4688619353
H 4.3357020683 0.3701221052 -0.0194256977
H 5.1651672237 0.1979244693 -1.5589625595
H 6.9097613050 -1.2341995164 -0.4553562687
H 6.0799067439 -1.0563003793 1.0829909242
H 7.2741771730 1.2418622101 -0.5533891404
H 8.9831858394 -0.2146655765 0.5966977031
H 8.1518482793 0.0451084465 2.1323197123
H 9.4461458074 2.2176285553 0.4012456795
H 10.1203642243 1.5267980427 1.8869687497
H 7.7574911379 3.0537701302 1.7387576660
H 6.4144834844 1.4195000423 0.9765954956
