48
CONF18
Cl -3.9448887520 -1.4588936639 3.8399417346
C -3.9161644054 -0.5282974015 2.3398513959
C -4.9321584460 0.3810049037 2.0951937477
C -4.8630869560 1.1081510426 0.9059562063
C -3.8263159961 0.9272058209 0.0052717448
C -2.7989331225 0.0001624592 0.2669639113
C -2.8566179811 -0.7321403776 1.4653472183
N -1.7711274510 -0.1924468144 -0.6685891318
C -1.0852453353 1.0355472153 -1.1100668524
C -0.1457588477 0.7545947656 -2.2688896793
N 0.8344717613 -0.2607436534 -1.8908418074
C 1.8275879062 -0.4633195268 -2.9508912962
C 3.0941725980 -1.1783956671 -2.4793279641
C 3.9674458299 -0.3598650004 -1.5249432696
N 3.3264064533 -0.0926806865 -0.2500574279
N 3.0427369112 -1.1363566812 0.6041501960
C 2.2472857279 -0.6043686540 1.5078525791
C 1.6204346070 -1.1806940317 2.6395571675
C 0.7836251497 -0.4025426377 3.3890149006
C 0.5470428583 0.9688628112 3.0607071072
C 1.1667457008 1.5274473649 1.9889505706
N 2.0078460695 0.7445544887 1.2431646246
C 2.6828076462 1.0796454901 0.0530377440
O 2.6823025059 2.1626684187 -0.5194820948
C 0.1211027877 -1.4904384592 -1.5549469404
C -0.8159386943 -1.2616843412 -0.3790292277
H -5.7464563685 0.5152766715 2.7962751974
H -5.6491583039 1.8203238473 0.6749972266
H -3.8276401520 1.4849459036 -0.9238423602
H -2.0817849304 -1.4362982283 1.7354733552
H -1.8213149135 1.7783509320 -1.4221650941
H -0.5043317311 1.4619478387 -0.2731916705
H -0.7353484038 0.4443800956 -3.1562101641
H 0.3814970338 1.6830756227 -2.5159139039
H 1.3913435740 -1.0219888744 -3.8033184396
H 2.1093658362 0.5269272764 -3.3319350439
H 3.7048666517 -1.4008097051 -3.3624455503
H 2.8575660083 -2.1424922731 -2.0167870724
H 4.2050308783 0.6166061282 -1.9591568558
H 4.9060482125 -0.8886971781 -1.3272828423
H 1.8064428988 -2.2235962658 2.8672175992
H 0.2797872709 -0.8297439540 4.2492739907
H -0.1251891935 1.5687519997 3.6607589067
H 1.0589554373 2.5547365216 1.6605311632
H 0.8372226318 -2.2664607624 -1.2660040601
H -0.4591625986 -1.8666417398 -2.4227711219
H -0.2141618858 -1.0333555313 0.5182546091
H -1.3693558696 -2.1877758243 -0.1896525231
