44
CONF14
C 3.3055699246 -0.6126660250 -1.2957151828
C 2.5272195102 0.6429279050 -1.4939761026
N 1.6308312105 0.9571240734 -0.5552732578
C 0.9289082578 2.0862340514 -0.7564521680
N 1.0984262677 2.9022323687 -1.7994616031
C 2.0394278555 2.5016691548 -2.6583263525
N 2.7768653158 1.3881182689 -2.5767024885
O 2.2115510646 3.3290442275 -3.6849896637
C 3.2086889361 2.9764573090 -4.6770268385
N -0.0507314750 2.4536824619 0.1568602405
C -0.7591702512 3.7233361793 -0.0926258104
C -0.5285376232 1.6760673166 1.2421828860
O -1.5266419328 2.0064744181 1.8624300633
N 0.2127429598 0.5571892577 1.5502181108
S -0.3512484935 -0.6087313950 2.6445982557
O 0.6069675313 -1.7135118429 2.4952148434
O -0.5442782906 0.0173757086 3.9545065286
C -1.9550226766 -1.1560059053 2.0420592323
C -3.0847952170 -0.7106752647 2.7178128920
C -4.3349858732 -1.1979906315 2.3492017364
C -4.4421206457 -2.1389467866 1.3309638246
C -3.3039130742 -2.5925389719 0.6706002511
C -2.0448124745 -2.0959266048 1.0077533303
C -0.8687688681 -2.5240932514 0.1878018183
O -0.1805956324 -1.7594227488 -0.4565102295
O -0.7265324302 -3.8525709363 0.2020047168
C 0.3581406618 -4.3700077030 -0.6158462462
H 4.0602038911 -0.4463662354 -0.5179562022
H 2.6451177404 -1.4098969661 -0.9450443897
H 3.8081160670 -0.9062396124 -2.2171621869
H 3.1699000372 3.7848132317 -5.4058853438
H 2.9569337013 2.0224646117 -5.1450039908
H 4.1974935829 2.9188818595 -4.2172038495
H -0.0298246123 4.5217231414 -0.2320814288
H -1.3846179416 3.9335327706 0.7706976753
H -1.3807951424 3.6451254894 -0.9883891642
H 0.9248683130 0.2681820458 0.8433141021
H -2.9812846805 0.0003153669 3.5282279003
H -5.2201551616 -0.8478309038 2.8689313864
H -5.4146203209 -2.5287949518 1.0495765147
H -3.3872946674 -3.3268704908 -0.1234558477
H 1.3086931733 -3.9545038524 -0.2737351392
H 0.3328033530 -5.4490543845 -0.4741187463
H 0.1912780452 -4.1103251767 -1.6635368802
