51
CONF29
O 3.3952423489 1.0824896939 1.4591705410
C 2.7804218847 0.2102877240 0.5013747785
C 2.3896233258 0.9630359135 -0.7749538431
C 1.4898569988 2.1821485524 -0.5422826490
C 0.2152237762 1.8327763600 0.2067919881
C -0.8073965739 0.8787717219 -0.5016674076
N -1.8036174441 1.9698622354 -0.3496831983
C -0.9135883346 2.8642456529 0.2045233678
O -1.0289117246 4.0306864622 0.5308017361
C -3.1395798621 2.0355697424 -0.7457236318
C -3.6877971913 0.9829357981 -1.4879383156
C -5.0200920190 1.0274434104 -1.8833260694
C -5.7792379125 2.1297528274 -1.5320065093
F -7.0817346634 2.1768016975 -1.9183968109
C -5.2625029931 3.1865508790 -0.8005524227
C -3.9328846966 3.1384127706 -0.3998910133
C -1.1374297582 -0.4173809716 0.1728579995
C -1.7266314502 -0.4457772502 1.4394052303
C -1.9840894921 -1.6509460735 2.0800482908
C -1.6461128446 -2.8541720107 1.4544031877
O -1.8744861698 -4.0693435519 2.0327447757
C -1.0587206619 -2.8431175925 0.1891357232
C -0.8146787387 -1.6290479491 -0.4414997999
C 3.6408114312 -0.9917009515 0.1668893035
C 3.0427581010 -2.2413062131 -0.0077067886
C 3.7950182259 -3.3564581027 -0.3676146158
C 5.1582463988 -3.1928508774 -0.5416914027
F 5.9068618577 -4.2748455676 -0.8850248176
C 5.7928734466 -1.9736989815 -0.3733668934
C 5.0193985773 -0.8715314229 -0.0191642903
H 4.0205407703 1.6533510160 0.9937512748
H 1.8739140621 -0.1608768759 0.9951677325
H 3.3090617757 1.2784191132 -1.2875059479
H 1.8900752411 0.2514440772 -1.4444457368
H 2.0295425446 2.9504778499 0.0221396816
H 1.2319951353 2.6199873388 -1.5144663868
H 0.4246985236 1.4998250764 1.2293273673
H -0.5546315186 0.7134855361 -1.5562816616
H -3.0773721157 0.1274843884 -1.7550171811
H -5.4612827868 0.2200038906 -2.4572636111
H -5.8923304288 4.0317234180 -0.5451391670
H -3.5081900336 3.9504825839 0.1769510336
H -1.9948582032 0.4849109523 1.9326880033
H -2.4472038235 -1.6635773325 3.0632543584
H -2.2878831048 -3.9425205365 2.8973023971
H -0.8051620404 -3.7832998195 -0.2900447076
H -0.3626227460 -1.6243920206 -1.4301731248
H 1.9713645742 -2.3490700020 0.1424817695
H 3.3401831465 -4.3321703966 -0.5002469132
H 6.8652440890 -1.8936758432 -0.5153175236
H 5.5080728697 0.0883933748 0.1188880158
