29
CONF113
C 2.4306240220 -1.9966880133 -0.7913812857
C 2.7181042736 -0.7098991577 -0.0719744191
C 1.7605944812 0.1229624063 0.3567447230
C 0.2723666164 -0.0745832116 0.2012364913
C -0.5163851734 1.0792162851 0.8191676657
C -2.0355599676 1.0072629225 0.6099283263
C -2.6449544626 -0.2347503840 1.2506244602
C -2.3629876498 1.1633095265 -0.8554493900
C -3.0546987957 0.3187089246 -1.6169298105
O -2.5386353716 2.1920069167 1.2928821976
C 4.1763117396 -0.4105469978 0.1362901175
H 2.8628846387 -2.8442928388 -0.2443747138
H 2.9044015551 -1.9932081819 -1.7813682807
H 1.3623238251 -2.1794785679 -0.9217392049
H 2.0712293199 1.0352476595 0.8677628053
H -0.0309080106 -1.0209463369 0.6672124660
H 0.0076163490 -0.1639997460 -0.8614917801
H -0.1650941588 2.0289093684 0.3953386050
H -0.3296566260 1.1208381867 1.9000358388
H -2.3566240965 -0.2767425020 2.3049429632
H -2.3052779329 -1.1517268902 0.7618057381
H -3.7374269052 -0.2011539088 1.1872606617
H -1.9839493500 2.0900559788 -1.2886875543
H -3.4493245029 -0.6174056126 -1.2326672721
H -3.2448091906 0.5403767694 -2.6629810105
H -3.4956019903 2.2117241211 1.1565647498
H 4.3245487981 0.5359387423 0.6630112288
H 4.7029880526 -0.3609829074 -0.8254055313
H 4.6578990262 -1.2101525668 0.7137435495
