78
CONF437
C -0.8382699097 -0.6991760908 -0.3769206694
C 0.0696096691 -1.8564013179 -0.7657682559
O -0.7599685418 -3.0436112766 -0.5079308670
C -1.7334672089 -2.7541779080 0.3941369085
O -2.4874040235 -3.6078036530 0.8014379461
C -1.6255414369 -1.2989284467 0.7777853679
C -2.8855886305 -0.4882193044 1.0904623701
C -3.9829844028 -0.6356796415 0.0422784079
C -4.0433196796 0.2161811064 -1.0626329696
C -5.0391126710 0.0344943011 -2.0193861013
O -5.2038968391 0.7971188213 -3.1435049817
C -4.2603760360 1.8532527012 -3.3683034413
C -5.9883826965 -0.9840778294 -1.8823300487
O -6.9768304101 -1.1668379242 -2.8083329310
C -5.9347352558 -1.8252649737 -0.7648602275
O -6.9082913784 -2.7800331139 -0.7079641105
C -6.8896932461 -3.6640739438 0.4201902073
C -4.9342102875 -1.6467236497 0.1925809385
C -2.4665136535 0.9664258523 1.2618532536
C -3.3750334330 1.8111646185 1.9342842219
C -3.0546942177 3.1404862213 2.0480271167
C -1.8783843735 3.6588760294 1.5149405616
O -1.8091490635 5.0060277589 1.7522340486
C -2.9935959142 5.3434684169 2.5074966126
O -3.7773727924 4.1363048123 2.6458382040
C -0.9796163519 2.8639429849 0.8516787961
C -1.2812350598 1.4885373776 0.7258045648
C -0.2348364334 0.6261320428 0.0430415379
O 0.8492496052 0.3943424960 0.9915030281
C 2.0887389071 0.8722346416 0.5888674352
O 2.5876077933 0.0067448450 -0.4447803396
C 3.8607720745 0.4491750748 -0.9077455743
C 4.3233122924 -0.4271698396 -2.0568619030
O 5.6479653262 -0.0000521675 -2.4314232227
C 6.5853010196 -0.0385333151 -1.3623816011
O 6.1647497141 0.7247622478 -0.2401581881
C 4.8683921018 0.3200132296 0.2288454708
C 4.4509088475 1.2127962830 1.3781765781
O 5.2680748895 1.0434897546 2.5380048107
C 3.0250306677 0.8498857011 1.7968822010
O 2.5234101214 1.7837642351 2.7470060683
C 6.9444552880 -1.4490338930 -0.9660112702
C 7.3496265714 -1.9137101632 0.2567338023
C 7.7176620765 -3.2868965190 0.2387165611
C 7.6006638073 -3.8529043339 -1.0008416933
S 7.0315167691 -2.7056873348 -2.1688458321
H -1.5287826480 -0.5021126539 -1.2069177212
H 0.9573749786 -1.9232629508 -0.1328788378
H 0.3497347990 -1.8820155135 -1.8193692202
H -0.9860087301 -1.2926960593 1.6764100293
H -3.2958291528 -0.8399790749 2.0439535444
H -3.3329972564 1.0279323021 -1.1596626081
H -3.2431420932 1.4540656438 -3.4538971696
H -4.3024386873 2.5918638767 -2.5596319383
H -4.5557433133 2.3184782244 -4.3088225047
H -6.8587496551 -0.4978647703 -3.4994802277
H -7.7313070345 -4.3422164108 0.2764030742
H -5.9555793965 -4.2371174363 0.4558011904
H -7.0183621765 -3.1094307433 1.3570625711
H -4.8815190536 -2.2956645394 1.0569247312
H -4.3010087186 1.4155441557 2.3392987407
H -3.5747855151 6.0891728349 1.9558798739
H -2.7004181077 5.6994321886 3.5012070212
H -0.0674065979 3.2746628652 0.4317304777
H 0.1724429430 1.1576507256 -0.8249409409
H 2.0177461774 1.8995872127 0.1865240687
H 3.8098849273 1.4991593636 -1.2402045949
H 3.6994832646 -0.3029990136 -2.9448212469
H 4.3174135396 -1.4829536764 -1.7497978062
H 7.4656562205 0.4859754171 -1.7491919615
H 4.8944395117 -0.7276844615 0.5647363269
H 4.4687064129 2.2628751724 1.0457045813
H 6.1179459622 1.4695253047 2.3688441699
H 3.0248826294 -0.1722742708 2.2093727620
H 3.1892249136 1.8594250014 3.4445716364
H 7.3788482182 -1.2870296511 1.1405492472
H 8.0530042926 -3.8339934318 1.1121640765
H 7.8027459999 -4.8732085520 -1.2993442419
