27
CONF13
C -3.1572756691 -0.7147585222 0.1386886711
C -3.6529421750 0.7313030681 0.0381690129
O -5.0446679326 0.7618013893 -0.2680895637
C -1.7754638293 -0.8872903197 0.7332929366
C -0.6328098005 -0.1705704817 -0.0521156767
C 0.8148136534 -0.6643993821 0.2844682042
C 1.9341712210 0.3389059432 -0.1680659952
C 3.3521376953 -0.3206707746 -0.2607047871
C 4.5325490925 0.7051761979 -0.2789136839
F 4.6916424020 1.2777413903 0.9183537561
F 4.3118826363 1.6570532230 -1.1970434342
F 5.6608911750 0.0541875845 -0.5936096375
F 3.4237981912 -1.0451431003 -1.3974625645
F 3.5421042884 -1.1380102298 0.8009596480
F 1.6198637519 0.8328860329 -1.3881973906
F 1.9890533902 1.3595692544 0.7175937438
F 0.9207681833 -0.8421395985 1.6190718043
F 1.0236544812 -1.8466256406 -0.3400820171
F -0.8482172425 -0.3617156665 -1.3799823551
F -0.7072611661 1.1619400452 0.2067804800
F -1.4660159874 -2.2222958333 0.7738527599
F -1.7528910305 -0.4218695819 2.0168216057
H -3.8307058663 -1.2718199835 0.7992910000
H -3.1681868645 -1.2005757133 -0.8420383498
H -3.5461614888 1.2322211284 1.0043077490
H -3.0730858555 1.2985752026 -0.7016091621
H -5.1616456450 0.4859007604 -1.1837366640
