46
CONF1618
C 2.6485902748 -0.2352871163 3.3596017704
C 3.2602464242 -0.7212897111 2.0632906167
O 2.3992203057 -1.6956139255 1.4793663186
C 2.8859750442 -2.1479074330 0.2166514876
C 1.9871110499 -3.2367631659 -0.3267448124
O 0.7061026548 -2.7631183497 -0.7518360333
C -0.2940402418 -2.8015247068 0.2678385336
C -1.5893157977 -2.3056836765 -0.3167254387
O -1.4253446430 -0.9070107291 -0.5972618815
C -2.4844626167 -0.2337200638 -1.1256671834
C -3.7298611944 -0.7857610171 -1.4052989764
C -4.7492096630 0.0148823118 -1.9336141161
C -4.5233954481 1.3603250609 -2.1800084800
C -3.2724857934 1.9252280131 -1.9063403978
C -2.2510336484 1.1374885013 -1.3881160249
O -0.9934097668 1.5722623468 -1.0992071285
C -0.7323928805 2.9829509299 -1.1568095419
C 0.6825817339 3.2113045199 -0.6706926033
O 0.8513212282 3.0665394633 0.7380138605
C 0.8762965577 1.7157680306 1.2099639215
C 1.5108549977 1.7444619673 2.5922677680
O 1.4055469085 0.4534257048 3.2019790323
H 3.3807423732 0.4052682679 3.8741856866
H 2.4290424647 -1.0944712014 4.0023092875
H 3.4239946545 0.1146735820 1.3639106674
H 4.2453379066 -1.1647193970 2.2865585030
H 3.9042387975 -2.5589396858 0.3260528471
H 2.9318008029 -1.3072299475 -0.4948265451
H 2.4725483687 -3.6578338591 -1.2147783445
H 1.8719293766 -4.0409722333 0.4150363095
H -0.0050973010 -2.1793768046 1.1253636073
H -0.4427746352 -3.8347562789 0.6191495489
H -1.8310917687 -2.8480357767 -1.2408127423
H -2.3982983260 -2.4554355992 0.4110466439
H -3.9198761135 -1.8344957010 -1.2107681883
H -5.7165779978 -0.4290530877 -2.1449485484
H -5.3113300924 1.9859595242 -2.5864877442
H -3.1027561373 2.9765646083 -2.1066612216
H -0.8221298101 3.3435521588 -2.1917114530
H -1.4500580494 3.5242411565 -0.5252224096
H 1.3719658582 2.5435510981 -1.2100780629
H 0.9523546439 4.2475631584 -0.9004392812
H -0.1378085797 1.3003552271 1.2799700205
H 1.4576957011 1.0796284612 0.5252845293
H 2.5574174538 2.0700646992 2.5280117905
H 0.9698366381 2.4629416710 3.2221477031
