25
CONF1
C -1.7944869726 0.6598017962 0.6292698588
C -3.1841551217 0.1384015724 0.2881031909
S -2.8804542220 -1.3870760097 -0.7002151498
C -1.2869358724 -1.5849882251 0.0630262962
N -0.4915073259 -2.6010780986 -0.0914807305
C -0.8758766668 -3.6420184194 -0.8067651875
N -1.1248630079 -4.5973614674 -1.4273347158
N -0.9666345570 -0.5237713692 0.8485439919
C 0.3903626003 -0.3577818097 1.3819496809
C 1.2730918538 0.4457470855 0.4608753112
C 1.5869664334 1.7705473922 0.7464586126
N 2.3314197565 2.5495435157 -0.0471961681
C 2.7847316430 2.0125153259 -1.1591055049
C 2.5487023775 0.6972231028 -1.5620476757
C 1.7754007918 -0.0930638040 -0.7288291291
Cl 3.7582455101 3.0422747071 -2.1993719429
H -1.3864539157 1.2674376656 -0.1928920094
H -1.8106506756 1.2710011297 1.5385843842
H -3.7565034418 0.8512704172 -0.3074552581
H -3.7476962481 -0.1305385113 1.1856404922
H 0.7991122972 -1.3582330461 1.5432205991
H 0.3086312361 0.1425016828 2.3536387769
H 1.2275036337 2.2348914196 1.6651358005
H 2.9607257290 0.3169343225 -2.4886082941
H 1.5613239691 -1.1241799726 -0.9931451238
