24
CONF38
O 4.1563398155 0.2549665757 1.1322727973
S 3.7890813313 0.6640374695 -0.3874909566
O 4.5236993309 1.8896173229 -0.6576647601
O 3.8291994851 -0.4994253370 -1.2654100693
C 1.9596865792 1.2244854496 -0.2001697116
F 1.8624733101 1.9282829418 0.9396473464
F 1.7151399285 2.0248719220 -1.2475872108
C 0.9551614361 0.0310386490 -0.1902183378
F 0.8649442196 -0.4578664516 -1.4443344473
F 1.4430507650 -0.9285827403 0.6315998651
C -0.4786948333 0.4351376132 0.3104441377
F -0.7911269951 1.6444435470 -0.2060668320
F -0.4520989405 0.5229522240 1.6584118500
C -1.5864745992 -0.5923197481 -0.1141162653
F -1.1004645397 -1.8451790771 0.0381146971
F -1.8830566026 -0.3892481507 -1.4169789212
C -2.9010224522 -0.4664395110 0.7294158345
F -2.7050571711 -1.0466437520 1.9319996411
F -3.1948629230 0.8418485005 0.9098911391
C -4.1449998919 -1.1467655955 0.0674509872
F -5.1391302032 -1.1936495183 0.9633947302
F -3.8436111529 -2.3964673209 -0.3123547262
F -4.5601174292 -0.4513117291 -0.9959446477
H 4.0044379274 -0.6997076752 1.2750792430
