44
CONF107
C 4.0968408211 -1.4963323600 -2.1687695756
C 3.3123941841 -0.4977149358 -1.3233206726
C 4.1292775922 0.0782191292 -0.1057386900
N 3.1695518872 0.3630399015 0.9422092484
C 2.0291775573 -0.5582140702 1.0879492094
S 1.8482938004 -1.3876805278 -0.5418408509
C 1.1325366240 0.6808182695 1.4402530826
C 2.3873752902 1.5090718885 1.0543016148
O 2.6372584901 2.6758526525 0.8684211363
N -0.0398502371 0.9170454012 0.6695400694
C -1.2599141046 1.1413555308 1.2149275949
O -1.4705222224 1.2082693215 2.4252511287
C -2.3908598525 1.3515738838 0.1934150445
C -3.6362078638 0.6032640485 0.6225902157
C -3.5868608715 -0.7728035350 0.8635876880
C -4.7319225170 -1.4859711695 1.1954871251
C -5.9561646906 -0.8186406416 1.2931287109
C -6.0238499606 0.5541262521 1.0582673815
C -4.8669027823 1.2520248837 0.7263387054
O -7.1173113457 -1.4619488700 1.6184299217
N -1.9504765498 1.0490291863 -1.1812107063
C 5.2398469937 -0.8536424009 0.3524602690
O 4.8089507349 -1.7759215977 1.2262237958
O 6.3782093195 -0.7791471772 -0.0550605937
C 2.8133732660 0.6577323503 -2.1919957900
H 3.4700775515 -1.8601622230 -2.9875477182
H 4.4329633541 -2.3570361090 -1.5846911756
H 4.9691461867 -0.9993989117 -2.6060483904
H 4.6087759945 1.0114597333 -0.4154321309
H 2.1333415389 -1.3058038930 1.8760204880
H 0.0002695628 0.8904141963 -0.3441340588
H -2.6033843571 2.4279014125 0.2412336445
H -2.6382121611 -1.3010413043 0.7949934974
H -4.6803293942 -2.5552025335 1.3844298829
H -6.9790702706 1.0631038169 1.1396916369
H -4.9262591400 2.3220873056 0.5453874392
H -6.9374818150 -2.4019647936 1.7550239342
H -2.0527394581 0.0522357525 -1.3540124560
H -2.5764660310 1.5082748548 -1.8344301335
H 2.1542295932 0.2752651601 -2.9756676862
H 2.2567851729 1.3983603077 -1.6116808395
H 3.6678165205 1.1550788160 -2.6649819016
H 0.8843952987 0.7371969471 2.5043441654
H 5.5547975021 -2.3549606716 1.4640898264
