34
CONF1
C 4.2188269754 -0.7691678124 0.2692970134
C 2.9415932345 -0.8579598313 -0.5213531536
O 2.8777811411 -0.9417789614 -1.7257352975
O 1.8694717862 -0.8111943870 0.3076312322
C 0.5497113600 -0.8552284984 -0.2979470057
C -0.4175736804 -1.6486567110 0.6127109634
C -1.5679227470 -0.6500820215 0.8510938097
C -1.0444692219 0.4061966827 1.8428145064
C -0.0162860990 1.2002714657 0.9871669714
C -0.0999414956 0.5435166047 -0.4122036784
C -1.6133612022 0.1367809694 -0.4895672792
C -1.9845019515 -0.7251993465 -1.7014381985
C -2.5702661935 1.3316706656 -0.4768261613
C 0.4562236772 1.3987811881 -1.5322054008
H 4.4001472381 0.2802096441 0.5246831044
H 4.1468625208 -1.3310836874 1.2024032859
H 5.0467942801 -1.1295835672 -0.3404220083
H 0.6679247529 -1.3035042969 -1.2861795424
H 0.0757654510 -1.9335457758 1.5461030022
H -0.7545191485 -2.5676531304 0.1254704016
H -2.5109103155 -1.1184905386 1.1488243354
H -1.8516331063 1.0488958804 2.2060827485
H -0.5862839721 -0.0617822011 2.7191743341
H 0.9985321985 1.1433040835 1.3873143935
H -0.2737851500 2.2614619365 0.9190761766
H -3.0392862526 -1.0149800568 -1.6395408786
H -1.8567660395 -0.1560133788 -2.6283674907
H -1.3982816290 -1.6407888402 -1.7919721140
H -3.5976302067 0.9842759703 -0.3200418633
H -2.5441805087 1.8496066224 -1.4414027477
H -2.3440317272 2.0642224189 0.2990380918
H 1.5129953209 1.6269144523 -1.3577457569
H -0.0824289473 2.3502788768 -1.5973678102
H 0.3914300865 0.8903057612 -2.4992222981
