32
CONF9
C 1.4130432521 0.6963745415 -2.6440150366
C 1.9134192496 1.6605983219 -1.6093407764
O 1.7193310466 2.8654809468 -1.6900404620
C 2.6510176641 1.0749808530 -0.4218503087
C 1.7657633443 1.1549577450 0.8455321829
C 0.4757956565 0.3904042304 0.6837317775
C -0.7002437197 1.0636915132 0.3486259143
C -1.8808103371 0.3518619367 0.1142272661
C -1.8843061673 -1.0429426055 0.2193776739
C -0.7012637445 -1.7109904360 0.5601857169
C 0.4764076034 -1.0025710651 0.7908554132
O -0.8401119921 -3.0695505890 0.6374237123
C 0.3239358339 -3.8363044470 0.9744088530
O -3.0479788165 -1.7261419653 -0.0059950133
O -3.0789810238 0.9136824523 -0.2183444500
C -3.1164000830 2.3403515201 -0.3525629550
H 0.8106625195 -0.0764686928 -2.1499138209
H 0.8293802087 1.2045309018 -3.4129810008
H 2.2677320562 0.1783303772 -3.0960411775
H 2.9267806117 0.0336828372 -0.6136848276
H 3.5624629113 1.6606298058 -0.2588600525
H 2.3421681169 0.7534953227 1.6855425791
H 1.5518956845 2.2070339984 1.0583378196
H -0.6861167645 2.1437464261 0.2658637743
H 1.3934616482 -1.5206193359 1.0471672019
H 0.6998582859 -3.5578457306 1.9653348644
H 1.1116980321 -3.6977084226 0.2252125872
H 0.0002518406 -4.8771698864 0.9815414386
H -2.8599660249 -2.6696940378 0.1088555269
H -4.1447941991 2.5833920774 -0.6213647314
H -2.4379285038 2.6789050206 -1.1444973834
H -2.8561635867 2.8318758833 0.5921115805
