60
CONF16
C -2.6853163701 3.2964724330 -0.3857915526
Si -1.4904740234 1.8846554460 -0.1624930439
C -1.0409096127 1.6116581880 1.6254242283
O -0.1422262585 2.1755572293 -1.0650245667
Si 1.3554341793 2.8512956187 -0.9335277508
C 1.1877222740 4.6575964963 -0.5099500877
C 2.2219334041 2.5689593089 -2.5570504380
O 2.1764700057 2.1448276129 0.3073823673
Si 3.0675708408 0.8401198954 0.7732504637
C 4.3711563823 0.4464438162 -0.5017735873
C 3.8019462533 1.2523065911 2.4315467267
O 2.0677335115 -0.4514856574 0.9857245948
Si 1.4366312607 -1.7702371369 0.2248547661
C 2.6840174713 -3.1531561116 0.2533924293
C 0.9053952938 -1.3353553289 -1.5075191998
O 0.1413958461 -2.2044585166 1.1457847405
Si -1.3738786512 -2.8474950727 1.0849790724
C -1.4550482639 -4.1889587925 -0.2082193782
C -1.7676092433 -3.4900269048 2.7853994673
O -2.4558969553 -1.6481531899 0.7591536953
Si -3.1515350087 -0.7284663333 -0.4177736423
C -4.7379124254 -0.0553795197 0.2891788676
C -3.4169594387 -1.7155464539 -1.9738403698
O -2.1438530786 0.5157480872 -0.8089018046
H -2.2519291734 4.2346693743 -0.0214544318
H -2.9370762740 3.4249735111 -1.4443697435
H -3.6136701217 3.1140083349 0.1666488223
H -1.9342854571 1.3956657757 2.2224574925
H -0.5585395297 2.5020776250 2.0445368677
H -0.3463959905 0.7702858180 1.7223464234
H 0.5946758846 5.1827110621 -1.2665164254
H 2.1698018403 5.1392402387 -0.4505805552
H 0.6899930063 4.7815021239 0.4587509237
H 2.2432612988 1.5033082597 -2.8090860074
H 1.6998683358 3.0975940522 -3.3623199413
H 3.2540169716 2.9335551711 -2.5223189376
H 3.9280816571 0.1588683503 -1.4608192343
H 5.0032612953 -0.3798498075 -0.1575753741
H 5.0143144643 1.3164186063 -0.6746403712
H 4.3895935438 0.4130851120 2.8186485153
H 4.4585376614 2.1262362008 2.3627816705
H 3.0102419850 1.4770982491 3.1550599390
H 2.9854084924 -3.3807147575 1.2819037162
H 3.5816492045 -2.8832794678 -0.3140434500
H 2.2637106616 -4.0633272784 -0.1890737895
H 1.7559442162 -0.9667092753 -2.0918439046
H 0.5012392070 -2.2121225544 -2.0253867606
H 0.1364402332 -0.5559269356 -1.4929065120
H -2.4626459393 -4.6160145704 -0.2586444312
H -1.1966767415 -3.8148229007 -1.2037442961
H -0.7566445991 -4.9951433327 0.0437994949
H -2.7776931382 -3.9122020573 2.8189917668
H -1.7107629454 -2.6831607017 3.5244792419
H -1.0607560677 -4.2730232495 3.0800026369
H -5.2327800789 0.6109765226 -0.4256027990
H -5.4311059429 -0.8669368782 0.5361949242
H -4.5428520836 0.5132434818 1.2056427781
H -4.0114153480 -2.6140871295 -1.7777630651
H -2.4617114832 -2.0248394392 -2.4114031865
H -3.9488862105 -1.1102782384 -2.7163573969
