47
CONF50
C -3.9889201019 -1.8023092448 -0.0905493586
C -2.9025095809 -1.9269594806 -1.1660684048
C -2.8836791720 -3.3685744089 -1.6881910183
C -1.4758768064 -1.5222216974 -0.7257408885
C -1.0337685397 -2.0441853357 0.6713981374
C -0.7638098243 -0.7933751546 1.5137140170
C -0.2185447584 0.2042145833 0.4881607071
C -0.0838730109 1.6477779749 0.9890636526
C 0.9404721604 1.7561882939 2.0879673585
C 0.5595422001 1.8165435882 3.4303589257
C 1.5060776443 1.8755037637 4.4505937029
C 2.8520897634 1.8745707578 4.1105771502
Cl 4.0637994186 1.9544986446 5.3917408576
C 3.2700563661 1.8178318358 2.7863995387
C 2.3057442746 1.7582875563 1.7852911772
C -1.1696677741 0.0151521730 -0.7222098767
O -2.3384945096 0.8404317609 -0.6086364811
C -0.4966845947 0.4891456078 -2.0136508777
N -1.3107926773 0.2499807045 -3.2005528439
C -2.3401650258 0.9782728666 -3.6723811272
N -2.8822745768 0.3813382665 -4.7297772642
C -2.1230139913 -0.7424505763 -4.8579336241
N -1.1578766708 -0.8670120368 -3.9551660450
H -3.8326845285 -2.5210755359 0.7205795592
H -4.0519913656 -0.8055524612 0.3515746347
H -2.1952735813 -3.4752110482 -2.5330079607
H -2.5637193815 -4.0607230662 -0.8995361599
H -3.8817278127 -3.6769843335 -2.0178525152
H -0.8043412169 -1.9556594783 -1.4751251044
H -1.7729377144 -2.7056283612 1.1292438672
H -0.1070836295 -2.6195772720 0.5738884622
H -0.0671470083 -0.9706409406 2.3380375509
H -1.6944674215 -0.4052383918 1.9537164359
H 0.7740612589 -0.1511027996 0.1733416817
H 0.2067080774 2.3019928264 0.1586824419
H -0.4956070691 1.8169743592 3.6894570350
H 1.1985243974 1.9235206601 5.4892874735
H 4.3259898242 1.8239577630 2.5399242922
H 2.6249779268 1.7152946233 0.7472112702
H 0.4512895155 -0.0332090918 -2.1572346116
H -0.3071638969 1.5651275560 -1.9563091038
H -2.6457789866 1.9152653720 -3.2272366780
H -2.2741690733 -1.4812787116 -5.6351923944
H -4.9658449494 -2.0233688229 -0.5335458707
H -3.1840506495 -1.2710326408 -2.0002041320
H -1.0534616439 1.9977668780 1.3572751842
H -2.7264971884 0.7135491479 0.2655616729
