30
CONF2
O -4.3041854039 1.0618184324 -1.9030836410
C -3.1382793238 1.1048799061 -1.5764887163
O -2.1278363571 0.7581561062 -2.4071310058
C -2.6233379760 1.4943970308 -0.2106131575
C -2.2362007291 0.2599382816 0.5757610363
C -0.9373709404 -0.2809730713 0.5082002084
N 0.0228090666 0.3374350387 -0.3191534857
C 1.3794040183 0.0263830771 -0.2479415225
C 2.0787074081 -0.5196414201 -1.3397872058
Cl 1.1904910283 -0.8783833192 -2.8132542436
C 3.4395251911 -0.7881265770 -1.3034727398
C 4.1490240695 -0.5355633358 -0.1352743603
C 3.5049644156 0.0079900228 0.9709387334
C 2.1504477372 0.2994063146 0.8977138662
Cl 1.3908295500 1.0765330448 2.2731994047
C -0.6226685995 -1.4131310170 1.2681565734
C -1.5777072909 -2.0041181560 2.0854993185
C -2.8686822540 -1.4844840258 2.1469211823
C -3.1851500604 -0.3620575631 1.3883780377
H -1.7623728320 2.1614527453 -0.3241179132
H -3.4259076459 2.0248529444 0.3032748301
H 3.9307344640 -1.2063707086 -2.1742831943
H 4.0532798315 0.2301271527 1.8790085919
H 0.3759614462 -1.8345429785 1.2097878203
H -1.3119918904 -2.8818729403 2.6664430800
H -3.6192750602 -1.9431800248 2.7819103315
H -4.1852055236 0.0602783010 1.4359040702
H -2.5009169510 0.4551327051 -3.2529690153
H 5.2101328894 -0.7538664940 -0.0893531555
H -0.3095942558 0.5302573621 -1.2562306120
