39
CONF101
C 3.6850051975 0.9118850792 -2.9589856410
C 4.5566231953 1.6210106119 -1.9235087144
C 4.4576051517 1.0411351833 -0.5099147851
C 3.0919100191 1.1544042957 0.1371215025
C 3.0649819410 0.8514122159 1.6231933605
O 1.6983502720 0.4636723998 1.8462281575
C 1.2084557383 -0.0928917096 0.6259966519
C 1.0736153522 -1.6216477110 0.7991712312
N 0.0357541359 -1.9543340503 1.7563464391
C 0.0998398177 -1.9477045606 3.1035535151
N -1.0951051704 -2.2045666923 3.6215513601
C -1.8747873124 -2.3553654474 2.5135745693
N -1.2369367913 -2.2102046320 1.3594068155
O 2.2024810766 0.1190522084 -0.3605915731
C -0.1191564355 0.5827398999 0.2843120035
C -0.7752881657 0.4137726320 -0.9397152741
Cl -0.1135188827 -0.5904274250 -2.2227138657
C -1.9981869028 1.0169494112 -1.2140551053
C -2.5871225311 1.7957545719 -0.2283657973
Cl -4.1344025628 2.5532454862 -0.5625598037
C -1.9838213591 1.9830085389 1.0063948433
C -0.7577708239 1.3745479588 1.2422624398
H 3.9036718605 -0.1615609288 -2.9842725424
H 2.6215746241 1.0263342000 -2.7319667283
H 3.8646145895 1.3181860145 -3.9594170162
H 4.2947861291 2.6864585566 -1.8881807440
H 5.6062647341 1.5713074404 -2.2368673713
H 5.1631286944 1.5731996310 0.1417910425
H 4.7537345506 -0.0157880299 -0.5040842314
H 2.6400750472 2.1394235805 -0.0598003045
H 3.2791602711 1.7164984266 2.2546775315
H 3.7475064613 0.0244145772 1.8671119902
H 0.8328617302 -2.1000001105 -0.1508376668
H 2.0330330569 -1.9983962581 1.1640507892
H -2.9324614083 -2.5835650854 2.5537899005
H -2.4787980853 0.8735522080 -2.1738533131
H -2.4562208210 2.5893998268 1.7699926065
H -0.2761368591 1.5146746207 2.2017354477
H 1.0182167940 -1.7639540996 3.6448227391
