55
CONF134
C 4.2161463755 -3.1325048279 -3.6063097898
O 4.5113362525 -3.1733806267 -2.2036025322
C 3.5847527480 -2.6575975528 -1.3496935285
C 2.3646051084 -2.1022382593 -1.7466601832
C 1.4910719134 -1.6046718516 -0.7832843593
C 1.8076623398 -1.6443097155 0.5747165395
C 3.0289375717 -2.2147246868 0.9536614294
C 3.9114766959 -2.7139473653 0.0100178777
C 0.9076545683 -1.0786187947 1.6415388194
S -0.8105846072 -1.7563323218 1.3922793632
C -1.8234860788 -0.5850143237 2.2775156779
C -2.5529477464 -1.0200170033 3.3879089859
C -3.4276884314 -0.1603625517 4.0415075765
C -3.5568275524 1.1568687536 3.6071669599
C -2.8229583704 1.6070690008 2.5171294257
C -1.9635660256 0.7434806101 1.8340248198
N -1.2613153354 1.2281497856 0.6959373380
C -2.0405207569 1.7927116988 -0.4185040253
C -2.5076077776 0.6753784728 -1.3538912209
N -3.3216226257 1.1933220726 -2.4548773496
C -2.4895829987 1.8755390541 -3.4516298552
C -4.0493899295 0.0958070859 -3.0982713621
C 0.0869045287 1.0856545662 0.5279546672
O 0.6747955275 1.4537870023 -0.4846476312
C 0.8438881064 0.4588334360 1.7033589512
O 2.2076190242 0.9093328889 1.6975471588
C 2.3853741694 2.2295990121 1.9638729980
C 3.8349790290 2.5940865258 1.9050398834
O 1.4665662793 2.9786808937 2.2184838822
H 5.0758655037 -3.5838118219 -4.1020243973
H 4.0917564715 -2.0994997835 -3.9513224567
H 3.3134235961 -3.7108306250 -3.8348054522
H 2.0823314122 -2.0535880018 -2.7909952247
H 0.5470658799 -1.1788355145 -1.1063240375
H 3.2935561659 -2.2629234211 2.0063129872
H 4.8573648690 -3.1546008851 0.3079778487
H 1.2665087670 -1.4179383924 2.6183020292
H -2.4323500848 -2.0430830510 3.7280841328
H -3.9954715788 -0.5152811597 4.8951843768
H -4.2195658815 1.8419667746 4.1255210144
H -2.9058572404 2.6393468162 2.1935264594
H -1.4043474741 2.5140329048 -0.9329222787
H -2.9078513114 2.3172298216 -0.0113000647
H -1.6263442283 0.1124876243 -1.7208377757
H -3.1198809656 -0.0232695745 -0.7699254478
H -3.1243996626 2.2501487912 -4.2608023455
H -1.7293330790 1.2011527475 -3.8907787749
H -1.9726771003 2.7313681168 -3.0090563756
H -4.6692384294 0.4923159301 -3.9090578929
H -3.3720620159 -0.6678421893 -3.5264808269
H -4.7042727284 -0.3945932763 -2.3708406026
H 0.3773173354 0.7602164941 2.6458103091
H 4.2416937989 2.3270898821 0.9255406309
H 3.9539014992 3.6613310250 2.0855481079
H 4.3871926545 2.0228311233 2.6573751282
