38
CONF8
O 2.5281400851 0.3809907601 1.1593010298
P 1.0889049722 0.5415352199 0.8742882208
O 0.0344857183 0.0209277007 1.9669770294
C -0.2994437271 -1.3316314054 2.1235553625
C 0.6603068671 -2.3342496167 2.0674278494
C 0.2543021296 -3.6539300158 2.2576575764
C -1.0815354528 -3.9545846982 2.5106326517
C -2.0232802322 -2.9286993255 2.5709971741
C -1.6370836416 -1.6063206731 2.3726550755
O 0.5416077154 -0.1843295905 -0.4525577107
C 1.3984664542 -0.6258406966 -1.4742901051
C 1.4009180968 -1.9838641031 -1.7559841756
C 2.1986485427 -2.4462361080 -2.7998320179
C 2.9783548486 -1.5570752325 -3.5370412638
C 2.9583859451 -0.1975044895 -3.2331702814
C 2.1610323183 0.2816697596 -2.1960483139
O 0.6848012433 2.0859896220 0.7688120775
C -0.6273130551 2.4912884065 0.4462698324
C -0.9745848735 2.6419955560 -0.8883270231
C -2.2551361235 3.0973946197 -1.1941143907
C -3.1583666743 3.3948684560 -0.1758061427
C -2.7816694923 3.2401223153 1.1569752520
C -1.5056288462 2.7842978521 1.4793184755
H 1.7024452821 -2.0946974939 1.8827113555
H 0.9943938914 -4.4463655961 2.2123610730
H -1.3880109398 -4.9842688707 2.6617968843
H -3.0662728327 -3.1549005632 2.7680048107
H -2.3539479583 -0.7927821260 2.4075447807
H 2.2103537231 -3.5061280606 -3.0328022416
H 3.5997793091 -1.9230674326 -4.3476182147
H 3.5620991688 0.4994409481 -3.8054568941
H 2.1303380324 1.3391113926 -1.9534832497
H -0.2559232356 2.4103578691 -1.6668686580
H -2.5425878643 3.2210998067 -2.2332524341
H -4.1539275780 3.7503477737 -0.4203954195
H -3.4806563476 3.4749456767 1.9532196662
H -1.1917290537 2.6585693878 2.5096310386
H 0.7890962759 -2.6573136347 -1.1649296836
