46
CONF70
C -4.5663614054 -0.8595640885 2.3643579145
C -3.4863920877 -1.8117056794 1.9066162821
C -3.0396312988 -1.8190702061 0.4801190711
C -2.0841856882 -1.2993726254 1.5816931395
C -1.7187601676 0.1266494580 1.5658312712
O -2.4446143387 1.0623741242 1.2878156569
O -0.4039382706 0.2740803115 1.8775649321
C 0.1435993621 1.6171116824 1.6974781505
C 0.4281911671 1.8722204514 0.2429630041
C 1.4516684667 1.1582304557 -0.3826660472
C 1.6957993932 1.3560866401 -1.7375199478
C 0.9356141548 2.2552640598 -2.4806570306
C -0.0834520862 2.9608791930 -1.8503911030
C -0.3393209734 2.7753109093 -0.4939367091
O 2.6445592809 0.6237075736 -2.4284571063
C 3.8298036700 0.2872630515 -1.7946967348
C 4.3232278370 -0.9941615374 -2.0166493063
C 5.5508977037 -1.3541554640 -1.4665905291
C 6.2729137419 -0.4450883808 -0.6965863262
C 5.7643502226 0.8357834051 -0.4854040003
C 4.5430710848 1.2129156692 -1.0355339177
C -3.6025915287 -0.8972119592 -0.5256857666
C -2.9355599610 -0.5110397005 -1.6110351918
Cl -3.6103002366 0.5548789142 -2.8127015694
Cl -1.2928766767 -0.9895306654 -1.9260907240
C -3.5168317634 -3.1481959576 2.6184715146
H -5.5467173127 -1.3184752956 2.1939949317
H -4.4639568229 -0.6730593888 3.4385859593
H -4.5312556822 0.0992983129 1.8484505982
H -2.7106122436 -2.7766603436 0.0798355401
H -1.2656305936 -1.9664882600 1.8284910739
H 1.0627566520 1.6046100681 2.2866066176
H -0.5514031552 2.3547872045 2.1040497744
H 2.0463285060 0.4462754527 0.1816156745
H 1.1461696404 2.3868391184 -3.5368001992
H -0.6814412968 3.6618414066 -2.4242022646
H -1.1404579920 3.3209967762 -0.0068455080
H 3.7460869800 -1.6911064806 -2.6154197453
H 5.9392006833 -2.3533377105 -1.6378671323
H 7.2269392673 -0.7306154044 -0.2658051481
H 6.3250361207 1.5536915795 0.1052771579
H 4.1472672501 2.2112208870 -0.8806731971
H -4.6106489529 -0.5142177909 -0.3978092164
H -2.7269492279 -3.8136103385 2.2586740609
H -4.4825026393 -3.6380207190 2.4517036651
H -3.3870874648 -3.0076286979 3.6968520601
