51
CONF16
O 3.4981801383 0.8175137510 1.4321777512
C 2.7910249484 0.2368757803 0.3240933670
C 2.2311918322 1.3911243380 -0.5042178958
C 1.3000106169 2.3328588220 0.2668715332
C 0.1305964311 1.6051259563 0.9092509541
C -0.9010390876 0.9092466673 -0.0444696842
N -1.9353071021 1.7731501717 0.5796005020
C -1.0486603015 2.4537049788 1.3838909385
O -1.1970005273 3.3902254942 2.1482976686
C -3.3030352165 1.8732564407 0.3239280392
C -4.1231952054 2.6777962868 1.1271430691
C -5.4838688538 2.7642781896 0.8581385306
C -6.0025211705 2.0396550327 -0.2023297470
F -7.3353491235 2.1221490267 -0.4603574572
C -5.2173015569 1.2342519573 -1.0083119764
C -3.8548051044 1.1535528520 -0.7425862252
C -1.0971148882 -0.5682518185 0.1046105152
C -1.6208137968 -1.1171875075 1.2793821172
C -1.7454890668 -2.4907448590 1.4318522794
C -1.3359059588 -3.3415123775 0.4016796732
O -1.4787298372 -4.6842645949 0.6040414776
C -0.8116160475 -2.8106220483 -0.7775604908
C -0.7017877087 -1.4307545732 -0.9182868725
C 3.6804253313 -0.6552660306 -0.5132831901
C 4.9612196262 -0.2388626011 -0.8877832714
C 5.7689090713 -1.0435103001 -1.6850883419
C 5.2671829045 -2.2662802558 -2.1014735970
F 6.0515149667 -3.0588389579 -2.8807636887
C 4.0064559691 -2.7175181788 -1.7533085433
C 3.2178064484 -1.8982746145 -0.9480367616
H 3.8508035452 0.0927424415 1.9646479575
H 1.9580234967 -0.3794058924 0.6972172568
H 3.0720697336 1.9651202884 -0.9129543666
H 1.6984989060 0.9563995603 -1.3587469483
H 1.8576852644 2.8618278918 1.0465119978
H 0.9165788237 3.0910770099 -0.4272602403
H 0.4609587365 0.9256097194 1.7026428494
H -0.7366916359 1.1765872372 -1.0953702100
H -3.6961424334 3.2306882437 1.9544625054
H -6.1350553967 3.3826426633 1.4663427328
H -5.6612124669 0.6828907117 -1.8299352718
H -3.2225511800 0.5299678532 -1.3648870940
H -1.9421187376 -0.4621397033 2.0850201809
H -2.1582188172 -2.9166375828 2.3408199823
H -1.1664665487 -5.1633693866 -0.1756888730
H -0.4971564236 -3.4732799859 -1.5796925536
H -0.2955356450 -1.0199205765 -1.8390455428
H 5.3349113370 0.7222642286 -0.5483514465
H 6.7660329852 -0.7348881857 -1.9804451703
H 3.6581522001 -3.6862403287 -2.0951978842
H 2.2264563246 -2.2348135630 -0.6554844297
