45
CONF52
C 2.6854244175 -2.6990374233 -0.3195919576
C 2.3030209544 -2.4975908845 1.1455527058
C 2.9042649620 -1.2326028515 1.7714990030
C 2.5692124549 0.0604516042 1.0319859215
N 1.1267793702 0.2221950064 0.9389880340
C 0.5105068057 1.1604962106 0.1743873002
C -0.9050942026 1.2011982784 0.1223646729
C -1.5580251782 2.1616901031 -0.6362062269
C -0.8668908061 3.0993901020 -1.3929718347
C 0.5286324677 3.0427803819 -1.3766062434
C 1.2060023365 2.0973513241 -0.6056850348
C 1.3479887697 3.9996941091 -2.1610852364
O 2.5641639101 3.9997206761 -2.1905217055
O 0.6002280830 4.8856700835 -2.8517579799
S -3.3542801928 2.1445955744 -0.7123947319
O -3.7881843280 3.3347614505 -1.4615408183
O -3.7734113206 0.8099521590 -1.1766273950
N -3.7895452662 2.4157815798 0.8958062245
O -1.6425539178 0.3422926971 0.9071631377
C -1.6021711216 -1.0206909879 0.6040199435
C -1.2192416170 -1.4967540029 -0.6440432867
C -1.2120816204 -2.8723691677 -0.8600755232
C -1.5894652639 -3.7531441063 0.1508514074
C -1.9801585346 -3.2513600813 1.3912169273
C -1.9859802925 -1.8800987169 1.6272138061
H 2.3182727419 -3.6618398500 -0.6884228468
H 2.2554091563 -1.9190868066 -0.9569430179
H 3.7736477659 -2.6789128919 -0.4491704623
H 2.6399275150 -3.3589802488 1.7344744337
H 1.2088449011 -2.4780441219 1.2341136114
H 3.9971071419 -1.3196444725 1.7967560293
H 2.5714461561 -1.1456447832 2.8141680571
H 2.9875696025 0.0300343859 0.0178608167
H 3.0345370133 0.9152634386 1.5474707429
H 0.5683419919 -0.2475659901 1.6345451026
H -1.4022795938 3.8348084835 -1.9771989224
H 2.2887185577 2.1143847194 -0.5986659385
H 1.2061865347 5.4705131802 -3.3363649310
H -3.8761467565 1.5331997821 1.3963730907
H -4.6739450337 2.9217832061 0.9139832160
H -0.9311437782 -0.8078548242 -1.4310204165
H -0.9096366254 -3.2532457186 -1.8305001419
H -1.5804410923 -4.8232749770 -0.0269132188
H -2.2776207399 -3.9288140355 2.1853242890
H -2.2779360260 -1.4714513926 2.5890504074
