47
CONF19
C -3.4976300083 -1.8599162820 1.7595434487
C -3.9347973191 -1.3408034595 0.3876740964
C -4.9269681518 -2.3202146931 -0.2491918461
C -2.7787431376 -1.0544328628 -0.5985666305
C -1.7517184480 -2.1996117374 -0.7400961900
C -0.5761542441 -1.7908464500 0.1459787480
C -0.4432553717 -0.2882450639 -0.1130702467
C 0.3798567156 0.4638382707 0.9429712083
C 1.8317111973 0.0664898587 0.9084545495
C 2.3145693743 -0.9931461179 1.6794840623
C 3.6459972124 -1.3896960417 1.6124545726
C 4.5069161065 -0.7100655172 0.7601199361
Cl 6.1920327584 -1.1975020806 0.6699214949
C 4.0623366749 0.3547395896 -0.0135242894
C 2.7267926664 0.7337404483 0.0680399420
C -1.9169988168 0.2189169959 -0.2730856632
O -2.4118128281 0.8448075072 0.9045078658
C -2.0444794068 1.1932676521 -1.4625323901
N -1.1446635704 2.3330577366 -1.3566043959
C -0.0051260387 2.5936208500 -2.0326266098
N 0.5943074542 3.6672687794 -1.5384819803
C -0.2358625426 4.0295890420 -0.5264025346
N -1.3052338578 3.2532144785 -0.3734693777
H -3.0114550476 -2.8390572891 1.6805915494
H -2.8178760357 -1.1646228771 2.2554325855
H -4.3751612276 -1.9882918842 2.4017982175
H -4.4547668813 -0.3887700605 0.5444219578
H -5.7766133342 -2.4931084623 0.4189780726
H -4.4617090034 -3.2932239048 -0.4446484496
H -3.2679849771 -0.8880688931 -1.5678980478
H -2.1719287931 -3.1738148112 -0.4749439891
H -1.4118665096 -2.2738732919 -1.7807362254
H 0.3435540392 -2.3390679812 -0.0774313796
H -0.8176382475 -1.9588237797 1.2019982998
H 0.0600177549 -0.1638292540 -1.0846083726
H -0.0487677160 0.2591535527 1.9296731382
H 0.3059001538 1.5447377983 0.7814146754
H 1.6398787026 -1.5182240189 2.3497025855
H 4.0135187077 -2.2108422660 2.2169145064
H 4.7516860688 0.8838997011 -0.6612413650
H 2.3788796735 1.5777982288 -0.5226243545
H -3.0743427448 1.5632050216 -1.5174399382
H -1.7990863561 0.6769786092 -2.3958457097
H 0.3337489616 1.9931881772 -2.8667606790
H -0.0616369767 4.8852906945 0.1122956926
H -5.3179150193 -1.9385909298 -1.1985475359
H -2.0913124507 1.7610156091 0.9192278274
