29
CONF23
C -5.0885596930 -1.4712632037 -1.2986967204
C -4.2045036821 -0.2698393320 -1.0794770357
O -2.8254447465 -0.7654160789 -0.9436535008
P -1.6677388965 0.2739177837 -0.6022200433
S -1.4350125055 1.8038492012 -1.7707241980
O -1.8710010494 0.5460590001 0.9522069035
C -1.5509997142 1.8201604765 1.6159510898
C -1.0848395477 1.5001462323 3.0134857660
O -0.4803100389 -0.8782580172 -0.6865518601
C 0.8038222232 -0.6303353623 -0.3342227136
N 1.1004837895 0.4848389326 0.3067305127
C 2.3445021934 0.7286453651 0.6713225694
Cl 2.6296806016 2.2325122968 1.5102953946
C 3.3871469467 -0.1594698423 0.4102901862
Cl 5.0220935774 0.1632977498 0.8956345813
C 3.0870654597 -1.3392096468 -0.2657231960
C 1.7797983982 -1.5840296871 -0.6490877754
Cl 1.3606538512 -3.0394846450 -1.4974783777
H -6.1220309261 -1.1319216521 -1.4156496207
H -4.7954470401 -2.0090779082 -2.2043433865
H -5.0414132870 -2.1528061912 -0.4452160029
H -4.2342584724 0.4203657520 -1.9283327564
H -0.7809072539 2.3376089268 1.0399566323
H -2.4692800132 2.4139901034 1.6119843384
H -0.1700649716 0.9012899454 2.9879458615
H -0.8717233151 2.4372036942 3.5372621044
H -1.8539737377 0.9589600888 3.5712107866
H 3.8687931760 -2.0553244472 -0.4909668026
H -4.4709948337 0.2683453548 -0.1634777436
