46
CONF11
C 3.3529132333 0.6526631038 -4.4660575353
C 2.5447563876 1.0178877008 -3.2258237249
C 3.0946176005 0.3863302970 -1.8927545837
N 1.9582292193 0.2669466711 -1.0110972089
C 0.6571240772 -0.0640227630 -1.6024803111
S 0.8192481740 0.2938131031 -3.4008065027
C 0.0048364722 0.9830483117 -0.6332044602
C 1.4469530673 1.1908741630 -0.1090454086
O 1.9833305420 1.9063631516 0.7047372293
N -1.0319137674 0.5955237085 0.2717759116
C -0.8225677747 -0.3105819835 1.2585844742
O 0.2777448266 -0.8266074954 1.4566942154
C -2.0282582231 -0.6379480532 2.0880988051
C -2.8490136575 -1.7115044881 1.7254429568
C -3.9452482704 -2.0612402376 2.5191441645
C -4.1950533911 -1.3222516659 3.6717968756
C -3.3921817897 -0.2524998104 4.0567503950
C -2.2991673434 0.0870830520 3.2537831137
O -1.4335096968 1.1042408807 3.5125616413
C -1.6633050046 1.8912276917 4.6915495689
O -2.4894723783 -2.3474703625 0.5772841360
C -3.2970256923 -3.4542453409 0.1477419166
C 3.7370149900 -0.9752989089 -2.1088393195
O 5.0511358635 -0.8559048919 -2.3573096822
O 3.1419544295 -2.0292876025 -2.0745353585
C 2.4706817815 2.5356005638 -3.0603522551
H 3.3995612713 -0.4280857724 -4.6241334017
H 2.9000287940 1.1107869919 -5.3497198960
H 4.3711540466 1.0422982833 -4.3679316219
H 0.3298295272 -1.0956898461 -1.4534299657
H -1.9580878636 0.9784222751 0.1501758543
H -4.5934483544 -2.8862271301 2.2538191150
H -5.0450414563 -1.5894036138 4.2920840432
H -3.6195025550 0.2975637239 4.9605195267
H -1.6018482665 1.2713530796 5.5928585560
H -2.6387697792 2.3878875958 4.6453410846
H -0.8695678183 2.6381253773 4.7031990850
H -2.8397368650 -3.8082734808 -0.7761931946
H -4.3264985630 -3.1339879545 -0.0471411171
H -3.2903492522 -4.2554265400 0.8949766314
H 1.9206212808 2.8235034415 -2.1601892606
H 1.9695634114 2.9814725238 -3.9231867318
H 3.4849695397 2.9457279567 -2.9929544676
H -0.3088805690 1.8739780044 -1.1844549674
H 3.8321275095 1.0665251776 -1.4550262662
H 5.4164803920 -1.7413835300 -2.5323851430
