33
CONF10
C -3.1971793805 -1.3740530044 0.9377608358
C -3.3896006152 -0.0470092478 0.2033007503
C -3.1197467658 1.1333849660 1.1367786350
C -2.5454928464 0.0292670087 -1.0941985814
C -1.0570130144 -0.0421179103 -0.8791623841
C -0.3012333182 1.1166218854 -0.6663519896
C 1.0698014923 1.0520415035 -0.4419719475
C 1.7305835489 -0.1794267022 -0.4253193465
C 0.9853814082 -1.3389082473 -0.6414006237
C -0.3863404952 -1.2689340924 -0.8702045968
C 3.2327621946 -0.2495527234 -0.1972571722
C 4.0268156145 0.4481773265 -1.3011963141
C 3.5422655065 0.3437050827 1.1641100081
O 4.0644024949 1.4206391065 1.3651354473
O 3.1388718325 -0.4723618558 2.1618426609
H -3.3905868169 -2.2276303306 0.2788761124
H -3.8775762860 -1.4411852225 1.7932780179
H -2.1730448590 -1.4654494827 1.3168882944
H -4.4373194597 0.0112125690 -0.1223217404
H -3.7949417811 1.1027481531 1.9984237803
H -3.2631517294 2.0901833133 0.6228939677
H -2.0918042499 1.1045415724 1.5155393420
H -2.8535745793 -0.7933376123 -1.7504641242
H -2.7907307781 0.9670439828 -1.6068144848
H -0.7958731946 2.0841747516 -0.6811270344
H 1.6295225201 1.9698764586 -0.2814231688
H 1.4839133928 -2.3046473536 -0.6379504950
H -0.9462467232 -2.1833788402 -1.0471313945
H 3.5122389471 -1.3078873394 -0.1516815516
H 3.8024655648 -0.0213587157 -2.2625042179
H 5.1013843291 0.3694122245 -1.1133288506
H 3.7653655124 1.5074838245 -1.3617180016
H 3.3256819308 -0.0332750380 3.0094215653
