67
CONF25
C 6.5861419057 -1.9600566773 2.4107491202
C 5.3216766592 -1.9754429918 1.6072592902
O 5.2299623029 -2.1988656765 0.4247384600
O 4.2461972107 -1.6991155670 2.4020391222
C 3.0188594420 -1.5239048524 1.7019146612
C 2.9692487516 -0.1628809932 1.0206554107
O 3.9165318745 0.5904261888 1.0402478691
C 1.6489974341 0.2044827656 0.3384748012
C 1.8588865185 1.1204737034 -0.9094317708
C 1.0562178583 2.3915107545 -0.6574628541
C -0.0514565022 1.9883331334 0.3343306194
C 0.6733752431 0.9989662364 1.2867612020
C -0.3205363471 0.1351007765 2.0712404111
C -1.5118442584 -0.4122866968 1.2962094669
C -2.2638591824 0.6853695906 0.5436500358
C -1.3080711216 1.4474101963 -0.3837649395
C -2.0158238287 2.6417363404 -1.0579915958
C -3.4665660541 2.3788404375 -1.4736447880
C -3.6888435348 0.9040712099 -1.5456005302
C -3.8696512999 0.3285095026 -2.7460254103
C -3.8337239133 -1.1242904620 -2.9476900473
O -3.9934960255 -1.6321447823 -4.0549261735
C -3.5738199326 -1.9199715896 -1.7451413518
C -3.4035742663 -1.3536749097 -0.5437029269
C -3.5193882961 0.1211025656 -0.2657399580
C -4.8139545351 0.2506992098 0.5979670047
F -4.3361661721 2.9789001932 -0.5376117840
F -2.7192946404 1.6124725678 1.5037655403
O -2.4282985173 -1.0277365878 2.2135177381
C 1.4857420897 1.8104201017 2.3147478508
O 1.2735322407 0.3699022183 -1.9819981339
C 1.3125853126 -1.0021102314 -1.6047209303
O 1.0262439137 -0.9724824218 -0.1825804582
C 0.1974943896 -1.7433517609 -2.3050361000
C 2.6825615058 -1.6128070656 -1.8746601311
H 6.8288211248 -0.9207186102 2.6535839137
H 7.3946852653 -2.3951810862 1.8252571368
H 6.4548683744 -2.4975592668 3.3525021956
H 2.8590706897 -2.3106677843 0.9586438923
H 2.2214420195 -1.5900731456 2.4492130035
H 2.9191986116 1.3133909795 -1.1039871478
H 0.6880386808 2.8043937542 -1.5991940258
H 1.7101288684 3.1445089065 -0.2080432811
H -0.3768489168 2.8499952987 0.9293543432
H -0.7272690269 0.7476275307 2.8843910114
H 0.2008032627 -0.7081072374 2.5448346314
H -1.1702384460 -1.1342707599 0.5438324866
H -0.9986918595 0.7372890378 -1.1592525056
H -2.0256073025 3.5046305403 -0.3833946892
H -1.4502169441 2.9289466771 -1.9482342268
H -3.6959837363 2.8487492704 -2.4355664563
H -4.0010197547 0.9310251609 -3.6414632433
H -3.5478812104 -2.9982931332 -1.8723114839
H -3.2782644118 -1.9772865812 0.3358044841
H -4.7040646139 -0.3478818863 1.5033013481
H -5.6588581294 -0.1216663972 0.0131181716
H -4.9933995491 1.2877054434 0.8710379519
H -1.9322019066 -1.6660528651 2.7383645772
H 1.9572365088 1.1532858840 3.0536728677
H 2.2801673641 2.4011177049 1.8546745049
H 0.8101863690 2.4836901320 2.8494164045
H -0.7676402539 -1.2806314801 -2.0921260035
H 0.1733639392 -2.7831211075 -1.9697392174
H 0.3668969887 -1.7281083866 -3.3840496641
H 2.8887816037 -1.5700004855 -2.9473040817
H 2.7041702767 -2.6582320171 -1.5557589199
H 3.4844395669 -1.0861087287 -1.3511162854
