47
CONF14
C -2.7984890603 1.3850966658 2.7152927582
C -2.0627818214 0.2952905895 1.9681558891
C -2.7406579286 -1.0276939003 1.7077848310
C -2.5833610479 -0.0196361606 0.5661393126
C -1.6572314088 -0.3623440159 -0.5274844027
O -0.7602840716 -1.1758026282 -0.4882540722
O -1.9429976949 0.3895491667 -1.6324060762
C -1.0407590935 0.1822666861 -2.7627751832
C -1.8315976533 0.4690610309 -3.9561954612
N -2.4348090856 0.6989174933 -4.9132665987
C 0.1773738273 1.0670580595 -2.6456650493
C 1.3536822727 0.5230254994 -2.1314367003
C 2.4705727671 1.3312534117 -1.9439755576
C 2.3867839468 2.6812207555 -2.2947836220
C 1.2281122649 3.2261470824 -2.8175256320
C 0.1124728642 2.4161498392 -2.9905991756
F 3.4676075208 3.4596806780 -2.1237585862
O 3.6796436082 0.8796114340 -1.4948381584
C 3.7142315293 -0.2045312384 -0.6267516156
C 4.6745505618 -1.1767382076 -0.8740127322
C 4.8012838577 -2.2418532807 0.0122427408
C 3.9720108258 -2.3344305926 1.1258685463
C 3.0160378740 -1.3489149519 1.3580667056
C 2.8831179427 -0.2737830244 0.4868031114
C -4.0836619004 -1.3390706522 2.2015573147
C -4.4857319121 -2.5324440212 2.6431270173
Cl -3.4660120224 -3.9381009964 2.7046470062
Cl -6.1057212513 -2.8070102764 3.2158837249
C -0.5762973431 0.2723192108 2.2402600361
H -2.7426546547 1.2049459620 3.7943907801
H -3.8518707902 1.4553435426 2.4365310643
H -2.3349208440 2.3551693656 2.5091402617
H -2.0577056818 -1.8673810554 1.6235382749
H -3.4649395923 0.5336754738 0.2607581526
H -0.7408478629 -0.8716618444 -2.7781616921
H 1.3971466743 -0.5239207652 -1.8535845144
H 1.2152158600 4.2777285491 -3.0809763089
H -0.8013205891 2.8319098495 -3.4017976390
H 5.3091420137 -1.0842762609 -1.7483145197
H 5.5501474117 -3.0045366724 -0.1746240076
H 4.0707069833 -3.1691091599 1.8111902070
H 2.3725628414 -1.4108453322 2.2298339497
H 2.1448819916 0.5004837341 0.6641261314
H -4.8282875774 -0.5499301373 2.2160747879
H -0.1220897869 1.2250663617 1.9438127470
H -0.0766624632 -0.5343356135 1.7018970539
H -0.4055920109 0.1373804578 3.3136949816
