22
CONF325
C 1.9638027271 -0.2483940969 -0.7483294439
C 1.1969616654 -0.2708070293 0.5694909102
C -0.1531578146 0.4483312854 0.5173905323
C -1.0943783358 -0.0942813496 -0.5610484759
C -2.4699226421 0.5661632109 -0.5130471502
O -3.1482777628 0.3168772990 0.7256967621
O -1.2051219743 -1.5193134743 -0.4665583299
O 0.0266663835 1.8433362491 0.2523132000
O 1.9540806756 0.4104942159 1.5850952023
O 3.3110857782 -0.7099647598 -0.5510084878
H 2.0473294021 0.7772238758 -1.1201902928
H 1.4477579215 -0.8603910517 -1.4984378103
H 1.0293030242 -1.3157219531 0.8712709924
H -0.6335262920 0.3135007610 1.5013464998
H -0.6634453554 0.1122449572 -1.5486948312
H -2.3563844000 1.6504219890 -0.6022593780
H -3.0663273333 0.2053926191 -1.3609391000
H -3.5663759168 -0.5506241411 0.6679040192
H -1.5311049827 -1.7317521567 0.4192212339
H 0.7526119092 2.1324861570 0.8243152930
H 2.8828697642 0.1865484888 1.4232532601
H 3.2755537548 -1.6617711010 -0.3867845102
