59
CONF408
C 8.0878471377 -1.8991398445 0.7805486164
C 7.5096157346 -1.7404334029 -0.6551558530
C 5.9864582762 -1.9388539411 -0.5153315621
C 5.6760610794 -1.5867516653 0.9537938619
C 6.8764381771 -2.2144796696 1.6783614065
C 4.3412841417 -2.1349916287 1.4390436631
C 3.1451001620 -1.4843977018 0.7961136501
O 2.0774948139 -2.0666913580 0.6659071286
N 3.2846139600 -0.1625623051 0.3615480618
C 4.4416172874 0.6019088925 0.5389537687
O 4.4617019463 1.7792118600 0.2085217014
C 5.6354484638 -0.0722174348 1.1639708042
C 2.1073123784 0.4861340948 -0.2438457733
C 1.2066446796 1.1228161803 0.8147592278
C -0.0809681500 1.6930015029 0.2094284657
C -1.0981453643 0.5944680138 -0.1014006960
N -2.2076559992 1.0420104608 -0.9530569588
C -3.0528095383 2.0300595925 -0.2695602993
C -4.1985893720 2.4753392516 -1.1744568880
N -4.9917514994 1.3198931426 -1.5928936066
C -4.1626576625 0.3216273166 -2.2691675997
C -3.0225805668 -0.1123695211 -1.3536456170
C -6.1494457697 0.9759332214 -0.9525244507
N -6.6754206250 -0.2442529160 -1.2220493263
C -7.8346037694 -0.5324743709 -0.6343182141
C -8.4950981732 0.3431492116 0.2199983425
C -7.8651157416 1.5634558594 0.4360073700
N -6.7065793979 1.8971804934 -0.1284526525
H 8.5708966262 -0.9714191455 1.1026010193
H 8.8430957857 -2.6875337087 0.8368642416
H 7.7340277575 -0.7451100733 -1.0506325024
H 7.9392598466 -2.4631068776 -1.3539541652
H 5.7230766158 -2.9909187558 -0.6775423264
H 5.4126892775 -1.3417124169 -1.2325283492
H 6.7164667104 -3.2987211126 1.7305669457
H 6.9871894637 -1.8438989351 2.7029764526
H 4.2539769241 -3.2113376952 1.2645223535
H 4.2441046395 -1.9721343379 2.5228566750
H 5.5940340917 0.1504455422 2.2403012973
H 6.5216306827 0.4316379361 0.7691998377
H 1.5756226512 -0.2799516617 -0.8106239503
H 2.4720262132 1.2476041726 -0.9357687796
H 0.9574704601 0.3735595233 1.5766441250
H 1.7687081553 1.9187694931 1.3150330010
H 0.1513356053 2.2445781436 -0.7115345020
H -0.5086481623 2.4141446688 0.9131751141
H -1.4725527592 0.1686972115 0.8518220266
H -0.5997227475 -0.2247682682 -0.6344534046
H -3.4739366260 1.6175794760 0.6706391789
H -2.4513568369 2.9075174214 -0.0121029961
H -3.7900043249 2.9484213060 -2.0765887494
H -4.8336634039 3.1932163689 -0.6576440572
H -4.7709518206 -0.5348742102 -2.5559646846
H -3.7501896863 0.7840368802 -3.1750216935
H -3.4497155492 -0.6327769676 -0.4718988294
H -2.3832414524 -0.8266133985 -1.8859499111
H -8.2526051739 -1.5143044007 -0.8554824122
H -9.4357932416 0.0885635560 0.6915964548
H -8.3080349407 2.3083647739 1.0967290341
