53
CONF138
C -3.3817384724 -0.5025239096 -3.9036582484
O -3.1419279000 -0.2504736430 -2.4894216218
C -3.2759240773 -1.3013575236 -1.6806012849
O -3.5445700272 -2.4282316089 -2.0282396684
C -3.1060421917 -0.8767192846 -0.2086613469
C -4.4129352287 -0.1851571657 0.2553577695
C -4.0703809867 1.2828294832 0.1870935092
C -4.9329822176 2.3638454320 0.2706618121
C -4.3670604292 3.6367765593 0.2411950519
C -2.9917144252 3.8534711969 0.1384830186
C -2.1370547054 2.7611637147 0.0559182474
C -2.6857853017 1.4807863071 0.0726892575
C -2.0485313617 0.1822127270 0.0002935335
N -0.8187009565 -0.0763211465 0.2704062651
N -0.4807040953 -1.3994235372 0.3031545902
C -1.4925553110 -2.4951822890 0.2767049273
O -2.7739475448 -1.9993017643 0.5998440698
C 0.8366839600 -1.7715363663 0.2979328598
O 1.1832152481 -2.9279041807 0.4987420003
N 1.7745229154 -0.7225164270 0.0854813253
C 2.9180445872 -0.6827532002 0.9380022404
C 2.7414129537 -0.7329006255 2.3196241780
C 3.8460961472 -0.7220553550 3.1576279710
C 5.1184765526 -0.6395829423 2.6049247761
C 5.3132366190 -0.5793750806 1.2298304358
C 4.1983686097 -0.6146843162 0.3985100074
O 6.1471341151 -0.6218590923 3.5587554720
C 7.4438876272 -0.5926715009 3.1823471727
F 8.1826444146 -0.6024449900 4.2975812045
F 7.7658717040 0.5151826961 2.4773027961
F 7.8000306622 -1.6602409432 2.4332554658
C 1.6410798748 0.2163036866 -0.9398775452
O 2.2039004227 1.2914157660 -0.9533857137
O 0.8632430375 -0.2650402219 -1.9214801489
C 0.4736950701 0.7027447635 -2.9279805583
Cl -5.4312970828 5.0317114424 0.3353082623
H -2.6738145307 -1.2486855369 -4.2694494803
H -3.2237303507 0.4565097874 -4.3935027144
H -4.4069452572 -0.8501217166 -4.0467866609
H -4.6073944404 -0.4891092401 1.2906435678
H -5.2824677633 -0.4581936032 -0.3479151311
H -6.0053599089 2.2310984272 0.3605528228
H -2.6014425667 4.8642874210 0.1151319099
H -1.0656525925 2.9077114393 -0.0341030509
H -1.2300655059 -3.2241395127 1.0439724747
H -1.4769130025 -2.9652397886 -0.7164935846
H 1.7424699097 -0.7805942361 2.7416602165
H 3.7302049013 -0.7638197598 4.2347865399
H 6.2979758674 -0.5216100808 0.7854388463
H 4.3355589277 -0.5883522293 -0.6769198386
H -0.1806870716 0.1577233445 -3.6068205058
H -0.0643223671 1.5306704603 -2.4585882866
H 1.3548926460 1.0736777508 -3.4553301073
