46
CONF121
C -1.2046982285 -0.6426311511 -1.7513728854
C -2.6120195974 -0.4359965613 -1.2390493366
C -2.8602213608 -0.3009318667 0.2557434737
C -2.9740722728 0.9162144416 -0.6626275442
C -1.9856457009 2.0261760489 -0.7325499473
O -1.8489261244 2.7249846703 -1.7189497311
O -1.2813935712 2.1814845087 0.4035601505
C -0.1985203202 3.1656352408 0.3830826362
C 1.0516134557 2.5512512734 -0.1801682040
C 1.6711110159 1.5070707123 0.5100251926
C 2.8282527565 0.9371426212 -0.0085791078
C 3.3889432258 1.3965295485 -1.1962635998
C 2.7705439451 2.4429281230 -1.8739690121
C 1.6024573590 3.0151203635 -1.3758412809
O 3.5145771197 -0.0446559315 0.6897385265
C 2.8173571988 -1.1619438806 1.1176323921
C 1.7919480427 -1.7258334308 0.3619430722
C 1.1804821371 -2.8922978811 0.8136081815
C 1.5937613696 -3.4962949268 1.9990328707
C 2.6268013322 -2.9230149837 2.7385704389
C 3.2408556940 -1.7510657391 2.3059353031
C -1.7762875517 -0.4638494990 1.2289333794
C -1.9417371029 -0.7141569972 2.5268985724
Cl -0.5902353187 -0.9051901160 3.6167186996
Cl -3.4959384068 -0.8603562082 3.3073026141
C -3.6718955529 -1.1523554028 -2.0436751811
H -0.4610540231 -0.0423018207 -1.2200053313
H -0.9200454462 -1.6970086959 -1.6650863700
H -1.1559212860 -0.3624997141 -2.8090230948
H -3.8273661156 -0.6648268961 0.5899186014
H -3.9846507741 1.2615086445 -0.8681317472
H -0.0714492709 3.4318479846 1.4343638398
H -0.5100901838 4.0407789868 -0.1899320730
H 1.2618832219 1.1467302877 1.4500260467
H 4.2962158511 0.9359770073 -1.5728358029
H 3.2002958978 2.8069401421 -2.8017480543
H 1.1176486157 3.8250073809 -1.9116369393
H 1.4851863513 -1.2635056809 -0.5696384844
H 0.3787907539 -3.3307245725 0.2267905270
H 1.1123969035 -4.4047844414 2.3455914099
H 2.9546703633 -3.3844221945 3.6650129240
H 4.0438286806 -1.2917501417 2.8731657806
H -0.7481542002 -0.3868980297 0.8917889734
H -3.6618032557 -0.8029988260 -3.0819892640
H -4.6695459382 -0.9802825170 -1.6302740800
H -3.4779483545 -2.2307498747 -2.0450129223
