70
CONF179
C -2.8803998146 0.1752445005 -0.0232751586
C -4.0329663284 1.1525043284 0.3087357094
C -4.9880159694 0.4882778617 1.2462439505
C -6.3300818087 0.6123262472 1.5132197241
N -6.6879925536 -0.3075684144 2.4945744007
C -5.5838504311 -1.0423260066 2.8616356043
C -5.3742515524 -2.0864285946 3.7665778548
C -4.0802176399 -2.5966313957 3.8407917487
C -3.0132501102 -2.1038936559 3.0539697136
C -3.2185229173 -1.0581735804 2.1603659868
C -4.5141854929 -0.5504837218 2.0866278157
C -2.2009353507 -0.3805853418 1.2646519500
C -1.0233797875 -1.2928892537 0.9273692141
C -0.0389563954 -0.5726090485 0.0058534135
C -0.7917502624 -0.0928859826 -1.2403764678
N -1.8560791965 0.8406128267 -0.8519988009
C -2.3974914400 1.5306829637 -2.0423521159
C -3.2038087187 0.6725493137 -2.9817129916
C -4.4282699344 0.9783647980 -3.4067825294
C 1.0821077078 -1.4959964989 -0.4315685808
O 0.8554664210 -2.4401612514 -1.1893293149
N 2.3777502086 -1.2008075921 -0.0544870142
C 3.4703783864 -1.9299306322 -0.7372513753
C 3.6529507021 -1.5372237531 -2.2056360172
C 3.7957715384 -0.0402451518 -2.4617105422
N 4.8453532736 0.6099286993 -1.6604809224
C 6.1803847705 0.0827202128 -1.9579471103
C 4.8121044575 2.0606613513 -1.8769381915
C 2.6623896261 -0.3884996934 1.0989845553
O 1.9492591205 -0.4465941669 2.1038264490
N 3.7598506418 0.3706323694 0.9758269665
C 4.2269998561 1.2095791333 2.0741038763
C 3.5345686163 2.5703459325 2.1057753151
H -3.3172634379 -0.6920443199 -0.5618942669
H -3.5979312602 2.0572008805 0.7584103124
H -4.5473386185 1.4588434752 -0.6050081345
H -7.0764574193 1.2731719181 1.0940572421
H -7.6185708704 -0.4184510554 2.8632369087
H -6.1732039336 -2.4891349165 4.3809704523
H -3.8806973247 -3.4116452919 4.5304303758
H -2.0343364620 -2.5588752861 3.1665029805
H -1.8053869330 0.4957222771 1.8048145511
H -0.5104701812 -1.6009454388 1.8428895504
H -1.3922428534 -2.1974668798 0.4256238210
H 0.3590823872 0.3038517713 0.5212419747
H -0.1019813798 0.4324891710 -1.9123314504
H -1.1795758333 -0.9757410783 -1.7771553991
H -2.9950471984 2.3925646067 -1.7275136477
H -1.5310235546 1.9339893954 -2.5838866102
H -2.7305231362 -0.2434377032 -3.3342943382
H -4.9290852018 1.8857844111 -3.0736440933
H -4.9668897030 0.3416333884 -4.1028206778
H 3.2515201164 -3.0012431118 -0.6787546347
H 4.3853048635 -1.7502070527 -0.1697201882
H 4.5239781182 -2.0842729648 -2.5836492401
H 2.7935457571 -1.8865665426 -2.7857039538
H 2.8483529649 0.4567183720 -2.2140324893
H 3.9712784894 0.1218012707 -3.5418253382
H 6.2428599608 -0.9780284122 -1.7006054894
H 6.9213300179 0.6208193390 -1.3590095293
H 6.4422777120 0.1997477254 -3.0249418895
H 5.0199297293 2.3294639637 -2.9277290800
H 3.8233470133 2.4490964735 -1.6102838599
H 5.5598408671 2.5451016758 -1.2405914198
H 4.2289362052 0.4476073603 0.0482310174
H 4.0600577184 0.6767168082 3.0157610969
H 5.3074387708 1.3381294482 1.9488332393
H 2.4546576186 2.4504958364 2.2334688122
H 3.7157162669 3.1176329002 1.1754459593
H 3.9176395934 3.1689804871 2.9381910195
