49
CONF95
C -3.7962468330 2.1369297144 1.5205180916
C -3.4785081972 0.9392954036 2.3910066561
C -2.0200778165 0.4631023125 2.5512194564
C -3.0721725671 -0.3653383974 1.7740075864
C -3.4662799192 -1.6765001286 2.4267169453
C -2.9606379279 -0.5035355140 0.2708181548
C -0.8892230026 1.1009345246 1.8830984256
O -0.8473591739 1.6672285689 0.8099296654
O 0.2394282213 0.9728037079 2.6732699452
C 1.4481405375 1.4854766631 2.0692242213
C 2.3830809717 1.6842494526 3.1773884291
N 3.1502464184 1.8412698146 4.0262282328
C 2.0217663210 0.5258278987 1.0452549297
C 2.2003092723 -0.8178384457 1.3757952562
C 2.7125065934 -1.6897740192 0.4210857503
C 3.0545934249 -1.2362759504 -0.8499505193
C 2.8689590622 0.1093373388 -1.1612394994
C 2.3520353599 0.9965389121 -0.2206300723
O 3.2374477862 0.6515006704 -2.3738456846
C 3.1611291805 -0.1371158040 -3.5151435586
C 2.0049566855 -0.8494859884 -3.8238049469
C 1.9530625661 -1.5625393924 -5.0177150370
C 3.0375734531 -1.5559131054 -5.8943425536
C 4.1814426001 -0.8290996306 -5.5724271510
C 4.2512570209 -0.1171809688 -4.3769314271
C -4.2939100021 0.9528736832 3.6704921077
H -3.6384048577 3.0596795599 2.0894747504
H -4.8537851141 2.0982784390 1.2349569777
H -3.1937295144 2.1931056873 0.6166940971
H -1.7739093741 0.0684075358 3.5314211264
H -3.4316747342 -1.6399057004 3.5160051429
H -4.4832175309 -1.9515333557 2.1231277569
H -2.7902137278 -2.4713746007 2.0944165667
H -2.6259096359 0.4038947770 -0.2274390930
H -3.9399696467 -0.7823836000 -0.1348701277
H -2.2561123431 -1.3053916061 0.0237664585
H 1.2532927122 2.4593509938 1.6053265550
H 1.9381768484 -1.1777493245 2.3654963564
H 2.8595397589 -2.7360853579 0.6685441220
H 3.4621419874 -1.9181980071 -1.5880059308
H 2.2049214533 2.0378582026 -0.4887478912
H 1.1616937430 -0.8423559264 -3.1407675985
H 1.0546754349 -2.1187831718 -5.2664444940
H 2.9886880723 -2.1121114536 -6.8246507173
H 5.0291605752 -0.8174570027 -6.2502723152
H 5.1354147467 0.4513400961 -4.1081458825
H -5.3573083333 0.8319201232 3.4333410376
H -4.1697612752 1.9159907087 4.1767828725
H -4.0072296877 0.1667314671 4.3696358337
