29
CONF19
C 3.2326754773 -2.6780900101 -0.9067608593
N 1.9372718436 -2.1137449851 -1.2530528994
C 1.6435996664 -0.8129641099 -1.0985240623
O 2.3731813335 0.0641770230 -0.6694072993
O 0.3405301359 -0.5804823414 -1.5199754181
C -0.1551403794 0.7073228811 -1.3242577892
C 0.1742269946 1.7186565298 -2.2145968177
C -0.3760333918 2.9844584898 -2.0332625263
C -1.2458880654 3.2218399580 -0.9710576453
C -1.5701608831 2.1937746160 -0.0897236695
C -1.0237362712 0.9221352510 -0.2550592867
C -1.3392243413 -0.2163933934 0.6792560057
O -0.2093825730 -0.4795987820 1.5047511398
C -0.7720355646 -1.0869180494 2.6810657618
C -2.0170450192 -0.2415523112 2.9003932435
O -2.4261823901 0.0920602966 1.5548708653
H 3.8846438895 -1.8739117382 -0.5640214295
H 3.1308961838 -3.4185296505 -0.1066033216
H 3.6876925157 -3.1580138066 -1.7790052392
H 1.2158030536 -2.7236681191 -1.6061005043
H 0.8541640476 1.5093503223 -3.0339111577
H -0.1253212487 3.7829982285 -2.7241253650
H -1.6773454261 4.2077484993 -0.8317696747
H -2.2530324268 2.3672035433 0.7344176002
H -1.6015323643 -1.1261849500 0.1125831079
H -0.0395857394 -1.0205277299 3.4869108597
H -1.0276054961 -2.1373105032 2.4816853876
H -1.7867762472 0.6786854385 3.4513628781
H -2.8286581182 -0.7825198987 3.3939178138
