52
CONF84
C 2.0320086563 1.8862261390 0.7215775467
N 2.3536081683 0.5107079232 1.1012754685
C 3.3695939362 0.5163191937 2.1607411056
C 3.6591275001 -0.8875612684 2.6724349340
C 4.1183519301 -1.7765090427 1.5214355964
C 3.0829199266 -1.7343236924 0.4021201708
C 2.7823100173 -0.2996068912 -0.0484149958
C 1.7260496070 -0.3040651576 -1.1666501616
C 0.3285026306 -0.7085131452 -0.6553336236
N -0.6909001932 0.2937224210 -0.9802393830
C -0.9072369901 0.6327739414 -2.3300249860
C -0.4823987698 -0.1880041795 -3.3795327630
C -0.6824105657 0.1942993696 -4.7026364039
C -1.3369180548 1.3823967398 -5.0043767435
C -1.7945573068 2.1931977419 -3.9693485248
C -1.5616765528 1.8337734851 -2.6469866371
S -2.0201879240 2.9302079018 -1.3234078381
C -2.4784382579 1.7005078205 -0.1278335551
C -1.7361818642 0.5070701229 -0.0673987411
C -2.0617494617 -0.4278612796 0.9215313833
C -3.0657277639 -0.1394042194 1.8314154708
C -3.7847124398 1.0476336926 1.7952967424
C -3.5019580116 1.9558753777 0.7799942089
S -3.3764046392 -1.3757787763 3.1402795193
O -2.3176198417 -2.4518962874 2.9876775994
C -4.9117305303 -2.0662252240 2.3769627310
H 1.8049264357 2.4604371354 1.6250205481
H 2.8662677994 2.3925581071 0.1967130067
H 1.1462729211 1.9228307735 0.0810502780
H 2.9974822322 1.1446764064 2.9783538159
H 4.3150740181 0.9778007488 1.8013881450
H 2.7465294613 -1.3001853242 3.1204830465
H 4.4210845722 -0.8384741714 3.4586400992
H 4.2774372861 -2.8066230682 1.8591693935
H 5.0816995938 -1.4094257371 1.1401253487
H 3.4295366193 -2.3069531393 -0.4665501016
H 2.1528340433 -2.2025788811 0.7519348441
H 3.7145199881 0.1229983835 -0.4851560419
H 1.6716438526 0.6797352438 -1.6405809223
H 2.0777406121 -0.9923628809 -1.9423099529
H 0.0395208261 -1.7094363751 -1.0120964024
H 0.3771250343 -0.7479099779 0.4350463035
H 0.0135204406 -1.1264810143 -3.1645508595
H -0.3296318613 -0.4518455809 -5.4997099541
H -1.4985659671 1.6775091368 -6.0352417530
H -2.3174111932 3.1198239520 -4.1833430631
H -1.5487187280 -1.3793464230 1.0104083939
H -4.5517605759 1.2671592932 2.5316871871
H -4.0556155547 2.8864481369 0.7064536220
H -5.2499856621 -2.8776056340 3.0256695957
H -5.6720579792 -1.2834813126 2.3114620229
H -4.6511324151 -2.4442296307 1.3853758566
