41
CONF42
C 0.1906499651 -3.0087895893 -1.9734419636
C -0.3219109522 -1.8027795867 -1.2715704904
C -1.5195785923 -1.6261731309 -0.6353675722
C -1.5151051378 -0.3232341282 -0.0256011627
C -0.2673224263 0.2756674767 -0.3052886368
N 0.4743285181 -0.6546097180 -1.0675292637
C 1.7317142402 -0.4489819872 -1.6498833209
O 2.0213481545 -0.9377754618 -2.7331768659
C 2.7123862037 0.3391017537 -0.8635758551
C 3.6129341011 1.1634497930 -1.5433967243
C 4.5894150655 1.8618809301 -0.8470888972
C 4.6698383250 1.6980929006 0.5327090681
C 3.8026675732 0.8623014408 1.2294119087
C 2.8141612305 0.1905368145 0.5231243827
Cl 5.9095160832 2.5665435552 1.4204852413
C -0.0028886941 1.5852671527 0.0687881345
C -0.9741968856 2.2776131818 0.7924437670
C -2.1997784805 1.6707838515 1.1148715329
C -2.4829859312 0.3698316912 0.6975689148
O -3.1898209459 2.2906385695 1.8265768489
C -2.9542103334 3.6341944867 2.2649122269
C -2.6357654005 -2.6040587195 -0.5264819121
C -2.6742979328 -3.3268215336 0.8039497336
O -1.8266064806 -3.2718558212 1.6687759795
O -3.7920707813 -4.0745015878 0.9131488712
H 0.2255751522 -2.8693954678 -3.0576204727
H -0.4566990573 -3.8590008395 -1.7508149729
H 1.2044155043 -3.2549540163 -1.6440910711
H 3.5369533195 1.2669042873 -2.6205815946
H 5.2785825536 2.5184854088 -1.3653723150
H 3.8973868744 0.7392572993 2.3020227106
H 2.1283852449 -0.4619857987 1.0533935588
H 0.9259703751 2.0832655469 -0.1789768993
H -0.7631288166 3.2954015129 1.0941196173
H -3.4473084446 -0.0724586277 0.9281235999
H -2.0887409576 3.6849263443 2.9362840854
H -3.8536413961 3.9300296049 2.8058077929
H -2.8004104497 4.3069171655 1.4128328601
H -2.5862720904 -3.3708007540 -1.3074481485
H -3.6049911894 -2.1082264919 -0.6611034824
H -3.7684973938 -4.5346870048 1.7697012785
