49
CONF10
C -5.6489305632 0.3800274249 -2.2743965705
C -4.2767381423 -0.2834103053 -2.1247753748
C -3.3483529787 0.1504036141 -3.2630286925
C -3.6627930984 0.0648735118 -0.7676455369
C -4.3979739212 -0.4524438056 0.5014125213
C -4.1995483848 -1.9949269800 0.3705304718
C -2.7765196415 -2.1210468790 -0.2476660068
C -2.3235566165 -0.6356738783 -0.3930889394
C -2.1478280145 -0.1222084030 1.0176709963
C -3.4306803094 -0.0052841330 1.5676258890
C -3.6189874856 0.3848944089 2.8844705073
C -2.4831914004 0.6810806751 3.6432850699
C -1.1982427287 0.5604826584 3.1195053493
C -1.0150910060 0.1326651019 1.7917880656
N 0.2432817262 -0.0327882507 1.1849041926
C 1.4883994005 -0.0018426927 1.7534309907
O 1.6968345381 0.1783623427 2.9558630114
C 2.6024783374 -0.2086142487 0.8129789407
C 2.6295749474 -0.1582095338 -0.5774008532
N 3.9029094670 -0.3922110234 -0.9509535492
N 4.7220835401 -0.6007527860 0.0936244476
C 3.9440570933 -0.4868996767 1.1692903838
C 4.5174544613 -0.6365002470 2.5388222668
F 5.6398944052 -1.4310800287 2.5061077489
F 4.9378250036 0.5985327630 3.0115851086
C 4.4302046777 -0.4522095837 -2.3081343705
H -5.5581994188 1.4696254618 -2.1876545987
H -6.3509495676 0.0360750562 -1.5087316335
H -6.0819528860 0.1542912314 -3.2543943157
H -4.4156401001 -1.3692543007 -2.1953084134
H -2.3858202161 -0.3692354640 -3.2231943950
H -3.8042705355 -0.0623700047 -4.2356056503
H -3.1547301366 1.2287817993 -3.2096731332
H -3.5409119779 1.1556691820 -0.7111970970
H -5.4325691299 -0.1389616929 0.6482398305
H -4.9610345704 -2.4242292696 -0.2874500242
H -4.2819284807 -2.4863296012 1.3432859592
H -2.8062637788 -2.6083176774 -1.2270301853
H -4.6133394540 0.4685741484 3.3127024660
H -2.5936712683 1.0157100808 4.6704787562
H 1.8604596917 0.0406585219 -1.3109303023
H 3.8128333226 -1.0480090462 3.2639484332
H 4.7900682478 -1.4625406528 -2.5185455297
H 5.2526360708 0.2591342603 -2.4119415701
H 3.6293237207 -0.1940057360 -3.0013033643
H -2.0874879337 -2.6846135457 0.3867445255
H -1.4904256079 -0.4832266365 -1.0822357654
H 0.2060583210 -0.2823138528 0.2079537630
H -0.3398953650 0.7934952353 3.7319666498
