29
CONF3
C -2.7796905287 -2.1668055313 0.3849249036
C -1.3069645244 -1.9201782805 0.1259636585
N -0.9012960337 -0.4900165629 0.2058160837
C -1.7723251160 0.4908356017 0.4946392172
C -1.4367710235 1.8216069383 0.5759114661
C -2.5221115531 2.7849981767 0.9040607607
O -2.1414221430 4.0637628882 0.9699980258
O -3.6750249507 2.4454303039 1.0995682226
C -0.0830967688 2.2464283370 0.3469701797
O 0.2835926226 3.4461421870 0.4059362415
C 0.8519361323 1.1721697798 0.0351846356
C 2.2074102452 1.4276027578 -0.2141784498
C 3.0538597606 0.3833799184 -0.5058201705
C 2.5391134470 -0.9273664358 -0.5474016585
C 3.4361446151 -2.0849278982 -0.8627634641
N 1.2540068917 -1.1907999286 -0.3129112829
C 0.4357532023 -0.1703785045 -0.0307308962
H -2.9493183699 -3.2428147532 0.2935993505
H -3.0837572183 -1.8688346804 1.3924933210
H -3.4219847206 -1.6672908369 -0.3461916823
H -0.6924372099 -2.4687843099 0.8453356361
H -1.0271042816 -2.2769388752 -0.8691005905
H -2.8016942423 0.2073271441 0.6722785653
H -1.1531108555 4.0949847672 0.7726971296
H 2.5559474436 2.4539582121 -0.1701674323
H 4.1068263417 0.5539141268 -0.7033310104
H 2.8746442866 -3.0195021348 -0.8564760040
H 4.2484335432 -2.1480418199 -0.1306953165
H 3.9004402933 -1.9498607089 -1.8455068557
