52
CONF1
O 4.3805989537 -2.1044572056 -0.5093349116
C 3.0066552906 -1.7604749347 -0.3098494994
C 2.8191681440 -0.2966101938 0.0753428134
C 3.8421439258 0.3015829387 0.8435306567
C 3.7099836296 1.6291948904 1.1579699075
C 2.6161455133 2.3745834037 0.7324747061
C 1.6046854737 1.8157050735 -0.0043794850
C 1.7004293582 0.4470624302 -0.3337201227
C 0.5292331477 -0.1471070451 -1.1196314586
C -0.8136694832 0.1794332274 -0.4853078399
C -0.9649337831 0.0819860002 0.8981442308
C -2.2097809186 0.3314543002 1.4772536654
O -2.4664103587 0.2676852701 2.8140585974
C -1.3734992604 -0.0406247154 3.6711394970
C -3.3056113841 0.6822853858 0.6754244638
O -4.5090715837 0.9888600149 1.2515136929
C -5.3962753530 -0.1351866639 1.3382536256
C -3.1441427147 0.7545049140 -0.7141863314
O -4.2682487977 1.0659057929 -1.4151917320
C -4.1596645878 1.0999295893 -2.8366227119
C -1.8939686150 0.5170550273 -1.2920826814
C 0.7192234896 -1.6547105285 -1.2587808833
C -0.0080967461 -2.3764835904 -2.3811727787
O 0.7410980446 -3.4700018339 -2.7353645819
C 1.9879563675 -3.4904578330 -1.9829985071
C 2.1621670046 -2.0487596043 -1.5286194065
O -1.0421230799 -2.1098272383 -2.9277055154
O 2.7579003954 3.6790842070 1.1341730029
C 3.8776933514 3.6741494977 2.0352329323
O 4.5817810609 2.4342075199 1.8486653001
H 4.7554229165 -1.4563048887 -1.1200023108
H 2.6835784886 -2.4127791031 0.5152691994
H 4.7022060136 -0.2767125165 1.1597875903
H 0.7408696960 2.3958435951 -0.3099698155
H 0.5376657109 0.2906674681 -2.1280696286
H -0.1039304586 -0.1623300883 1.5086635098
H -0.5741073505 0.7070400816 3.5837322648
H -1.7774419538 -0.0233597920 4.6843771748
H -0.9650268546 -1.0377256734 3.4586713835
H -5.6136716466 -0.5364505594 0.3408051220
H -4.9630243771 -0.9211787812 1.9699679555
H -6.3175327829 0.2341791226 1.7934497605
H -5.1610713671 1.3303089810 -3.2026716918
H -3.4642916422 1.8838297057 -3.1634439023
H -3.8343424215 0.1305783728 -3.2351348326
H -1.7623193393 0.5445500045 -2.3653952619
H 0.3959048194 -2.1392404441 -0.3214264673
H 2.7685735909 -3.8584152111 -2.6500695171
H 1.8791362681 -4.1747474262 -1.1310552978
H 2.5398481821 -1.4464618982 -2.3700062658
H 4.5418942337 4.5083823392 1.7930414468
H 3.5102948897 3.7303596153 3.0712506390
