47
CONF158
C -2.7415753556 -2.8140540960 3.3222256997
C -3.3125558015 -1.4843137102 2.8839197327
C -4.1751624246 -1.4331869496 1.6677836080
C -2.7253247036 -0.9406360759 1.5700480878
C -2.5055964511 0.4900664064 1.3443968373
O -3.2552745449 1.4078828343 1.6088498119
O -1.2850951758 0.6913954047 0.7497177225
C -0.9439920572 2.0774351483 0.4899024213
C -1.8166021327 2.6106302082 -0.5640045982
N -2.4760794869 3.0350607743 -1.4118178185
C 0.5082443452 2.1210406935 0.0826047209
C 0.9038069151 1.5638769773 -1.1321837821
C 2.2504095308 1.5754895772 -1.4764850032
C 3.2021443006 2.1423987413 -0.6271295278
C 2.7896566945 2.6902749918 0.5817379500
C 1.4452009723 2.6836116223 0.9463732861
O 2.5697012809 1.0713572714 -2.7181200601
C 3.8152469197 0.4852648291 -2.9074757102
C 4.2965978577 -0.4849171428 -2.0321460187
C 5.5161868640 -1.0950485293 -2.3097769599
C 6.2386002568 -0.7474005196 -3.4507268963
C 5.7353724530 0.2183813359 -4.3193598167
C 4.5201536020 0.8441519995 -4.0502063161
C -4.5735186537 -2.6403746804 0.9166695013
C -4.8987403788 -2.6111831956 -0.3743620156
Cl -5.4142357859 -4.0196687263 -1.2591328156
Cl -4.8344039710 -1.1533762581 -1.3238600576
C -3.6160794887 -0.5399156334 4.0235597788
H -2.4730687908 -3.4492895906 2.4741254446
H -3.4742945636 -3.3484375758 3.9373202909
H -1.8437064993 -2.6522024638 3.9268423023
H -4.8892892464 -0.6113461931 1.6408385480
H -2.0179986815 -1.5976517976 1.0762167148
H -1.1091057393 2.6720403400 1.3947847481
H 0.1826103769 1.1205316141 -1.8119611864
H 4.2482501518 2.1588205584 -0.9123953779
H 3.5260148827 3.1348532994 1.2431618108
H 1.1279399850 3.1117986441 1.8914704136
H 3.7242270515 -0.7573862096 -1.1512508027
H 5.8978232981 -1.8534156535 -1.6333566725
H 7.1872863723 -1.2295803644 -3.6621680535
H 6.2908569796 0.4937008126 -5.2103558374
H 4.1146938371 1.6011168745 -4.7133665655
H -4.6290578640 -3.5971587081 1.4282969975
H -4.3080613169 -1.0300330004 4.7167460515
H -4.0723940129 0.3884759231 3.6780295980
H -2.6998103034 -0.2990790774 4.5730665405
