47
CONF97
C -3.6115726869 1.7437357859 1.0755975601
C -2.1233802468 1.5263636536 1.2311301041
C -1.2532525275 2.6184559156 1.8080034662
C -1.2306254509 2.3518695724 0.3014196992
C -0.0150332948 1.7699358795 -0.2842591745
O 0.8856754408 1.2071717385 0.3013509509
O -0.0317069064 1.9317117815 -1.6448780646
C 1.0723658220 1.2946319393 -2.3503134033
C 1.2576620908 2.0729977493 -3.5728007219
N 1.4197864551 2.6644213010 -4.5508727683
C 0.7581307967 -0.1566258520 -2.6337092177
C -0.1888058182 -0.5036490915 -3.5989386392
C -0.5029341501 -1.8442653065 -3.7939347023
C 0.1039575810 -2.8333396010 -3.0251091800
C 1.0411502961 -2.4692473704 -2.0628944915
C 1.3873948343 -1.1344166419 -1.8688664967
O 1.6522675578 -3.4876373568 -1.3612216355
C 1.9815240290 -3.2719487893 -0.0291880212
C 1.0931676995 -2.6549368188 0.8489770381
C 1.4516368971 -2.5228599078 2.1870933889
C 2.6748907401 -3.0112998472 2.6445255012
C 3.5443682117 -3.6369231530 1.7536089912
C 3.2043292606 -3.7670849215 0.4090544696
C -1.7993016676 3.8916930667 2.2823052816
C -1.3798317826 4.5542162097 3.3606637638
Cl -2.0911341647 6.0687021207 3.8579448977
Cl -0.0939769804 4.0115485456 4.4044058770
C -1.7502773176 0.0997973161 1.5626794059
H -4.1157268725 1.5521823549 2.0292186982
H -4.0084374666 1.0422115258 0.3347496066
H -3.8593247427 2.7555913738 0.7493890778
H -0.3708074353 2.2530990571 2.3240743477
H -1.7564575811 3.0544763828 -0.3361557752
H 1.9839595137 1.3776758253 -1.7477228681
H -0.6757970702 0.2650882245 -4.1910422202
H -1.2342255687 -2.1249948766 -4.5447072058
H -0.1412488765 -3.8814134026 -3.1606981241
H 2.1242286285 -0.8585264252 -1.1231609896
H 0.1386948951 -2.2839853800 0.4902715779
H 0.7635176735 -2.0423448340 2.8758980539
H 2.9467521672 -2.9069386078 3.6896988338
H 4.4980587110 -4.0214736311 2.1013426765
H 3.8726044962 -4.2454189283 -0.2993486751
H -2.6089527270 4.3482130710 1.7212027502
H -2.0565757006 -0.5702819210 0.7512571325
H -2.2780432209 -0.2061056307 2.4721652832
H -0.6786929645 -0.0200717832 1.7288397255
