18
CONF86
C -2.1195673016 -1.0188290595 1.1573141025
C -1.3130381129 0.0134340451 0.3901287710
C 0.0399165523 -0.5613875704 -0.0434890232
C 0.8368339729 0.4369511823 -0.8592415126
O 2.0615985502 -0.2629763043 -1.2301307673
N 2.9549622126 0.5145761321 -2.0025137413
O 2.6326925919 1.6457410889 -2.2765696201
O 3.9595036802 -0.0839101933 -2.2966356661
O -1.1412143633 1.1461633201 1.2660676332
H -3.0886801483 -0.6044129841 1.4474730514
H -2.2875368666 -1.9071881329 0.5422836297
H -1.5812872763 -1.3186169386 2.0627226267
H -1.8736361243 0.3279733507 -0.5031330094
H -0.1373175547 -1.4599716060 -0.6452719711
H 0.6050234837 -0.8530245251 0.8492641509
H 0.3053491837 0.7333917925 -1.7699741129
H 1.1031766925 1.3258139602 -0.2789785149
H -0.9567792726 1.9262722360 0.7299931927
