35
CONF6
C 0.8410805719 -2.7179915794 -2.7606847549
C 1.2184184487 -1.2526427709 -2.8004147917
O 0.7188521658 -0.5468216313 -1.6227488732
C 1.4653176596 -0.6278709144 -0.5208963429
O 2.5064709569 -1.2413190721 -0.4236364132
C 0.8544220363 0.1442590819 0.6715917748
C 0.4314460681 1.5389111443 0.2221669702
C 1.3177610702 2.6077419780 0.3409626096
C 0.9599200866 3.8784346070 -0.0986454326
C -0.2934812619 4.0690484749 -0.6640996375
C -1.1934542737 3.0173929913 -0.7955472076
C -0.8229440924 1.7558627915 -0.3494114597
Cl -0.7556363819 5.6683952448 -1.2173013596
C -0.3125544065 -0.6444299210 1.2717168731
C -0.9934717695 -0.0682850586 2.3477041802
C -2.0211986176 -0.7442963133 2.9871917581
C -2.3697951414 -2.0168878267 2.5430763908
C -1.7049043607 -2.6163394355 1.4841957658
C -0.6743541265 -1.9216329615 0.8541184338
Cl -3.6725702169 -2.8768100884 3.3408062469
O 1.8728568232 0.2769149687 1.6531218233
H -0.2413510021 -2.8380897020 -2.6598473974
H 1.1521158902 -3.1966319002 -3.6944574568
H 1.3424820024 -3.2292216645 -1.9351250162
H 2.3016559146 -1.1150570223 -2.8522271306
H 0.7407851098 -0.7341350349 -3.6341956651
H 2.2887200361 2.4450772908 0.7928228659
H 1.6458926101 4.7116527803 0.0001899543
H -2.1695039521 3.1860455754 -1.2350992160
H -1.5218257449 0.9316797515 -0.4442612921
H -0.7089765686 0.9220955377 2.6884138933
H -2.5484503876 -0.2948294961 3.8205463498
H -1.9842045204 -3.6104227043 1.1554809262
H -0.1582308884 -2.4013240757 0.0291994274
H 2.4887103526 -0.4584735425 1.5052936906
