52
CONF245
C -1.0093976179 -3.0135219069 0.9228217691
C -1.1864455544 -1.6364654393 1.4932573003
C -1.6178525690 -0.5623936247 0.8095490633
C -1.9521453675 -0.5202590587 -0.6225366261
C -1.8028585300 0.7999106841 -1.4399110351
C -3.1651629187 0.1847960370 -1.1745804458
C -4.1588588569 0.8381966596 -0.2414891850
C -3.8123962031 -0.4489290711 -2.3890792775
C -1.2839788439 1.9979164384 -0.7634758695
O -1.6555370450 2.4763408787 0.2917675834
O -0.2430539940 2.5190933936 -1.4741119968
C 0.5573423199 3.5015490050 -0.7570559964
C 1.3385594726 2.8271292505 0.3397437293
C 2.0611383710 1.6727716209 0.0334454253
C 2.7353837002 0.9970159026 1.0444305090
C 2.7290455514 1.4769789992 2.3536441353
C 2.0302491574 2.6434943610 2.6419153420
C 1.3243349800 3.3148528602 1.6449673556
O 3.4925991326 -0.1339691425 0.8107645249
C 3.1982452186 -0.9344523094 -0.2840046024
C 1.9022811322 -1.3817122166 -0.5312252164
C 1.6798507057 -2.2375597122 -1.6056720364
C 2.7375621432 -2.6512233016 -2.4148454591
C 4.0284331264 -2.2035433544 -2.1443722967
C 4.2651025137 -1.3378786414 -1.0787986394
C -0.8285600082 -1.5199486668 2.9487023063
H 0.0303930835 -3.3442793851 1.0426545175
H -1.6282692082 -3.7285379969 1.4795104786
H -1.2739808443 -3.0887765870 -0.1330729709
H -1.7162656144 0.3712009700 1.3563017133
H -1.6300776618 -1.3797763161 -1.2031278621
H -1.4006650680 0.6569753777 -2.4373647304
H -3.6932901653 1.2669281735 0.6438830436
H -4.8936328473 0.0892003559 0.0745201374
H -4.6965735961 1.6361727401 -0.7654481091
H -4.3486977283 0.3064096690 -2.9745909186
H -3.0703607140 -0.9247078762 -3.0369561603
H -4.5339017167 -1.2111526494 -2.0744467049
H 1.2153530694 3.9144351876 -1.5257891544
H -0.0821533718 4.2927695241 -0.3586256698
H 2.0783487584 1.2986822685 -0.9842266271
H 3.2666132764 0.9342002041 3.1239961675
H 2.0173349330 3.0182957965 3.6605452871
H 0.7472048029 4.2025061616 1.8841994954
H 1.0809672254 -1.0597856178 0.1026777051
H 0.6719557169 -2.5889318793 -1.8042576478
H 2.5557286069 -3.3205652043 -3.2492150231
H 4.8584055829 -2.5223088684 -2.7671530729
H 5.2631930234 -0.9747316145 -0.8569340798
H -0.9827470691 -0.5052787694 3.3249477832
H 0.2240190126 -1.7920582403 3.1040297967
H -1.4227795922 -2.2150742646 3.5553567340
