29
CONF33
C -0.3812659653 -0.9604830732 -2.9278977956
C 0.0979334756 0.3817921682 -2.4326601881
O -0.5912150209 0.6557029290 -1.1715543722
P 0.0591679299 1.5378651928 -0.0046613355
S 1.5888907303 2.6258044579 -0.3847845604
O -1.1852591504 2.3110143925 0.6145036719
C -2.4158239447 1.6175649661 0.9971600132
C -3.4497456846 2.6782827260 1.2893729379
O 0.2443465288 0.4176592293 1.2314596621
C 1.1308111739 -0.5948343530 1.1783536275
N 1.6920272715 -0.9199531465 0.0264329051
C 2.5553357101 -1.9141695154 -0.0397468703
C 2.9140019940 -2.6691560126 1.0773720752
C 2.3245889863 -2.3431236565 2.2965777216
C 1.4223114401 -1.2955346249 2.3583566801
Cl 0.6674680397 -0.8634347771 3.8603027499
Cl 4.0486362787 -3.9784479466 0.9928187074
Cl 3.2334853057 -2.2579099316 -1.6091206603
H 0.0949803385 -1.1826100505 -3.8878588564
H -0.1103182595 -1.7472025121 -2.2189729032
H -1.4655192700 -0.9657593886 -3.0691868815
H -0.1576416860 1.1923869010 -3.1226055048
H 1.1765273078 0.3868735830 -2.2593779052
H -2.2007208984 1.0052443667 1.8790960442
H -2.7259797355 0.9662411705 0.1734061375
H -3.6446163720 3.2842290795 0.4010769890
H -4.3844491145 2.2002912236 1.5981956452
H -3.1121184857 3.3352905544 2.0948030163
H 2.5741613765 -2.9036242521 3.1892417492
