110
CONF22
C -2.7135302001 -0.6197206091 -1.6157257047
N -3.5821377794 -1.4167373236 -2.5097743211
C -3.0198233894 -2.7848820931 -2.5604142142
C -2.1635442239 -2.9003733243 -1.2853015960
C -2.4748137000 -1.6164795323 -0.4749577716
C -1.3796874502 -1.3002123352 0.5095554566
C -0.0531665631 -0.9780126520 0.2904740295
C 0.8568937754 -0.9136852677 1.3524580852
C 0.3782354487 -1.2286478928 2.6429963764
O 1.3238441242 -1.2204191975 3.6260450640
C 0.9238133545 -1.5283984355 4.9649691436
C -0.9589589118 -1.5503112937 2.8895388705
C -1.8352930979 -1.5635821085 1.8014225898
N -3.1807171260 -1.8458577785 1.8138893468
C -3.7579745661 -2.6828667180 2.8516755075
C -3.7313859613 -1.8293732333 0.4544072612
C -4.8584656987 -0.7592931599 0.2392770837
O -5.6657405310 -1.1402665098 -0.8714698717
C -4.2583704547 0.6350948808 0.0170640756
O -5.2926546930 1.6202039365 -0.0019778241
C -3.3526363276 0.7360913324 -1.2587572330
C -2.2566008640 1.7932658884 -0.9318159423
C -1.3763186035 2.2287358848 -2.1014665311
C -4.1214696324 1.2586724224 -2.4523698813
C -4.2761317039 0.6123025172 -3.6068452075
C -3.8128040359 -0.7957255942 -3.8059406232
C -5.7695355995 -0.6998932141 1.4839642901
N -6.9224734318 -1.3889653045 1.3651246217
O -5.4401915491 -0.1015008543 2.5071930666
C 2.3317696023 -0.5114970918 1.1790984218
C 2.6972397076 -0.5275208189 -0.3377336023
C 4.1080000459 -0.1437888987 -0.7968361353
C 4.3712368753 1.3627397256 -0.6483887291
N 3.3963434411 2.0534404952 -1.4658052295
C 3.6749369382 1.9149340263 -2.8728200608
C 3.5298876695 0.4305156194 -3.2950438546
O 4.2239311218 0.2193264325 -4.5502757548
C 2.0386098263 0.1130846802 -3.5030459547
C 1.6877763328 -1.3489529410 -3.7623428863
C 4.2893263692 -0.4730252383 -2.2978729422
C 2.5709417800 3.1002019813 -0.9115253986
C 1.5181205840 2.5702750329 0.0994983042
C 2.1108704080 2.1136193905 1.3960854130
C 2.5244630963 0.8571458008 1.8223939005
N 3.1239813956 0.9899065921 3.0615615594
C 3.1244055394 2.2987371233 3.4548248387
C 3.6189583512 2.8962627557 4.6141247267
C 3.4751762210 4.2732435142 4.7327989409
C 2.8537936120 5.0313583505 3.7211836467
C 2.3638338841 4.4302429209 2.5695406509
C 2.4912276974 3.0397384453 2.4223401950
C 3.2546942716 -1.5795666683 1.7834343293
O 4.3163797107 -1.3771640603 2.3413656299
O 2.7988862309 -2.8117940977 1.5112134949
C 3.6442978906 -3.9009127900 1.9536020123
H -1.7427940158 -0.4324445482 -2.1095225539
H -2.4004152779 -2.9189171017 -3.4595834620
H -3.8350563150 -3.5161998853 -2.5998877617
H -1.0993341505 -2.8979793996 -1.5397403123
H -2.3673473221 -3.8024084918 -0.7028360715
H 0.2776209921 -0.8043469733 -0.7274133687
H 0.5207637211 -2.5456594877 5.0313319970
H 1.8300936855 -1.4520295812 5.5669654990
H 0.1792300748 -0.8099383568 5.3266568788
H -1.3070371688 -1.7889564219 3.8857875014
H -3.7147776714 -2.1813961793 3.8243415502
H -4.8084535838 -2.8736142137 2.6265823413
H -3.2340350239 -3.6489595454 2.9274950466
H -4.2075186397 -2.7953707817 0.2331808341
H -5.0075638765 -1.3266151473 -1.6154928426
H -3.6474922531 0.8677503602 0.8962058228
H -5.9120238786 1.3533153056 -0.6972416674
H -2.7782619321 2.6713973654 -0.5304040547
H -1.6323982163 1.3969855902 -0.1214960664
H -1.9729487470 2.6282527830 -2.9264575899
H -0.7719868159 1.4043236310 -2.4937704356
H -0.6851025399 3.0120020673 -1.7768923847
H -4.4797742223 2.2820008541 -2.3656980416
H -4.7589861817 1.0998833307 -4.4498716884
H -2.8980323814 -0.8148078767 -4.4329304453
H -4.5740352648 -1.3729654261 -4.3477683919
H -7.1771386180 -1.7876166514 0.4753656474
H -7.5882924565 -1.3720097548 2.1218167151
H 2.0157257619 0.1584153978 -0.8320285125
H 2.4669330224 -1.5343120761 -0.6990931369
H 4.8644912153 -0.7130473853 -0.2401188052
H 5.4009292721 1.5761914507 -0.9968958196
H 4.3021480006 1.6906920693 0.3888414596
H 2.9805598430 2.5276495525 -3.4618798185
H 4.7069745929 2.2339916484 -3.1253624730
H 3.7349866697 0.6938331942 -5.2357764933
H 1.4700454301 0.4959127048 -2.6494825076
H 1.7124050746 0.7185106097 -4.3619896703
H 1.8556282871 -1.9739074205 -2.8806895070
H 2.2855352719 -1.7569338244 -4.5839434899
H 0.6313505549 -1.4420382073 -4.0359185984
H 5.3536559697 -0.3420977075 -2.5320985471
H 4.0497519100 -1.5232148538 -2.4990110199
H 3.1632322409 3.8883194108 -0.4082294823
H 2.0361985151 3.5801489240 -1.7395321449
H 0.9258840491 1.7861722608 -0.3803772279
H 0.8252215660 3.3958257362 0.3125557219
H 3.5399368839 0.2251433366 3.5659376139
H 4.0978530328 2.3084739931 5.3914736556
H 3.8485042463 4.7737813434 5.6208933672
H 2.7592972777 6.1056477578 3.8475749407
H 1.8890387196 5.0285628525 1.7970011696
H 3.1214737982 -4.8089207547 1.6559171152
H 4.6223434205 -3.8421799040 1.4698750796
H 3.7655446544 -3.8640072266 3.0390211383
