35
CONF11
C -1.5304156343 -1.2181467850 2.1974532035
C -0.9115823044 -0.1202029612 1.3235829750
C 0.5807015468 0.0258612372 1.6307170710
N 1.1310816811 1.3748700764 1.3766794125
C 0.9149817856 1.9032554899 0.0293743888
C 1.6438376175 1.1366597042 -1.0576830818
O 1.2722764374 1.0572360387 -2.2162511249
N 2.8266739923 0.5306782879 -0.6459321342
C 3.3932020331 0.6198615830 0.6196028339
O 4.4857115973 0.1322365976 0.8544952751
C 2.5662852947 1.3794877062 1.6481168436
N -1.1275267445 -0.3122272719 -0.1288746363
C -2.4578206900 0.0811672519 -0.5688925488
C -2.5633835245 0.0833012512 -2.0765628400
O -3.3734797887 0.7607700524 -2.6860236647
N -1.6911135939 -0.7620913978 -2.7415958460
C -0.8154991326 -1.6538343439 -2.1430585853
O -0.1382547006 -2.4165974637 -2.8102597094
C -0.8109312617 -1.6412103497 -0.6325230377
H -2.5708408266 -1.4090866549 1.9173127930
H -1.5140237724 -0.9120700128 3.2471830376
H -0.9718364671 -2.1564622331 2.1110561583
H -1.3942399219 0.8344848319 1.5718396768
H 1.1418107813 -0.7646274537 1.0989228078
H 0.7283702257 -0.1631611517 2.6999996457
H -0.1420156896 1.9270514814 -0.2319304234
H 1.2920315895 2.9367638178 0.0009590342
H 3.3503536446 0.0171154697 -1.3488168870
H 2.7786676318 0.9445067610 2.6290619814
H 2.9383846453 2.4147018009 1.6557619110
H -2.6840965864 1.0971907040 -0.2314208627
H -3.2680118526 -0.5802062242 -0.1966455808
H -1.7328186277 -0.7646030377 -3.7561476801
H -1.5304671173 -2.4216838547 -0.3084298182
H 0.1839885423 -1.9609892439 -0.3149762797
