44
CONF63
C 3.1798124517 2.1250345502 -0.4835687568
C 2.2749435337 0.9638590042 -0.0840542249
C 2.9638504508 -0.0675015114 0.8849183784
N 2.3595643259 -1.3571091002 0.6140887109
C 2.0003206303 -1.6643411402 -0.7821188814
S 1.8654701542 -0.0353793285 -1.6288246707
C 0.7203512624 -2.3881024357 -0.2527606668
C 1.1645071604 -1.8410454553 1.1349566971
O 0.6805362158 -1.7706902151 2.2394361384
N -0.5304055027 -1.8760652553 -0.7285807140
C -1.7216972193 -2.4308043533 -0.3832387242
O -1.8171771962 -3.5018345123 0.2112837605
C -2.9494812898 -1.5964267655 -0.8263427280
C -2.8488841037 -0.2065075240 -0.2317057750
C -2.8512698893 0.9283266847 -1.0420964417
C -2.7316509060 2.2031564528 -0.4950971339
C -2.6066134611 2.3504783495 0.8860442788
C -2.6079771372 1.2249540458 1.7136602589
C -2.7228348597 -0.0384700087 1.1520603041
O -2.4700465775 3.5691609783 1.4867616518
N -4.2269762714 -2.2258337600 -0.4960976065
C 4.4781620041 -0.0880925624 0.7472141107
O 4.8943683950 -0.9166129914 -0.2222685657
O 5.2154350412 0.5914254080 1.4267183279
C 0.9883559480 1.4864905123 0.5550767290
H 4.0905659142 1.7860954612 -0.9840439130
H 3.4554165096 2.6940559288 0.4103192160
H 2.6438150535 2.7961040143 -1.1602192578
H 2.7447647501 0.2208833200 1.9172970226
H 2.7103700005 -2.2970806117 -1.3163443990
H -0.5233256714 -0.9263316710 -1.0861344637
H -2.8844979906 -1.5049475597 -1.9189360447
H -2.9433210304 0.8186865008 -2.1192379059
H -2.7290879415 3.0794346582 -1.1380609123
H -2.5028695496 1.3524070183 2.7863554993
H -2.7002036450 -0.9085649360 1.8044556059
H -2.4790181966 4.2644579513 0.8144913714
H -4.2155135736 -3.1833283098 -0.8377115583
H -4.3027600486 -2.3066024810 0.5145912830
H 1.2338117469 2.0859290979 1.4393029014
H 0.4509444951 2.1194839458 -0.1561186503
H 0.3163416368 0.6790895971 0.8583583577
H 0.7592086624 -3.4774246244 -0.3366651985
H 5.8655949039 -0.8712030845 -0.2757303391
