51
CONF41
C -0.8819993197 0.6440421694 1.7212336561
C -0.0734247225 -0.6054097691 2.0474643087
N 0.3043505434 -1.3203414129 0.8205542207
C -0.8981201974 -1.7397926620 0.0903754006
C -1.7516683378 -0.5391403015 -0.3021768076
C -2.1458186069 0.2663044484 0.9537620314
C -2.9686592231 1.4719452772 0.5499306615
O -2.4703366619 2.5926876621 0.5179827862
C -4.3910320378 1.2757954243 0.1404176374
C -5.0686026478 2.3575463115 -0.4418149595
C -6.3917481679 2.2446306812 -0.8382927446
C -7.0296355851 1.0288189279 -0.6385040918
C -6.4032695319 -0.0662839397 -0.0666132188
C -5.0753418316 0.0653599239 0.3204969695
F -8.3215155079 0.9082762641 -1.0196168012
C 1.1546896186 -2.4737004737 1.1152667694
C 2.5964201917 -2.0916630565 1.4504692779
N 3.2457903378 -1.3744371441 0.3404179666
C 3.3464321374 0.0214017087 0.4080097699
O 2.9797524723 0.6372210192 1.4047755738
C 3.9227681816 0.6735698530 -0.7692184069
C 4.0488549144 2.0673212201 -0.8189097213
C 4.5970057788 2.6798607868 -1.9319472550
C 5.0285628612 1.8981004572 -3.0117557766
C 4.9130366894 0.5184727605 -2.9837705357
C 4.3557279457 -0.0969624239 -1.8566880908
N 4.2241280616 -1.4680782433 -1.7890527960
C 3.6819790147 -2.1541400524 -0.7335904880
O 3.5901855652 -3.3778397885 -0.7346316851
H -1.1420175280 1.1654497523 2.6490233328
H -0.2718086607 1.3262938901 1.1191865169
H -0.6619976589 -1.2671613561 2.7161453235
H 0.8364024911 -0.3178444191 2.5814713901
H -1.5132812112 -2.4367303237 0.6965005285
H -0.5861227266 -2.2771746070 -0.8126966662
H -2.6392298017 -0.8877218452 -0.8401346622
H -4.5386501897 3.2929318700 -0.5829484053
H -6.9254460345 3.0717959159 -1.2933323976
H -6.9463075212 -0.9945438649 0.0716002706
H -4.5855524336 -0.7896330046 0.7713563148
H 0.7633202990 -3.0728334059 1.9605412358
H 1.1656204288 -3.1269787705 0.2363809058
H 3.1674654055 -3.0005001488 1.6524408845
H 2.6525582645 -1.4422948908 2.3238460874
H 3.7076520009 2.6477624801 0.0311309872
H 4.6935214894 3.7592929445 -1.9696704743
H 5.4604085633 2.3759193158 -3.8853533676
H 5.2465718077 -0.0886561891 -3.8194830571
H -1.1842280057 0.1125890886 -0.9788460718
H -2.7564885083 -0.3864925448 1.5914286013
H 4.5373955373 -2.0381518437 -2.5632840417
