41
CONF38
C 3.9008936743 0.5930917839 1.6753607289
C 3.6438910339 -0.1718674250 0.4017912652
O 2.2537260677 -0.6230098045 0.4634688408
C 1.8046513188 -1.3016796899 -0.5693425263
N 2.5253008231 -1.6149511093 -1.6150844592
C 1.9371552363 -2.3127840720 -2.5967361802
C 0.6360977440 -2.7361858223 -2.6389425774
C -0.1390687620 -2.3835069730 -1.5219632542
N -1.4162552444 -2.5632783759 -1.1989898761
C -1.4957881984 -1.9565781995 0.0061984841
N -0.3940074127 -1.3981490364 0.5027620378
N 0.4913000883 -1.6750185117 -0.4914506212
S -3.0652554035 -1.6973822839 0.8722563405
O -2.7864397560 -1.7273712322 2.3015482965
O -4.0680039980 -2.5196787159 0.2149783707
N -3.4209716990 -0.0654917713 0.4327934215
C -2.6676678199 0.9518500383 1.0611580976
C -1.5487275462 1.5609735680 0.4445629376
C -0.8272332065 2.5492407553 1.1177835135
C -1.1979930084 2.9442307301 2.3932690634
C -2.3094155591 2.3764123575 3.0017826029
C -3.0436728825 1.4009799693 2.3372551137
Cl -4.4892797710 0.8024970038 3.0959099646
C -1.1674558423 1.1937076254 -0.9399419591
O -1.9052842102 0.6791109504 -1.7616938611
O 0.1133535161 1.5185982003 -1.2259479570
C 0.5009957516 1.2905082047 -2.5994429089
F 2.7444625643 -2.5923251645 -3.6256343058
H 4.9326060896 0.9557051715 1.6738959499
H 3.7585463884 -0.0459339164 2.5500403675
H 3.2296692711 1.4517016540 1.7556660991
H 3.7615773281 0.4478225008 -0.4924732372
H 4.2855961130 -1.0523050262 0.3009494445
H 0.2207642401 -3.2887128457 -3.4695284509
H -3.3692066423 0.0022777539 -0.5862579471
H 0.0208539755 3.0076687987 0.6259593347
H -0.6349870107 3.7117578742 2.9126722011
H -2.6303565280 2.6979086639 3.9856821475
H 1.5606929491 1.5401990187 -2.6465741336
H 0.3338954922 0.2473748453 -2.8809764511
H -0.0789595455 1.9332325817 -3.2667644146
