48
CONF4
C -1.3268750814 -4.0208086716 0.7138067310
O -1.3209193063 -2.8905442323 1.5970040147
N -1.6810404345 -1.7676678319 0.8879854224
C -1.6242050471 -0.6923469346 1.6036962224
C -1.1989458901 -0.6460458072 3.0237052824
C -2.0906336544 -0.2521605237 4.0221298638
C -1.7224091572 -0.2813450955 5.3612714046
C -0.4452407376 -0.6984033378 5.7224570868
C 0.4668652736 -1.0743332059 4.7427975801
C 0.0834402852 -1.0398164211 3.4133897728
O 1.0095829446 -1.4842614359 2.4666121437
C 1.3477219663 -0.6250475693 1.4805318532
C 1.7803487899 -1.1612782799 0.2722200970
C 2.0887124321 -0.2589387345 -0.7378789286
N 2.0088084605 1.0539787485 -0.5624783267
C 1.6070915586 1.4575569729 0.6444150890
N 1.2769139490 0.6871655231 1.6758806709
O 2.4893271671 -0.7731564424 -1.9300690791
C 2.4416391777 0.0660317120 -3.0343263418
C 3.6324260784 0.4432367075 -3.6352142938
C 3.6093686981 1.2085982494 -4.7954431531
C 2.3933793521 1.5957568025 -5.3492806450
C 1.1968719878 1.2141375471 -4.7510702278
C 1.2215964819 0.4436117438 -3.5953637727
Cl -0.2674224480 -0.0638940212 -2.8410925301
F 1.8365722308 -2.4835925120 0.0700779660
C -2.0099098442 0.5464729499 0.9133927471
N -1.8943553254 1.6490671611 1.5797115907
O -2.1579111472 2.8427187956 0.9018159933
C -2.0887584709 2.7332321406 -0.5269653611
C -2.9457456515 1.5754889186 -0.9688081396
O -2.4269745344 0.3776290570 -0.3653935054
H -2.3230704018 -4.1667924070 0.2833968202
H -0.5876899045 -3.8884539168 -0.0825791395
H -1.0556636983 -4.8722269084 1.3405068699
H -3.0835415964 0.0745454190 3.7337606399
H -2.4331780607 0.0230899116 6.1217657750
H -0.1512064886 -0.7217019030 6.7664792267
H 1.4747663732 -1.3863637370 4.9916888497
H 1.5416339733 2.5328584778 0.8018105019
H 4.5640915248 0.1306404133 -3.1770136677
H 4.5422289574 1.5037907745 -5.2629233718
H 2.3691194955 2.1937771660 -6.2537369859
H 0.2430461559 1.5012336966 -5.1785193795
H -2.4521596331 3.6883445605 -0.9148833160
H -1.0464654085 2.5722420499 -0.8399144176
H -3.9861599549 1.7193683225 -0.6518277734
H -2.9050715215 1.4146062136 -2.0488025683
