49
CONF22
C -6.5005834622 1.5906567687 -2.3179711693
N -5.8907806662 0.4583343094 -1.6358759261
C -5.2020973222 0.4249339910 -0.4737240052
N -4.8368700011 -0.8312729028 -0.2324841694
N -5.3223102758 -1.5523110995 -1.2741277842
N -5.9575923828 -0.8037386514 -2.1137512892
S -4.9020444200 1.8461351999 0.4938272070
C -3.5886756616 1.1542595042 1.6244243173
C -2.2984792645 0.9248359108 0.9098700688
C -1.7380546444 -0.3017315593 0.7938642764
N -0.5712038616 -0.4837045607 0.0477219735
C 0.0845402666 0.5235996447 -0.7911862675
C 1.3924186280 -0.3282456712 -0.6955469219
C 0.6066745829 -1.1743870985 0.3339623504
O 0.8707941226 -2.0393473266 1.1294650343
N 2.5947611025 0.2732974649 -0.2216285012
C 3.7107267663 0.3823569752 -0.9877579101
O 3.7925588285 0.0000848572 -2.1499829307
C 4.9254694256 0.9916021869 -0.2614666842
C 5.8291612298 -0.1458749136 0.1572001639
C 5.5527009968 -0.8719859642 1.3182298385
C 6.3616768349 -1.9452165878 1.6787656268
C 7.4438220091 -2.3077812403 0.8784493888
C 7.7170680251 -1.5891322260 -0.2827462181
C 6.9132649901 -0.5096867745 -0.6414664043
O 4.5577116796 1.7428705136 0.8956487299
S 0.1273196066 2.1312449549 0.0766700020
C -1.7036135161 2.1545532162 0.2686464786
C -2.2959307921 -1.5421403842 1.4114838567
O -2.8322689412 -1.5961062731 2.4982760361
O -2.1136404355 -2.6053601603 0.6110404915
H -7.3088427256 2.0014706469 -1.7069642072
H -5.7429995546 2.3587106722 -2.4959484836
H -6.8984913882 1.2339804004 -3.2676559180
H -3.4780634507 1.9439328788 2.3754916417
H -3.9892471469 0.2630822980 2.1003912737
H -0.3689948215 0.6280937856 -1.7805769941
H 1.5960853683 -0.8628318758 -1.6280955142
H 2.6396857120 0.6359872697 0.7222821986
H 5.4416963107 1.6179481932 -0.9991080310
H 4.7080203100 -0.5956045722 1.9412189510
H 6.1446370106 -2.5021948229 2.5849389943
H 8.0727264811 -3.1463410203 1.1605454322
H 8.5613044563 -1.8631541633 -0.9076855862
H 7.1309038448 0.0551729045 -1.5433073206
H 4.1631663812 2.5735461418 0.5976581914
H -2.1520363786 2.3286856412 -0.7162882046
H -1.9318237497 3.0298727776 0.8853708574
H -2.4710196379 -3.3878600665 1.0651251805
