44
CONF42
C -3.0330818138 1.3541495649 2.5343852993
N -3.7601771745 0.5321174617 1.5759805870
C -3.9754265190 1.1091720461 0.2375755731
C -4.7413189431 -0.0365893286 -0.4548685254
C -4.1978787827 -1.3211321478 0.2360005171
C -3.1804920102 -0.7859520349 1.2645519847
C -1.7684286712 -0.6672940257 0.6510908516
C -1.8298041577 0.1448700369 -0.6372866230
C -2.6438964288 1.4200582684 -0.4806639929
O -0.4706375148 0.5560281587 -1.0287102789
C 0.2872645389 -0.3396114147 -1.6694851264
O -0.1002796007 -1.4389649265 -2.0288960446
C 1.6992162240 0.1795458646 -1.8710509461
C 2.4538053213 -0.6782485137 -2.9029743365
O 2.6737274690 -2.0195736207 -2.4767424815
C 2.4312977244 0.2729319006 -0.5466395210
C 2.2634329260 -0.6951084654 0.4472586011
C 2.9769935039 -0.6151165850 1.6403635539
C 3.8713882634 0.4316831600 1.8533275288
C 4.0454822107 1.3996258190 0.8664845892
C 3.3278649859 1.3209083741 -0.3243406885
H -2.0020770862 1.6148180222 2.2438907289
H -3.5812698560 2.2898940843 2.6911582577
H -2.9838683804 0.8257107726 3.4931337785
H -4.5686663320 2.0274387065 0.3138500974
H -5.8140541296 0.0721383445 -0.2766586427
H -4.5805371767 -0.0373635557 -1.5368897309
H -3.7316487740 -2.0154614831 -0.4690670801
H -5.0028445523 -1.8543728738 0.7478011072
H -3.1315391410 -1.4006418550 2.1705602121
H -1.3635963895 -1.6647169033 0.4499511012
H -1.0931671920 -0.1719575718 1.3587190248
H -2.2282050156 -0.4647195734 -1.4529091878
H -2.0711755301 2.1526200278 0.0993355141
H -2.8427991572 1.8609682742 -1.4637553671
H 1.9010425128 -0.6534463924 -3.8532702243
H 3.4397857557 -0.2332078144 -3.0665600346
H 2.8334952978 -1.3727307435 2.4047678251
H 4.4263969733 0.4948248146 2.7841058467
H 4.7366740160 2.2218162300 1.0251830507
H 3.4628942314 2.0805598136 -1.0897334301
H 1.5689250210 -1.5164341997 0.2935919550
H 1.6176906886 1.1911416654 -2.2879572548
H 1.7945239950 -2.4082054387 -2.3587875151
