39
CONF89
C 6.9940109556 2.9403156758 -1.9949664878
C 6.3701993100 1.5701892296 -1.7370131166
C 5.8963342485 1.4020695438 -0.2937672918
C 5.2559176316 0.0389306820 -0.0371793014
C 4.7186750175 -0.1350404109 1.3905664555
C 5.8423514525 -0.4020007623 2.4065096482
C 5.4381549243 -0.1641289128 3.8616105011
C 3.7137536904 -1.2780002421 1.4492827014
O 2.5097204136 -0.9658672669 0.6692990057
C 1.5779002253 -0.2373940719 1.2830853996
O 1.6051089053 0.1357550105 2.4358679744
C 0.4129936196 0.0268007268 0.3710839194
C -0.7516820796 -0.6976804320 0.5866528415
C -1.8623780639 -0.4829231008 -0.2160095489
C -1.8302826954 0.4679748007 -1.2413188154
C -0.6586080442 1.2161837137 -1.4457162035
C 0.4596984590 0.9881085668 -0.6357100413
Br 2.0534539448 2.0037296509 -0.8348631102
Br -0.5890840352 2.5286908343 -2.8085623689
Br -3.3521516040 0.7437225119 -2.3312021275
Br -3.4075809010 -1.5298865295 0.1376658299
H 7.8628001870 3.1009104447 -1.3469446326
H 7.3250359668 3.0419612290 -3.0333161798
H 6.2737430220 3.7406094450 -1.7910750301
H 5.5179520365 1.4179730119 -2.4130974355
H 7.0970718085 0.7815088351 -1.9726385228
H 6.7450899945 1.5603474136 0.3843431148
H 5.1649704908 2.1900081472 -0.0610199253
H 5.9825819239 -0.7607648113 -0.2430014424
H 4.4327756569 -0.0945228407 -0.7500282184
H 4.1979383693 0.7874239787 1.6861354555
H 6.6916695133 0.2460682861 2.1641399587
H 6.1992799641 -1.4334643803 2.2758398793
H 5.1116572160 0.8713649497 4.0065668998
H 4.6193590007 -0.8188415660 4.1759798762
H 6.2819238241 -0.3480206539 4.5339062409
H 3.4050995336 -1.5117293945 2.4700713833
H 4.1134111688 -2.1748707472 0.9684917592
H -0.7881066389 -1.4353438689 1.3796837554
