47
CONF150
C -3.1374613132 0.3921842885 -3.6208591317
C -2.8095073612 1.5631886762 -2.7226829646
C -3.6653082716 2.7833458732 -2.9962727002
C -2.4219380082 1.3534151669 -1.2790924977
C -2.2576184065 0.0238983282 -0.6933001485
C -2.4147981863 -0.2780239589 0.5960073919
Br -2.1717884309 -2.0557179503 1.2348271064
Br -2.8946714912 0.9798729280 1.9405783470
C -1.3835060421 1.8782937212 -2.3189274126
C -0.2305432413 1.0197249174 -2.6150185319
O -0.2194666319 -0.1524560256 -2.9216517234
O 0.9313414596 1.7341199946 -2.4358600876
C 2.1351351283 0.9372047044 -2.3647037151
C 2.4238083444 0.3027584696 -3.6542945166
N 2.7107654246 -0.1492123586 -4.6772430928
C 2.0990657101 -0.0349089715 -1.1956986388
C 2.5982835571 -1.3304917730 -1.2930488892
C 2.5387842456 -2.1693011627 -0.1823924825
C 1.9856779252 -1.7353769909 1.0165359694
C 1.5028110016 -0.4296207298 1.0992674955
O 0.8827780213 0.0709437291 2.2221831932
C 1.2382006363 -0.4226266367 3.4705091205
C 2.5714416794 -0.4877695531 3.8673477083
C 2.8694725659 -0.9189853180 5.1562942639
C 1.8488208010 -1.2704902195 6.0390799549
C 0.5207451915 -1.1876533700 5.6274556756
C 0.2075119257 -0.7660544104 4.3372681404
C 1.5623357187 0.4261571358 0.0043397946
H -4.1886737114 0.1196799411 -3.4797432499
H -2.5185831060 -0.4838801530 -3.4373233343
H -3.0020538929 0.6872967746 -4.6665351250
H -3.5237392946 3.1171928373 -4.0296439962
H -3.4147371323 3.6108234219 -2.3266338872
H -4.7224282285 2.5335077422 -2.8581246126
H -2.7356588144 2.1293897341 -0.5882730345
H -1.9737024000 -0.7956958211 -1.3454826435
H -1.1321146367 2.9256108633 -2.1920248577
H 2.9212875667 1.6842316476 -2.2011332644
H 3.0126118986 -1.6954006073 -2.2267641876
H 2.9104952191 -3.1859999551 -0.2583243023
H 1.9213438146 -2.4009367387 1.8698318342
H 3.3591343221 -0.2039085903 3.1770367965
H 3.9062424466 -0.9710631182 5.4736615419
H 2.0887528554 -1.6030267506 7.0436041979
H -0.2797855648 -1.4567548860 6.3093248652
H -0.8203101349 -0.6985367055 3.9970386828
H 1.1715465240 1.4338511353 0.0988600222
