45
CONF49
C 7.7394465842 0.3487827349 1.0790252547
C 6.2647805888 0.7211806769 0.9347683235
C 5.6509354243 0.2015270525 -0.3647431827
C 4.1768712203 0.5705772618 -0.5278419862
C 3.5740173077 0.0303173959 -1.8252526417
C 2.1322400798 0.4759089684 -2.0835840212
C 1.1298096452 -0.0310340407 -1.0475781346
C -0.3163331527 0.3425817672 -1.4148109482
C -1.3229163933 -0.1404107185 -0.4046081742
C -1.7765218610 -1.4607277976 -0.4784050476
N -2.6656993590 -1.8431279526 0.4831686416
C -3.0913447854 -0.9885667304 1.4889010648
N -3.9580578010 -1.6585040787 2.2688320834
C -4.0082667600 -2.8800383000 1.6932194156
N -3.2517786615 -3.0668554078 0.6085164545
N -2.6598566855 0.2664182247 1.5885692563
C -1.7909384229 0.6739314938 0.6548290970
C -1.3053557066 2.1013323202 0.7604563664
C -1.7543119090 2.8492131167 2.0093792186
N -1.3966449688 -2.3944203587 -1.3719943895
H 8.1605956542 0.7279898480 2.0155530645
H 8.3285956660 0.7626061088 0.2530054599
H 7.8692631898 -0.7392059178 1.0678626334
H 6.1535939595 1.8129675234 0.9742284192
H 5.6977887000 0.3217114150 1.7861316179
H 5.7574269301 -0.8920468257 -0.4030088131
H 6.2209560827 0.5965852593 -1.2177440283
H 4.0701331343 1.6647933428 -0.5073418460
H 3.6164071316 0.1877399236 0.3349796544
H 3.6173944347 -1.0680275884 -1.8146579221
H 4.2002514245 0.3560442958 -2.6666605069
H 1.8214406875 0.1220078088 -3.0759775978
H 2.0903926233 1.5738395425 -2.1186004089
H 1.2157715501 -1.1221913311 -0.9558806422
H 1.3577542896 0.3832797836 -0.0585221823
H -0.3901953819 1.4281398518 -1.5211125859
H -0.5532844884 -0.0616661305 -2.4080305478
H -4.6254918152 -3.6845344961 2.0755933074
H -1.6423095673 2.6414183556 -0.1350887679
H -1.3364846155 3.8600666931 1.9992579230
H -1.4132763912 2.3447809714 2.9175594767
H -0.8815965777 -2.1127161482 -2.1893146405
H -1.9326767898 -3.2468644559 -1.4323792749
H -0.2098431058 2.1009622525 0.7022388350
H -2.8429628175 2.9274149521 2.0594568611
