43
CONF69
C -0.1955243320 2.9778390991 2.0871937492
C -0.4741329746 1.9991727731 0.9466583322
C 0.0404106772 2.5431150107 -0.3845219166
C 0.1636077529 0.6324062110 1.2897950692
C -0.1100636566 -0.4398507551 0.2730617070
C 0.9158995729 -1.0213997090 -0.4938945369
C 0.5654063938 -1.9690267240 -1.4660975536
N -0.6783128509 -2.3631890263 -1.6958910891
C -1.6527367898 -1.8354662792 -0.9601631120
C -1.4248014037 -0.8742342985 0.0228573850
C -2.5654469855 -0.3498397730 0.8415874359
O -2.6385496405 -0.4557638756 2.0466512371
O -3.4895798894 0.2228728334 0.0613545663
C -4.6577813693 0.7493062476 0.7541972612
C -3.0367848594 -2.3755047891 -1.2610211660
F -2.9757457901 -3.7353277829 -1.4243386259
F -3.4718740650 -1.8538762825 -2.4611038605
C 1.5857466890 -2.6254168718 -2.3916966520
F 1.7702949336 -1.8740372473 -3.5063905847
F 2.7919369197 -2.7877544173 -1.8100329986
F 1.1755859099 -3.8401874903 -2.7976086142
C 2.3279270717 -0.6350910783 -0.2443924493
N 2.9851714307 -1.0516990248 0.7599787403
C 4.3095491131 -0.4242620151 0.8425461565
C 4.7240426431 0.1087848796 -0.5384098216
S 3.1280251352 0.5082161548 -1.3689937042
H 0.8838535407 3.1311993372 2.2038735339
H -0.6552282721 3.9491764477 1.8795416509
H -0.5927679738 2.6042748233 3.0366494316
H -1.5620846364 1.8767020782 0.8694619750
H -0.4384730449 3.4997164693 -0.6160833920
H -0.1633897969 1.8548803838 -1.2126766642
H 1.1231710854 2.7039656198 -0.3374682856
H -0.2182529537 0.2970657733 2.2600522794
H 1.2412610287 0.7733868138 1.3991321772
H -5.1748742319 -0.0607864580 1.2725051652
H -4.3455844403 1.5161163814 1.4665304588
H -5.2832430587 1.1748800882 -0.0280679536
H -3.7885289861 -2.1583909812 -0.4986898821
H 4.2392481075 0.3933866240 1.5745822992
H 5.0438353057 -1.1444004796 1.2157738385
H 5.2399710449 -0.6490362859 -1.1344487683
H 5.3388176618 1.0080770871 -0.4719925171
