70
CONF204
C -2.9485068569 0.7151140436 0.0864693691
C -3.9944497809 1.2743058943 1.0798627285
C -4.6537645549 0.1392379733 1.7934176142
C -5.8802052910 -0.0566000446 2.3809420711
N -5.9466103954 -1.3547427128 2.8790191343
C -4.7697799004 -2.0134222371 2.6058644656
C -4.3077495598 -3.3092700742 2.8509130289
C -3.0297491955 -3.6136193142 2.3876568084
C -2.2179250155 -2.6799867825 1.7024100899
C -2.6730061215 -1.3870844388 1.4668725509
C -3.9527152454 -1.0855555866 1.9289543819
C -1.9415385417 -0.2484843077 0.7841067249
C -0.8798555607 -0.7438804865 -0.1945018109
C -0.1783182051 0.4455708599 -0.8560562150
C -1.2288195853 1.3247953737 -1.5340748499
N -2.1976332670 1.8171360045 -0.5474770985
C -3.0576417453 2.8596864979 -1.1482468055
C -4.0563641926 2.3703181748 -2.1634045028
C -5.3594543462 2.6419705350 -2.1201342326
C 0.8210092081 -0.0647598169 -1.8780973369
O 0.4755847499 -0.8678844043 -2.7452577203
N 2.1462080083 0.3036023998 -1.7581449632
C 3.1369059163 -0.4395359426 -2.5695035761
C 3.3352633496 -1.8920629464 -2.1283639984
C 3.6439985928 -2.0811224401 -0.6462579800
N 4.7706543886 -1.2692323623 -0.1582776359
C 4.9035349408 -1.4215659810 1.2948804618
C 6.0319970630 -1.6097639259 -0.8233003120
C 2.5421838585 1.4910076282 -1.0462193904
O 1.8517701039 2.5125392055 -1.0870224498
N 3.7089383520 1.3743589120 -0.3986491409
C 4.2890311920 2.5009450156 0.3240990410
C 3.7293765869 2.6377642503 1.7384042704
H -3.4925498334 0.1198626640 -0.6769699951
H -3.4757582456 1.9408919593 1.7845003571
H -4.7378679481 1.8754437158 0.5512931282
H -6.7250095782 0.6091220255 2.4932842500
H -6.7457494573 -1.7478151213 3.3491088107
H -4.9082303878 -4.0495348377 3.3700071836
H -2.6391855204 -4.6129717200 2.5562436487
H -1.2350727009 -2.9966428245 1.3682266330
H -1.4375201202 0.3455936165 1.5645569388
H -0.1432979962 -1.3633396248 0.3292006966
H -1.3512128099 -1.3663982867 -0.9646569893
H 0.3221086614 1.0345241172 -0.0848720007
H -0.7423370722 2.1905628913 -1.9956392895
H -1.7045831376 0.7310837601 -2.3366909416
H -3.5772544815 3.4098368523 -0.3567296684
H -2.3797843191 3.5762929139 -1.6315890072
H -3.6655151403 1.7688619894 -2.9836602312
H -5.7838442802 3.2399529802 -1.3154100815
H -6.0425084135 2.2857848448 -2.8859957123
H 4.0773322006 0.1120489457 -2.5182105522
H 2.8016984728 -0.4251272426 -3.6118050041
H 2.4320069565 -2.4681230033 -2.3500930741
H 4.1319208302 -2.3149889230 -2.7507600896
H 3.8239944845 -3.1554482964 -0.4538292957
H 2.7628021055 -1.7941493054 -0.0570159277
H 3.9708090667 -1.1179481377 1.7824753311
H 5.7121428070 -0.7799948812 1.6598529571
H 5.1252363458 -2.4637109582 1.5852354267
H 5.9715303540 -1.3993206379 -1.8943921617
H 6.8366072853 -0.9990883990 -0.4026161755
H 6.2950083319 -2.6745351933 -0.6900343197
H 4.1638822211 0.4389176465 -0.3260148839
H 5.3720465107 2.3417830204 0.3595153264
H 4.1033653198 3.4161858187 -0.2473805693
H 4.1933672337 3.4886040493 2.2471290634
H 3.9312847135 1.7347048715 2.3228838642
H 2.6477671210 2.7992994130 1.7099703472
