27
CONF408
C 2.7336805599 -1.1218582818 0.3296399037
C 4.2626803690 -1.2177386998 0.2883264767
C 4.9673006155 0.1251896400 0.3899849017
O 4.4928044220 0.7849570513 1.5684645243
C 2.1918767777 -0.2108687608 -0.7753814118
C 0.7246380888 -0.3632506595 -1.1238400796
C -0.2766097826 0.1722306733 -0.0591998685
C -1.7878769925 -0.1293657548 -0.3349574057
C -2.7773444570 0.7455410905 0.5023615098
F -2.7821912159 2.0123436744 0.0709062710
F -2.4461766105 0.7273629929 1.8015817412
F -4.0151788608 0.2469381796 0.3673105047
F -2.0325744460 -1.4235248302 -0.0283691925
F -2.0824067192 0.0753087241 -1.6381131891
F -0.1074413979 1.5186832586 0.0309011954
F 0.0276407797 -0.3743425966 1.1453146855
F 0.4099435821 -1.6751215995 -1.3615665339
F 0.4809496544 0.3280161843 -2.2828022991
H 2.3146184765 -2.1267338275 0.2163946666
H 2.4298238052 -0.7480698972 1.3086792979
H 4.5964742030 -1.8552624508 1.1148218279
H 4.5861202113 -1.7010415394 -0.6429330687
H 4.7621783027 0.7350741085 -0.5048783024
H 6.0549086146 -0.0354306207 0.4393012445
H 2.7086929899 -0.4206300070 -1.7211135675
H 2.3655177254 0.8443148684 -0.5398496350
H 4.9502888751 1.6277671572 1.6500576320
