47
CONF12
C 5.4276620466 -2.3517607358 0.2925318023
C 4.8214830350 -1.1351036643 -0.2812012414
C 3.5404221304 -0.6451220462 -0.3339521013
C 3.6741178884 0.5925840609 -1.0348035044
N 4.9192339857 0.8340026833 -1.3690238175
O 5.6472805230 -0.2745245000 -0.9027473991
C 2.6272141290 1.5757619625 -1.3710563290
C 2.1388743849 1.7216499004 -2.6767911980
C 1.1249781162 2.6191344236 -2.9883945353
C 0.5739984310 3.3926234265 -1.9741507834
C 1.0235881088 3.2774860080 -0.6632542978
C 2.0382513222 2.3745344423 -0.3806768621
Cl 2.5894455470 2.2189059379 1.2732719467
Cl 2.7855373937 0.7150575524 -3.9539466574
C 2.3608862136 -1.2616904035 0.2973264431
O 2.4663478445 -2.0508467458 1.2362913582
N 1.1555124941 -0.8882860642 -0.2268636589
C -0.0870905725 -1.2048708363 0.3987939048
C -0.9921951343 -0.0240090055 0.8947203153
N -2.0198349815 -0.4767036188 -0.0525007561
C -1.2876529347 -1.5679237209 -0.5070955652
O -1.5504771962 -2.4417637962 -1.2983502365
C -3.4013062358 -0.4298218857 0.3701267461
C -3.3966650510 -0.7832969801 1.9048743854
S -1.7857895911 -0.0629080649 2.5534787555
C -3.3920005121 -2.3040842966 2.0625136560
C -4.5573323925 -0.1673057544 2.6785517535
C -4.0668176220 0.9043904417 0.0710218417
O -5.2475154842 1.0151401323 -0.1726246253
O -3.2084668084 1.9359040761 0.1303308819
H 4.6888259452 -3.1525475385 0.3298629604
H 6.2918825018 -2.6591168930 -0.3007307596
H 5.7623229585 -2.1540865082 1.3172389991
H 0.7701990131 2.7032624025 -4.0085006597
H -0.2195470592 4.0942946136 -2.2075602103
H 0.5939063134 3.8782952026 0.1294101745
H 1.1367352872 -0.2574699700 -1.0160696100
H 0.0703593143 -1.9647863118 1.1691815567
H -0.5902059632 0.9734240970 0.6962707063
H -3.9729445455 -1.1935554690 -0.1659180985
H -3.2646958013 -2.5692645129 3.1150545742
H -2.5831228254 -2.7722498932 1.4947084300
H -4.3464598431 -2.7126465927 1.7109478302
H -4.4936708425 -0.4543264679 3.7317263691
H -4.5598347341 0.9240677057 2.6180720881
H -5.5038593726 -0.5466631310 2.2798987159
H -3.7015793029 2.7562172374 -0.0471950869
