29
CONF26
C 0.7339789150 2.0000269588 -3.0585896293
C -0.2348383695 1.2428360944 -2.1866149090
O -0.1604913983 1.8399276598 -0.8390980800
P -0.7983133326 1.1261628811 0.4248487027
S -0.4656756961 2.0327990307 2.0980963295
O -2.3030138960 0.8651363593 -0.0235274621
C -3.3873658142 0.6063895054 0.9354017207
C -3.3040413780 -0.7832545844 1.5208023561
O -0.2626967053 -0.4501291873 0.3664574184
C 1.0126434287 -0.8203551862 0.6470468413
N 1.9971752247 0.0414666385 0.4693583095
C 3.2419236997 -0.3172801236 0.7150560585
C 3.5797404951 -1.5981450528 1.1534647362
C 2.5516734297 -2.5177458883 1.3377744897
C 1.2467896065 -2.1289099946 1.0864450520
Cl -0.0667513504 -3.2423987783 1.3112679145
Cl 5.2205866853 -2.0666474017 1.4709592169
Cl 4.4704597358 0.8961149937 0.4581835465
H 0.4714530488 3.0602970576 -3.1026890872
H 1.7550884107 1.8984404443 -2.6811585548
H 0.6942308749 1.5897270313 -4.0721512182
H 0.0309166047 0.1834408257 -2.1137728558
H -1.2669736511 1.3365730212 -2.5357118743
H -4.2906165084 0.7412963629 0.3377331385
H -3.3469636258 1.3807536730 1.7074119912
H -4.1892282578 -0.9536319679 2.1418781752
H -3.2819729704 -1.5399650411 0.7316919503
H -2.4176353659 -0.9000706986 2.1504741449
H 2.7699184566 -3.5228549344 1.6790640715
