53
CONF89
C -0.0540412604 4.5211714628 -1.6131527283
C 0.3572850617 4.2730535585 -0.1759051170
O 0.0717867467 2.9011230428 0.2101902075
C 0.9773415147 1.9595111372 -0.1429914069
O 2.0498851876 2.2336354670 -0.6710589927
C 0.4929841448 0.6188351545 0.1719892934
C 1.3366591507 -0.4446624214 0.0869851171
N 0.8768991686 -1.7066335283 0.3501133434
C -0.3558275216 -1.9836340296 0.8885601609
C -1.2629791823 -0.9722482016 1.0284616521
C -0.9897420678 0.4248975679 0.4758946810
C -1.8077103299 0.6741997703 -0.7921915782
C -1.5818053515 -0.1597124214 -1.8948934386
C -2.2598673546 -0.0011640560 -3.0957284788
C -3.1996674647 1.0187604253 -3.2249165713
C -3.4511945023 1.8644068926 -2.1513481391
C -2.7587086493 1.6845535833 -0.9553215277
Cl -3.1498729246 2.8083302549 0.3500641254
C -2.5477360566 -1.2314834497 1.6686193495
O -2.9508072850 -2.2994830581 2.1146791048
O -3.3001412480 -0.1022465311 1.7283957153
C -4.5966044402 -0.2449521726 2.3428887269
C -0.5401252093 -3.4164369687 1.2843670691
C 2.8086247658 -0.4066976762 -0.2928382455
O 3.4755222039 -1.6113589607 0.0626256272
C 3.8919454441 -1.6272864393 1.4416509490
C 4.5677248605 -2.9601804205 1.7108295920
N 5.7891943155 -3.2124359561 0.9326084962
H -1.1163931877 4.2998301952 -1.7520462172
H 0.5301697040 3.9037959564 -2.3007209649
H 0.1164254556 5.5730593327 -1.8631898885
H -0.2368241391 4.8734783021 0.5166690290
H 1.4188542619 4.4783207520 -0.0149642118
H 1.5645430928 -2.4482788717 0.2927355588
H -1.2940299934 1.1628410304 1.2190419685
H -0.8472503103 -0.9541996205 -1.7948978920
H -2.0556664842 -0.6682040595 -3.9268684384
H -3.7394688896 1.1606349218 -4.1555114134
H -4.1803422522 2.6625369747 -2.2364177256
H -5.2056709592 -0.9645106652 1.7891658710
H -4.4959154143 -0.5741059522 3.3805756485
H -5.0465075527 0.7469124218 2.2997569649
H 0.3278232827 -4.0081417729 0.9836278900
H -0.6701106599 -3.5039977704 2.3660195258
H -1.4373916527 -3.8347827523 0.8247986085
H 2.8924526593 -0.3009448564 -1.3804814596
H 3.2926985748 0.4615924067 0.1632800734
H 4.5876509532 -0.7923901097 1.6170411248
H 3.0214611466 -1.4999622362 2.1051054940
H 4.8088311287 -3.0045064865 2.7797490249
H 3.8506228273 -3.7667795774 1.5104887774
H 6.4576997354 -2.4697937417 1.1190901484
H 5.5673168611 -3.1342642328 -0.0554363940
