47
CONF21
C -3.6525276286 -1.9670963746 1.2901260820
C -2.5687228775 -1.1238136262 0.6560840178
C -1.8123169033 -1.6331021190 -0.5495324573
C -2.8896850219 -0.5588635872 -0.7296718633
C -2.5734921976 0.8254233127 -1.1198376064
O -3.3975038731 1.6641257959 -1.4198598368
O -1.2339594344 1.0838448186 -1.1089348248
C -0.8386935032 2.4476637453 -1.3977765528
C -1.2559526319 3.3204324494 -0.2922697312
N -1.5446121130 4.0165260429 0.5829571919
C 0.6618716619 2.4416972069 -1.5547961273
C 1.4341986449 1.8616726249 -0.5492123657
C 2.8114769314 1.7764506386 -0.6934825611
C 3.3964733815 2.3274803880 -1.8381457818
C 2.6434898194 2.9286757267 -2.8266850953
C 1.2566434780 2.9756232645 -2.6926968645
F 4.7371112683 2.2570935029 -1.9676455945
O 3.6455234215 1.2166644058 0.2345753726
C 3.0993454853 0.2703793079 1.1044366248
C 2.4712365750 -0.8679530570 0.6077070909
C 1.9818376407 -1.8093097249 1.5073557992
C 2.1304331377 -1.6172121732 2.8806834125
C 2.7740270958 -0.4773602818 3.3554477072
C 3.2604411525 0.4798361920 2.4664102361
C -2.0496221485 -2.9589081043 -1.1242977380
C -1.1231044654 -3.7234781771 -1.7032636653
Cl 0.5494398062 -3.2662085288 -1.8835021203
Cl -1.4908855393 -5.2975724319 -2.3600506956
C -1.7999499256 -0.2901333846 1.6563766371
H -4.2649870429 -2.4952679306 0.5568511595
H -4.3141486526 -1.3269412808 1.8824843179
H -3.2020112144 -2.7051407452 1.9629419838
H -0.7949630068 -1.2637434988 -0.6250837587
H -3.8432638318 -0.8824770147 -1.1348897273
H -1.3298359455 2.7963475536 -2.3123983941
H 0.9654407233 1.4537349097 0.3391366426
H 3.1423621587 3.3346879584 -3.6998560298
H 0.6508573348 3.4214048675 -3.4741572668
H 2.3645409074 -1.0076903153 -0.4633425218
H 1.4869481108 -2.6989933209 1.1303636566
H 1.7474926903 -2.3559712473 3.5768969595
H 2.8951085143 -0.3236053042 4.4229667914
H 3.7566675188 1.3786097845 2.8168370644
H -3.0561773502 -3.3646926056 -1.0921371834
H -2.4681809776 0.4265492030 2.1464963927
H -0.9751833882 0.2581591836 1.1991254434
H -1.3831874891 -0.9475479645 2.4268958877
