44
CONF45
C -3.9521397748 0.3975091690 4.4774288750
C -3.5385598247 -0.0611634230 3.1019608130
C -4.6684675795 -0.3728197188 2.1379681223
O -4.0575700670 -0.1713714923 0.8505370010
C -2.9653084743 0.7378713568 1.0241030295
O -2.8895917341 1.0333617774 2.4067170608
C -3.3122078669 2.0593800538 0.3068605416
N -3.3503064645 1.8823236148 -1.1325630913
C -4.3339152710 1.3549127284 -1.8895165110
N -3.9415723285 1.2634118130 -3.1545334103
C -2.6705712760 1.7541751682 -3.1088609122
N -2.2648461112 2.1392925182 -1.9057762249
C -1.6955034352 0.0841413023 0.4824870371
C -0.4152303322 0.6166546931 0.6598954841
C 0.7228287692 0.0263369794 0.1234944387
C 0.5827242035 -1.1362362574 -0.6284945168
C -0.6743117389 -1.6918838951 -0.8436189823
C -1.7872754741 -1.0777446570 -0.2916327390
O 1.6445070784 -1.7573510903 -1.2426260227
C 2.9284643390 -1.5379770599 -0.7653292539
C 3.2617638845 -1.8291520288 0.5542484658
C 4.5761169027 -1.6684749954 0.9769646114
C 5.5306008804 -1.2287967519 0.0654792950
C 5.2046983437 -0.9468338396 -1.2551942034
C 3.8855971781 -1.1004424695 -1.6715034379
Cl 7.1953174505 -1.0286296187 0.6003005263
Cl -0.1462383695 2.1056094862 1.5651238038
H -4.4729609518 -0.4149490443 4.9929587887
H -3.0762144448 0.6735371362 5.0699909648
H -4.6231697671 1.2587484127 4.4076863874
H -2.8428495262 -0.9120628380 3.1575950325
H -5.0227003063 -1.4051091691 2.1907195018
H -5.5069253882 0.3241431091 2.2779893525
H -4.2976697121 2.3797213136 0.6556777149
H -2.5756549119 2.8295202967 0.5383998521
H -5.2951066187 1.0698450761 -1.4834140432
H -2.0306912290 1.8376376475 -3.9782968956
H 1.6951866526 0.4764677273 0.2812221467
H -0.7689987963 -2.5935548069 -1.4383595849
H -2.7663667239 -1.5099485546 -0.4558928517
H 2.5030900359 -2.1792144995 1.2463003565
H 4.8528260615 -1.8922959663 2.0008177434
H 5.9631530282 -0.6068444227 -1.9508332307
H 3.5993955478 -0.8845057534 -2.6950959651
