51
CONF26
O 3.5046958082 0.5812862732 1.5550158946
C 2.8134303748 0.1937682391 0.3547853108
C 2.2370361528 1.4074425238 -0.3795587199
C 1.3052198126 2.2779215835 0.4701917174
C 0.1340017694 1.4939334474 1.0376223456
C -0.8947118480 0.8907506089 0.0190070618
N -1.9334246639 1.6797091983 0.7286541864
C -1.0485797728 2.2886153008 1.5911890972
O -1.2001346353 3.1480014007 2.4403508415
C -3.3020711498 1.7975203481 0.4839859890
C -4.1255809969 2.5155613099 1.3622860116
C -5.4867472246 2.6214733957 1.1031627718
C -6.0026755608 2.0016795892 -0.0230263106
F -7.3359686624 2.1029653289 -0.2715484725
C -5.2141230760 1.2824779756 -0.9039055740
C -3.8511112940 1.1826290626 -0.6475247968
C -1.0772017824 -0.5958138787 0.0141072905
C -0.6670259870 -1.3445702336 -1.0911962751
C -0.7607918202 -2.7308994108 -1.0949474470
C -1.2827683181 -3.3882048045 0.0196635143
O -1.3605530947 -4.7504289484 -0.0314885071
C -1.7083892792 -2.6536503774 1.1297875490
C -1.5995826766 -1.2685711397 1.1216037058
C 3.6817894562 -0.6381565999 -0.5660062737
C 4.9347079811 -0.1807224187 -0.9847208668
C 5.7219911943 -0.9370045997 -1.8473439735
C 5.2267287190 -2.1535663174 -2.2882130154
F 5.9917487728 -2.9002768059 -3.1293200171
C 3.9911324793 -2.6425929389 -1.9040437636
C 3.2241885611 -1.8712382009 -1.0329772349
H 4.1032400623 1.3085804023 1.3380548679
H 1.9939003826 -0.4471755249 0.7010650118
H 3.0695563523 2.0202037780 -0.7511538515
H 1.7030010069 1.0401013196 -1.2650950837
H 1.8612930161 2.7312507848 1.2979490733
H 0.9247676585 3.0977865058 -0.1512658851
H 0.4601532943 0.7398366036 1.7623237725
H -0.7337240739 1.2663660418 -0.9988900733
H -3.7009947496 2.9867508709 2.2399448595
H -6.1404538594 3.1739616005 1.7692896951
H -5.6559895281 0.8117285225 -1.7752416115
H -3.2166272087 0.6248581674 -1.3275267123
H -0.2625764483 -0.8359820040 -1.9627067299
H -0.4375790259 -3.3101229789 -1.9540314649
H -1.7368994045 -5.0844217198 0.7942147044
H -2.1223029530 -3.1675347956 1.9933328793
H -1.9326804474 -0.7052832692 1.9895392343
H 5.3132688548 0.7764348844 -0.6361754192
H 6.6980251376 -0.5948802844 -2.1742989614
H 3.6448726405 -3.6034055116 -2.2695480712
H 2.2525198900 -2.2390926218 -0.7136661684
