38
CONF1
C 2.9092042278 -0.4053250528 -1.9372040296
N 1.6949708646 -1.1979065740 -1.7380944375
C 1.7658317667 -2.4220306106 -2.5374432681
C 0.4923821706 -0.4404472558 -2.1050143361
C 0.2277700496 0.7747217398 -1.2199784369
C 0.1756693372 0.4288604552 0.2770665544
C -0.9054162634 -0.5903755022 0.5919075990
C -2.2489936618 -0.3354281618 0.3001443034
C -3.2379341835 -1.2711537991 0.5853711854
C -2.8692874599 -2.4766292412 1.1710814259
Cl -4.1153052722 -3.6727690468 1.5322493175
C -1.5462356418 -2.7628286774 1.4773612663
C -0.5728576228 -1.8105539160 1.1833283767
C 0.0045448845 1.6626686285 1.1452893682
C 0.7360557548 1.7902703896 2.3296513461
C 0.5463717238 2.9105120771 3.1282637341
C -0.3706466218 3.8751156980 2.7227274577
C -1.0537682944 3.6687258517 1.5297082225
N -0.8780685789 2.5924307744 0.7512766326
H 3.7855408535 -1.0157323273 -1.6964307815
H 3.0126092025 -0.0491580547 -2.9810318983
H 2.9154512916 0.4668166200 -1.2764350435
H 0.8707338712 -3.0294573884 -2.3651829686
H 2.6433430036 -3.0075708539 -2.2434631974
H 1.8384142667 -2.2155196480 -3.6231917796
H -0.3615483274 -1.1263921012 -2.0295644297
H 0.5428761281 -0.1045543001 -3.1610117326
H -0.7234021908 1.2182910712 -1.5300310280
H 0.9908400191 1.5462912620 -1.3745929831
H 1.1313759039 -0.0263799499 0.5532683014
H -2.5339336071 0.6085749401 -0.1529903155
H -4.2774008889 -1.0653163745 0.3551623276
H -1.2758724280 -3.7083919843 1.9339837315
H 0.4654528662 -2.0279489733 1.4170246885
H 1.4434056232 1.0170212141 2.6134022539
H 1.1063348862 3.0303497961 4.0506348128
H -0.5518515429 4.7676292323 3.3118057894
H -1.7766566176 4.4035903447 1.1784870950
