44
CONF2
C -3.9829263243 -1.6858726714 0.8377938143
N -3.1782565666 -0.4654421132 0.8777235792
C -2.1346805391 -0.5167497921 1.9240680449
C -1.0266702853 -1.4467033394 1.3560704482
C -1.1769821870 -1.3018110224 -0.1784493760
C -2.3514138724 -0.2988468962 -0.3379466632
C -1.8931387672 1.1633059903 -0.3767100184
C -1.1250134949 1.5824712501 0.8792664428
C -1.6582326949 0.9233945515 2.1489538069
O 0.2871330521 1.1805171141 0.7604114114
C 1.0797877520 1.9560170682 0.0086429653
O 0.7321016750 3.0037906538 -0.5033096996
C 2.4563676745 1.3281602856 -0.1421741373
C 3.4811891190 2.3532672473 -0.6648425042
O 3.1679065986 2.8933987077 -1.9357571633
C 2.3329202307 0.0773572961 -0.9889480716
C 2.7218181572 -1.1594915769 -0.4716949449
C 2.5866100371 -2.3206450069 -1.2261545420
C 2.0568295672 -2.2587317105 -2.5109840647
C 1.6665619633 -1.0297177767 -3.0351378526
C 1.7995018752 0.1311493795 -2.2805684984
H -4.5429109498 -1.7795979330 1.7743391597
H -4.7093063700 -1.6120550833 0.0215423988
H -3.4025152276 -2.6146206755 0.6936169888
H -2.5626732414 -0.8995524832 2.8574156132
H -0.0322415765 -1.1623146825 1.7066404035
H -1.2015530899 -2.4791815610 1.6724570830
H -0.2637161880 -0.9475408562 -0.6599432671
H -1.4318758824 -2.2606070325 -0.6391440312
H -2.9554137051 -0.5040042960 -1.2288938244
H -2.7828486349 1.7986869011 -0.4510836745
H -1.2767263074 1.3580426719 -1.2608116854
H -1.1310895864 2.6718041079 0.9757084737
H -2.5162354557 1.5098273170 2.4955349981
H -0.8870858709 0.9659531640 2.9258905856
H 2.7791851466 1.0215093835 0.8607040217
H 4.4490077444 1.8516533548 -0.7654233576
H 3.5867821945 3.1508998356 0.0881835207
H 2.3290358404 3.3630355498 -1.8195001898
H 3.1259338784 -1.2147573937 0.5353670462
H 2.8910355612 -3.2744349759 -0.8069616032
H 1.9467077728 -3.1634111161 -3.1000640945
H 1.2525776817 -0.9731614260 -4.0369174699
H 1.4945144652 1.0850099930 -2.6954331926
