48
CONF159
C -2.5244749035 2.2194719267 -0.9866223806
C -1.0543621272 2.4071802246 -1.3494689286
C -0.1128266098 1.8448246571 -0.2825392815
C 1.3592650677 2.1134669016 -0.6041906632
O 1.7415842977 2.9700557361 -1.3732063151
O 2.1633455900 1.3411377072 0.1348154386
C 3.6022508724 1.5264433720 -0.0394591478
C 4.2830984178 0.3784750499 0.6715023961
C 4.0204651550 -0.9828457093 0.0007163185
C 4.6901026012 -1.0900924553 -1.3345551596
C 4.0604068438 -1.1693736688 -2.5059567080
N -0.3547935822 0.4270725796 0.0260545274
C -0.5025507118 0.0829152797 1.4618262800
C -1.7335273422 0.6488344725 2.0619648137
C -1.9512633934 1.6696211965 2.9369541791
C -3.3665899425 1.7625648854 3.1166167143
C -3.9151840229 0.7940617803 2.3371608203
O -2.9332735012 0.0981183673 1.6876062159
C -0.0280164193 -0.4587802963 -0.9448932962
O 0.5463802870 -0.1600701426 -1.9850647602
N -0.4156239927 -1.8196833331 -0.7257952929
C -1.6096143075 -2.3211043108 -0.2236399365
C -1.5062467356 -3.6779242492 -0.3369108297
N -0.2851009427 -4.0323088997 -0.8872481628
C 0.3366953225 -2.9005815156 -1.1223670036
H -3.1618733294 2.7016043087 -1.7331583207
H -2.7945421259 1.1599733551 -0.9464235883
H -2.7502901774 2.6607045065 -0.0090884886
H -0.8324540353 1.9466741416 -2.3164104572
H -0.8227863017 3.4721796012 -1.4438360492
H -0.3104956180 2.3876690770 0.6524380272
H 3.8751303555 2.4958358625 0.3890920950
H 3.8250188073 1.5321795689 -1.1109480600
H 5.3602556099 0.5852940267 0.6819515978
H 3.9511158827 0.3517586193 1.7154122261
H 2.9406797378 -1.1407285357 -0.1042049263
H 4.4032039976 -1.7696015382 0.6628451977
H 5.7813557390 -1.0754813153 -1.3168148656
H 4.6092789677 -1.2321790529 -3.4412952872
H 2.9740075319 -1.1698986409 -2.5622138545
H -0.4695083321 -1.0024578454 1.5733712748
H 0.3580973671 0.4969274249 1.9995113071
H -1.1881233937 2.2829832979 3.3938512366
H -3.9032945604 2.4600222526 3.7425106872
H -4.9270734504 0.4747650352 2.1407782963
H -2.4013765734 -1.6757458956 0.1220511357
H -2.2434931975 -4.4197838283 -0.0630905377
H 1.3225439128 -2.7780104346 -1.5504612915
