38
CONF26
O -1.2239241739 -2.5477116392 2.5039502579
P -1.1604679255 -1.3687820904 1.6315879461
O -1.0283074168 -1.6122199091 0.0394705101
C -0.0174653581 -2.3873991901 -0.5459300661
C 0.3548860791 -3.6217190369 -0.0286195067
C 1.3618497156 -4.3324650987 -0.6772872401
C 1.9683161619 -3.8250979972 -1.8220536281
C 1.5603378467 -2.5949584487 -2.3318704160
C 0.5624650287 -1.8678561894 -1.6952710065
O 0.0101013673 -0.3181789601 1.9994779068
C 1.0685394373 0.0135833783 1.1468481066
C 0.9320163533 1.0845101823 0.2752481966
C 2.0023975160 1.4086884968 -0.5535880018
C 3.1818954816 0.6710677319 -0.5043736321
C 3.3000751333 -0.3909978156 0.3883405878
C 2.2415916398 -0.7239626334 1.2262143640
O -2.4984937080 -0.4849352871 1.6940392314
C -2.5666817125 0.7799544718 1.0987424982
C -2.3322869113 1.8974533011 1.8881255787
C -2.4260074469 3.1592574906 1.3093966080
C -2.7498998283 3.2920592945 -0.0385658845
C -2.9905468579 2.1576296274 -0.8094023527
C -2.9023990243 0.8889621606 -0.2436922922
H -0.1268053304 -4.0056422911 0.8629657160
H 1.6662425032 -5.2958879294 -0.2811796503
H 2.7511638735 -4.3882014200 -2.3187223119
H 2.0262548836 -2.1918527208 -3.2251030711
H 0.2457314896 -0.8966103014 -2.0580254123
H 1.9088357425 2.2423348997 -1.2421985351
H 4.0096752670 0.9259226934 -1.1575747844
H 4.2171481863 -0.9690545559 0.4311530309
H 2.3050200371 -1.5529857466 1.9226098703
H -2.0721301246 1.7676752086 2.9325125645
H -2.2420208657 4.0400714466 1.9156758264
H -2.8205464800 4.2778144860 -0.4857382991
H -3.2517464382 2.2570349673 -1.8579102655
H -3.0829303810 -0.0070918901 -0.8256490215
H 0.0016295099 1.6415742392 0.2455974152
