40
CONF173
C 2.9704332824 1.6022690532 -4.7281377259
C 2.5157604271 1.1448909644 -3.3651035560
O 1.5141320530 2.1183289554 -2.8922803128
P 0.6385184055 1.8405531322 -1.5926250294
S -0.4483113070 3.3601118685 -1.0890377266
O 1.6691630929 1.2353455167 -0.5358051327
C 1.7232200856 1.6677909478 0.8654748463
C 2.6973733590 0.7570459765 1.5697114362
O -0.1689999732 0.5036390311 -2.1376041100
C -1.0170761561 -0.2440983294 -1.3717320228
N -1.1221670274 0.0144890565 -0.0812438887
C -1.9919835024 -0.7507886556 0.6066939473
N -2.7199878718 -1.7425914342 0.0924651526
C -2.5826542833 -1.9984673199 -1.2267359041
C -3.4031054175 -3.1162784921 -1.7855127709
C -1.7259712283 -1.2501471825 -2.0204544001
C -2.1335499103 -0.4651440247 2.0818587344
C -2.4286208671 1.0155804443 2.3414523066
C -0.8716528618 -0.9192642602 2.8293124437
H 3.4076200096 2.6030271853 -4.6761743952
H 2.1362084691 1.6126259434 -5.4345674908
H 3.7321995773 0.9100153389 -5.0993153895
H 2.0511325247 0.1547412194 -3.4042817296
H 3.3364543845 1.1330695455 -2.6423087908
H 0.7166006447 1.5918488357 1.2842798267
H 2.0489339381 2.7117357453 0.8862978625
H 2.7561446059 1.0478532938 2.6229901791
H 3.6957592268 0.8360631028 1.1308782430
H 2.3651537812 -0.2836079201 1.5153871214
H -3.2208334405 -3.2532348076 -2.8526230741
H -4.4666344940 -2.9118066915 -1.6247962525
H -3.1705261051 -4.0465035437 -1.2571512424
H -1.6097913193 -1.4281779394 -3.0823575438
H -3.3215637047 1.3429739662 1.7996430604
H -2.5952543773 1.1773449380 3.4108891705
H -1.5880027989 1.6405635789 2.0255062174
H -0.6672929497 -1.9806357197 2.6568540386
H -0.0032821514 -0.3415641668 2.4981124089
H -2.9799828605 -1.0652822729 2.4308508605
H -0.9989603384 -0.7614613182 3.9048112154
