39
CONF39
C 3.6806081076 -0.6328544991 -3.0218495515
C 3.2537014780 -0.0709503965 -1.6670211503
C 1.7340536102 0.0546895515 -1.5569908835
C 1.2836132914 0.6072408596 -0.2142043722
C 1.3444741686 -0.3935600092 0.9384879532
O 0.0372311711 -0.9952502006 0.9026776856
C -0.8535446564 0.0487467337 0.5714838967
C -2.0446572761 -0.5871680037 -0.1688304716
N -1.6445967556 -1.2226253703 -1.4084613906
C -1.1086429983 -2.4461839727 -1.5907663556
N -0.8308025535 -2.6393681680 -2.8747940338
C -1.2236662813 -1.4646704108 -3.4452059693
N -1.7218730956 -0.5739298915 -2.5979477606
O -0.1321892005 0.9403320767 -0.2662658718
C -1.3573603300 0.7672306753 1.8317535501
C -2.0525288844 1.9812499763 1.8150846375
Cl -2.4356914920 2.8154138281 0.3141946722
C -2.4956986969 2.5961323996 2.9820410437
C -2.2426652102 1.9717526147 4.1952002700
Cl -2.7946626362 2.7416398619 5.6724947714
C -1.5735131891 0.7581787143 4.2631694366
C -1.1469022114 0.1727529658 3.0783367202
H 3.2543220302 -1.6295607728 -3.1811474476
H 3.3352160025 0.0124310721 -3.8369719426
H 4.7693931932 -0.7154833945 -3.0937107269
H 3.7099650087 0.9155743589 -1.5128470155
H 3.6342801828 -0.7190579643 -0.8672791316
H 1.2632775599 -0.9244548517 -1.7187204918
H 1.3653056023 0.7244168670 -2.3435490596
H 1.8299718628 1.5268761625 0.0264549518
H 1.5100090281 0.1028391909 1.9033237733
H 2.0789117019 -1.1877181016 0.7953123687
H -2.4878744393 -1.3386403118 0.4907377783
H -2.7943345771 0.1699068243 -0.4003219317
H -0.9543734690 -3.1442036371 -0.7790056931
H -1.1467070254 -1.2602716503 -4.5057850662
H -3.0276854676 3.5386386877 2.9394096981
H -1.3891068779 0.2764978652 5.2160590784
H -0.6252564478 -0.7765888755 3.1154539313
