43
CONF16
C -0.3503282039 -4.5772571368 2.3907406038
C -1.3111301740 -3.6196124752 1.7851285631
N -1.3426465035 -3.3044512087 0.5213474599
N -2.3342409444 -2.4218389502 0.1896782573
C -3.0507898188 -2.0595921584 1.2194861091
S -2.5449327923 -2.7932641952 2.7297410609
S -4.4054810122 -0.9451089254 1.1909584728
C -4.0814828062 -0.0715543455 -0.4183242803
C -2.8273278258 0.7256699834 -0.3306453104
C -1.7062662967 0.4644793546 -1.0461859515
N -0.5476050208 1.1443895277 -0.6467812280
C -0.0566213554 1.3430101204 0.7330090586
C 0.7246892206 2.5907028645 0.1936995637
C 0.2159358737 2.1523000940 -1.2024755309
O 0.3456977416 2.5362612634 -2.3412367525
N 2.1329514345 2.7116671677 0.4172115014
C 3.0056094367 1.8057351035 -0.0779846876
O 2.6663001593 0.8440356579 -0.7587296677
C 4.4662209526 2.0694508323 0.3068391294
N 5.3498048419 1.1950880024 -0.4322808663
C 5.7970818232 -0.0361086606 -0.1290762711
N 6.4985032842 -0.4944343434 -1.1494771368
N 6.4558879777 0.4873277907 -2.0905827866
N 5.7660493633 1.4991532653 -1.6767271095
S -1.4200776010 1.5146197442 1.9346821420
C -2.7539864334 1.8316025490 0.6781212705
C -1.5894268126 -0.5239304315 -2.1445805264
O -2.5079360257 -0.8981620701 -2.8471091068
O -0.3154946779 -0.9319101487 -2.3066378489
H -0.8779741438 -5.4306066511 2.8277376955
H 0.2292336992 -4.0984416654 3.1854937136
H 0.3291087318 -4.9352481478 1.6152135782
H -4.9540222050 0.5823340843 -0.5232372112
H -4.0708806919 -0.8012482234 -1.2239897427
H 0.6002350724 0.5358823110 1.0724652411
H 0.2295730828 3.5195245323 0.4887581325
H 2.4702202909 3.4869176930 0.9700602877
H 4.7443000593 3.1076087166 0.1051859789
H 4.5987363331 1.8770976983 1.3762483316
H 5.6054933256 -0.5359701134 0.8101091099
H -2.5410383294 2.7853164617 0.1836617734
H -3.6810081545 1.9255262838 1.2467416867
H -0.2940601022 -1.5516783528 -3.0561377377
