30
CONF3
C 4.6065599304 0.6655671746 -1.5484957986
C 3.5163470425 0.4174448271 -0.5075844066
C 2.1348090024 0.2288118332 -1.1335296588
C 1.0371965785 -0.0407345234 -0.1049750973
C -0.3449050880 -0.2050323045 -0.7376210672
C -1.4409098440 -0.5949223189 0.2498350695
C -2.8200250773 -0.8009454691 -0.4146689934
C -3.8807419093 -0.4669183984 0.6696348502
C -3.0751049641 -0.0414258798 1.9169982418
C -1.7345456476 0.4346686645 1.3500055555
H 5.5869508084 0.7999267746 -1.0803417168
H 4.6787687146 -0.1772555668 -2.2449420562
H 4.3880162118 1.5645405207 -2.1357174448
H 3.4804141479 1.2579143675 0.1982360159
H 3.7671142922 -0.4726634738 0.0848003435
H 1.8762283276 1.1242584195 -1.7167240523
H 2.1726191263 -0.6046527315 -1.8493436131
H 1.0148967200 0.7817515658 0.6223769167
H 1.2869241161 -0.9489834743 0.4621366673
H -0.2877111798 -0.9685509105 -1.5269619956
H -0.6337323239 0.7330283474 -1.2344601839
H -1.1463682867 -1.5334504099 0.7439627609
H -2.9278142156 -1.8156157622 -0.8107951809
H -2.9160128634 -0.1138044771 -1.2641969435
H -4.5393371551 -1.3143277332 0.8823400086
H -4.5189237635 0.3569973979 0.3338521992
H -2.9006830903 -0.9089118402 2.5652466136
H -3.5889436957 0.7181967482 2.5144633034
H -1.8445539225 1.4299195510 0.8948214633
H -0.9465326747 0.4951690872 2.1073064821
