45
CONF17
C -4.9852731229 -2.8437392527 -0.1777319229
O -3.5524009239 -2.6835067264 -0.3295030878
C -3.1836743266 -1.5643144289 -0.9732460916
O -3.9472969056 -0.7214053175 -1.4182250117
N -1.8131584927 -1.4389926226 -1.0432830425
C -1.1820093899 -0.4489861595 -1.8504712504
C -0.4216183611 -0.8561354297 -2.9485100668
C 0.2128419516 0.0919908337 -3.7395206847
C 0.0710130919 1.4476244416 -3.4455445170
C -0.6852253296 1.8454240143 -2.3497990199
C -1.3043239532 0.9068302490 -1.5216048398
C -2.0678634655 1.3446790036 -0.2998914544
O -1.5757230485 2.5857094259 0.2500661876
C -0.3612293725 2.5409928802 0.8341106000
N 0.3870713858 1.4449924523 0.8855471421
N 1.5039881688 1.8373787406 1.5652524927
C 1.4489581497 3.1536975773 1.9189867047
C 0.2500401697 3.6496766978 1.4633257876
C 2.5704645456 0.9332883857 1.7437232752
C 2.7609666383 -0.0992487268 0.8229801552
C 3.8068534635 -0.9970071187 0.9941513427
C 4.6626646017 -0.8414242388 2.0781936980
C 4.4907536397 0.1870400317 2.9970365909
C 3.4321817713 1.0722122158 2.8336802332
Cl 5.9919868153 -1.9742494494 2.2948363698
O -1.0459337135 -2.5857981371 -0.7922126140
C -0.4248932060 -2.4735995727 0.5079580690
H -5.4673090686 -2.8853067384 -1.1569787733
H -5.1083648464 -3.7886289898 0.3497284853
H -5.3976536908 -2.0194592035 0.4085336218
H -0.3334922168 -1.9135722926 -3.1714904199
H 0.8048296549 -0.2263165812 -4.5914842688
H 0.5549882470 2.1942308343 -4.0669624851
H -0.7749999929 2.8993584271 -2.1063245378
H -2.0383654866 0.5654905532 0.4703376836
H -3.1116201595 1.5531964073 -0.5462596034
H 2.2643902004 3.6394700149 2.4338708958
H -0.1321577531 4.6537355744 1.5586964939
H 2.1003806712 -0.1916284798 -0.0307097717
H 3.9586175729 -1.7994308312 0.2812010138
H 5.1596611161 0.2896531336 3.8437123535
H 3.2750160034 1.8546885842 3.5677797839
H 0.2033861065 -1.5783755718 0.5569961798
H -1.1869709250 -2.4488763780 1.2939355354
H 0.1905038969 -3.3704974324 0.6051123655
