44
CONF2
C 3.3759239813 2.3921178891 0.8472274580
N 3.0791925936 1.5472991596 -0.3046320989
C 1.7916992770 1.9221868394 -0.8899299933
C 1.4783132482 1.0602775315 -2.1084196108
N 1.5036183043 -0.3559757676 -1.7299989811
C 2.7774270445 -0.7501040655 -1.1248049057
C 3.0659603700 0.1352072838 0.0833534081
C 0.3931851231 -1.0530162553 -1.3702354167
O 0.3767250399 -2.0993785781 -0.7483523621
O -0.7510727222 -0.4388536521 -1.8428206184
C -1.9722650258 -0.8402799632 -1.2279574827
N -1.9754794514 -0.6020943953 0.2191140180
C -2.2583181471 -1.7506923667 0.9830877445
O -2.3199868893 -1.8141113184 2.1897264144
C -2.4908795035 -2.8212927975 -0.0246219310
N -2.8140584125 -4.0833803370 0.2160131581
C -2.9291995716 -4.8248488700 -0.8939842355
C -2.7399905540 -4.3043977261 -2.1783395008
N -2.4263331982 -3.0194923483 -2.4067950819
C -2.2961176339 -2.3087636940 -1.2995202978
C -1.7039738867 0.6776758778 0.7210012962
N -1.9194180897 1.6823704807 -0.1326824028
C -1.6376871604 2.9235826393 0.2583104037
C -1.1330637503 3.2038968821 1.5223137018
Cl -0.7565256238 4.8519253582 1.9641356321
C -0.9187241356 2.1625743210 2.4179938349
C -1.2053151489 0.8686217898 2.0171668353
H 4.3503056437 2.1194787635 1.2656258996
H 3.4171346766 3.4412242652 0.5366276008
H 2.6155807497 2.2999606000 1.6483937034
H 0.9661581104 1.8149258733 -0.1546583041
H 1.8325611753 2.9768414005 -1.1893237947
H 0.5039709039 1.3188366426 -2.5207844663
H 2.2434329909 1.2169590176 -2.8789110497
H 3.5665687439 -0.6250245251 -1.8761886494
H 2.7194356518 -1.7993232275 -0.8319531292
H 2.3018042396 -0.0672361429 0.8642435872
H 4.0460000395 -0.1248702048 0.5011979477
H -2.7246359000 -0.2251968090 -1.7301866927
H -3.1865224652 -5.8733527479 -0.7620777089
H -2.8520681593 -4.9448201322 -3.0503204025
H -1.8172704015 3.7235390115 -0.4562491790
H -0.5233266993 2.3595440989 3.4079665945
H -1.0527652814 0.0274598976 2.6787264655
