35
CONF96
C -4.7221057016 -2.1384264881 2.3182324262
C -3.3736510148 -2.2907746888 1.6617280297
O -3.0547945361 -1.0033345003 1.0217299524
P -1.7326628308 -0.8417339865 0.1550184630
S -1.3630377754 -2.1353640525 -1.2424305962
O -1.8572127607 0.6925126065 -0.2337038235
C -1.4507298209 1.2223831730 -1.5471725876
C -1.2429898389 2.7056726834 -1.3775695700
O -0.6288763926 -0.8592592763 1.3935917920
C 0.6951777932 -0.7113061229 1.1580931726
N 1.6026749210 -1.3183169057 1.9545869330
C 2.7387005675 -0.8980121167 1.4087449539
N 2.5229897902 -0.0938074499 0.3524604978
N 1.1775150935 0.0402695553 0.1817302881
C 3.4632298566 0.5693137823 -0.5699112046
C 3.2603332200 2.0794381637 -0.5174281761
C 3.2910748076 -0.0020692980 -1.9735946427
Cl 4.2984364179 -1.3257838422 1.9748392652
H -5.4907655831 -1.9027567434 1.5773734768
H -4.7005255197 -1.3515123033 3.0767577650
H -4.9861347014 -3.0821854350 2.8045109836
H -3.3810509675 -3.0631834470 0.8864978689
H -2.5877265028 -2.5125411951 2.3905338304
H -0.5328121846 0.7190006034 -1.8588202908
H -2.2533402909 0.9939746687 -2.2537841616
H -2.1590570406 3.1955367456 -1.0364939381
H -0.9596071003 3.1339949997 -2.3438259466
H -0.4411307316 2.9044196566 -0.6608498420
H 4.4575266752 0.3188176596 -0.1890953296
H 4.0155409339 2.5597496061 -1.1449735217
H 2.2708601220 2.3472952423 -0.8992041845
H 3.3630882557 2.4543822143 0.5044800904
H 3.4262540858 -1.0870924600 -1.9750970196
H 4.0382624731 0.4457242629 -2.6340100908
H 2.2965454712 0.2349743815 -2.3629448629
