51
CONF86
C -1.0424896927 0.1184961730 2.7486489234
C -0.2401483876 0.7449361780 1.6140144780
N 0.1052809943 -0.2604823739 0.5974963268
C -1.1205011969 -0.8265325009 0.0207636092
C -1.9676635991 -1.5075186795 1.0897009881
C -2.3261938952 -0.5047208258 2.2068638297
C -3.1339194023 -1.2037654681 3.2817445276
O -2.6252327593 -1.5089353340 4.3545472845
C -4.5554749978 -1.5639433906 2.9995592400
C -5.2547696467 -1.0887999235 1.8812397709
C -6.5808203691 -1.4437035687 1.6669735905
C -7.1904077810 -2.2826731070 2.5854405881
C -6.5369633433 -2.7782365386 3.7044779316
C -5.2159550137 -2.4091706893 3.9033636907
F -8.4799274401 -2.6340742457 2.3821558149
C 0.9536233785 0.3091789784 -0.4487673506
C 2.4074406418 0.4229843702 0.0170020511
N 3.2443448490 0.9990406325 -1.0465589622
C 3.8024557441 0.1249111607 -1.9891292089
O 3.6051352420 -1.0838652714 -1.9154217198
C 4.6185391188 0.7508468544 -3.0297327201
C 5.2519435922 -0.0313679570 -4.0027065821
C 6.0200767426 0.5655278839 -4.9865400573
C 6.1590536114 1.9593947253 -5.0068726164
C 5.5392335497 2.7518942628 -4.0552322980
C 4.7644146740 2.1444619262 -3.0601622249
N 4.1269303561 2.8988147438 -2.0964031558
C 3.3523245915 2.3926051643 -1.0838096870
O 2.7980023181 3.1174222248 -0.2653951637
H -0.4402982108 -0.6507712415 3.2433005767
H -1.2785603781 0.8831874713 3.4966441871
H 0.6798348738 1.1802263046 2.0168689220
H -0.8217787286 1.5732321630 1.1590356429
H -0.8383507758 -1.5604647342 -0.7427964511
H -1.7269359811 -0.0425989169 -0.4784732551
H -1.4046589555 -2.3412826625 1.5279377604
H -2.8696767607 -1.9201400347 0.6264785254
H -4.7774611210 -0.4295685208 1.1656386645
H -7.1358850502 -1.0795875038 0.8096669586
H -7.0578212183 -3.4346548300 4.3928790213
H -4.6732384225 -2.7768376207 4.7670921593
H 0.9293255970 -0.3567942915 -1.3188151644
H 0.5943287977 1.3018601189 -0.7818368915
H 2.8014167112 -0.5673104417 0.2491161244
H 2.5030666260 1.0661430847 0.8917672632
H 6.5121607108 -0.0407939033 -5.7388866825
H 6.7604335611 2.4305437423 -5.7777887747
H 5.6462197261 3.8320384015 -4.0712013937
H 4.2045278123 3.9065064406 -2.1183815580
H -2.9405789238 0.2896115403 1.7615371351
H 5.1249371901 -1.1076104132 -3.9627452708
