82
CONF77
C -5.4503590781 0.8757716770 -3.5604329318
C -4.5393590561 0.0051607474 -2.7366370498
C -4.1641039657 -1.2020653880 -3.1735351036
C -4.0812020966 0.6244861077 -1.4382894183
C -5.2303109344 1.1395805660 -0.5422063592
C -4.5400284101 1.3422814375 0.8057403319
C -3.6269279379 0.1062685753 0.9660262792
C -3.2144726957 -0.2529045268 -0.5028576945
C -1.6978786976 -0.1463083489 -0.7645121716
C -1.1839972543 1.3197097344 -0.7801682671
C 0.1328037650 1.5239670540 -0.0349599610
C 1.1533952598 0.4697122823 -0.4599941018
C 2.6303121291 0.8647286362 -0.0317934655
C 2.6942335560 1.5334397181 1.3609361380
C 4.1259080915 1.8666657015 1.8022971245
C 5.0592805187 0.6577824864 1.8069934640
C 5.0481699421 -0.0952999465 0.4512901386
C 3.5834905939 -0.3753226489 -0.0436163013
C 2.9811785179 -1.6031648508 0.7064067800
C 1.4925644635 -1.5289676284 1.0345431757
C 0.6574056008 -0.9795597940 -0.1233185587
C -0.9018108954 -1.0456934816 0.2209069757
C -1.2487596141 -0.6333560454 1.6953571080
C -2.4074945197 0.3702751224 1.8565016338
C -1.3674191794 -2.5083749256 0.0356241906
C 0.9486607679 -1.8464526128 -1.3704861612
C 5.8638299936 0.7466257885 -0.5567170001
C 5.8355924037 -1.4139634176 0.5729190721
O 4.7783642962 -0.1883302906 2.9455905730
C 3.0455485197 1.9036051190 -1.1016995515
C -4.4519154515 -1.0671774488 1.5334566351
O -4.9414813049 -0.8559964092 2.8658136792
H -5.0063835432 1.8682867231 -3.7072864569
H -6.4074381280 1.0337716442 -3.0495679246
H -5.6514667327 0.4325280239 -4.5388655064
H -3.4967690513 -1.8464514600 -2.6107381242
H -4.5177396821 -1.5774568269 -4.1302628823
H -3.5017265028 1.5155692172 -1.7227856016
H -5.6881047328 2.0561459788 -0.9255393714
H -6.0195764434 0.3805650097 -0.4678970280
H -3.9227793922 2.2486704434 0.7645415834
H -5.2418581306 1.4762118277 1.6370618003
H -3.5045063844 -1.2952047542 -0.6733431304
H -1.5315068154 -0.5612543240 -1.7665291643
H -1.0351062746 1.6304972346 -1.8225362768
H -1.9361249179 2.0014876106 -0.3710953491
H -0.0218411399 1.4913462139 1.0466864958
H 0.5009089291 2.5318094725 -0.2553214956
H 1.1734722742 0.5171870937 -1.5590694772
H 2.2129126315 0.8964018317 2.1131888057
H 2.1170346271 2.4642280192 1.3537338479
H 4.5470105017 2.6394124715 1.1518328347
H 4.1121071363 2.2950161056 2.8116871089
H 6.0892350965 0.9983856682 1.9814986843
H 3.6885157280 -0.6624298922 -1.0991459828
H 3.1750968731 -2.4960347286 0.1018440349
H 3.5074373893 -1.7757672565 1.6453849321
H 1.3566185876 -0.9085767264 1.9230966784
H 1.1466289500 -2.5324240296 1.3114110775
H -1.4779164709 -1.5437446819 2.2631237708
H -0.3842810855 -0.1953979681 2.1990551534
H -2.7260499100 0.3743159456 2.9058221554
H -2.0419017841 1.3804346700 1.6524893924
H -0.6956636513 -3.2009521695 0.5525294530
H -1.4094406136 -2.7958693259 -1.0189391339
H -2.3608022073 -2.6664686761 0.4561195059
H 0.8700904192 -2.9170984784 -1.1618635796
H 1.9615126400 -1.6545282842 -1.7315267712
H 0.2662521472 -1.6034258484 -2.1912790337
H 5.5920269616 1.8000877976 -0.5813763183
H 5.7467723026 0.3445874185 -1.5685395683
H 6.9263845146 0.6934799216 -0.2954060691
H 5.4174000770 -2.1098142353 1.2991358699
H 6.8645610204 -1.1963501164 0.8805406053
H 5.8753008250 -1.9134859284 -0.4025865353
H 3.8208282253 -0.2547527871 3.0433679627
H 2.1969751711 2.5484360574 -1.3498877087
H 3.3595982850 1.4019046351 -2.0230658294
H 3.8510978584 2.5652834201 -0.7867808726
H -5.2851365688 -1.2990066554 0.8540360488
H -3.8240366331 -1.9600789254 1.6004955015
H -5.6708414712 -0.2265990592 2.8233734960
