37
CONF51
C 4.3419074608 -0.1558025531 -0.1796025681
C 3.0115458852 -0.8700145126 -0.4081254201
C 1.8259374953 -0.0734470281 0.1365958301
C 0.5015724353 -0.7902447302 -0.1060178485
C -0.7330388369 -0.0519139843 0.4793881274
C -2.0591681633 -0.7775476919 0.0779772796
N -2.0724953682 -2.1938161818 0.3863989196
C -1.8064928843 -3.2333983404 -0.4327729995
N -1.8756649949 -4.3747509900 0.2391609549
C -2.1908992974 -3.9622076767 1.4999005707
N -2.3214424863 -2.6495061117 1.6397203543
C -0.6021490038 -0.0658413840 1.9378728387
N -0.4690266878 -0.0960078091 3.0853256176
C -0.8501110971 1.3892150141 -0.0293446235
C -0.7845279184 1.6284304932 -1.4052421106
C -0.9145080597 2.9146300126 -1.9139493691
C -1.1148576825 3.9687697344 -1.0304067216
Cl -1.2779185003 5.6009682378 -1.6655808208
C -1.1888913863 3.7622979544 0.3390904914
C -1.0571364858 2.4661785905 0.8309200292
H 5.1797436613 -0.7382097446 -0.5750901441
H 4.5184560166 0.0068998871 0.8893388328
H 4.3484223330 0.8226590355 -0.6724243285
H 2.8641182750 -1.0456217192 -1.4817619788
H 3.0322260068 -1.8578091825 0.0701030094
H 1.8046663175 0.9166949697 -0.3354602060
H 1.9646522196 0.0926505553 1.2136472372
H 0.5391865731 -1.7918477143 0.3369364728
H 0.3332412335 -0.9254995258 -1.1805703239
H -2.9070501049 -0.2987683055 0.5742652228
H -2.1769674494 -0.6774402920 -1.0033889054
H -1.5818706646 -3.1077810812 -1.4843073144
H -2.3361335998 -4.6400726705 2.3316873827
H -0.6245627159 0.8131159252 -2.1029673288
H -0.8581283038 3.0908229101 -2.9819831219
H -1.3465451226 4.5928853663 1.0174649406
H -1.1160898876 2.3113312417 1.9032013181
