33
CONF53
C -5.1215076960 -1.1075409697 -0.0657836435
C -3.9109020639 -0.3276445569 -0.5589010820
C -4.3635283930 1.0435300414 -1.0634938203
O -4.8112370022 1.2128828546 -2.1736017422
O -4.2924686447 2.0546272447 -0.1817161717
O -3.0081095418 -0.2080710889 0.5489496628
C -1.7049039937 0.1606616859 0.2903569832
C -0.8552399774 0.1441291130 1.4004305014
C 0.4745212186 0.5071219847 1.2608980817
C 0.9497298175 0.8785782026 0.0060287806
C 0.1161202701 0.9028394814 -1.0980810394
C -1.2264699404 0.5477456085 -0.9604685548
O 2.2655614138 1.3162894021 -0.1449933087
C 3.2726311641 0.4127621336 0.0454107191
C 4.5638810573 0.9174412048 0.2434262541
C 5.6509445071 0.0702043264 0.4077817714
C 5.4332865334 -1.3018053607 0.3784675321
C 4.1654916760 -1.8317530892 0.1818304971
C 3.0888556888 -0.9687638085 0.0137473147
Cl 6.8016415378 -2.3830190239 0.5955229631
Cl 4.8161285269 2.6468465435 0.2790452510
H -4.8038636134 -2.1013474031 0.2575146405
H -5.8450553366 -1.2111253727 -0.8775355085
H -5.5958898803 -0.5900273794 0.7728529091
H -3.4327850030 -0.8544774979 -1.3921399299
H -3.9112886659 1.7317530778 0.6545369212
H -1.2523425893 -0.1498456150 2.3661860997
H 1.1421415635 0.5016801146 2.1164543526
H 0.5082883435 1.2035341853 -2.0636420076
H -1.8637244575 0.5814757827 -1.8359447738
H 6.6425838960 0.4784797776 0.5604219610
H 4.0116671902 -2.9040231025 0.1542493805
H 2.0958423788 -1.3731382958 -0.1470896973
