44
CONF105
C -5.2134643610 0.2722832456 1.3717583235
C -3.8050764300 -0.2628318682 1.3216369553
C -3.6445475389 -1.7365514214 1.6618458058
O -2.4930673702 -2.1443934026 0.8919279895
C -2.2330184958 -1.1292390421 -0.0851205369
O -3.3337505158 -0.2512927064 -0.0502758460
C -2.1965047416 -1.8089801874 -1.4696805703
N -1.7156810778 -0.9171592665 -2.5083024692
C -0.4569936738 -0.7957365721 -2.9776702278
N -0.3795903348 0.2185645154 -3.8304775078
C -1.6548322778 0.7011321420 -3.8351391718
N -2.5005064467 0.0495024964 -3.0465563501
C -0.9271045543 -0.3869136176 0.2181549837
C -0.9153517039 1.0099654442 0.1506396272
C 0.2421578224 1.7535919916 0.3261865252
C 1.4374846249 1.0895018474 0.5733339294
C 1.4750936169 -0.2990159741 0.6573324534
C 0.2980916563 -1.0126482918 0.4702240387
Cl 0.4471108626 -2.7681366141 0.5481450899
O 2.5563045034 1.8616780180 0.7950475694
C 3.7880258282 1.3982425332 0.3607033284
C 4.8689318479 1.5715263073 1.2169535497
C 6.1421060919 1.1960526955 0.7998613104
C 6.3016632506 0.6463024260 -0.4660936222
C 5.2243205702 0.4725389094 -1.3282585409
C 3.9551378327 0.8572255260 -0.9116992919
Cl 7.9093182924 0.1591537894 -0.9949351004
H -5.2398509797 1.3165856278 1.0499612446
H -5.5871412724 0.2204189787 2.3986947114
H -5.8700464559 -0.3200361287 0.7275972040
H -3.1269711491 0.3470371425 1.9368146669
H -3.4404591270 -1.9144402416 2.7209854822
H -4.5228792124 -2.3125937626 1.3427458820
H -1.5220636282 -2.6661524605 -1.4264774834
H -3.2050659651 -2.1496831487 -1.7158885962
H 0.3443664964 -1.4607866315 -2.6812400621
H -1.9723868708 1.5438701119 -4.4363857440
H -1.8477172408 1.5203242521 -0.0611571535
H 0.2282988314 2.8359548607 0.2634102077
H 2.4038727389 -0.8182388776 0.8619988784
H 4.7133729482 1.9988437860 2.2015869752
H 6.9935187045 1.3250663306 1.4581916392
H 5.3697467852 0.0517250017 -2.3165934963
H 3.1051471187 0.7377424369 -1.5753090023
