26
CONF11
C -4.0128145643 0.0672622416 1.1341701074
N -2.8922362739 -0.8444184903 0.8855836027
C -1.7051620685 -0.1523535965 0.3771689366
C -0.5143201778 -1.1187726234 0.3799785083
O -0.3521693468 -1.6672637632 1.6870439660
C 0.7479701070 -0.4142879333 -0.0472562674
C 1.5823500001 0.2007862638 0.8834956008
C 2.7127868182 0.8977300329 0.4589740477
C 3.0096631679 0.9889429077 -0.8936268067
O 4.1002361324 1.6503238590 -1.4067891864
C 2.1736800143 0.3741699353 -1.8360029558
O 2.4502818496 0.4437580363 -3.1720368500
C 1.0549839745 -0.3258724973 -1.4070570423
H -4.2976321949 0.6656959297 0.2519004582
H -3.7436088791 0.7609897041 1.9380020459
H -4.8868494785 -0.5042544790 1.4610990951
H -3.1791266039 -1.5393758723 0.2020138285
H -1.8362545573 0.2692254671 -0.6352568368
H -1.4736647739 0.6801527872 1.0554255741
H -0.7225098995 -1.9301632281 -0.3408460735
H -1.2583153941 -1.7574876306 2.0268137958
H 1.3553009426 0.1256159198 1.9402872883
H 3.3707627541 1.3713155828 1.1836235672
H 4.6226138406 2.0217053210 -0.6860241318
H 3.2658891872 0.9506851247 -3.2880438420
H 0.4281455245 -0.8074277999 -2.1526403294
