68
CONF402
C 1.8518152912 -4.4575989167 -0.9424511583
C 2.2233683760 -3.2835172092 -1.8459236798
C 1.2407751364 -2.0885528192 -1.7957604661
C -0.1465521750 -2.4909667380 -2.3036209591
C 1.2279009243 -1.5769413775 -0.3556486342
O 0.0038991749 -1.5846601613 0.1959820286
C -0.1315113767 -1.1506261390 1.5902090941
C -0.0661281844 -2.4002463388 2.4514659853
C -0.2260676057 -2.0623641255 3.9328150558
C -1.4004473781 -1.1505773745 4.1194042287
C -1.9714071492 -0.4308837548 3.1362647667
C -3.1178226236 0.4271374624 3.3988070641
C -3.5719541526 1.3267038257 2.5123977477
C -2.9002081478 1.5985424738 1.1975151806
C -1.4600713143 1.0383056552 1.2034874293
C -1.4723588463 -0.4299839857 1.7019163393
C -0.7288953635 1.2380338755 -0.1275807374
C -0.6863314589 2.6976689725 -0.5857667496
C 0.2083510434 2.8752185010 -1.8021681782
C 1.6913855688 2.7507367827 -1.5193596252
C 2.4636195191 3.0351472090 -2.7889536766
C 2.1770167823 4.4690879883 -3.2202723476
C 0.7320645574 4.9043010846 -3.1224950950
O -0.1207416364 4.2047056914 -2.3504473385
O 0.3215683335 5.9109700674 -3.6655517068
O 3.8564086591 2.8420912570 -2.5214600769
C -3.7694422079 1.0980041071 0.0302866913
C -0.3617510553 -3.3317439998 4.7800942189
O 2.2280044700 -1.1970819122 0.2266905377
C 1.7940036966 -0.9544275821 -2.6776731910
H 0.8953429488 -4.9041565457 -1.2287991680
H 2.6147291799 -5.2395365499 -1.0019742564
H 1.7796450504 -4.1466064758 0.1062713178
H 3.2199485138 -2.9153838034 -1.5782197653
H 2.2737556553 -3.6164290728 -2.8900793153
H -0.0532176490 -2.8695356654 -3.3271251723
H -0.6040383920 -3.2687848610 -1.6889196085
H -0.8222016159 -1.6307356527 -2.3176248729
H 0.6974542901 -0.4756509343 1.8303638963
H 0.8851252203 -2.9150172736 2.2759451692
H -0.8760548993 -3.0766066502 2.1458289972
H 0.6810294051 -1.5337293563 4.2698902162
H -1.8115405091 -1.0717173634 5.1261200321
H -3.6126439432 0.3120575442 4.3614108440
H -4.4590400089 1.9132382928 2.7445608523
H -2.8291468846 2.6908799129 1.0967518063
H -0.9051945123 1.6135553727 1.9614536559
H -2.1935155387 -0.9978007045 1.0945518195
H -1.1805392200 0.6181708516 -0.9122600249
H 0.2990697622 0.8843937018 -0.0064017062
H -1.6893630450 3.0436600115 -0.8561834760
H -0.3235396853 3.3434118853 0.2248569943
H -0.0840559544 2.1561986701 -2.5803807514
H 1.9093158313 1.7372047928 -1.1700280701
H 1.9862859465 3.4568221293 -0.7320102459
H 2.1345543854 2.3351026745 -3.5732202591
H 2.7282105746 5.1446713084 -2.5507433715
H 2.5182469204 4.6768642608 -4.2385396005
H 4.3407766251 2.9765432847 -3.3461669240
H -4.7808388976 1.5079265372 0.1157464271
H -3.8528528658 0.0066792785 0.0349884425
H -3.3629044975 1.4085867520 -0.9369349478
H -1.2583650122 -3.8911684418 4.4907532777
H -0.4422310858 -3.0837490228 5.8431947681
H 0.5084560556 -3.9818249178 4.6437171728
H 1.1132953462 -0.0964570594 -2.6821651437
H 2.7748364387 -0.6230263719 -2.3254183958
H 1.8927154267 -1.3145316975 -3.7068524351
