32
CONF1
C -6.5163595133 0.0975152230 -0.7446610732
C -5.1684855935 -0.3870620984 -0.3473939573
N -4.9266851863 -1.5400683741 0.2195690494
C -3.5945940623 -1.7196997682 0.4465434599
C -2.7610947562 -0.6974971822 0.0588165202
S -3.7270600274 0.5718253230 -0.6328672375
C -1.2806991632 -0.6472795532 0.0999630493
O -0.5968962495 -1.6434029959 -0.0904537393
N -0.7522800945 0.5999558465 0.3215016902
C 0.6409066529 0.8010290156 0.3571557993
C 1.3149980973 1.0466963010 1.5603276395
C 2.6833409749 1.2451492137 1.6152936481
C 3.4082371660 1.1755910313 0.4322476541
C 2.7971116706 0.9360604914 -0.7914482889
C 1.4180524692 0.7637524158 -0.8048521211
Br 0.5766303386 0.5051955456 -2.4920022909
O 4.7750305381 1.3748995550 0.6070436870
C 5.6356601247 1.2934090534 -0.4404641161
F 5.6041526635 0.0896106324 -1.0478224843
F 5.3984172332 2.2289482354 -1.3834840953
F 6.8624749976 1.4889955196 0.0460589781
Br 0.3266574916 1.0999038577 3.1867297397
C -3.1569089483 -2.9968042006 1.1168726516
F -4.1842615929 -3.5870165278 1.7611208237
F -2.6795799840 -3.9002844241 0.2264913038
F -2.1853755856 -2.7792948327 2.0310432354
H -6.7404266739 1.0599968033 -0.2753577341
H -6.5750594846 0.2332198046 -1.8292388067
H -7.2615437195 -0.6368603862 -0.4356650053
H 3.1918322833 1.4339377287 2.5523033355
H 3.3471614375 0.8945322651 -1.7207276993
H -1.3418067603 1.3154068920 0.7269177444
