42
CONF57
C 1.4153701851 -2.0758324354 2.0833501673
O 0.1563905317 -1.6151805168 1.5687021447
C -0.0064983181 -0.2815160274 1.5838156576
C -1.0916621013 0.3020605946 1.0401765618
C -2.1794428020 -0.4813243168 0.4025633319
C -3.1496782760 -1.0840962617 1.2028777804
C -4.1960016694 -1.8034839901 0.6353019954
C -4.2841789231 -1.9239001772 -0.7470546258
C -3.3165551260 -1.3321241953 -1.5510049345
C -2.2614171130 -0.6126515225 -0.9919239538
C -1.1922082506 -0.0480356359 -1.8776480335
O -0.1273819139 -1.0489538389 -1.9859609059
C 1.1285936666 -0.7429364454 -1.6320054676
C 2.0527235925 -1.8066369140 -1.6778031332
C 3.3617593573 -1.5460585442 -1.3381675243
C 3.7367094599 -0.2523783845 -0.9551432290
C 2.7433921607 0.7101252312 -0.9455502794
N 1.4663122233 0.4877224635 -1.2727968223
C 3.0357471393 2.1292329940 -0.5048437801
F 2.5041480276 3.0412035065 -1.3386226284
F 4.3663400697 2.3653709126 -0.4334779510
F 2.5245990352 2.3668097268 0.7304246832
C -1.1845047101 1.7690622661 0.9815941239
O -1.9634068109 2.3719904476 0.2701628512
O -0.2948357766 2.3890037842 1.7997925431
C -0.2494121254 3.8217480030 1.6584603023
H 1.4055315304 -3.1614728994 1.9838997043
H 1.5238688004 -1.8025234740 3.1393899758
H 2.2449401530 -1.6602410910 1.4994781021
H 0.7930181731 0.3098131079 2.0262987373
H -3.0822864841 -0.9751355390 2.2807994137
H -4.9450586936 -2.2619972664 1.2729629193
H -5.1018527746 -2.4769540935 -1.1977670134
H -3.3751798255 -1.4303067556 -2.6315422921
H -0.7831126353 0.8877329198 -1.5004859332
H -1.5640538718 0.1004547332 -2.8952825770
H 1.7144316693 -2.7912338694 -1.9778580636
H 4.1001810764 -2.3408721473 -1.3677497414
H 4.7562902774 -0.0104926216 -0.6860909855
H 0.5241567749 4.1566263903 2.3496570792
H 0.0105466189 4.0946341788 0.6321789450
H -1.2163215171 4.2627472008 1.9149455166
