40
CONF26
C 6.1190232413 -1.8835118457 1.9896618999
O 5.2154390921 -0.7802208520 1.7665735090
C 3.9176915533 -1.0603080151 1.5904468134
C 3.3839709890 -2.3448020782 1.6058044622
C 2.0061637016 -2.4236108317 1.4007252739
N 1.2383606092 -1.3494661046 1.2058108662
C 1.8739894770 -0.1707974737 1.2118008007
N 3.1719969562 0.0392631314 1.3930864587
N 1.1241883893 0.9841422567 1.0008904608
C -0.2283039536 1.1610702515 0.7557189094
O -0.6811589415 2.2637740220 0.4758971394
N -1.0087305033 0.0253845843 0.8618801264
S -2.5979029102 0.0085967590 0.2703908634
O -2.9228809031 -1.4200868775 0.2272837840
O -3.4226701911 0.9239181905 1.0624311073
C -2.4798386494 0.6330298823 -1.3581692267
C -1.8257846895 0.0713389014 -2.4528413171
N -1.8835252648 0.8352294532 -3.5435878365
C -2.5758617501 1.9290198430 -3.1675854900
N -2.9560898094 1.8581828310 -1.8216236419
C -3.6505739712 2.8676712824 -1.2119012038
C -3.9886777369 3.9678739705 -1.9498200079
C -3.6340203264 4.0665519840 -3.3109677316
C -2.9315024116 3.0534323331 -3.9197628269
Cl -0.9775194239 -1.4282660794 -2.4491346142
O 1.4519419137 -3.6377877309 1.4027797547
C 0.0232445863 -3.7273406773 1.1807074410
H 6.1142723062 -2.5626992732 1.1315669851
H 5.8485607073 -2.4219459189 2.9032528904
H 7.1029591966 -1.4303214152 2.1011433938
H 3.9652831780 -3.2415912923 1.7617662446
H 1.6600367294 1.8420214098 0.9692573648
H -0.5108899991 -0.8780315645 0.9361356262
H -3.8942280214 2.7341572333 -0.1685393582
H -4.5369273622 4.7646350742 -1.4623508315
H -3.9165325918 4.9469433897 -3.8769781910
H -2.6369801935 3.0919044877 -4.9617163996
H -0.1987282217 -4.7931371795 1.2120242437
H -0.5198403108 -3.2021570672 1.9711888872
H -0.2379535110 -3.3120585071 0.2034584698
