54
CONF753
C 2.3528841774 1.7636577170 1.8488073653
C 3.2130160812 0.8355227502 2.7040810510
C 2.8190902349 -0.6016265152 2.4775505511
C 2.0894389882 -0.9660797958 1.3370434668
C 1.6903870314 -2.2883743034 1.1316715405
C 2.0161328539 -3.2728514660 2.0549302529
C 2.7483038131 -2.9021930358 3.1710488121
C 3.1483623393 -1.5995463705 3.3993207485
F 3.0791880621 -3.8585660642 4.0860554598
O 1.7018569225 -0.0675331353 0.3797955445
C 2.3287942958 1.2352485099 0.4231165504
C 1.5829595999 2.1216862535 -0.5652151780
C 0.0885621842 2.2381858919 -0.2475655313
N -0.6283800944 2.8240125584 -1.3911273461
C -2.0763097282 2.5492272556 -1.3925786769
C -2.4197271659 1.3997015835 -2.3455819052
C -1.8072579738 0.0510240961 -1.9549500400
C -2.2569934804 -1.0967545537 -2.8412344018
C -1.5539361888 -2.3780788116 -2.3986751554
C -1.6323474207 -2.5390904388 -0.9027930882
C -1.9463389825 -1.4441778122 -0.0863620948
O -2.2089207112 -0.1944150867 -0.5859951161
C -2.0360607097 -1.5835433247 1.3006281178
C -1.8149418865 -2.8173438249 1.8982971039
C -1.5005195592 -3.8899990493 1.0808405528
C -1.4086203414 -3.7767966620 -0.2925378169
F -1.2721536321 -5.1060525041 1.6546606881
O -1.9990781322 1.7273930804 -3.6722415106
O 1.7766608457 1.5767155120 -1.8724490671
H 2.7522940529 2.7825173013 1.8565457953
H 1.3304695761 1.7969463738 2.2426343559
H 4.2711906012 0.9719330650 2.4445219394
H 3.1142982525 1.0816911022 3.7662518249
H 1.1084399761 -2.5307467635 0.2483203038
H 1.7091278040 -4.3033232280 1.9131710337
H 3.7074694948 -1.3533969043 4.2972054905
H 3.3617869582 1.1189242400 0.0591783922
H 2.0487491186 3.1210212579 -0.5091385174
H -0.3139308447 1.2395570862 -0.0620502000
H -0.0463287662 2.8266383970 0.6729470245
H -0.7078606282 0.1302614593 -1.9842824627
H -2.6024405003 3.4360428620 -1.7624762702
H -2.4602932031 2.3323324996 -0.3864457514
H -3.5115630302 1.2883913402 -2.3774305795
H -3.3458727443 -1.2027418363 -2.7524490949
H -2.0226783440 -0.8649152467 -3.8827596717
H -1.9927442321 -3.2541695063 -2.8872365602
H -0.4996239541 -2.3416955823 -2.7042470079
H -2.2803757552 -0.7138969513 1.9020933741
H -1.8739921938 -2.9437447337 2.9736467591
H -1.1672869120 -4.6482459067 -0.8940622311
H -1.1150303925 2.1158905741 -3.5738009833
H -0.4729952812 3.8250258920 -1.4066203045
H 1.0220437918 1.9082992428 -2.3890425056
