23
CONF2
C -1.2354343064 0.3071016402 -0.6172821682
C -1.1315093151 -0.0117560001 0.7290568824
C -2.2842609952 -0.2862905356 1.4696091818
C -3.5276646816 -0.2376063363 0.8594417980
C -3.6355554589 0.0783845116 -0.4917930366
C -2.4833078560 0.3506981377 -1.2303109930
Cl -2.5675041148 0.7518881333 -2.9181741495
Cl -5.2120612687 0.1231336599 -1.2211159125
Cl -2.1587254022 -0.6922480048 3.1541725502
O 0.0680366318 -0.0534908985 1.3978627967
C 1.2211371586 -0.0414600255 0.6634457738
C 1.7053634859 -1.2304624709 0.1070739464
C 2.9273364837 -1.2138473897 -0.5704738208
C 3.6514938470 -0.0342293606 -0.6877179405
C 3.1622916834 1.1423746255 -0.1356400552
C 1.9390389414 1.1526221985 0.5411541203
Cl 1.2840986247 2.5981869168 1.2202031464
Cl 4.0924812646 2.5957050279 -0.3068457019
Cl 3.5717050249 -2.6628938186 -1.2722432504
Cl 0.7791404802 -2.6765934189 0.2813354586
H -0.3466837912 0.5254236843 -1.1973147717
H -4.4190202639 -0.4522857002 1.4356211635
H 4.5996055266 -0.0323547663 -1.2100648062
