44
CONF29
C 5.3210497960 -1.6620731155 0.9052803812
C 3.9452983510 -1.2731556347 0.3725933985
C 3.8122715348 0.2569468297 0.0237709447
N 2.4173094686 0.5891498775 0.1925868562
C 1.6782741035 -0.0805688000 1.2708370633
S 2.6697710942 -1.5683190785 1.7136820655
C 0.4557135671 -0.2068905137 0.2937838917
C 1.3941982841 0.4389170408 -0.7524475127
O 1.3368284521 0.7203127978 -1.9196941523
N -0.7581912135 0.4843603928 0.5813929504
C -1.8919698926 -0.1752863135 0.9582634882
O -1.9435023155 -1.3763668163 1.1655654046
C -3.1472228665 0.7131500909 1.0507817343
C -3.9150921060 0.5492072280 -0.2445506762
C -4.9206908828 -0.4109500798 -0.3426990883
C -5.6016493055 -0.6130198624 -1.5369702225
C -5.2778034920 0.1531638624 -2.6559583434
C -4.2706231544 1.1137119929 -2.5751151151
C -3.5937202106 1.3006942802 -1.3788497263
O -5.9123111011 0.0092140545 -3.8580736222
N -2.7888607903 2.1224915047 1.2721617612
C 4.7443147828 1.1291621856 0.8472359298
O 5.8739617073 1.3958516504 0.5179154843
O 4.1811782985 1.5462350226 2.0041948371
C 3.6000234934 -2.0933878397 -0.8724599201
H 5.3522611024 -2.7363826951 1.1072021180
H 5.5649867916 -1.1340500457 1.8302358130
H 6.0883406397 -1.4310332728 0.1593466518
H 4.0926257142 0.4085838532 -1.0236949791
H 1.5075405269 0.5314520402 2.1604472706
H 0.2358086156 -1.2548210645 0.0643066095
H -0.8368438372 1.4837343396 0.4414820230
H -3.7459946951 0.2731244874 1.8612152096
H -5.1680865771 -1.0178481073 0.5227859414
H -6.3843145205 -1.3653625431 -1.5964857989
H -4.0241943652 1.6955215998 -3.4563854699
H -2.8017123908 2.0409419354 -1.3291848352
H -6.5695058461 -0.6921386032 -3.7864168346
H -3.5959892267 2.7074682589 1.0857500605
H -2.5316450517 2.2674788937 2.2424985527
H 4.8531550774 2.0711655070 2.4684143353
H 4.3753920535 -1.9604427400 -1.6365877876
H 3.5398436828 -3.1543100083 -0.6177334106
H 2.6397782066 -1.7956328985 -1.3014794848
