43
CONF37
C 1.7860985040 -2.0504012632 -3.4559606093
C 2.4248087619 -2.2178672066 -2.0937358274
O 1.8966242739 -1.2713934248 -1.1303319967
N 0.6215342172 -1.6602999224 -0.7624025372
C 0.0350778807 -0.8194670860 -0.0001860778
C -1.2548269576 -1.1352222559 0.6292779711
C -2.3117142136 -0.1994684376 0.5594747799
C -3.5216764882 -0.4511801935 1.2045781233
C -3.6816260442 -1.6241711223 1.9329262421
C -2.6490765832 -2.5445806474 2.0148506122
C -1.4287739013 -2.3221369965 1.3631618537
O -0.3902698699 -3.1893296121 1.5194453750
C -0.4410272608 -4.3545651980 0.6604272416
Cl -2.8535184343 -3.9771218904 3.0076688735
O -2.0626765328 0.9036603773 -0.1821714429
C -3.0920454879 1.8992224175 -0.2852078428
O 0.6122793820 0.3740156193 0.4207915946
C 0.8717309878 1.3530936347 -0.5152662090
O 0.5825861635 1.2487905044 -1.6823109532
C 1.5173752284 2.5281365335 0.1083983487
C 1.8157099690 3.6184249084 -0.7175325900
C 2.4202072065 4.7486832329 -0.1844038243
C 2.7306210944 4.7977382237 1.1742051690
C 2.4352382460 3.7139216881 1.9989992954
C 1.8299200679 2.5790560469 1.4720130914
H 0.7145779636 -2.2646272288 -3.4107945672
H 1.9289477518 -1.0311703873 -3.8266326210
H 2.2469501476 -2.7463912468 -4.1641706786
H 2.2898710721 -3.2322120802 -1.7003630930
H 3.4927646747 -1.9839991223 -2.1194277028
H -4.3428400701 0.2512836245 1.1508123510
H -4.6165218907 -1.8163913172 2.4473942987
H -0.3594514964 -4.0456773686 -0.3856631106
H -1.3652263155 -4.9178890107 0.8224777160
H 0.4182549504 -4.9661503556 0.9390067279
H -3.9853500000 1.4868843683 -0.7670987049
H -3.3478065068 2.2996107613 0.7019451408
H -2.6686222287 2.6886000212 -0.9061891749
H 1.5691387415 3.5659560127 -1.7722368430
H 2.6505880522 5.5924632209 -0.8265743048
H 3.2036118236 5.6817070918 1.5903611768
H 2.6775790145 3.7529693716 3.0559864300
H 1.6009539952 1.7374963081 2.1144583937
