47
CONF82
C -1.9026994736 2.4195639842 3.0337743822
C -1.9626654355 2.5571929401 1.5290941100
C -3.2381084818 3.0109662637 0.8601430533
C -2.8410884919 1.5335998029 0.8051342426
C -2.4352605801 0.9718035757 -0.4900337128
O -2.0963905035 1.5776431798 -1.4839332504
O -2.4730583729 -0.3970893120 -0.4357831301
C -2.0017454896 -1.0579406851 -1.6367046175
C -2.5502345386 -2.4128366407 -1.5740411620
N -2.9531587806 -3.4946942880 -1.5528542893
C -0.4890561753 -1.0858275753 -1.7118282026
C 0.1551958219 -0.6708669701 -2.8743189371
C 1.5467027512 -0.6969588098 -2.9271231407
C 2.2927268077 -1.1276167533 -1.8359436197
C 1.6287660554 -1.5470839759 -0.6822414058
C 0.2402380551 -1.5337809365 -0.6124359892
O 2.2963539222 -1.9265954620 0.4621742310
C 3.5268654444 -2.5609281609 0.3457143900
C 4.5478676636 -2.1256170766 1.1822489088
C 5.7732970997 -2.7876228475 1.1551476828
C 5.9731625398 -3.8657998208 0.2959310978
C 4.9362102097 -4.2893911549 -0.5346714597
C 3.7037097490 -3.6434576205 -0.5123750015
C -4.4357913124 3.3830332286 1.6155022551
C -5.2789586858 4.3617726698 1.2853302551
Cl -6.6845789209 4.7433191236 2.2473159210
Cl -5.0986005206 5.3774616888 -0.1195700255
C -0.6589129367 3.0044602662 0.9092275809
H -1.7036375543 3.3969285758 3.4869735446
H -1.0844398656 1.7455638160 3.3071458179
H -2.8253070828 2.0209770719 3.4601422318
H -3.0852042017 3.5338941634 -0.0788490157
H -3.3778353883 0.8502566723 1.4542507981
H -2.4127149297 -0.5594636361 -2.5223445491
H -0.4229766701 -0.3200701751 -3.7228627496
H 2.0592564538 -0.3629016854 -3.8233111400
H 3.3763536419 -1.1330587442 -1.8757766414
H -0.2540148358 -1.8644895925 0.2957263151
H 4.3753335607 -1.2815295505 1.8417704455
H 6.5747323002 -2.4527553173 1.8061582301
H 6.9303638632 -4.3762578156 0.2750097261
H 5.0816345932 -5.1348963569 -1.1997865469
H 2.8893186524 -3.9736355636 -1.1491345818
H -4.6736485574 2.8267598672 2.5170834449
H -0.3592340555 3.9580465922 1.3563869350
H -0.7375984847 3.1387019304 -0.1704966014
H 0.1288317389 2.2712214321 1.1160799653
