47
CONF23
C 5.1622317904 -1.7283584343 2.4290370104
C 4.7671171356 -0.9496416042 1.2395296016
C 3.5612163568 -0.5453773437 0.7246276851
C 3.9140513061 0.1785628803 -0.4555540402
N 5.2143233855 0.2198922215 -0.6319136264
O 5.7549997553 -0.5139660864 0.4368014282
C 3.0233027949 0.8807477200 -1.3949912501
C 2.2755318804 1.9728138212 -0.9495059944
C 1.3923582362 2.6724327408 -1.7477070752
C 1.2393170330 2.2597880637 -3.0677267189
C 1.9527577479 1.1748926894 -3.5661463654
C 2.8316359399 0.4975176310 -2.7288632431
Cl 3.6776222694 -0.8998971707 -3.3557012706
F 2.4279280809 2.3471398929 0.3386647016
C 2.2427797572 -0.7933714951 1.3348275910
O 2.1123963203 -0.9798413163 2.5445993354
N 1.1896755252 -0.8008702773 0.4644148422
C -0.1671834972 -0.8647710898 0.8998287913
C -1.1216483234 0.3398763172 0.5845720436
N -1.9418359193 -0.5819920015 -0.2126394533
C -1.1610209319 -1.6989251436 0.0573424586
O -1.2730750265 -2.8586337025 -0.2620468579
C -3.3774329217 -0.4421420450 -0.1383555437
C -3.6941731059 -0.0572527947 1.3552323131
S -2.2458804175 1.0230121185 1.8719228375
C -3.7289214553 -1.3298636427 2.2011356628
C -4.9844109147 0.7370669742 1.5281211897
C -3.8484706693 0.6100564758 -1.1300856367
O -3.1888040863 1.5586164999 -1.4905337053
O -5.1006087908 0.3562208799 -1.5451304206
H 5.4013433897 -1.0507198035 3.2564806318
H 4.3376099303 -2.3679603156 2.7442252632
H 6.0472270590 -2.3302784013 2.2096808256
H 0.8429063916 3.5128023562 -1.3394693116
H 0.5508106144 2.7882934658 -3.7179758112
H 1.8246494198 0.8506183870 -4.5917346211
H 1.3662939353 -0.7004417767 -0.5253777690
H -0.2045778711 -1.1561106419 1.9532417720
H -0.6631841031 1.1552109461 0.0188246396
H -3.8545347311 -1.3995606242 -0.3703223999
H -3.8328563469 -1.0704256666 3.2577088512
H -2.8172929747 -1.9221039783 2.0864452528
H -4.5854892039 -1.9464677194 1.9051029033
H -5.1298263407 0.9800808880 2.5842999325
H -4.9743808436 1.6704619053 0.9591200806
H -5.8343570045 0.1299610603 1.2005141771
H -5.3801210943 1.0729066429 -2.1417214952
