46
CONF1
C 2.1991581610 2.9830495086 0.6194283590
O 2.8970925388 2.1204312681 1.5428595772
C 2.3415464004 0.9258727945 1.8475327320
C 3.1612549505 -0.0867598324 2.3054276050
N 2.7252913062 -1.3169092374 2.6821002743
C 1.4558786290 -1.5839215194 2.6083762808
N 0.5651470466 -0.6437002337 2.1753592880
C 0.9581061194 0.6317171637 1.7788416893
N -0.1214715204 1.3196663053 1.4004700968
C -1.1182203123 0.4232895905 1.5646073085
N -0.7802573990 -0.7858636863 2.0283232679
N -2.4417640345 0.6964223196 1.2562922677
S -2.8079735916 1.6697282948 -0.1282865633
O -2.5736556110 3.0453599655 0.2708372564
O -4.1206648687 1.1928707493 -0.5604106193
C -1.5475888051 1.1794362919 -1.3637681076
C -0.7787215421 2.1029256300 -2.0940624845
C 0.2329529352 1.6401714093 -2.9335150275
C 0.4805532330 0.2816181004 -3.0557340903
C -0.2994395608 -0.6425310102 -2.3844408568
C -1.3320472547 -0.2026933868 -1.5564965933
O -2.1721364733 -1.0449004044 -0.8946314652
C -2.1252134901 -2.4538319420 -1.1080303515
C -1.2114538686 -3.1518745685 -0.1123652942
F -1.3383053210 -4.5022590494 -0.3274018054
F 0.1033628076 -2.8219059768 -0.3420685634
C -1.0051329147 3.6104757512 -2.0923840521
F -2.3038527582 3.9271553373 -2.2326305936
F -0.5131725229 4.2117199014 -0.9933967034
F -0.3650572956 4.1825567751 -3.1476472905
O 0.9073456250 -2.7574200103 2.9255181366
C 1.8345809321 -3.7740035916 3.3637833232
H 1.2859736138 3.3839121448 1.0624736175
H 1.9481405891 2.4410994222 -0.2993421457
H 2.9026023824 3.7860928046 0.3971664038
H 4.2292876305 0.0964462335 2.3787927250
H -3.0112894844 -0.1431269152 1.2404880883
H 0.8215036832 2.3483610741 -3.5000670494
H 1.2863229515 -0.0639816353 -3.6941239931
H -0.0856645785 -1.6966258193 -2.4875881406
H -3.1447464015 -2.8082221301 -0.9299992697
H -1.8417720298 -2.7149698446 -2.1333040800
H -1.4317354553 -2.9223683255 0.9347354536
H 2.3610494566 -3.4459979224 4.2635442540
H 1.2144437085 -4.6449935228 3.5720528868
H 2.5597416688 -3.9915183716 2.5756274638
