48
CONF112
C -6.0657084794 2.0984143115 0.4503515608
O -4.6577735976 1.7991729250 0.5251001059
N -4.4939460315 0.4429057169 0.6883137421
C -3.2655280525 0.0618881395 0.7897909692
C -3.0602057854 -1.3669988211 1.1037283132
C -3.9064596011 -2.0265754464 2.0068916764
C -3.7348287846 -3.3744418398 2.2896700347
C -2.7114397986 -4.0946051083 1.6746633108
C -1.8612280275 -3.4640295584 0.7733250967
C -2.0426520692 -2.1160776733 0.5080299892
O -1.2824922736 -1.4911324247 -0.4876139168
C 0.0305223643 -1.2634044306 -0.2742961445
C 0.7199622517 -0.5985228168 -1.2825246216
C 2.0655714015 -0.3332831619 -1.0615525382
N 2.6772414494 -0.7032998086 0.0590832914
C 1.9260681645 -1.3409245505 0.9580431703
N 0.6303317229 -1.6370045334 0.8520326270
O 2.7282702824 0.3385637455 -2.0299360594
C 4.1011005869 0.5199875957 -1.8674854574
C 4.5671845393 1.7650497609 -1.4750343297
C 5.9378131083 1.9877709192 -1.3881879374
C 6.8306909029 0.9642338368 -1.6944485155
C 6.3624297470 -0.2847893244 -2.0925469407
C 4.9927832990 -0.5031016042 -2.1817721163
Cl 4.3815198319 -2.0605623579 -2.6878874957
F 0.1116112096 -0.2225717458 -2.4150314767
C -2.0894632092 0.9722088595 0.7245183241
N -1.8981351600 1.6729985797 -0.3355015910
O -0.7896854964 2.5488379464 -0.3219760800
C -0.3977481691 2.9415259407 1.0052736216
C -0.1335112115 1.7095054470 1.8287690675
O -1.3403121480 0.9018372744 1.8490903061
H -6.1182283546 3.1821220214 0.3360688034
H -6.5155288711 1.6055804315 -0.4168100830
H -6.5729684294 1.7894123270 1.3695406833
H -4.6916709332 -1.4570456259 2.4914151378
H -4.3962901705 -3.8640770988 2.9965421095
H -2.5749333607 -5.1486161414 1.8924377159
H -1.0695709616 -4.0068649224 0.2689996301
H 2.4215907340 -1.6462714586 1.8775282452
H 3.8475235645 2.5426120867 -1.2415706532
H 6.3048260830 2.9609724335 -1.0810154877
H 7.9001619357 1.1328114741 -1.6282978175
H 7.0507450940 -1.0860052984 -2.3369159254
H -1.1955167438 3.5475495821 1.4555636670
H 0.5071397444 3.5413160510 0.8862970369
H 0.6790523076 1.1168351608 1.3975299370
H 0.0916862899 1.9460923857 2.8705330143
