88
CONF31
C 1.6299257829 -1.1744819015 0.2229895262
C 0.1605780575 -0.7532461625 0.1307560147
C -0.1607944734 -0.2648635922 -1.2741253872
O -1.5364428254 0.2046716370 -1.3289966999
C -2.4981556669 -0.7128345111 -1.6007550679
O -2.2655347477 -1.8932053985 -1.8107082983
C -3.8173780474 -0.0766321459 -1.6065806327
C -4.9238519010 -0.8058265572 -1.8481757943
C -6.2987172388 -0.3384819200 -1.8896107931
C -7.2965374952 -1.2915587189 -2.1455407997
C -8.6360012296 -0.9056694363 -2.1936784798
O -9.6764593133 -1.7459195475 -2.4289541420
C -9.3702619958 -3.1338982276 -2.6336752618
C -8.9826463692 0.4394174758 -1.9953053981
O -10.2898092164 0.8332656008 -2.0881259044
C -10.9960912230 0.7611140099 -0.8278723072
C -7.9784337389 1.3911256863 -1.7335495216
O -8.4257807781 2.6592165194 -1.5456219581
C -7.4436238833 3.6719697596 -1.2797730259
C -6.6416692303 1.0076700664 -1.6865344815
C 0.7133182828 0.9129809289 -1.6865890342
O 0.4798556271 1.2568276334 -3.0570251636
C -0.3368079432 2.4169379782 -3.2398592792
C 2.1866227905 0.5121430857 -1.5712241819
C 3.1437618869 1.6169941647 -1.9638005287
O 4.2764859022 1.4120739414 -2.3572057641
O 2.6384054588 2.8446094515 -1.7701473202
C 3.5352726712 3.9488754270 -2.0522573975
C 2.5721627171 -0.0260515436 -0.1709100576
C 2.5819379233 1.0545321249 0.9126571358
C 2.9042559140 0.4801773234 2.2948527158
N 1.9888522393 -0.6347392198 2.6248955308
C 2.3186284109 -1.1783947816 3.9549233697
C 3.7138856504 -1.8368305498 4.0460837198
C 4.7044593213 -1.0114434626 3.2914893347
C 4.3265010033 0.0265214048 2.4776982000
N 5.4496187849 0.5926825827 1.8932913909
C 6.5682154366 -0.0861423294 2.3181689228
C 6.1329005489 -1.1148089470 3.2045879618
C 7.0963187083 -1.9521156699 3.7733773579
C 8.4423465377 -1.7692053784 3.4678109803
C 8.8403138446 -0.7432702839 2.5876085574
O 10.1475948401 -0.5046343041 2.2417244808
C 11.1504007220 -1.3546149491 2.8065807444
C 7.9070484993 0.1125241183 2.0012426516
C 2.0159718700 -1.6953613968 1.6058461580
H 1.7876818139 -1.9988417039 -0.4864444167
H -0.4847445202 -1.6046647795 0.3722518141
H -0.0643971174 0.0434133163 0.8480001046
H -0.0409138747 -1.0739816937 -2.0037163124
H -3.8452726596 0.9891566149 -1.4075887955
H -4.7854627784 -1.8700655406 -2.0325711368
H -7.0091823707 -2.3245489888 -2.2976847202
H -10.3305194877 -3.6234603610 -2.7958797841
H -8.7330637799 -3.2681838017 -3.5150158251
H -8.8811380448 -3.5614734212 -1.7511256379
H -10.5288327431 1.4244430858 -0.0914440992
H -12.0168918147 1.0900777402 -1.0289038621
H -11.0031713378 -0.2683055548 -0.4528687791
H -6.7445696328 3.7683477800 -2.1182283769
H -6.8925617622 3.4512601551 -0.3585276459
H -8.0049945354 4.5985947528 -1.1599989267
H -5.8707384090 1.7405302562 -1.4903187013
H 0.4891425663 1.7722428143 -1.0412682572
H 0.1159272646 3.2922350890 -2.7550829343
H -0.3922559298 2.5919814048 -4.3170158506
H -1.3486972736 2.2649672725 -2.8456712167
H 2.3628775569 -0.2992879295 -2.2889489422
H 4.4148445908 3.8904694665 -1.4066482688
H 2.9595308509 4.8484187093 -1.8391381713
H 3.8412225386 3.9253728352 -3.1005955761
H 3.5874644011 -0.4367024999 -0.2530043985
H 1.6077371165 1.5491571797 0.9761643262
H 3.3084673915 1.8388647282 0.6723865318
H 2.7015751756 1.2768654081 3.0274862228
H 1.5443874653 -1.9023199504 4.2346070196
H 2.2686287082 -0.3450472325 4.6670383241
H 3.6850314852 -2.8621759980 3.6507469242
H 3.9942409839 -1.9276072774 5.1031628784
H 5.4560833869 1.3749569616 1.2589812412
H 6.8043762204 -2.7468216858 4.4542034816
H 9.1784213427 -2.4249935520 3.9155589365
H 10.9969064549 -2.4003136197 2.5133901877
H 12.0999443174 -0.9996611130 2.4038464462
H 11.1661294980 -1.2787189180 3.9006367091
H 8.2329565903 0.8968534818 1.3255800922
H 1.3107926694 -2.4750902529 1.9204839508
H 3.0123954244 -2.1650434918 1.5231832607
