50
CONF1
C 5.5207641606 3.8318187460 1.8847772156
C 4.0209459772 3.9252212994 2.0789084268
O 3.3194906954 3.0152260901 1.1962298816
C 3.2633787122 1.7225412508 1.6286445969
O 3.6878492849 1.3531751729 2.7101937448
N 2.6999431203 0.8993479910 0.6869132479
C 2.3062624745 -0.4370196510 1.1251770133
C 0.8144078564 -0.4574366082 1.5226882256
C -0.0069427444 0.0444396391 0.3677348167
C -0.9501176054 -0.6960011682 -0.2493457744
C -1.3306697275 -2.0543819291 0.2183554809
C -2.6008373831 -2.2419538904 0.7821253066
C -3.5220343384 -1.0598622953 0.8628658255
C -4.0679277019 -0.6808814297 -0.5184857014
C -3.0776462754 -0.2726998119 -1.5929106047
C -1.6734444353 -0.2392891349 -1.4699910452
N -0.8768497238 0.1542779005 -2.4842561280
C -1.4257367470 0.5311248377 -3.6364326795
C -2.7977149645 0.5307854142 -3.8585280940
C -3.6167251134 0.1242425155 -2.8187353983
C -2.9878022657 -3.5080348754 1.2154511429
C -2.1093869475 -4.5762496099 1.0798340460
C -0.8512394801 -4.4142060845 0.5157316572
C -0.4736085159 -3.1468956124 0.0839909731
Cl -2.6064467433 -6.1668792349 1.6330508995
C 0.4080177201 1.4257695143 -0.0559035707
C 1.9033906841 1.4092146764 -0.4305568879
H 5.8820331381 2.8411038807 2.1703062420
H 6.0208990673 4.5754822604 2.5137529477
H 5.7891318344 4.0252187740 0.8421948239
H 3.6419354221 4.9114593429 1.7977444310
H 3.7393973096 3.7069082725 3.1129405117
H 2.4722778678 -1.1334945352 0.2929226337
H 2.9373195308 -0.7287463096 1.9658049232
H 0.5251397258 -1.4647147164 1.8302521781
H 0.6932721596 0.2100783795 2.3871355450
H -2.9855448486 -0.2063335857 1.2938775532
H -4.3687365879 -1.2823915803 1.5197241664
H -4.6462272431 -1.5312497674 -0.9052628287
H -4.7845961395 0.1420537776 -0.3974158840
H -0.7348868591 0.8393018292 -4.4199468788
H -3.2081482660 0.8367033612 -4.8148226179
H -4.6966734841 0.1139943295 -2.9473292168
H -3.9644554890 -3.6623110043 1.6621065365
H -0.1834082576 -5.2612399656 0.4127893170
H 0.5017176058 -3.0024301405 -0.3705726691
H -0.1763127173 1.7974611904 -0.8972264005
H 0.2817980364 2.1139191908 0.7922722353
H 2.0430194746 0.7400011684 -1.2884047523
H 2.2517298260 2.4038313211 -0.7053683153
