20
CONF17
C 2.6576657984 0.9104343818 -0.3513201379
C 4.1169077702 0.5395909410 -0.4660792654
O 4.9751656631 1.3843191063 -0.5466835412
O 4.3535473896 -0.7862667083 -0.4666430180
O 1.8417935057 -0.2593559205 -0.2792061890
C 0.5163789091 -0.0589870618 -0.1489320542
N 0.0413648404 1.1818254840 -0.1078883131
C -1.2580498707 1.3357133261 0.0174319075
C -2.1719516787 0.3057683600 0.1137018107
C -1.6917874856 -1.0231151812 0.0785528528
C -0.3030510235 -1.1840180621 -0.0633608869
Cl 0.3772802550 -2.7884000881 -0.1275796709
N -2.5275235018 -2.0820305903 0.2146511954
Cl -3.8788132729 0.6176865251 0.2742286860
F -1.6985685876 2.5976912185 0.0494854511
H 2.3935077861 1.5268094134 -1.2184491237
H 5.3161171400 -0.8891365530 -0.5426045319
H -3.5156557181 -1.9239370646 0.1107510252
H -2.1737634153 -2.9966276119 -0.0107939674
H 2.5347727432 1.5354210552 0.5407591402
