57
CONF40
C -3.6164059411 -2.9375889439 0.3458722010
Si -2.0633968293 -1.8893381174 0.4231486012
C -0.7240687234 -2.6150562320 -0.6660482673
C -1.4725102752 -1.7336338315 2.1917410835
O -2.4285871455 -0.3588762214 -0.1033164982
Si -2.5495635288 0.4261130884 -1.5437859952
C -3.7164076568 -0.4876942182 -2.6772845691
C -3.1169731963 2.1639222876 -1.1807549744
O -1.0798770973 0.4442923283 -2.2896942570
Si 0.3060045458 1.3309747269 -2.2452688773
C 0.1735239851 2.7236494747 -3.4763008042
C 1.7364644680 0.1945925316 -2.6130526614
O 0.4795523003 2.0182548141 -0.7596185537
Si 0.9686487774 1.7391921954 0.7821824823
C 2.3531864184 2.9378111489 1.1542535241
C -0.4804267930 1.9804703124 1.9259755319
O 1.5070505596 0.1841232405 0.8933250278
Si 2.6581954135 -0.6795374098 1.7172635349
C 2.4511895384 -0.3806781854 3.5581101295
C 4.3675187167 -0.1487852422 1.1590843972
C 2.3979628967 -2.4899505120 1.3281047288
H -3.4307217119 -3.9485051862 0.7256421325
H -4.4175038637 -2.4953136665 0.9480022249
H -3.9823434035 -3.0298394463 -0.6824378428
H -1.0450819726 -2.6727108568 -1.7118242138
H 0.1694530077 -1.9842271136 -0.6254583343
H -0.4443556716 -3.6236730407 -0.3418406042
H -1.2445790110 -2.7140941402 2.6246553181
H -2.2341216871 -1.2580609624 2.8193001396
H -0.5669083563 -1.1197346756 2.2362430983
H -3.8417312192 0.0478211626 -3.6241115860
H -4.7039159100 -0.6065580397 -2.2194872015
H -3.3288712777 -1.4851548691 -2.9116042805
H -2.3796677221 2.6852875901 -0.5612956999
H -3.2528236677 2.7378357825 -2.1035078749
H -4.0698228664 2.1605698165 -0.6413282106
H -0.6551154471 3.3892360616 -3.2120746525
H -0.0080269273 2.3420516902 -4.4863073596
H 1.0895268920 3.3231157122 -3.4979550312
H 1.6068235241 -0.2975582835 -3.5824947783
H 2.6804407379 0.7498003223 -2.6373160532
H 1.8204923704 -0.5808765738 -1.8454782419
H 2.7428490546 2.8178942149 2.1709126068
H 1.9970586143 3.9686599917 1.0536766801
H 3.1836250091 2.8028025129 0.4532079318
H -0.2044044262 1.7609689051 2.9634794962
H -1.3065984777 1.3192314324 1.6446754773
H -0.8417163102 3.0138147963 1.8855976658
H 2.5865178357 0.6761116716 3.8142506684
H 3.1849425156 -0.9553294998 4.1343102512
H 1.4530656397 -0.6816509849 3.8953036498
H 4.4584088242 -0.2172595995 0.0692910158
H 4.5898322802 0.8821541738 1.4521206584
H 5.1368917657 -0.7933238667 1.5989171015
H 1.3912987411 -2.8153860060 1.6088152828
H 2.5292977510 -2.6937394375 0.2600053817
H 3.1180785543 -3.1068589494 1.8771331882
