48
CONF30
C -5.8349330733 2.0363154058 1.4219020128
O -4.4416602632 1.6799511936 1.3484442943
N -4.3202163855 0.3059139980 1.3971522298
C -3.0984323799 -0.1010768663 1.3132215009
C -2.8723333528 -1.5441495256 1.5005423801
C -3.6181497657 -2.2711394968 2.4396483223
C -3.4200941394 -3.6348612021 2.6034478849
C -2.4717173289 -4.3031197348 1.8298917232
C -1.7236632790 -3.6050021846 0.8882958511
C -1.9289760689 -2.2425285490 0.7424121116
O -1.2859500137 -1.5436020671 -0.2859267302
C 0.0532209981 -1.3736830652 -0.2350977137
C 0.6361597790 -0.7080731947 -1.3070596892
C 2.0052773809 -0.4836835766 -1.2464417173
N 2.7364800740 -0.8992747520 -0.2184932284
C 2.0798895079 -1.5366638211 0.7520594573
N 0.7737419077 -1.7965343931 0.7975379533
O 2.5705263549 0.1664744105 -2.2900104721
C 3.9185993567 0.5067124679 -2.1871674950
C 4.8473154879 -0.2293311342 -2.9064923352
C 6.1867125454 0.1460371522 -2.8836691363
C 6.5873876618 1.2538910584 -2.1418389857
C 5.6544856737 1.9958631171 -1.4228827468
C 4.3168411687 1.6205912828 -1.4512938735
Cl 3.1270039239 2.5463441313 -0.5653531580
F -0.0967982677 -0.2828926679 -2.3483533395
C -1.9380116011 0.8119371895 1.1186912493
N -1.0122717937 0.7341299814 2.0104397335
O 0.0638735856 1.6387486213 1.8776461929
C -0.3112920235 2.8429059579 1.1839716456
C -0.8715107562 2.4819904624 -0.1654921682
O -2.0060421541 1.5934699764 0.0274647134
H -6.3776434652 1.6380303290 0.5591440623
H -6.2759648508 1.6663106260 2.3527125248
H -5.8502555648 3.1270984728 1.4045640853
H -4.3425189865 -1.7420165395 3.0487122912
H -4.0001901812 -4.1778412129 3.3420676418
H -2.3146863624 -5.3693017431 1.9548019942
H -0.9945018087 -4.1073641626 0.2623984822
H 2.6739937355 -1.8789301280 1.5970300744
H 4.5065119013 -1.0892699872 -3.4732362268
H 6.9146062273 -0.4293055778 -3.4452098998
H 7.6304874253 1.5505678119 -2.1203027558
H 5.9568733539 2.8626494183 -0.8460926424
H 0.6009279443 3.4362963405 1.0921933381
H -1.0535462963 3.3889100213 1.7818782897
H -1.2544142558 3.3528064771 -0.7018805634
H -0.1251406810 1.9656988690 -0.7772511528
