31
CONF147
F 1.2481086974 -1.3227258384 1.3891876915
C 1.4291168740 -0.9504052503 0.1071095276
F 2.1530133781 0.1886630047 0.0750970162
C 0.0456445233 -0.7257362548 -0.5769518304
F 0.2221632719 -0.7574896849 -1.9182243450
F -0.7790581231 -1.7324996040 -0.2146258155
C -0.6192125718 0.6460719651 -0.1975915839
F -0.0025989738 1.6243416562 -0.8958049349
F -0.4375292787 0.8648644562 1.1276548478
C -2.1547132767 0.6966530578 -0.4901549972
F -2.3766179044 0.1466910489 -1.7088977021
F -2.7997797817 -0.0335973153 0.4440474731
C -2.8209179994 2.1209941402 -0.5327701263
F -2.3704830920 2.7897546197 -1.6150568472
F -4.1491868563 1.9013643353 -0.6801739936
C -2.6395582018 3.0412533240 0.7138485928
F -2.9627161456 2.3853549915 1.8356279753
F -3.4421790427 4.1045603116 0.5862029666
F -1.3735031934 3.4686119176 0.8036658117
S 2.4695828828 -2.3236915764 -0.7514265978
O 3.1071219644 -1.6713131694 -1.8964617133
O 1.5589397354 -3.4618588034 -0.9031896482
N 3.6266723145 -2.7322065266 0.3405638484
C 4.7131803903 -1.7863750577 0.7010607044
C 5.9202958045 -2.5758072558 1.1819739330
H 3.2523924969 -3.2842817774 1.1100842306
H 4.9607465095 -1.2110546301 -0.1943874417
H 4.3689867921 -1.0917593076 1.4765850615
H 6.7157195838 -1.8792581908 1.4612755591
H 6.2921559998 -3.2368890930 0.3947452118
H 5.6704651132 -3.1779297072 2.0607680427
