36
CONF356
C 5.2896968289 -0.8304595675 5.8705094051
C 4.9189801419 -0.5759518081 4.4517777205
C 5.7976478452 -0.4048964039 3.4586915521
C 5.4451682133 -0.1521167495 2.0548319499
O 6.2574471869 0.0071288323 1.1690346485
O 4.0985834802 -0.1125808699 1.8391478212
C 3.7183990961 0.1355932187 0.4705590520
C 2.1971024636 0.1257409887 0.4678500856
C 1.6516617261 0.4285059151 -0.9101036399
C 0.0970117862 0.3251949048 -0.9784778896
C -0.5539064782 0.9095415101 -2.2786721244
C -2.0186343504 0.3999122120 -2.5206319024
C -2.8259113838 1.2933825939 -3.5225992419
C -4.1024336857 0.6033427974 -4.1059706648
F -3.7758339744 -0.3673756718 -4.9650776187
F -4.8271789624 1.5233568715 -4.7572119317
F -4.8467551279 0.0850159251 -3.1184592984
F -3.2247753141 2.4141901754 -2.8843753644
F -2.0352730836 1.6323008505 -4.5670071480
F -1.9634822363 -0.8596409765 -3.0107660414
F -2.6838101231 0.3841715820 -1.3424654458
F 0.1954280186 0.5646143133 -3.3476945464
F -0.5809858583 2.2586709596 -2.1741501025
F -0.4201980234 0.9914606851 0.0853765543
F -0.2379550450 -0.9868235270 -0.8670388033
F 2.1709969497 -0.4404972358 -1.8275491043
F 2.0023602374 1.6942046608 -1.2993924525
H 6.3726270870 -0.8648240120 6.0099783572
H 3.8566162613 -0.5281046156 4.2213554620
H 4.1349786441 -0.6431865991 -0.1743741357
H 4.1197371521 1.1009679023 0.1467440744
H 1.8239468677 -0.8542757280 0.7822631519
H 1.8154919007 0.8762017371 1.1648122233
H 6.8684284822 -0.4426636586 3.6372807149
H 4.8599673685 -1.7787328174 6.2151192836
H 4.8755301860 -0.0507738554 6.5211058932
