55
CONF52
C 5.9181004868 -3.3416989714 -1.6287150418
O 4.5004237677 -3.4709513611 -1.4492864392
C 3.8306421093 -2.4024688600 -0.9369899278
C 4.4284349920 -1.1948102088 -0.5689032647
C 3.6350656528 -0.1721944733 -0.0519543876
C 2.2573502591 -0.3201132760 0.1026036195
C 1.6776578538 -1.5428030924 -0.2621825735
C 2.4490214835 -2.5707256949 -0.7763664765
C 1.4519746871 0.8389214958 0.6288182120
S 0.3520088783 0.2274772143 2.0020004164
C -0.9665060764 1.4274390404 2.0393615443
C -1.1521463231 2.1785133056 3.2034396231
C -2.2329873520 3.0437159344 3.3267555554
C -3.1216110685 3.1909699192 2.2648041016
C -2.9368207996 2.4660622178 1.0941718862
C -1.8769554657 1.5631182808 0.9729676259
N -1.7443323613 0.8112264662 -0.2257824690
C -2.9060713791 0.0602364214 -0.7411630165
C -2.8856720887 -1.4031562202 -0.3113580035
N -3.0253649399 -1.5842742828 1.1343809371
C -2.6440776263 -2.9475261440 1.5089008648
C -4.3900323426 -1.3073798680 1.5852384423
C -0.5829816961 0.7368112364 -0.9390532979
O -0.4769395341 0.0707607816 -1.9661651733
C 0.5910109510 1.5705340499 -0.4138542562
O 1.4788829965 1.8904526955 -1.4975967391
C 0.9802605093 2.7417428075 -2.4303866052
C 1.9830688384 2.9953468873 -3.5105071980
O -0.1331214162 3.2183128393 -2.3578897338
H 6.1527515787 -2.5295073518 -2.3264203880
H 6.2500554412 -4.2922455269 -2.0467613608
H 6.4202360587 -3.1643223596 -0.6706935901
H 5.4949176398 -1.0379969503 -0.6725613428
H 4.1067571409 0.7648116031 0.2310812116
H 0.6106801712 -1.6950121040 -0.1378751308
H 1.9978728702 -3.5171220924 -1.0572731289
H 2.1373366954 1.5823659199 1.0480383971
H -0.4421911287 2.0697543708 4.0166027240
H -2.3694187533 3.6109449588 4.2414467673
H -3.9537515793 3.8834788465 2.3381572333
H -3.6164795257 2.6045655670 0.2600438787
H -2.8888298520 0.1125795021 -1.8324537414
H -3.8132217734 0.5572783229 -0.3957490752
H -3.6852208385 -1.9316297837 -0.8696899146
H -1.9305298540 -1.8407165265 -0.6229770927
H -2.7229045313 -3.0666004275 2.5944577472
H -1.6059672491 -3.1356385542 1.2143513093
H -3.2848756400 -3.7139981333 1.0317355720
H -4.6672975332 -0.2701786410 1.3733086025
H -5.1341543472 -1.9704289751 1.1029798484
H -4.4517259788 -1.4529510252 2.6684309768
H 0.2192064064 2.5027057370 0.0217207134
H 1.5492172576 3.6407482306 -4.2728208205
H 2.8704277926 3.4696325878 -3.0802144217
H 2.2988247526 2.0459449502 -3.9521535854
