51
CONF44
C 2.2449070298 1.0402684440 -3.2766182743
C 1.8866837527 1.8923122703 -2.0741647411
C 2.3376772643 3.3318585738 -2.2025217203
O 2.5853026314 1.3697148427 -0.8880333008
C 2.0614562682 0.3376939704 -0.2228312012
N 2.8150351203 -0.0834152517 0.7980032065
C 2.3049912246 -1.1179082892 1.4751596261
C 1.1040282468 -1.7271643824 1.1953249642
C 0.3979937681 -1.1628458712 0.1173919493
N 0.8794283054 -0.1587768378 -0.6013861108
O -0.7993028888 -1.6889975404 -0.1484346805
C -1.6900337214 -1.0395110354 -1.1187028982
C -3.0027300635 -0.7940344282 -0.4365815967
C -4.1129465776 -1.5733691917 -0.7643101380
C -5.3352915719 -1.3766951442 -0.1280088137
C -5.4505362773 -0.3967177797 0.8537277156
C -4.3475005138 0.3840742308 1.1888626705
C -3.1184281866 0.1985926587 0.5528978948
C -1.9627400543 1.0623192738 0.9106158383
C -1.6134540084 2.1241764173 0.1496538999
O -2.2676412331 2.4149902616 -0.9751085169
C -1.9053924999 3.6664240667 -1.6096841202
C -1.1553216476 0.8208266845 2.1103636128
O -0.1663954758 1.4571552935 2.4492746367
O -1.6353338727 -0.2207907917 2.8288070842
C -0.9189437103 -0.5180264595 4.0490433981
C 3.1615190370 -1.5766111035 2.6377033318
F 4.3995853956 -1.9352094837 2.2285066384
F 2.6244790560 -2.6348616156 3.2778748852
F 3.3147712586 -0.5875448312 3.5493853499
H 1.7345738594 1.4319837854 -4.1616810094
H 1.9354556399 0.0018250005 -3.1323644233
H 3.3244453672 1.0716645434 -3.4550234764
H 0.8124753645 1.8423070938 -1.8753170490
H 1.8421417242 3.7872194776 -3.0646394833
H 2.0743820200 3.9039327508 -1.3085823717
H 3.4200263816 3.3855105409 -2.3559358729
H 0.7032289180 -2.5548153148 1.7633652108
H -1.2239672834 -0.1191978555 -1.4720329432
H -1.8010230578 -1.7382519936 -1.9509701174
H -6.1911543182 -1.9884062590 -0.3950581113
H -6.3986057373 -0.2362527564 1.3575410477
H -0.7785300923 2.7672064398 0.4264919323
H -2.2885515807 4.5019473105 -1.0171558798
H -0.8192110370 3.7401053787 -1.7134804825
H -2.3767123849 3.6527834434 -2.5916394403
H 0.1270792886 -0.7477882420 3.8314711156
H -0.9734492048 0.3303221931 4.7359956381
H -1.4205284996 -1.3871612045 4.4733765014
H -4.4350466320 1.1523088787 1.9514153720
H -4.0146753515 -2.3414605982 -1.5265350177
