21
CONF23
F 0.6076385776 -1.5967307463 -1.6981723314
C 0.1825606558 -1.1752710283 -0.4768504488
F 0.3655594086 -2.1876641843 0.4078490223
C 1.0719046319 0.0195915439 -0.0358339645
F 0.7398265198 0.3004634924 1.2680659140
F 0.7030397406 1.1099846231 -0.7840717209
C 2.5499249196 -0.2477784280 -0.1629256292
C 3.3899746996 0.9037542914 0.4035461807
O 4.7826512243 0.6220004176 0.2626019094
C -1.3614786108 -0.9473369627 -0.6316147464
F -1.9011369335 -2.1675618911 -0.8838445393
F -1.5885107646 -0.1510691721 -1.7005670583
C -2.1430693324 -0.3470356936 0.5769622109
F -1.8573066725 0.9506270714 0.7346717645
F -1.8535906527 -1.0063552226 1.7064419292
F -3.4580391965 -0.4626488130 0.3374644589
H 2.7846022384 -1.1752124651 0.3691869551
H 2.7789106582 -0.3909045787 -1.2235793510
H 3.2084190914 1.0130609939 1.4755818413
H 3.1277466359 1.8480550773 -0.0905121090
H 5.0005937943 0.6628620435 -0.6774215032
