28
CONF1
C 3.0721675563 -1.5317553191 -2.1312334682
C 3.3152906865 -0.8215857753 -0.9590776803
C 2.4085831053 -0.8725157208 0.0955688195
C 1.2467275298 -1.6364845213 -0.0116694787
C 1.0056634160 -2.3454552616 -1.1922165925
C 1.9142587092 -2.2962740430 -2.2456111346
C 0.2385748445 -1.7127252306 1.1201683421
N 0.2778630973 -0.5886920674 2.0389898920
C -0.3588877490 0.6067589207 1.7966214746
N -0.6569695112 1.3477216381 2.8721289832
C -1.2711993259 2.5294672222 2.6939679541
N -1.6574538504 3.0982855099 1.5577297997
C -1.3483655595 2.3708922223 0.4756542025
C -0.6906303182 1.1205593891 0.5355116595
N -0.5472067235 0.7300957025 -0.7850187059
C -1.0972841726 1.7316023828 -1.5392636001
N -1.5956984138 2.7199037878 -0.8353768931
H 3.7780959011 -1.4854647801 -2.9537686248
H 4.2128317912 -0.2186270457 -0.8661118325
H 2.5861601904 -0.3045336364 1.0029902895
H 0.0981576752 -2.9375774815 -1.2875178399
H 1.7145826077 -2.8504837827 -3.1570670540
H -0.7694879789 -1.8455686586 0.6960605387
H 0.4435454969 -2.6158527337 1.7074285115
H 0.3017511221 -0.8046656770 3.0245017311
H -1.4829898741 3.0811410847 3.6093624669
H -1.1019856183 1.6762397429 -2.6212413000
H -0.0232785628 -0.0620022950 -1.1296720103
