32
CONF1
C -2.4789544563 -2.2104115610 -2.7683569114
C -1.0923063621 -1.6056597595 -2.7508374010
O -0.5732879140 -1.4686332783 -1.3930715384
P -1.1437357755 -0.3504050801 -0.3999850998
S -1.6143116355 1.3690231968 -1.1416996820
O -2.2732152697 -1.1505130084 0.3993979543
C -3.3016313794 -0.4545492079 1.1668145038
C -2.7535171493 0.1200667841 2.4545456016
O 0.0376464091 -0.3650287255 0.7332388977
C 1.2456648525 0.2844400286 0.6362504802
C 1.8684907990 0.5681229721 -0.5792075759
C 3.1033536061 1.1984244837 -0.5737900274
C 3.6939066787 1.5289495629 0.6397885510
C 3.0804030617 1.2451181775 1.8554496198
C 1.8453719602 0.6208520395 1.8500804916
N 5.0062650067 2.1938268070 0.6393342529
O 5.5232933789 2.4301547736 -0.4469581619
O 5.5027392017 2.4699453611 1.7260645400
H -2.4962249693 -3.1585138370 -2.2245511489
H -3.2102035257 -1.5325571537 -2.3193810267
H -2.7771596079 -2.3950219293 -3.8052721479
H -0.3638141088 -2.2553009153 -3.2417033354
H -1.0759695194 -0.6195735198 -3.2288148815
H -3.7393684773 0.3237399014 0.5322298814
H -4.0501272132 -1.2273426366 1.3571457107
H -2.0409674622 0.9252447586 2.2542521532
H -2.2578053880 -0.6543017353 3.0461074873
H -3.5783795811 0.5350341142 3.0425235708
H 1.3980482476 0.2988959137 -1.5161619854
H 3.6140190385 1.4337497772 -1.4988183422
H 3.5706402471 1.5182497720 2.7811023911
H 1.3311378944 0.3839739133 2.7742836861
