47
CONF149
C -3.5595521708 -0.1306272919 3.6987148745
C -3.2616586701 0.4172671893 2.3188015042
C -2.8261631390 -0.5728398500 1.2881680963
C -1.7803683595 0.3757423249 1.9327150441
C -1.1545025870 1.3836911239 1.0748635936
O -1.6575094726 2.0069109257 0.1634942585
O 0.1666400475 1.5387314639 1.4192583652
C 0.9476654282 2.3817906250 0.5365929087
C 0.4528815301 3.7608108891 0.5634952755
N 0.1232947494 4.8658231259 0.6238971471
C 1.0789467274 1.7995961928 -0.8594324798
C 0.7675782639 2.5240782384 -2.0063871928
C 0.9210959097 1.9254779622 -3.2546743197
C 1.3859803164 0.6212244122 -3.3643852645
C 1.6990214923 -0.0893199013 -2.2067850492
C 1.5465132415 0.4887293469 -0.9501599563
O 2.1010097146 -1.3949717301 -2.3842801537
C 2.9107250270 -2.0014115597 -1.4342013446
C 4.0549216351 -1.3749898460 -0.9452892153
C 4.8695496008 -2.0633081223 -0.0513561184
C 4.5524764598 -3.3634853700 0.3404864571
C 3.4127565560 -3.9794978499 -0.1710716815
C 2.5833411253 -3.3000233509 -1.0604204203
C -3.1690676535 -0.4350828605 -0.1379711794
C -2.5591967953 -1.1120937339 -1.1090359706
Br -3.0454074359 -0.9262237221 -2.9391826810
Br -1.1096718627 -2.2971881385 -0.7833302182
C -4.1198146374 1.6010861986 1.9395720468
H -3.3993266550 0.6431812543 4.4565395308
H -2.9248294231 -0.9885213857 3.9370877917
H -4.6060251102 -0.4497825269 3.7501059513
H -2.6940993465 -1.5982279290 1.6262386019
H -1.1108748444 -0.0895257007 2.6472609306
H 1.9326329285 2.3957216102 1.0175152115
H 0.3966680368 3.5406264296 -1.9332964007
H 0.6746008982 2.4825426450 -4.1526405438
H 1.5088131132 0.1447750915 -4.3311691911
H 1.7787937307 -0.0747957360 -0.0531052876
H 4.3021824936 -0.3668457961 -1.2613450037
H 5.7627919247 -1.5807776291 0.3329506897
H 5.1940123461 -3.8941953702 1.0361813332
H 3.1616161254 -4.9937010501 0.1230636736
H 1.6962085561 -3.7688065247 -1.4735745522
H -3.9622275192 0.2465694428 -0.4305416763
H -3.8764182962 2.0071876645 0.9587317873
H -3.9938974821 2.3977676313 2.6798365147
H -5.1721056345 1.2969118865 1.9451110183
