47
CONF4
C 4.8548841699 -1.8989659077 0.9124677053
C 4.4349839753 -0.9176793669 -0.1071309558
C 3.2423197408 -0.3115273479 -0.4080868923
C 3.5487990571 0.5494006996 -1.5108526669
N 4.8183469315 0.4596525465 -1.8461048631
O 5.3845983913 -0.4601472355 -0.9424525076
C 2.6560193163 1.4214433600 -2.2883874138
C 3.0654711700 2.7123264908 -2.6409941343
C 2.2251610095 3.5282116734 -3.3914347935
C 0.9741624752 3.0649172318 -3.7932599661
C 0.5645558340 1.7782680200 -3.4469166588
C 1.3996963150 0.9574499883 -2.6979837822
C 1.9827597280 -0.5220902036 0.3288060181
O 1.6848337147 -1.6129236286 0.8232335837
N 1.1793924962 0.5689352037 0.4529294194
C -0.1296942807 0.4805794190 1.0154636058
C -1.2274682201 -0.4269588321 0.3559043490
N -1.3606193879 -1.1197585964 1.6419687710
C -0.3811174471 -0.3726391042 2.2833760696
O 0.0248145340 -0.3825122645 3.4220388003
C -2.6879425684 -1.4633570044 2.0931711172
C -3.6240645333 -0.2883917946 1.6213947810
S -2.8973558196 0.2445303760 -0.0280544017
C -5.0761118992 -0.6995040425 1.4026056802
C -3.5375934707 0.8538681109 2.6336516657
C -3.1046036532 -2.8090035277 1.5190399567
O -2.7214040938 -3.2514149518 0.4590182604
O -3.9664851353 -3.4371691886 2.3347009593
H 4.1278247362 -1.9246149423 1.7244196680
H 5.8437273730 -1.6419947325 1.3006219956
H 4.9094833123 -2.8998826418 0.4696697188
H 4.0344037284 3.0746047577 -2.3137135250
H 2.5457447371 4.5305387875 -3.6569398948
H 0.3186220828 3.7050830872 -4.3750270526
H -0.4059342871 1.4103832768 -3.7643069060
H 1.0841056157 -0.0493758408 -2.4417702562
H 1.4718715084 1.4495808377 0.0557110959
H -0.5173730173 1.4892526672 1.1835317620
H -0.8753318015 -1.0479424074 -0.4711720691
H -2.7055157942 -1.5167388373 3.1863284381
H -5.6538960855 0.1603156077 1.0523473609
H -5.5086243754 -1.0332640094 2.3511814215
H -5.1719947100 -1.5016458055 0.6661214110
H -2.5043630659 1.1548520819 2.8264533723
H -4.0814425369 1.7249722599 2.2596174313
H -3.9899969368 0.5382430967 3.5808621547
H -4.2476495419 -4.2679071600 1.9113773892
