37
CONF19
C -2.7331358901 -1.6929534697 -1.8302115880
C -4.1160526946 -1.6015477188 -1.7059206351
C -4.6803139870 -0.5580015665 -0.9820208452
C -3.8635751318 0.3877195206 -0.3609768231
C -2.4683359405 0.2911638722 -0.4675648505
C -1.9179889882 -0.7459002872 -1.2223240206
C -1.4946420294 1.2638297536 0.1447760559
O -0.7470370393 1.9329841998 -0.5714723199
N -1.4831933480 1.3028419083 1.4940041021
C -0.5506036666 2.1278030775 2.2466214071
C 0.7082196668 1.3461094911 2.6776249657
C 1.4425650829 0.7848991279 1.4990350613
C 2.3340850004 1.5378407999 0.7218057382
C 2.9433504956 0.9915103377 -0.3945406176
C 2.6317603059 -0.3232085489 -0.7189033284
C 1.7481410821 -1.0271428090 0.0931478473
N 1.1745364882 -0.4882867573 1.1688463308
C 3.2627987872 -0.9992799774 -1.8986568014
F 3.7510721067 -0.1155024304 -2.7961189187
F 4.2994770598 -1.7961690670 -1.5259299918
F 2.3806178145 -1.7937126522 -2.5512744607
Cl 2.6821699148 3.2048794906 1.1307179769
C -4.5119194933 1.5133324099 0.3985466679
F -3.8839006788 2.6984369210 0.1994836212
F -5.8032638473 1.6925522225 0.0413513455
F -4.5158050444 1.2953453582 1.7447012977
H -2.2875692594 -2.4990564511 -2.4037645418
H -4.7592692966 -2.3339305973 -2.1817504468
H -5.7580509569 -0.4730438981 -0.9074686139
H -1.0577690612 2.5024873664 3.1407225723
H -0.2756931117 2.9800226604 1.6209444560
H 0.4134678308 0.5161529166 3.3251477594
H 3.6289914240 1.5769927655 -0.9957197379
H 1.4918468876 -2.0602201509 -0.1315990372
H -0.8389692328 -0.8041727683 -1.3233681789
H 1.3482288844 2.0232068094 3.2507419588
H -2.0499643793 0.6388742618 2.0009992818
