48
CONF46
C 0.1954625493 -4.4618927981 1.5707425507
O -0.4004783613 -3.2538861839 2.0626959320
N 0.5432181173 -2.2466855863 2.0108437090
C 0.0805673467 -1.1018198672 2.3871377093
C -1.2633958440 -0.8240238295 2.9343621618
C -1.8165246137 -1.6157822092 3.9463064676
C -3.0595663165 -1.3197661257 4.4889349680
C -3.7824099748 -0.2254860950 4.0233378062
C -3.2563111982 0.5738003820 3.0150269626
C -2.0134815171 0.2683509814 2.4870937799
O -1.4948988025 1.1596652412 1.5432644742
C -1.2850614533 0.7230472856 0.2764918700
C -0.6117713311 1.5864671970 -0.5793610526
C -0.3685083162 1.1289119212 -1.8667993872
N -0.7746728567 -0.0680071450 -2.2730087017
C -1.4172094921 -0.8074269833 -1.3720476939
N -1.7021307757 -0.4724337098 -0.1139810298
O 0.2832471908 1.9634351845 -2.7130971056
C 0.7902263089 1.4168860829 -3.8867955928
C 0.2153373541 1.7876904742 -5.0920058975
C 0.7566285665 1.3258262596 -6.2863292350
C 1.8705281074 0.4925659739 -6.2664597957
C 2.4508257056 0.1242954702 -5.0572732657
C 1.9144961615 0.5913366315 -3.8626524038
Cl 2.6359531380 0.1601263268 -2.3407385835
F -0.1814648827 2.7863551579 -0.1633232233
C 1.0203588023 0.0269207633 2.2328637321
N 1.7231599656 0.0961945663 1.1554848932
O 2.6265747418 1.1605357024 1.0348785263
C 2.8959867617 1.8694769125 2.2509419766
C 1.5942161172 2.1676017378 2.9549088277
O 0.9617477153 0.9111525592 3.2647388434
H -0.5980073134 -5.2105687354 1.6126360322
H 0.5372230395 -4.3283402878 0.5393612764
H 1.0361748998 -4.7650450173 2.2037860453
H -1.2489151517 -2.4618310360 4.3137160425
H -3.4631403940 -1.9430382499 5.2796586159
H -4.7554710951 0.0082940078 4.4422209902
H -3.7947675396 1.4315841449 2.6280207733
H -1.7503851996 -1.7907063514 -1.6984319414
H -0.6552600412 2.4338738633 -5.0732638067
H 0.3052160651 1.6150369231 -7.2289991990
H 2.2967823726 0.1266955172 -7.1943488518
H 3.3224304027 -0.5194466119 -5.0294388011
H 3.5477727787 1.2649497291 2.8981323406
H 3.4172195682 2.7822497609 1.9496262719
H 1.7441919526 2.6785090836 3.9085959934
H 0.9282866358 2.7543510870 2.3112713020
