63
CONF141
C 3.4377089949 1.0206486264 1.1588117277
C 2.0676062293 0.8222542173 1.7994786357
N 1.1513856428 0.1178644088 0.8910182685
C 1.6921352314 -1.2132146390 0.5819497776
C 3.0452060084 -1.1090918417 -0.1162128580
C 4.0211352451 -0.3370632609 0.7706556220
N 5.3520178197 -0.2247592140 0.1744719651
C 5.7221016491 0.4153140977 -1.0059847322
C 5.0012699745 1.1222073374 -1.9610799344
C 5.7043752493 1.6471917244 -3.0497561927
C 7.0831519946 1.4726506378 -3.1818185423
C 7.8129005616 0.7630419917 -2.2246907220
C 7.1152098463 0.2437528573 -1.1469157511
N 7.5390059427 -0.4896789231 -0.0543254585
C 6.4753766477 -0.7914783599 0.7756769473
O 6.5120052530 -1.4273390191 1.8274136091
C -0.1787400290 0.0218790077 1.5093613325
C -1.2769083227 -0.4248244837 0.5480581220
C -2.6459494496 -0.3815745029 1.2256068501
C -3.7965860547 -0.8206292902 0.3042629619
C -5.0949723500 -0.9317675516 1.0880124412
C -5.6599405242 -2.1826996516 1.3451276026
C -6.8353213295 -2.3085298358 2.0844439688
C -7.4302998655 -1.1553503423 2.5623057880
C -6.9060573140 0.1062603478 2.3329900734
C -5.7342156555 0.2066503949 1.5897319598
F -8.5791335404 -1.2614194666 3.2840879677
C -3.9872403138 0.0542630893 -0.9249315108
C -4.4911231026 -0.5243550597 -2.0945235354
C -4.7429410146 0.2355011579 -3.2329702697
C -4.4781419304 1.5933141362 -3.1808855823
C -3.9729094987 2.2103326147 -2.0506248388
C -3.7298320578 1.4279044824 -0.9232938057
F -4.7205613796 2.3489312256 -4.2861933163
H 4.1064721288 1.5257049008 1.8643399591
H 3.3338511919 1.6593994633 0.2752606316
H 1.6325284723 1.7975664282 2.0448721246
H 2.1855132251 0.2658506675 2.7526350038
H 1.8020415432 -1.8151262523 1.5083159912
H 0.9931674655 -1.7443426994 -0.0702232194
H 2.9177032760 -0.6029409529 -1.0791833168
H 3.4356903091 -2.1136037393 -0.3130001420
H 4.1776161662 -0.9165725648 1.6887238686
H 3.9320168089 1.2705895679 -1.8799254398
H 5.1595936415 2.2025182475 -3.8062261246
H 7.5988693570 1.8932509310 -4.0387611479
H 8.8844901861 0.6216210423 -2.3173564506
H 8.4837002499 -0.7805783700 0.1412144178
H -0.4371194966 1.0207136138 1.8846419733
H -0.1590729568 -0.6527839939 2.3899092508
H -1.2661295447 0.2279112853 -0.3332883026
H -1.0965839849 -1.4464582550 0.1930745262
H -2.6430621245 -1.0522396210 2.0941741181
H -2.8438336339 0.6234835360 1.6198595004
H -3.5585394459 -1.8286588267 -0.0575685354
H -5.1772670861 -3.0775674681 0.9624272693
H -7.2803965942 -3.2773639412 2.2842051749
H -7.4076836304 0.9845841724 2.7249671333
H -5.3184308838 1.1910768330 1.3964501364
H -4.6955957720 -1.5915443942 -2.1151750829
H -5.1328315637 -0.2114931171 -4.1411754617
H -3.7716538829 3.2762532190 -2.0540223082
H -3.3267685815 1.9096009372 -0.0384232608
