32
CONF21
C -6.6758286611 -0.6526657554 1.4004786214
C -5.3058644248 -0.5716575845 0.8271740946
N -4.8830722446 -1.3031808675 -0.1747957605
C -3.5849309382 -1.0264796429 -0.4778358632
C -2.9636058332 -0.0657770311 0.2927747168
S -4.1097392415 0.5333939605 1.4501222679
C -1.6159053033 0.5496703914 0.3073885160
O -1.4580075492 1.7113790872 0.6666070375
N -0.5829106800 -0.2627107243 -0.0807455690
C 0.7495024739 0.1919211189 -0.0655913795
C 1.2212238696 1.1470299589 -0.9765364833
C 2.5287041226 1.6013405188 -0.9507643660
C 3.4025536008 1.0713447768 -0.0101262580
C 2.9998314188 0.1054890664 0.9022897796
C 1.6729566494 -0.3038706740 0.8603967660
Br 1.1013804897 -1.5967979184 2.1380337245
O 4.6889787501 1.5983380555 -0.0884894967
C 5.6728513155 1.1687964728 0.7433074058
F 6.7786836225 1.8419264919 0.4212598054
F 5.3953581162 1.4035763297 2.0424458086
F 5.9237009772 -0.1503242253 0.6149026672
Br 0.0713603344 1.8246322409 -2.3301564955
C -2.9694561060 -1.7627537800 -1.6399892868
F -2.0851161276 -2.7130967902 -1.2152621338
F -3.8928529305 -2.3921952797 -2.3808720672
F -2.2837062674 -0.9331527288 -2.4570454881
H -7.4133131989 -0.4401211134 0.6203312929
H -6.8602832640 -1.6660834113 1.7702113538
H -6.8116371567 0.0543474171 2.2199681627
H 2.8815285823 2.3416248951 -1.6575943811
H 3.6657877251 -0.3191222086 1.6398583338
H -0.7266253775 -1.2644606676 -0.0821839499
