20
CONF5
C 1.2465390340 0.6189172957 -0.3510115803
N 1.0889671253 -0.3954322428 0.7182966317
C -0.2728085009 -0.7090166735 1.1336369289
N -1.1323369221 -0.7985113869 -0.0423566856
C -1.1408597452 0.4216367425 -0.8990591178
N -0.0260133195 1.2861667834 -0.5339172228
N -0.3129488591 2.3387156135 0.3945388715
O 0.6337885075 2.7894152538 1.0139629036
O -1.4639311214 2.7352994065 0.4332883271
N -1.0951743166 -2.0265907964 -0.7408017472
O -0.6531139064 -2.9942996041 -0.1435341885
O -1.5746584529 -2.0230803849 -1.8651335769
N 2.0719017455 -1.2299650397 1.0419547247
O 3.1406641108 -0.9826910839 0.4960413904
H 2.0336474362 1.3288080853 -0.0974226513
H 1.5083147058 0.1205296412 -1.2937333439
H -0.2670415164 -1.6473523628 1.6870310957
H -0.6827449852 0.0823777360 1.7709806745
H -2.0754567983 0.9696195990 -0.7809054370
H -1.0267339141 0.1154531272 -1.9418560074
