45
CONF1365
O 3.6801093883 0.5431510292 3.4327814527
C 2.5842627761 -0.0968301150 2.7775367891
C 2.2534195297 0.5713582911 1.4552062151
O 3.3992836057 0.5190289145 0.5650635694
C 3.1272601124 -0.4156747785 -0.4839936819
O 3.3702524317 -1.7403294900 -0.0674996024
C 4.0082972839 -0.0522475877 -1.6713570274
O 5.3769603902 -0.3738754987 -1.4067933439
C 1.6246877807 -0.2449047303 -0.7277906670
O 1.1077282206 -1.3189280205 -1.4807316985
C 1.0945903518 -0.1017581088 0.7110926748
O -0.0627971511 0.7341035604 0.8545535837
C -1.2686097902 0.1347644732 0.4971634202
O -1.3605125087 0.1223970212 -0.9280179806
C -2.5619417936 -0.5185786747 -1.3825637511
C -2.4532853566 -0.6179586361 -2.8926900638
O -1.3202888304 -1.4048316544 -3.2808620313
C -3.7922850029 0.2525893704 -0.9141268316
O -3.8148773486 1.5225640066 -1.5630084776
C -3.7382414737 0.4022570236 0.6061793536
O -4.8299551069 1.2401008837 0.9877354931
C -2.4051262202 0.9831799433 1.0611849866
O -2.4172846001 0.9649537259 2.4884009478
H 4.4391485074 0.4730944851 2.8386897891
H 2.7924185151 -1.1630079162 2.6079325126
H 1.7195970816 -0.0100338259 3.4454805526
H 2.0246026201 1.6304090363 1.6219652407
H 4.3299598602 -1.8720485218 -0.1280283574
H 3.8801629633 1.0100697146 -1.9125646229
H 3.7023200504 -0.6566981656 -2.5301145620
H 5.7081981887 0.2651868382 -0.7620618586
H 1.4784646665 0.7183243013 -1.2401974466
H 0.2332818711 -1.0574915407 -1.8188884421
H 0.8736361788 -1.1005358197 1.1159934190
H -1.3237129308 -0.9016358861 0.8817054899
H -2.6186691475 -1.5352859388 -0.9553213788
H -3.3861086794 -1.0312506498 -3.2984489677
H -2.2962047665 0.3769566489 -3.3159874991
H -1.5146581245 -2.3291912526 -3.0773903018
H -4.6906722729 -0.3296945986 -1.1757354184
H -4.4645604663 2.0620997386 -1.0908076921
H -3.8490180091 -0.5988413070 1.0554979657
H -4.7015084353 1.4788432698 1.9158383983
H -2.2917444623 2.0074919494 0.6774208199
H -1.6465796054 1.4587086034 2.7966929510
