42
CONF26
C -3.0567789450 -2.0430006890 0.8507337221
C -2.4437516819 -0.8814370678 0.1467416206
C -3.0832527821 0.1283778134 -0.5084654235
C -2.0869223827 1.0546508413 -1.0401671613
C -0.7961274633 0.6020081531 -0.6705879298
C -0.9897047258 -0.6307001551 0.1187103493
C -0.0990927004 -1.4585436611 0.7178783727
C 1.3326649018 -1.2702524274 0.9264091265
C 1.8705970876 -0.0366201022 1.3242667663
C 3.2320059813 0.1044476714 1.5597373019
C 4.0641092649 -0.9951229481 1.3904498051
C 3.5563822775 -2.2438349338 1.0404026879
C 2.1930256947 -2.3771615801 0.8185056240
S 5.8440003616 -0.8160036427 1.7292113160
O 6.0388400019 0.5713670441 2.3460237827
C 6.3757069212 -0.6736631207 -0.0227594525
C 0.3273105423 1.2532822630 -1.1643824573
C 0.1725236849 2.3850624966 -1.9716488880
C -1.1077068542 2.8222083887 -2.2694991042
C -2.2605716292 2.1823205800 -1.8341399113
F -1.2450184082 3.9307905946 -3.0462641319
C -4.5453515789 0.3316955227 -0.6966884580
C -5.1023630618 1.4560329310 0.1514646767
O -4.5226156040 2.0140761691 1.0582704251
O -6.3636452532 1.7599287461 -0.2172778243
H -2.8323339327 -2.0149998832 1.9233864740
H -4.1419064876 -2.0563438570 0.7353041526
H -2.6636782039 -2.9909855767 0.4654614592
H -0.4911961644 -2.3977826483 1.1056017478
H 1.2093025535 0.8100578818 1.4763291469
H 3.6483235148 1.0530792361 1.8832490117
H 4.2131967792 -3.1042779075 0.9468909604
H 1.7830279125 -3.3468009339 0.5519951553
H 5.8569972675 0.1780616456 -0.4703739730
H 7.4573515229 -0.5191836666 -0.0104906925
H 6.1290002665 -1.6049735784 -0.5397459266
H 1.3285406707 0.9041050313 -0.9426940266
H 1.0311271666 2.9181630557 -2.3642497802
H -3.2379281014 2.5505326421 -2.1291199746
H -5.1189720022 -0.5668577830 -0.4446694305
H -4.7820988232 0.5554183732 -1.7447158562
H -6.6930178734 2.4628795791 0.3689684157
