47
CONF14
C -7.7060406672 -1.6178893042 -1.2719763323
O -6.2556880733 -1.7372678468 -1.3177302292
P -5.4398248348 -2.0805599389 0.0131014083
S -5.8766604163 -1.0802318524 1.6188853015
O -5.5856527809 -3.6715059599 0.0713864880
C -5.0681242816 -4.4071018247 1.2152818618
O -3.9154084334 -1.9369417344 -0.5225178943
C -3.2123101312 -0.7320455644 -0.4340627333
C -2.1134875364 -0.6848584930 0.4141159213
C -1.3643756501 0.4819153683 0.4905722926
C -1.7088109945 1.5851422775 -0.2952909005
C -2.8126649170 1.5180383178 -1.1482503847
C -3.5759259979 0.3564026742 -1.2143455699
S -0.8239472409 3.1360479833 -0.1867361710
C 0.8766737802 2.6039702537 -0.0330678944
C 1.6817097194 3.2130769779 0.9310639977
C 3.0255135085 2.8669583173 1.0363122368
C 3.5427268618 1.9029170561 0.1843569400
C 2.7547903220 1.2858520009 -0.7821026803
C 1.4193025803 1.6478692237 -0.8963871493
O 4.9001472922 1.5972141019 0.2898229784
P 5.4076918464 0.1271479041 0.7907580128
S 4.3592611540 -0.6731842539 2.2083548513
O 6.9479810945 0.4573106213 1.0567821139
C 7.3261888265 1.2762419631 2.1988287744
O 5.4815736850 -0.7913357021 -0.5102442833
C 6.2260706450 -0.3518892755 -1.6883829851
H -8.0088481561 -1.3573993879 -2.2855894732
H -7.9935714259 -0.8282885238 -0.5733299296
H -8.1524736960 -2.5712624604 -0.9772207143
H -5.2884230673 -5.4547991797 1.0131510107
H -3.9881541241 -4.2580987705 1.3008364928
H -5.5721441738 -4.0802336717 2.1281599688
H -1.8606527700 -1.5504706636 1.0169539756
H -0.5146624716 0.5304406921 1.1632610022
H -3.0747671121 2.3684593179 -1.7691865086
H -4.4304436252 0.2924175234 -1.8792573557
H 1.2595116695 3.9481405267 1.6081676663
H 3.6639682235 3.3232366960 1.7850349547
H 3.1841259212 0.5427610842 -1.4458735401
H 0.7996829222 1.1829195831 -1.6559324069
H 8.4126222647 1.3476904102 2.1618288307
H 6.8784410946 2.2698633513 2.1129469249
H 7.0084928685 0.7910175203 3.1253816309
H 7.2964653864 -0.3630552696 -1.4738626119
H 5.9859379147 -1.0734874801 -2.4684073900
H 5.9041818964 0.6488556110 -1.9885444988
