59
CONF53
C 1.9190394723 1.3102123865 4.0354022031
C 1.1064264275 0.2990186439 3.2180024497
C 1.8509888098 0.2156836162 1.8695251897
C 3.3151311796 0.6943934635 2.1431792651
C 3.3589436046 0.9464537789 3.6660404902
C 3.6246912770 1.9761776794 1.3699491134
C 3.6201690573 1.7808069584 -0.1226504674
O 3.3384684019 2.6846072393 -0.8974501247
N 3.9759958323 0.5192184669 -0.6124772362
C 4.3742256191 -0.5475431450 0.2022162552
O 4.7355138026 -1.6080096132 -0.2889638808
C 4.3499088686 -0.3308723589 1.6941598182
C 3.9590495416 0.3354703115 -2.0799672325
C 2.5486806892 0.1084835016 -2.6202926487
C 1.9195176579 -1.2132890988 -2.1831207235
C 0.4750705602 -1.3584250438 -2.6645038562
N -0.4424751861 -0.4171490572 -2.0049494220
C -0.8021500208 -0.8789971405 -0.6597825163
C -1.6912265956 0.1466780240 0.0363475179
N -2.8976480093 0.3798923186 -0.7587893826
C -2.5711340684 0.8068752072 -2.1202066399
C -1.6641103020 -0.2213488303 -2.7928521191
C -4.0827994431 -0.2322959285 -0.4616388608
N -4.1981110839 -0.8165037242 0.7569249813
C -5.3800164915 -1.3572791200 1.0461945699
C -6.4585138936 -1.3470271826 0.1691315900
C -6.2324823546 -0.7297243467 -1.0556853940
N -5.0689108878 -0.1756953327 -1.3909869877
H 1.7259323037 1.2477844509 5.1105910806
H 1.6894863702 2.3334965209 3.7130741426
H 1.1341638434 -0.6751078840 3.7201808683
H 0.0557263421 0.5805325632 3.0994938404
H 1.3728061980 0.8628589690 1.1248023774
H 1.8378593639 -0.8010823225 1.4640027612
H 4.0961926481 1.7098500756 3.9352276414
H 3.6374634119 0.0156133619 4.1768844895
H 2.9128596348 2.7762178720 1.5898326051
H 4.6257213748 2.3420333600 1.6414640568
H 5.3579735724 -0.0033137684 1.9887234231
H 4.1784854804 -1.3085983098 2.1535215933
H 4.6019485926 -0.5175947366 -2.3023828568
H 4.3947555969 1.2330405722 -2.5241966753
H 1.9052730740 0.9418182481 -2.3201570570
H 2.6101733769 0.1337342221 -3.7160419033
H 1.9618741640 -1.3088630821 -1.0911671421
H 2.5037912898 -2.0499257638 -2.5862691368
H 0.1348296359 -2.4024359956 -2.5254437255
H 0.4434080810 -1.1554740566 -3.7429302285
H -1.3359785888 -1.8509687388 -0.6999874566
H 0.1048388248 -1.0222795852 -0.0657727023
H -1.1510258121 1.0985996316 0.1232028344
H -1.9635349193 -0.1961717780 1.0332850614
H -2.0449323598 1.7680910136 -2.0555133567
H -2.2265736135 -1.1694496254 -2.9178158721
H -1.3899857052 0.1416545035 -3.7902236845
H -5.4659997929 -1.8241281593 2.0271202495
H -7.4110155921 -1.7956218269 0.4213719914
H -7.0207853857 -0.6796570948 -1.8064158535
H -3.4857260296 0.9438514373 -2.6949487926
