30
CONF14
N 5.4407794359 -0.5896418387 1.0395818132
C 4.1521804190 -0.3089702121 0.7103541727
N 3.8793085599 1.0078229678 0.5159585489
C 2.6161995269 1.3237410245 0.2372501105
N 2.2907217454 2.6079673389 0.0242565312
C 1.6072867227 0.3066197584 0.1532235645
N 0.3235862743 0.6264961067 -0.0921025172
C -0.5701234210 -0.3411312707 -0.1493605680
C -0.1387297925 -1.7175905238 -0.0096027109
N -1.0217139083 -2.7351819964 -0.1512317955
N 1.1266632112 -2.0368648415 0.2545511282
C 2.0232548686 -1.0304317025 0.3597735777
N 3.3056925471 -1.3460256944 0.6443838918
C -1.9772476413 0.0378197696 -0.4015286635
C -3.0309273782 -0.4854389940 0.3608493114
C -4.3402701979 -0.0749586843 0.1279379227
C -4.6175978485 0.8563860676 -0.8700400148
C -3.5751308996 1.3853506954 -1.6298176276
C -2.2654078444 0.9826132208 -1.3961587152
H 6.1349060766 0.1266052540 0.9018544908
H 5.7413602617 -1.5501783374 1.0066991627
H 1.3287806804 2.8570300070 -0.1378916181
H 2.9832120788 3.3301674270 0.1363314690
H -1.9217027725 -2.5644001573 -0.5696200716
H -0.6487185024 -3.6695603914 -0.2226824895
H -2.8249976411 -1.1917296690 1.1592565425
H -5.1444434676 -0.4791278277 0.7348527996
H -5.6402027012 1.1708809934 -1.0532545369
H -3.7841330877 2.1110557256 -2.4098228426
H -1.4525849128 1.3906758957 -1.9883423719
