70
CONF154
C -2.9141357202 0.3039550990 -0.6483230596
C -4.2894422325 0.4551649578 0.0441315333
C -4.9221484683 -0.8906738188 0.1880870938
C -6.2136946548 -1.3521467864 0.2641934001
N -6.1978202232 -2.7404796710 0.3703740244
C -4.8965965505 -3.1887405524 0.3503067770
C -4.3090186921 -4.4555072475 0.4037687062
C -2.9188824791 -4.5015879245 0.3320019826
C -2.1169549739 -3.3432983673 0.2123670280
C -2.7001600650 -2.0817078349 0.1700073916
C -4.0909765722 -2.0379914821 0.2388198840
C -2.0095178570 -0.7359419516 0.0800813573
C -0.6340048849 -0.8310196250 -0.5745591786
C 0.0146172068 0.5518750742 -0.6505466142
C -0.9268807321 1.5000101408 -1.3954822150
N -2.2095723197 1.6000105490 -0.6900950327
C -3.0171619083 2.7088491559 -1.2404095725
C -3.5735663871 2.4844648744 -2.6215524460
C -4.8565779453 2.6355099999 -2.9444423935
C 1.3481944408 0.4666946895 -1.3724185285
O 1.4544129118 -0.1145040525 -2.4549661970
N 2.4428693854 1.0015843733 -0.7455449024
C 3.7654933939 0.8701356826 -1.3941574770
C 4.3841176991 -0.5292201266 -1.3201995803
C 5.0890170201 -0.8817593684 -0.0123798711
N 4.2217496262 -0.9177845953 1.1766027687
C 5.0364942834 -1.1114037710 2.3818441739
C 3.1991394201 -1.9648016593 1.0848676053
C 2.3048788880 1.9734302291 0.3264638164
O 1.6444688017 2.9994843055 0.1710838632
N 2.9779169002 1.6192060532 1.4240723644
C 3.1591829892 2.5292596631 2.5490745118
C 4.3833091260 3.4248162467 2.3701073120
H -3.0921511749 -0.0808565805 -1.6747157939
H -4.1293012765 0.9262661409 1.0250377311
H -4.9352940236 1.1199393351 -0.5343550453
H -7.1560208900 -0.8217908531 0.2509533312
H -7.0187567088 -3.3194833007 0.4356205255
H -4.8970237626 -5.3635538301 0.4913073980
H -2.4277576385 -5.4696565871 0.3656857293
H -1.0397057849 -3.4629077363 0.1558478748
H -1.8741149520 -0.3571397523 1.1069460801
H 0.0071803980 -1.5120289115 -0.0043784765
H -0.7340670816 -1.2402782459 -1.5870685381
H 0.1523896119 0.9341228013 0.3661370709
H -0.4812723353 2.4991493922 -1.4410261019
H -1.0385954991 1.1259263076 -2.4304856433
H -3.8323330689 2.9492852985 -0.5498320850
H -2.3577001951 3.5871717441 -1.2605309257
H -2.8614473240 2.1939321854 -3.3935084664
H -5.5948020850 2.9258778216 -2.1988439005
H -5.2117280737 2.4837482285 -3.9596876712
H 4.4318287211 1.6024676542 -0.9265801074
H 3.6429793331 1.1509772410 -2.4456772102
H 3.6327791585 -1.2778842199 -1.5869633092
H 5.1486889588 -0.5799261113 -2.1048631026
H 5.8691067002 -0.1327417594 0.1792145336
H 5.6007705160 -1.8552266333 -0.1387763830
H 4.3914731417 -1.1033401889 3.2663572620
H 5.7615828565 -0.2955248913 2.4709152891
H 5.5882152303 -2.0679765805 2.3611432206
H 3.6452636241 -2.9687039764 0.9690452197
H 2.5914254242 -1.9573880088 1.9951905752
H 2.5372676806 -1.7789250468 0.2355534547
H 3.4664804011 0.6950770993 1.4010524090
H 2.2543476731 3.1354129790 2.6562817352
H 3.2626042039 1.9189370971 3.4522700859
H 4.4969751062 4.0886490185 3.2327361411
H 4.2797980939 4.0403860587 1.4712939283
H 5.2921641224 2.8221242660 2.2755253482
