50
CONF107
C 0.3223529835 0.0524862794 -2.5516136785
C -1.1401038630 -0.0816042688 -2.2026713488
C -1.8191839989 -1.4181131507 -2.2414939499
C -1.5638618716 -0.7345965421 -0.8830198686
C -0.5872622686 -1.3231988115 0.0390854119
O 0.3678634065 -2.0196081929 -0.2319168142
O -0.9079178246 -0.9817782992 1.3286719620
C 0.0066815341 -1.4890367457 2.3267649665
C -0.7313749350 -1.4389574302 3.5900209171
N -1.2715384198 -1.4057538445 4.6099902999
C 1.2799933752 -0.6704353606 2.4170415278
C 1.2072280607 0.7173762491 2.3315133743
C 2.3816382234 1.4572673464 2.4339766481
C 3.6086478162 0.8323806227 2.6455042486
C 3.6584276318 -0.5536090514 2.7404044269
C 2.4986547348 -1.3143171537 2.6172455858
O 2.3782376941 2.8359020101 2.4073794893
C 1.4897999500 3.4818616331 1.5582143559
C 1.3573766411 3.0981047727 0.2257099550
C 0.5128696034 3.8289237288 -0.6040974342
C -0.1873592267 4.9292532338 -0.1109178686
C -0.0363991004 5.3014756252 1.2228823196
C 0.8025040835 4.5774841198 2.0670107409
C -1.0845588185 -2.6367626896 -2.6294799645
C -1.5303197941 -3.8936899125 -2.5760172922
C -2.8279411435 -4.3839069153 -1.9983378061
F -3.6509741984 -4.8853651303 -2.9533514923
F -3.5018939062 -3.4054685674 -1.3619522816
F -2.6282189637 -5.3755705379 -1.0976054078
Cl -0.5618293093 -5.2125418764 -3.2116033803
C -1.9766869356 1.1125753043 -2.6081181651
H 0.7140130179 0.9819151556 -2.1264595744
H 0.9322445085 -0.7706987700 -2.1794365322
H 0.4318695317 0.1081085676 -3.6401789711
H -2.8715591909 -1.4049904341 -2.5051580391
H -2.4366987829 -0.3075091408 -0.4018684640
H 0.2513908245 -2.5357213870 2.1109803074
H 0.2544647087 1.2151357334 2.1847888477
H 4.5059544475 1.4363485719 2.7273465028
H 4.6131800938 -1.0453768893 2.8948164574
H 2.5409487497 -2.3973948705 2.6717174364
H 1.9125470794 2.2458429829 -0.1530391896
H 0.4123915387 3.5416999611 -1.6461980306
H -0.8425912610 5.4952218264 -0.7647281135
H -0.5763631656 6.1577345569 1.6146249432
H 0.9304237309 4.8518152550 3.1088627120
H -0.0907796982 -2.5029932447 -3.0464354112
H -1.8895104328 1.2754096950 -3.6878092916
H -3.0324934351 0.9655401460 -2.3647958402
H -1.6242835257 2.0141362500 -2.0962492209
