35
CONF659
C -0.4736614998 2.3206607100 1.6308986389
C -1.7299980174 3.0444925315 1.2068652836
C -1.8433938642 3.3315555923 -0.2710035797
Br -0.4136043393 4.5956321092 -0.8164587231
Br -3.3330400413 1.9368118012 1.6609715108
O -0.2810520296 1.1889467865 0.7618694109
P 0.3581898625 -0.1702667739 1.3240776182
O 0.1162695431 -0.4536495357 2.7536429684
O 1.8906439807 -0.0926067113 0.8643425482
C 2.9471525582 -0.5099092504 1.7472929466
C 3.9759994577 0.5932623075 1.8548982777
C 4.4526455049 1.1664195113 0.5419545170
Br 5.4504907475 -0.2198805908 -0.4676065818
Br 3.1989356769 2.1348881600 2.8632837909
O -0.1927525382 -1.2216641412 0.2508149658
C -1.5957301467 -1.5575772967 0.2866114915
C -2.0244619900 -1.9828141234 -1.0974633333
C -1.1376692630 -3.0067859929 -1.7646464736
Br -1.2090733129 -4.7136782839 -0.7557001332
Br -2.0280898664 -0.4024109827 -2.3221436893
H -0.5389255191 1.9990114355 2.6745383131
H 0.3792447553 2.9990547062 1.5086845455
H -1.8442853071 3.9507612504 1.8047240206
H -1.7046251372 2.4326101271 -0.8695661039
H -2.7808831030 3.8255021853 -0.5163226248
H 3.4261860163 -1.3886132827 1.2993248426
H 2.5492981184 -0.7676229338 2.7329241597
H 4.8101474393 0.2517801758 2.4711798442
H 3.6224288396 1.4724681519 -0.0924498265
H 5.1544834640 1.9842309757 0.6889199334
H -1.7352940859 -2.3991882369 0.9759136490
H -2.1964370615 -0.7071921982 0.6255839696
H -0.0945871317 -2.6959648710 -1.7708026298
H -1.4811191848 -3.2442997760 -2.7689144769
H -3.0652141663 -2.3108024135 -1.0670041570
