45
CONF45
C -4.7729004268 -0.0577107637 1.4226835544
C -3.9918869135 -0.5377726068 0.2423514997
C -3.3391987102 0.2568218870 -0.6133805343
C -2.5988966624 -0.2611194587 -1.7733956612
C -1.1955370254 0.2802530542 -2.1676244360
C -2.4161953393 0.4990027793 -3.0560207662
C -3.0139308647 1.8761682820 -3.2285848419
C -2.4142781183 -0.3169943014 -4.3321055338
C -0.5678025738 1.3432816992 -1.3736464580
O -1.0995421099 2.3178745420 -0.8797623649
O 0.7688377464 1.0723073048 -1.2389294482
C 1.5432149764 1.9563890300 -0.3892907814
C 2.1855845048 1.1280200892 0.6817057360
C 3.5545661813 0.8991576007 0.7373074959
C 4.1192471303 0.1126796730 1.7341269896
C 3.3471593255 -0.4917938802 2.7176331336
C 1.9740176438 -0.2704272227 2.6525486615
C 1.4104611747 0.5215428636 1.6671101933
F 0.0784574231 0.7082967505 1.6594099688
F 1.1687620876 -0.8283239027 3.5733576850
C 3.9337236806 -1.3951420187 3.7772748460
O 3.6970904177 -2.7718914506 3.4917506071
C 4.4483071984 -3.2364881949 2.3677448919
F 5.4536758642 -0.0653464884 1.7245960143
F 4.3665255792 1.4417281408 -0.1877030063
H -4.3794850661 -0.4861819111 2.3527453256
H -5.8216824105 -0.3720684779 1.3553529373
H -4.7428912905 1.0325782306 1.5044862426
H -3.9646022595 -1.6170060972 0.0832495464
H -3.3547393317 1.3317909355 -0.4556333097
H -2.6526936845 -1.3426973134 -1.8816121112
H -0.4991201071 -0.4792903053 -2.5054050474
H -2.4689624442 2.4219878478 -4.0066098522
H -2.9878459666 2.4704860981 -2.3168404316
H -4.0553122008 1.7764973127 -3.5544355703
H -1.9839543266 -1.3099527840 -4.1739057026
H -1.8353428946 0.1919809785 -5.1107584768
H -3.4401937525 -0.4405826575 -4.6967538590
H 2.2958590940 2.4404136983 -1.0127973286
H 0.8841282209 2.7121582957 0.0449748522
H 3.4473241953 -1.1960726122 4.7350664896
H 5.0086694260 -1.1981103610 3.8773943792
H 5.5247921729 -3.0786840222 2.5236614793
H 4.2454198535 -4.3051303026 2.2749582886
H 4.1411713822 -2.7326302725 1.4403718141
