49
CONF2
C -4.2209641939 -0.4578486694 -0.3328927197
C -3.1193001853 -1.2926813764 0.2879568955
C -1.9140366477 -0.6196471950 0.9573866115
C -1.7782411723 -1.4002130964 -0.3784517721
C -0.9719843451 -2.6808618202 -0.2980679976
C -1.4928224675 -0.6413553983 -1.6567919752
C -1.6876639029 0.8222533448 0.9941061158
O -2.1470477476 1.6960965695 0.2899424345
O -0.7707275857 1.1109535126 1.9928899136
C -0.3172207746 2.4734230992 1.9974811816
C 0.3416731609 2.6670008051 3.2908217770
N 0.8821630075 2.8520851079 4.2943739686
C 0.6505995595 2.7734463561 0.8607146933
C 1.3343324698 1.7315295725 0.2418516962
C 2.2131944180 2.0294553257 -0.7972394331
C 2.4185818493 3.3461266732 -1.2070501372
C 1.7275742445 4.3712179973 -0.5730435883
C 0.8392595224 4.0943836086 0.4631188051
O 2.8764350506 1.0609765682 -1.5164263481
C 3.0576475095 -0.2010346333 -0.9642628601
C 3.6797627105 -0.3650889998 0.2705505245
C 3.9039679613 -1.6541101765 0.7443367615
C 3.5226969255 -2.7623811662 -0.0114255426
C 2.9143181854 -2.5781421353 -1.2503639293
C 2.6734160973 -1.2933460640 -1.7323430631
C -3.6864525824 -2.4835212833 1.0388102794
H -4.7878545072 -1.0827325743 -1.0326203555
H -3.8583085809 0.4191426338 -0.8632129705
H -4.9119038567 -0.1184021229 0.4463446567
H -1.5027166064 -1.1417109801 1.8150956285
H 0.0912118756 -2.4549144458 -0.4359913859
H -1.0841875763 -3.2008862516 0.6537866859
H -1.2759647701 -3.3621717374 -1.1017641919
H -1.9780782890 0.3318066899 -1.7037060633
H -1.8288703575 -1.2386054359 -2.5121793817
H -0.4126180424 -0.4867634214 -1.7610276156
H -1.1716555595 3.1598720915 1.9411567298
H 1.1720005779 0.7051902791 0.5497149213
H 3.1061884052 3.5483382788 -2.0212564986
H 1.8797278982 5.3963757643 -0.8946194795
H 0.2939753022 4.8961179140 0.9513620150
H 3.9823236654 0.5029012894 0.8474607610
H 4.3882082242 -1.7908257605 1.7061092387
H 3.7036209372 -3.7644190467 0.3633097623
H 2.6168025255 -3.4359055705 -1.8454016429
H 2.1959197333 -1.1296717598 -2.6926794121
H -2.9317871357 -3.0362874758 1.5996575030
H -4.4475759029 -2.1418578541 1.7483066149
H -4.1676180428 -3.1733060463 0.3358416671
