80
CONF46
C -4.7892137983 -0.7912397254 -1.6883923331
C -5.5301413646 0.2631919597 -2.5029730047
C -6.9226131906 -0.3674775170 -2.6407548621
C -7.1808644788 -0.9927564788 -1.2649248944
N -5.8224847535 -1.2761971018 -0.7604440261
C -5.6165916781 -1.8445609397 0.4368653755
O -6.5437796503 -2.2398971520 1.1532201694
C -4.1719062721 -1.9725479926 0.9504848704
C -4.0869896034 -1.3131786214 2.3493420335
C -2.8434589324 -1.6742468121 3.1164121174
C -2.6785975013 -2.9702007348 3.6181224809
C -1.5300401940 -3.3206872250 4.3193971916
C -0.5278635721 -2.3747855844 4.5384479083
C -0.6909692006 -1.0778391618 4.0591432252
C -1.8424628141 -0.7314517105 3.3533817032
N -3.1987173739 -1.4420601445 0.0027930766
C -1.9499885870 -1.9043892931 -0.2007119291
O -1.3663392326 -2.8035816657 0.3867592029
C -1.3816698086 -1.1252783451 -1.4053594601
C -1.0615006361 -2.0798199505 -2.5423162117
N -0.1906542199 -0.3779079420 -1.0606275853
C -0.1324535204 0.5565391267 -0.0805131410
O -1.1234500572 0.8804150442 0.5866988035
C 1.2291769438 1.1514890219 0.2191429043
C 1.9861684795 0.2050974225 1.1577650865
N 3.2274775567 0.8283111894 1.6261849253
C 3.8340082999 -0.0518572812 2.6342050711
C 4.1409119313 1.1049402533 0.4982829505
C 5.4783527088 1.6849362778 1.0183446641
C 6.3342816822 2.0879010527 -0.1376056143
C 7.6869467060 2.2140146071 -0.3433560365
N 7.9143920768 2.6134737868 -1.6568241181
C 6.7126280564 2.7344024454 -2.3158686325
C 6.3572864440 3.0746445440 -3.6236589933
C 4.9971062762 3.0638254829 -3.9231750587
C 4.0038381711 2.7315802355 -2.9731405388
C 4.3558081848 2.4035773603 -1.6683022438
C 5.7169447299 2.4109226457 -1.3716389611
C 3.4367079198 2.0599619331 -0.5131861375
C 2.1065939952 1.4730217607 -0.9872316646
O -2.4479438290 -0.2438975036 -1.7936110696
C -3.5579802427 -0.3548271241 -0.9069318282
O -3.7957194154 0.8364969518 -0.2432803066
H -4.4609957831 -1.6128275231 -2.3413179059
H -5.0449752341 0.4541333898 -3.4621256803
H -5.5848949632 1.1971611822 -1.9358865539
H -6.9050089341 -1.1464195507 -3.4098432929
H -7.6917513893 0.3603105396 -2.9061887959
H -7.7742729061 -1.9104100907 -1.3125964658
H -7.6790688857 -0.2958986725 -0.5802997777
H -3.9679496510 -3.0461038515 1.0537653445
H -4.9683723307 -1.6563692390 2.8988531477
H -4.1645360154 -0.2285575788 2.2297858582
H -3.4572421819 -3.7111349039 3.4521327830
H -1.4166083372 -4.3312452817 4.7005191449
H 0.3687053349 -2.6463445492 5.0872718156
H 0.0784205934 -0.3317881576 4.2360946043
H -1.9598854655 0.2777001375 2.9720125632
H -0.2738808259 -2.7739613181 -2.2374561394
H -1.9583979926 -2.6461743099 -2.8016940442
H -0.7307976292 -1.5102054228 -3.4155718039
H 0.6460888251 -0.5855300300 -1.5858846489
H 1.0221106571 2.0765042294 0.7685043430
H 2.1840619140 -0.7489780769 0.6271660009
H 1.3643858236 -0.0232372550 2.0305399169
H 4.6430986971 0.4547170634 3.1645469281
H 3.0712069683 -0.3179514368 3.3724047202
H 4.2301102433 -0.9876311631 2.1972962296
H 4.3702039271 0.1620369848 -0.0445475789
H 5.9974196809 0.9471011369 1.6349083246
H 5.2507100767 2.5455490543 1.6646024857
H 8.5217456485 2.0544678926 0.3253199882
H 8.8249658653 2.7620692329 -2.0606531924
H 7.0963554143 3.3308933511 -4.3760441708
H 4.6837854078 3.3187288800 -4.9313320697
H 2.9649378220 2.7424174261 -3.2867082224
H 3.2209987844 2.9906362054 0.0368579544
H 2.3242541978 0.5678407620 -1.5710670434
H 1.5922476720 2.1775947144 -1.6484979365
H -2.9514116820 1.0428499174 0.2111775671
