56
CONF5
C 2.5446927098 -1.1658698030 2.4970966883
C 2.4695240227 -1.3164747269 0.9717911262
C 1.2731044623 -0.5638769136 0.3407345284
C -0.0784850863 -0.9939502318 0.9062098573
C -1.1791001433 -0.1797507930 0.2408598949
C -2.5911814748 -0.6917938916 0.5572917419
C -3.6968966044 0.3227480896 0.2122685929
O -4.8787058932 -0.0122899955 0.3978048573
C -3.3204150473 1.5622783451 -0.4312633542
C -1.9834767973 2.0508489385 -0.3636816964
C -1.0663304249 1.2986947727 0.6182336878
C 0.3684569989 1.7767423681 0.6079474918
O 0.4985591001 3.0792341617 0.8275049205
C 1.4442763369 0.9323509385 0.4707291110
C 2.7664473341 1.4954969725 0.4277349783
C 3.9002619173 0.6100950914 0.2069910862
C 3.7589941736 -0.7867654791 0.3714690029
C 4.8247462896 -1.6266820172 0.0916563363
C 6.0364085883 -1.0892085607 -0.3550758182
C 6.2104149228 0.2772235322 -0.4962307863
C 5.1528937527 1.1391359291 -0.1979043631
O 5.3585525837 2.4636180748 -0.3266656884
O 2.9526571435 2.7565681263 0.5309990206
O -1.5728781583 1.4568846609 1.9578260414
O -1.5767040833 3.0402453388 -1.0220400253
C -4.2755920567 2.3532707434 -1.1517171758
O -3.8797575892 3.4144013008 -1.8169940380
N -5.5620215816 2.0596492764 -1.1889678344
N -2.8063462099 -1.9803139913 -0.1166921111
C -3.1757146534 -1.8741279016 -1.5289319875
C -3.7024181853 -2.8959503642 0.5887048923
O 2.3799468483 -2.7046346089 0.6247946111
H 2.5567378474 -0.1115366382 2.7887868406
H 3.4590117959 -1.6411939378 2.8620882872
H 1.6849745881 -1.6462816822 2.9745322318
H 1.2976504758 -0.8351510600 -0.7271628172
H -0.1162313475 -0.8300916077 1.9893752080
H -0.2554974796 -2.0553113795 0.7107947108
H -1.0292773738 -0.2300780906 -0.8470292850
H -2.6607812763 -0.8709998135 1.6367388708
H 4.7192156320 -2.6949041201 0.2303570370
H 6.8639849456 -1.7549719480 -0.5810125107
H 7.1552264592 0.6986012974 -0.8228960359
H 4.5285527780 2.9062541588 -0.0139698738
H 1.4945492920 3.2576050597 0.7908647413
H -1.5226897756 2.3953272466 2.1906349776
H -2.8577132236 3.4639655265 -1.6566471204
H -5.8734449759 1.2564861482 -0.6501444404
H -6.1977143151 2.6248459098 -1.7318479657
H -3.0690537486 -2.8576130375 -1.9988727689
H -4.2169998627 -1.5371533492 -1.6796658070
H -2.5109889102 -1.1783917773 -2.0506826068
H -4.7595672300 -2.5872148811 0.5492933928
H -3.6196001306 -3.8896641652 0.1324864601
H -3.4009616819 -2.9731820264 1.6384038774
H 1.7367046284 -3.1171425113 1.2149911894
