57
CONF103
C -0.6305945533 -0.9910049016 -2.2912296038
C -1.4287486944 -1.1138970676 -1.0043459310
C -2.6546259730 -0.1707323571 -0.9912372796
C -2.3296971259 1.2743543270 -1.2618604697
C -1.8960086688 2.1158535288 -0.2315994034
C -1.5640843966 3.4432444095 -0.4895496561
C -1.6646762304 3.9528418048 -1.7829514237
C -2.1062852272 3.1269756849 -2.8146308975
C -2.4372041613 1.7994683418 -2.5535120334
C -1.8847749597 -2.5281782045 -0.6814060418
C -2.2366297813 -2.8586015244 0.6318930857
C -2.6996706014 -4.1324431775 0.9426428835
C -2.8282848773 -5.0952669504 -0.0569875110
C -2.4900437387 -4.7712408445 -1.3670070412
C -2.0204854097 -3.4960501659 -1.6784190536
O -0.6128891939 -0.6293252347 0.1398778338
P 0.8874382261 -1.0213080593 0.4374639979
O 1.3690021370 -2.4012291803 0.2132707124
O 1.0308012588 -0.6095578955 1.9887152710
C 0.4796683756 0.5898213915 2.4755643932
C -0.7231899422 0.5220162955 3.1646440338
C -1.2672661679 1.6965084982 3.6777354471
C -0.6121235313 2.9132822593 3.4957954962
C 0.5983918312 2.9545167084 2.8077579432
C 1.1578933796 1.7869103628 2.2925773970
O 1.6742287546 0.1191116768 -0.4014278992
C 3.0375231532 0.0373750578 -0.6963988650
C 3.9767571343 -0.3298865934 0.2609786943
C 5.3233022649 -0.3473410894 -0.0963851157
C 5.7193871340 0.0053317506 -1.3843433717
C 4.7610104458 0.3783748821 -2.3248828056
C 3.4110917857 0.3941369061 -1.9860825241
H 0.1901944277 -1.7134302983 -2.3225214783
H -0.2266307709 0.0186566722 -2.3801406410
H -1.2838213775 -1.1683330372 -3.1490916803
H -3.1392938739 -0.2771853844 -0.0149578199
H -3.3472541165 -0.5528824341 -1.7484051622
H -1.8166491279 1.7274227828 0.7794741380
H -1.2293682451 4.0805964873 0.3237554539
H -1.4078346711 4.9883687399 -1.9839710976
H -2.1968580832 3.5171861521 -3.8239441736
H -2.7826572007 1.1599467053 -3.3615967052
H -2.1355546248 -2.1179709716 1.4189391140
H -2.9599468575 -4.3736006920 1.9687488338
H -3.1889037313 -6.0901084487 0.1850089290
H -2.5856224441 -5.5126213741 -2.1543276064
H -1.7604982345 -3.2678010776 -2.7057444011
H -1.2212196558 -0.4341399664 3.2855230913
H -2.2089601188 1.6580601349 4.2159918380
H -1.0425590696 3.8267411342 3.8929199764
H 1.1152236085 3.8986705185 2.6686083515
H 2.1020654555 1.8047928865 1.7591586845
H 3.6683479388 -0.5924392315 1.2675167527
H 6.0638098761 -0.6346998642 0.6431922455
H 6.7703403026 -0.0083915519 -1.6534427044
H 5.0611319046 0.6560588946 -3.3302684177
H 2.6493584676 0.6783383056 -2.7043195798
