119
CONF252
C -6.3795520879 5.3669230417 1.0917488290
C -6.6640589931 3.9241575386 0.6759826986
C -6.1644977492 3.6608561174 -0.7466693691
C -8.1661335706 3.6057110311 0.7824269505
C -8.4122381561 2.1462504577 0.3786639744
O -7.8969720101 1.2467273004 1.0625732094
N -9.1718126460 1.8911627841 -0.7002290067
C -9.8692628531 2.8785025634 -1.5540201993
C -10.4456660423 2.0108445503 -2.6518885636
C -9.8895754489 2.0789878448 -4.0455835820
C -11.2823460331 2.5847276383 -3.7490784884
C -10.7258014535 0.6728516288 -2.0001291089
C -9.5191445757 0.4895043895 -1.0739459445
C -8.3651817965 -0.1933264058 -1.7488153183
N -8.3475115491 -0.7352738374 -2.9551972391
C -7.0761137351 -1.2219904365 -3.1145709898
C -6.3040616432 -0.9712554829 -1.9924471792
N -7.1580022205 -0.3140255053 -1.1319673720
C -4.9084825675 -1.2152168811 -1.6872413782
C -4.2453650520 -0.4787881603 -0.6844306244
C -2.9150415036 -0.7331780128 -0.4457091590
C -2.1898677472 -1.6904633981 -1.1694192012
C -2.8354689708 -2.4209460406 -2.1615197298
C -4.1835020580 -2.1832470946 -2.4042463278
C -0.8067073237 -1.7059892053 -0.6840671419
C -0.6723968182 -0.7583845946 0.3418963695
C -1.9996137676 -0.0705691954 0.5572279954
F -1.9175837164 1.2921626578 0.3549971166
F -2.4568300821 -0.2181277718 1.8491660376
C 0.5206669908 -0.5430410432 0.9934426177
C 1.6476077124 -1.3005410457 0.6218893216
C 1.5088278150 -2.2490137733 -0.4038991190
C 0.2988631665 -2.4581297167 -1.0607726557
C 2.9435842340 -1.1023365149 1.2968834123
C 4.1338171327 -1.1622192074 0.5650870115
C 5.3189243887 -0.9764574964 1.2617758039
C 5.3630745275 -0.7371446856 2.6555259296
C 4.1709709984 -0.6733202402 3.3778417203
C 2.9826312228 -0.8555502577 2.6898342491
N 6.6742494222 -0.5971359156 3.0728122921
C 7.3903170651 -0.7416467599 1.9781327455
N 6.6359073462 -0.9537264901 0.8528968332
C 8.8937508631 -0.6945002293 1.9748885556
C 9.4249126570 0.5744419649 2.6808066226
C 10.9612360822 0.4581851845 2.7970931019
C 11.4588938623 0.6822160738 1.3339248094
C 10.1319163621 0.8112041463 0.5665266850
C 9.2642841501 1.6021966139 1.5480029401
N 9.4808859719 -0.5225636471 0.6259526079
C 9.8288460335 -1.4906227121 -0.2625600244
O 10.5072022509 -1.2546889623 -1.2583180262
C 9.3333974966 -2.9209484811 0.0226582467
C 10.3910429112 -3.7169132022 0.8243005437
C 9.7904864059 -5.0160293026 1.3647977761
C 11.6788306037 -3.9817688423 0.0386137388
N 9.0243051068 -3.5925162595 -1.2302992833
C 8.0606261381 -3.0511394526 -2.0284959980
O 7.2304301216 -2.2249997569 -1.6721191599
O 8.1084881895 -3.5776658940 -3.2706123076
C 7.1141646098 -3.0655544098 -4.1800775963
N -8.6396059800 3.7838736162 2.1497288700
C -9.9789227468 3.9555853644 2.3682215907
O -10.8032000205 4.2333879798 1.5161899489
O -10.2611715014 3.8117192358 3.6897388853
C -11.6453149128 4.0214754994 4.0246741114
H -6.8824585631 6.0681667158 0.4154952761
H -6.7253530968 5.5723539219 2.1076075500
H -5.3051441269 5.5690387540 1.0466792869
H -6.1417453207 3.2379116173 1.3571664591
H -5.0888494277 3.8471891187 -0.8128428339
H -6.3429147987 2.6289580028 -1.0668874335
H -6.6613551956 4.3281817017 -1.4614431513
H -8.7324257976 4.3011908959 0.1577537464
H -10.6514522662 3.3837890053 -0.9715500518
H -9.1759778962 3.6276974174 -1.9495837623
H -9.1166587572 2.8141433700 -4.2481615452
H -9.7808140623 1.1417485442 -4.5792852018
H -12.1240093038 1.9968425321 -4.1015624137
H -11.4466650723 3.6581182744 -3.7537126325
H -11.6410515726 0.7260076442 -1.3990169503
H -10.8078493365 -0.1432728674 -2.7191602483
H -9.7677506526 -0.0487598058 -0.1511315389
H -6.7679083429 -1.6975550155 -4.0349716197
H -6.9994234407 0.0017180234 -0.1794176374
H -4.7597763314 0.2923545217 -0.1185713145
H -2.3070742683 -3.1759044717 -2.7350821762
H -4.6983434334 -2.7674879853 -3.1598758975
H 0.6006463231 0.2187348203 1.7622620473
H 2.3675268298 -2.8572588417 -0.6698954167
H 0.2269211388 -3.2084412467 -1.8419435286
H 4.1265477838 -1.3139169944 -0.5089716352
H 4.1825007086 -0.4998081332 4.4483693108
H 2.0469386582 -0.8448206565 3.2391752629
H 6.9737498116 -1.2053709344 -0.0749491315
H 9.2779277576 -1.5948716954 2.4716383085
H 8.8946722619 0.7700950718 3.6120570906
H 11.3467488112 1.2272644319 3.4720472797
H 11.2650657473 -0.5125991590 3.2018293798
H 12.0464162978 1.6009913610 1.2401963304
H 12.0615661870 -0.1426277202 0.9461898164
H 10.2055545175 1.1606216220 -0.4622313729
H 9.6992332691 2.5749959459 1.7907730722
H 8.2301399548 1.7293603353 1.2162947209
H 8.4139387426 -2.8930713059 0.6171930974
H 10.6566159409 -3.0811342992 1.6802009918
H 10.5299122983 -5.5603950554 1.9601476573
H 8.9197257982 -4.8202854808 1.9987455430
H 9.4712165819 -5.6670281267 0.5448476668
H 12.0595812587 -3.0767828563 -0.4418118858
H 11.5320144272 -4.7475353074 -0.7323623017
H 12.4473951396 -4.3674951999 0.7148520016
H 9.8101633830 -3.9767211617 -1.7346140273
H 7.3036103468 -3.5728023518 -5.1256879349
H 6.1091041078 -3.2938230452 -3.8161441917
H 7.2233192196 -1.9842575950 -4.2943623292
H -8.1368807915 3.2721620002 2.8623229681
H -11.7081092927 3.8629726258 5.1013289799
H -11.9532554335 5.0384659701 3.7676607418
H -12.2816385185 3.3083702379 3.4937999538
