40
CONF13
C 1.9063930427 1.5667523871 2.8472918261
N 2.7290072596 1.0885189516 1.7371709078
C 3.5996202333 0.0110716503 2.2025564560
C 1.8995743229 0.6068390893 0.6290953901
C 1.1381155917 1.7285112766 -0.0713401379
C 0.4210661395 1.2383485752 -1.3316522851
N -0.4592130198 0.0974968267 -1.0676831355
C -0.5562420870 -0.9395052145 -2.0151090924
C -0.2926238890 -0.7338085483 -3.3732491884
C -0.3540152237 -1.7937191592 -4.2734109685
C -0.7203585536 -3.0638197772 -3.8448319366
C -1.0306658397 -3.2718796702 -2.5037804677
C -0.9305844783 -2.2253534960 -1.5943402622
S -1.1943527792 -2.5126063994 0.1416464244
C -1.9373533728 -0.9510415504 0.5455926795
C -1.4634413614 0.2060440522 -0.0946890486
C -2.0156512762 1.4425537438 0.2566839040
C -2.9716554204 1.5042977534 1.2623270584
C -3.4383211434 0.3680646714 1.9073452458
C -2.9282672281 -0.8663517600 1.5162107521
Cl -3.6146782576 3.0747315983 1.7130162688
H 1.3196004210 2.4397914331 2.5493703755
H 2.5545795817 1.8728207666 3.6743988941
H 1.2075268715 0.7918278638 3.2221554022
H 3.0342752417 -0.8638178371 2.5813501623
H 4.2426650805 -0.3276205286 1.3835100295
H 4.2419305713 0.3775497665 3.0100387209
H 1.1877476731 -0.1726042637 0.9684273517
H 2.5637517402 0.1257043848 -0.1019447748
H 0.4241815579 2.1917913277 0.6145539287
H 1.8442869061 2.5117660220 -0.3712594408
H 1.1747388477 0.8850365185 -2.0413499679
H -0.1113389616 2.0717454191 -1.8190866167
H -0.0445425753 0.2584431987 -3.7322883900
H -0.1303506521 -1.6142218365 -5.3197833989
H -0.7776913490 -3.8878872720 -4.5473076879
H -1.3325944271 -4.2534411765 -2.1527921074
H -1.7087089560 2.3503307745 -0.2459841898
H -4.1870103115 0.4410768485 2.6861397473
H -3.2894003904 -1.7734362036 1.9897066500
