33
CONF23
C -3.4648560512 1.0194335131 -1.7372598688
C -2.5180485263 0.0921366871 -0.9448858282
C -3.0638493627 -1.3238491718 -1.0136589027
O -4.0870079895 -1.4875520362 -0.1488585861
O -2.6804132254 -2.2025279573 -1.7562763174
C -1.0868776029 0.1635434696 -1.4228092816
C -0.7540145800 0.0023379243 -2.7708656903
C 0.5708582066 0.0960034715 -3.1913766719
C 1.5795114527 0.3594937600 -2.2742697037
C 1.2669596436 0.4990396214 -0.9179142063
C -0.0662842328 0.3966375362 -0.5030377602
C 2.3595299043 0.8253977475 0.0401944016
O 3.3229269856 1.4974700000 -0.3244911451
C 2.2779372896 0.3271199575 1.4410300402
C 1.6705572665 -0.8957542855 1.7533924583
C 1.6835843973 -1.3671001100 3.0621528669
C 2.2793817165 -0.6121609034 4.0699377245
C 2.8816426906 0.6095389279 3.7658644665
C 2.8937673967 1.0703615001 2.4564477760
H -3.5308998731 0.7142128622 -2.7848380929
H -3.0835302278 2.0427042611 -1.6951075775
H -4.4682820541 0.9998898389 -1.3053462819
H -2.5513249958 0.3958080290 0.1064238639
H -4.4401616327 -2.3872175588 -0.2599271441
H -1.5315724910 -0.1973701515 -3.5004325694
H 0.8129945083 -0.0348483385 -4.2413068171
H 2.6128111581 0.4454375616 -2.5935881653
H -0.3161656498 0.5303179882 0.5452915347
H 1.2147715738 -1.4913217300 0.9692826754
H 1.2277647802 -2.3239755363 3.2955089288
H 2.2780816473 -0.9759928929 5.0926731449
H 3.3429127811 1.1986309553 4.5521620510
H 3.3672952976 2.0141551657 2.2066101761
