48
CONF831
C -2.4991677968 1.6296322468 -1.7895098375
C -1.0459690413 1.6294024748 -2.2565679107
C -0.0560094751 1.5749781184 -1.0913762897
C 1.4011689429 1.6834498911 -1.5536028319
O 1.7416327237 2.0937058495 -2.6422289214
O 2.2382382517 1.3640626018 -0.5571238565
C 3.6712163529 1.5060937529 -0.8083721736
C 4.2470025235 0.2737290780 -1.4794229262
C 3.9605541355 -1.0322111357 -0.7199721752
C 4.4492922545 -1.0129945267 0.6948016364
C 3.6723026304 -1.1690762605 1.7658604150
N -0.2652629660 0.4130078549 -0.2108901226
C -0.3469996582 0.6675754449 1.2504974383
C -1.6114176013 1.3086035116 1.6913573667
C -2.7211783168 0.8592925522 2.3419080428
C -3.5945542577 1.9810870631 2.4924441532
C -2.9577981475 3.0408552581 1.9291576047
O -1.7405662136 2.6541224355 1.4424823543
C 0.0179026475 -0.7959828039 -0.7523536820
O 0.5588364455 -0.9575620250 -1.8396080496
N -0.3840096568 -1.9384353074 0.0108353852
C -1.5842646750 -2.1521625054 0.6733724721
C -1.5143424953 -3.4321294638 1.1438592461
N -0.3062347199 -4.0146137393 0.7969006307
C 0.3398949012 -3.1031841332 0.1070442823
H -3.1717825864 1.6969382637 -2.6491980538
H -2.7444995019 0.7134838306 -1.2424018068
H -2.7025347682 2.4803834836 -1.1308718910
H -0.8583405280 0.7936197533 -2.9363208032
H -0.8304912446 2.5459048460 -2.8136831532
H -0.2224045290 2.4604705427 -0.4658060133
H 4.0933088379 1.6468673895 0.1891716852
H 3.8373164516 2.4039061075 -1.4088738622
H 3.8610769726 0.1916851698 -2.5010763185
H 5.3303660622 0.4334047221 -1.5557748765
H 4.4512177299 -1.8499654160 -1.2644203444
H 2.8855143508 -1.2345203298 -0.7347913395
H 5.5195745265 -0.8467256768 0.8312479292
H 4.0778922203 -1.1472079556 2.7731952869
H 2.5997652319 -1.3275381110 1.6626740174
H -0.2261862563 -0.2749137711 1.7845414057
H 0.5059499257 1.3058058883 1.5129285425
H -2.8936086751 -0.1497637550 2.6863949612
H -4.5658519720 1.9945005485 2.9643373162
H -3.2073179369 4.0827282791 1.8002916144
H -2.3610613497 -1.4044147813 0.6982761800
H -2.2669940194 -3.9720273708 1.7013693892
H 1.3243470050 -3.1977043532 -0.3315349081
