24
CONF83
C 2.1815612997 1.1264588016 -0.0247876722
C 1.5507642404 -0.1960279016 0.3975598884
C 0.2400284156 -0.5012873563 -0.3287785733
C -0.9430754499 0.3366172396 0.1780736323
C -2.1231115467 0.2754822373 -0.8037816731
C -2.5964247781 -1.1364553917 -1.0900663702
O -2.7312522209 -1.5226336225 -2.2318857577
O -1.7761317912 0.9342055020 -1.9964989356
O -1.4224604069 -0.1540798415 1.4274788054
O -0.0878293403 -1.8859612823 -0.2481147915
O 1.3104215157 -0.1822329361 1.8135812246
O 3.3350363902 1.4008894503 0.7828183943
H 2.4311579085 1.1070887164 -1.0946277720
H 1.4942273977 1.9590451254 0.1550098200
H 2.2493969823 -1.0158327698 0.1561414619
H 0.3835085842 -0.2829201454 -1.3943800791
H -0.6484572507 1.3943591260 0.2538657722
H -2.9704874849 0.7788139213 -0.3004526761
H -2.8775169772 -1.7544727675 -0.2183073462
H -2.0217537542 0.3191902016 -2.7106774558
H -0.6886553847 -0.0479682127 2.0523886084
H -0.4182337852 -2.0329145199 0.6505108934
H 2.0772437551 0.2532495515 2.2130545434
H 4.0520438615 0.8273870650 0.4875694399
