48
CONF87
C -4.8163978082 2.1053305153 3.7973025124
O -3.7890693327 1.7907311661 2.8366931866
N -3.7413259338 0.4274842833 2.6598669799
C -2.8706778885 0.0288868559 1.7950647072
C -2.8917733622 -1.4152704507 1.4847218255
C -4.1081341876 -2.1050308575 1.3802018029
C -4.1339250222 -3.4665081717 1.1122446860
C -2.9418033364 -4.1699114832 0.9432499937
C -1.7229188486 -3.5092142712 1.0458167879
C -1.7160840094 -2.1479952613 1.3065102594
O -0.5070732642 -1.4844437884 1.5439926114
C 0.3759056013 -1.3261162281 0.5358839576
C 1.5574450796 -0.6594899353 0.8421358569
C 2.4654185974 -0.4713202790 -0.1920339326
N 2.2232688767 -0.9070090215 -1.4240989002
C 1.0589452813 -1.5298107867 -1.6109927927
N 0.1194800948 -1.7618612043 -0.6938324328
O 3.6221264787 0.1614972389 0.1097771045
C 4.4670711280 0.5021511403 -0.9452950239
C 5.6216796218 -0.2387276671 -1.1435925183
C 6.5172573678 0.1407842001 -2.1385488577
C 6.2514706759 1.2569346049 -2.9272205441
C 5.0941508719 2.0037259186 -2.7252679876
C 4.2041132025 1.6243004074 -1.7279418946
Cl 2.7508215518 2.5545868369 -1.4460345969
F 1.8068705572 -0.2120004250 2.0799801625
C -1.9585527958 0.9250474439 1.0335385629
N -1.1561354563 1.6971097058 1.6755457171
O -0.3564737854 2.5633087120 0.8974140868
C -0.9342121767 2.8567165776 -0.3867001509
C -1.2022248567 1.5660035999 -1.1128729409
O -2.1051815503 0.7669643272 -0.3025743855
H -4.5847352619 1.6530059589 4.7662830041
H -4.8039372243 3.1932857358 3.8775712435
H -5.7929631687 1.7630750423 3.4410310520
H -5.0311131355 -1.5488120746 1.5000197600
H -5.0856155415 -3.9804494238 1.0283067088
H -2.9579297709 -5.2346194646 0.7354829764
H -0.7830948010 -4.0390447074 0.9380143233
H 0.8529932260 -1.8841386955 -2.6191111849
H 5.8015936453 -1.1045170222 -0.5152301494
H 7.4208713131 -0.4379984731 -2.2954823127
H 6.9466955738 1.5562658676 -3.7041242306
H 4.8816355424 2.8773462844 -3.3310580182
H -0.2012622509 3.4697570670 -0.9154017944
H -1.8639988217 3.4245137569 -0.2456311723
H -1.7076177194 1.7214290830 -2.0679408086
H -0.2755820665 1.0040465687 -1.2669372080
