51
CONF56
C 2.2643456025 1.8635122765 -2.2240766654
C 1.9272765707 1.9317126996 -0.7473801651
C 2.4748999711 3.1620021982 -0.0568133474
O 2.5507868007 0.7853046049 -0.0628685117
C 1.8996035829 -0.3789671295 -0.0231698084
N 2.5666751207 -1.3517415703 0.6050742608
C 1.9085242950 -2.5152595595 0.6822990429
C 0.6484228656 -2.7436980589 0.1821351386
C 0.0605722860 -1.6345877185 -0.4546890545
N 0.6853270896 -0.4722370236 -0.5746043008
O -1.1682750415 -1.8078481682 -0.9432261067
C -1.8888781726 -0.6766970336 -1.5516815157
C -3.1596473131 -0.4600345251 -0.7868545766
C -4.3100571512 -1.1558007391 -1.1675806234
C -5.5033107478 -1.0024076838 -0.4700291892
C -5.5551344839 -0.1406747844 0.6224486179
C -4.4160581310 0.5600377062 1.0076336146
C -3.2111219773 0.4088561555 0.3164703713
C -2.0214564193 1.1826539446 0.7634578382
C -1.7608272780 2.4157504086 0.2730602079
O -2.5404052301 2.9619442625 -0.6630178397
C -2.1286398526 4.2739378905 -1.1224261699
C -1.1510325957 0.5764584330 1.7696213593
O -1.3422577612 -0.5291972273 2.2575775070
O -0.0937584725 1.3520038884 2.1107568091
C 0.7881700766 0.7983467829 3.1131557904
C 2.6735416707 -3.6061804338 1.4031501569
F 2.9465768434 -3.2504296365 2.6803469203
F 3.8578729415 -3.8566231333 0.7989298907
F 1.9876157563 -4.7659604020 1.4454336172
H 3.3481689864 1.9119701697 -2.3696683982
H 1.8058371792 2.7127545013 -2.7398008893
H 1.8837061195 0.9418336073 -2.6725981754
H 0.8478597616 1.8581341733 -0.5959905230
H 3.5628863548 3.2157505103 -0.1634757327
H 2.0369179556 4.0539088499 -0.5141452235
H 2.2186066912 3.1551355072 1.0062498592
H 0.1307801435 -3.6887034454 0.2666392869
H -1.2468899249 0.2035276179 -1.5505270381
H -2.0965360228 -0.9884345730 -2.5776048639
H -6.3884777508 -1.5487010933 -0.7799843374
H -6.4818930973 -0.0090761813 1.1721488683
H -0.9127537249 3.0066212830 0.6141078350
H -2.1386326993 4.9821301180 -0.2889796396
H -1.1298641632 4.2165979652 -1.5651286918
H -2.8575892093 4.5692748981 -1.8758938200
H 1.1889025296 -0.1639658507 2.7838546453
H 1.5913407601 1.5265075426 3.2236350253
H 0.2550061027 0.6689011270 4.0586056329
H -4.4544872310 1.2372972420 1.8557910510
H -4.2640201667 -1.8219308136 -2.0249164100
