29
CONF4
C -1.6715600101 1.9706575744 3.5782424481
C -0.3287833974 2.3256148273 2.9449983350
N 0.1185367027 1.3312726813 1.9732564207
C -0.3042715991 1.2685775939 0.7008415583
N 0.1368414803 0.2315957069 -0.0425639317
C -0.2796361778 0.2415239365 -1.3051386676
N -1.0922831980 1.1767448076 -1.8726913784
C -1.4488532897 2.1092217861 -1.0159081148
N -1.1277910796 2.2512451196 0.2539043074
Cl -2.5189720536 3.3561910074 -1.6630064660
N 0.1165404807 -0.7531421863 -2.1385541789
C 1.0452328873 -1.8303358502 -1.7995355475
C 1.3886888467 -2.5681055666 -3.1044107181
C 0.4433825065 -2.8116696550 -0.7796834174
C 2.3033673710 -1.2718919654 -1.2579785272
N 3.3244123613 -0.8925000152 -0.8728984476
H -2.4519270497 1.9174469510 2.8142308332
H -1.6187826985 1.0067955770 4.0936121324
H -1.9547983980 2.7361414346 4.3071978373
H 0.4502685916 2.3963161449 3.7103730048
H -0.3898561391 3.2941999512 2.4418452890
H 0.6913930427 0.5616492948 2.2834584785
H -0.1267479426 -0.6312365636 -3.1097270041
H 0.4708798193 -2.9903678905 -3.5241823347
H 2.0862480760 -3.3806740265 -2.8953397984
H 1.8453376287 -1.8891324872 -3.8294704400
H 0.1861913332 -2.2982230999 0.1465900919
H 1.1640439978 -3.6046435867 -0.5641426727
H -0.4571012774 -3.2532716021 -1.2150192088
