41
CONF132
C -4.8850280920 1.4889233440 1.3802615310
C -4.1590851167 0.5106147545 2.3054119283
N -3.3334952216 -0.4741178386 1.6067992725
C -3.9381162722 -1.7610229392 1.2892208971
C -4.4694694653 -1.8403089504 -0.1422151098
O -4.8569713566 -3.1976954348 -0.3457197922
C -2.0806854917 -0.1488108004 1.1504210435
C -1.2786701178 -1.0985965214 0.4585885208
C -0.0083187108 -0.7893270720 0.0336984625
C 0.5371364327 0.4881207066 0.2636215549
C -0.2502979826 1.4348703947 0.9344271670
C -1.5255230296 1.1366453247 1.3646039361
N 1.8030693230 0.9089080560 -0.1231302913
N 2.5026295105 0.0484079930 -0.7360055398
C 3.7801480621 0.5063505130 -1.1065197820
C 4.5752832176 -0.4216162836 -1.7945766301
C 5.8526513344 -0.0861375091 -2.2093698525
C 6.3296633736 1.1899829671 -1.9288854119
C 5.5596942965 2.1319455366 -1.2459652520
C 4.2860180002 1.7905348641 -0.8350540285
N 7.6847229422 1.5567922243 -2.3641729336
O 8.3413141802 0.7087078536 -2.9607889275
O 8.0792082246 2.6900801459 -2.1054578256
H -5.4298317495 2.2315868488 1.9716181416
H -5.6062439059 0.9663659248 0.7461413314
H -4.1815083912 2.0158846016 0.7299555372
H -4.8896419981 -0.0428206814 2.9036521422
H -3.5319717257 1.0544041229 3.0207096156
H -4.7613953358 -1.9387046479 1.9870460902
H -3.2205172198 -2.5747742066 1.4452109467
H -5.3232767241 -1.1566123116 -0.2621508260
H -3.6834238710 -1.5317916602 -0.8474441446
H -5.2058722065 -3.2874442044 -1.2381710230
H -1.6595630680 -2.0916853604 0.2566911108
H 0.5882395797 -1.5300117799 -0.4859563901
H 0.1689207258 2.4214015900 1.1045028755
H -2.0951392156 1.9084504605 1.8644227475
H 4.1643247161 -1.4057354582 -1.9919451536
H 6.4816807060 -0.7882550677 -2.7415171498
H 5.9736453972 3.1131643242 -1.0496607649
H 3.6656972457 2.5004846756 -0.3022985264
