47
CONF29
C 5.6606739816 2.1897984957 -1.1336791270
C 4.1999650122 1.8199619079 -1.3744176325
C 3.6663084025 0.8030686419 -0.4192375935
N 4.3902549546 0.2973927697 0.5877485940
N 3.5919195774 -0.5602990374 1.2434153671
C 4.1176916736 -1.2807086126 2.3982586284
C 2.3529732819 -0.6499966989 0.6845297148
C 1.2805173875 -1.4852536518 1.2748279549
O 1.2184257154 -1.6731678798 2.4943706094
N 0.4066554683 -2.0035744431 0.3831113621
C -0.7964054966 -2.7320660547 0.7691231383
C -2.0482595290 -2.0562316961 0.2618269666
C -3.0062460475 -2.7659304231 -0.4549006734
C -4.1735255980 -2.1442712383 -0.9022277072
C -4.4159460171 -0.7917244610 -0.6539468069
C -3.4388629949 -0.0845947543 0.0655789992
C -2.2800565791 -0.7008908473 0.5155228973
C -5.6798139655 -0.0706680019 -1.1273187849
C -6.6262647348 -0.9975969936 -1.8990345191
C -5.2836278595 1.0963408060 -2.0519678228
C -6.4354855096 0.4826134045 0.0965669036
C 2.3865669822 0.2274868466 -0.3979073080
Cl 1.1017071273 0.6157780270 -1.4949877714
H 6.3092811476 1.3139507056 -1.2250749990
H 5.9822230065 2.9335411679 -1.8674838582
H 5.8019074195 2.6099395985 -0.1340275727
H 3.5697702560 2.7168959233 -1.3125728470
H 4.0699923405 1.4380823716 -2.3951363068
H 5.2049020468 -1.2107372626 2.3523254341
H 3.8090190533 -2.3263069129 2.3577207832
H 3.7528201208 -0.8361607848 3.3275235699
H 0.5474404679 -1.8241736692 -0.6004247710
H -0.7995461538 -2.7816017570 1.8624075737
H -2.8451469309 -3.8192324606 -0.6704501512
H -4.8916550249 -2.7367781085 -1.4569269794
H -3.5842850693 0.9692120184 0.2824580214
H -1.5428669430 -0.1232944860 1.0677692201
H -6.1518199928 -1.4019378653 -2.7993341910
H -7.5083208058 -0.4297615089 -2.2114611225
H -6.9678773582 -1.8337672193 -1.2799217871
H -4.6443473594 1.8188688377 -1.5364955781
H -4.7440408638 0.7256130945 -2.9299964175
H -6.1818930491 1.6218115872 -2.3946084035
H -7.3463866672 0.9969020106 -0.2293078281
H -5.8256883001 1.1969348717 0.6574629613
H -6.7210672135 -0.3298157562 0.7732746004
H -0.7471294417 -3.7586657637 0.3881258576
