126
CONF44
C -4.3905544154 3.4765920251 2.2600430130
C -3.9102927272 2.9234421924 0.9158723571
C -3.0633784504 1.6556701909 1.1175285336
C -3.9491660520 0.4294444612 1.3910692067
C -4.3592861167 -0.2542736366 0.0904620956
C -5.5637383923 -1.1829293503 0.2124699796
C -5.8226454120 -1.8377228164 -1.1417637209
C -4.5807069102 -2.5966098929 -1.6161090607
C -3.3741928288 -1.6414368301 -1.6372475621
O -3.2136271418 -0.9903882025 -0.3738511501
C -2.0322069129 -2.4069938400 -1.7472413301
O -1.2917538612 -2.2661748925 -2.6978115088
C -1.7156373177 -3.4574322439 -0.6749636621
O -2.2466293180 -4.5578484930 -0.8513220748
N -0.8769363222 -3.1429132318 0.3297736552
C -0.4191818759 -4.2082116661 1.2409012872
C -0.1761375720 -3.6637097887 2.6422218603
C 0.7705124404 -2.4665393837 2.5998200656
C 0.1639243081 -1.3747884690 1.7234579751
C -0.1335451110 -1.8872970526 0.3056556251
C 1.1314189892 -2.0504092104 -0.5431571491
O 1.5128154024 -3.0905715061 -1.0307149671
O 1.7253518528 -0.8577939173 -0.7054193450
C 2.8413890650 -0.8062569108 -1.6394489353
C 2.8390951070 0.5913129082 -2.2765904285
C 1.5402506754 0.9228884090 -3.0421018625
C 0.3409118158 1.3396026726 -2.1579790849
C -0.7529482473 1.9020781898 -3.0274578702
O -1.4599558345 1.1484407629 -3.6958616555
C -0.9780652038 3.4029860525 -3.0423276623
C -1.4994520960 3.7409880731 -1.6661851065
C -2.7769714323 3.6646937318 -1.2633533940
C -3.1475909002 4.0219366810 0.1513477856
C -3.9074265934 3.2473418772 -2.1595651311
C 0.2967243530 4.2078133424 -3.3801990054
C -0.0033584639 5.6727912377 -3.4558095128
C 0.5670908224 6.6042213589 -2.6945564228
O 1.2130475598 -0.2019289593 -3.8582520703
C 3.2291406698 1.6964148848 -1.2966917586
C 4.1522691251 -1.1442115603 -0.9686239298
C 4.2479084227 -1.2880372018 0.3571565489
C 5.4756440945 -1.5932634587 1.1589048166
C 5.2133592314 -2.7351303792 2.1545159982
C 6.4385133973 -3.0103385436 3.0266822163
C 6.8719116183 -1.7553893324 3.7675637537
C 7.1561549432 -0.6262992739 2.7862820993
C 5.9296374805 -0.3339509675 1.9246318863
O 7.5506884786 0.5021785930 3.5807288869
C 8.2578168671 1.4992059499 2.8455947793
O 8.0386521004 -2.0663877122 4.5401461123
C 5.2969970323 -1.2679505272 -1.9363103642
O -3.5203016260 -0.7383975504 -2.6866653585
C -4.7954488025 -3.2830803983 -2.9613248381
O -6.6545552177 -0.3637544868 0.6368957245
C -7.7799080261 -1.1106804769 1.0962489542
O -3.3194890503 -0.5509969362 2.2226743979
C -3.3952315952 -0.2233126075 3.6065309305
H -5.0700913518 4.3229267485 2.1162160272
H -3.5359830155 3.8233203928 2.8534961840
H -4.9191852228 2.7178990677 2.8463089870
H -4.7970586344 2.6565730406 0.3223174396
H -2.3807402329 1.8166820650 1.9609810862
H -2.4387789679 1.4568352580 0.2368836166
H -4.8805681420 0.7557526968 1.8764038310
H -4.6147993390 0.5292635064 -0.6390633963
H -5.3533897647 -1.9522801483 0.9747962109
H -6.6553586932 -2.5464873339 -1.0774614486
H -6.0978940106 -1.0600460271 -1.8657958307
H -4.3507010034 -3.3578582543 -0.8634665201
H 0.5068079985 -4.6390758420 0.8368162809
H -1.1846307514 -4.9862067983 1.2411212028
H 0.2364670878 -4.4713641620 3.2555011124
H -1.1314202568 -3.3610110383 3.0902812966
H 1.7453641621 -2.7781507839 2.1981941319
H 0.9460316269 -2.0757104939 3.6073090276
H -0.7853762682 -1.0381483725 2.1555418592
H 0.8223586651 -0.5057603123 1.6418697976
H -0.7517307277 -1.1289445393 -0.1898056217
H 2.6447150782 -1.5456328686 -2.4218976675
H 3.6107859007 0.5384208707 -3.0558666607
H 1.7919703372 1.7805976680 -3.6872364129
H 0.6631694472 2.0738990561 -1.4176768740
H -0.0484305385 0.4590968965 -1.6437272210
H -1.7343853449 3.5995139720 -3.8081812467
H -0.7403206464 4.0286977820 -0.9389673833
H -2.2466071471 4.2928360064 0.7161447249
H -3.7921593492 4.9131380619 0.1219734915
H -4.8226785331 3.7937255294 -1.9085457270
H -4.1261223143 2.1790892176 -2.0335262002
H -3.6834783705 3.4031630971 -3.2168803950
H 0.6799109667 3.8618171441 -4.3493564881
H 1.0734647463 4.0264869773 -2.6286924606
H -0.7532289515 5.9653701773 -4.1918669777
H 1.3139312578 6.3428794299 -1.9480672357
H 0.3089037284 7.6541552747 -2.7954259219
H 0.2987654404 -0.1001354749 -4.1625489328
H 4.2719046527 1.5827071349 -0.9892718355
H 3.1180342064 2.6811689673 -1.7625534859
H 2.6115192631 1.6716057949 -0.3936882638
H 3.3483925212 -1.1473424014 0.9565724267
H 6.2972140521 -1.8972048178 0.4984052017
H 4.3604535455 -2.4580469640 2.7904187191
H 4.9260173963 -3.6421827848 1.6113254130
H 7.2744111659 -3.3546078745 2.4029312977
H 6.2265331467 -3.8019264210 3.7537778842
H 6.0589499358 -1.4249449772 4.4377455071
H 8.0032928305 -0.9272568055 2.1448527215
H 5.1138383467 0.0140118460 2.5736428543
H 6.1480319703 0.4677754065 1.2110283772
H 8.5816153761 2.2547292969 3.5651371558
H 9.1401782672 1.0701964226 2.3493130273
H 7.6215183623 1.9786450617 2.0901002466
H 8.3742437538 -1.2223895332 4.8730030683
H 6.1209387219 -1.8525298180 -1.5244507470
H 4.9683662246 -1.7460443669 -2.8659403185
H 5.6933504889 -0.2807017004 -2.2064478249
H -2.6632991463 -0.3163847776 -2.8819912899
H -5.5979592314 -4.0218575878 -2.8747184648
H -3.8915553078 -3.8052319843 -3.2919680207
H -5.0741930658 -2.5568681139 -3.7294130464
H -7.4856223893 -1.8193826256 1.8836984394
H -8.4902990044 -0.3899231262 1.5074488242
H -8.2672167344 -1.6636847961 0.2826156583
H -2.8769179355 -1.0167361446 4.1508973767
H -4.4414696480 -0.1746607846 3.9430163131
H -2.9087077200 0.7371077240 3.8301391542
