44
CONF10
C -3.1267164443 -0.6552674592 3.2226487968
C -2.6326213495 0.3890832757 2.2401728180
C -1.7013248776 1.4100957642 2.8594831910
O -1.8440422776 -0.2770301632 1.1910312491
C -2.5061186977 -0.7720669211 0.1378619470
O -3.7123786690 -0.7942978139 0.0164278644
C -1.5345555713 -1.4173955151 -0.8566742612
C -2.1929990724 -1.7256457723 -2.1934903810
N -0.3069925272 -0.6091193799 -0.9969850814
C 0.9085973995 -1.1306598891 -0.4692580428
C 1.4228292931 -2.3180342356 -0.9906253952
C 2.5960479016 -2.8419218225 -0.4659030202
C 3.2539903096 -2.1709839220 0.5609061232
C 2.7461087622 -0.9953813282 1.0857704669
C 1.5600129331 -0.4803677702 0.5791057504
F 4.3973179930 -2.6761456841 1.0599399401
Cl 3.2631288984 -4.3246057510 -1.0974829171
C -0.4672323333 0.7148163615 -1.3285292114
O -1.5915525312 1.2167383624 -1.3982268878
C 0.7497924867 1.5147015728 -1.6535300668
C 1.7742579435 1.0074571189 -2.4582068866
C 2.8507651330 1.8170771606 -2.8034613344
C 2.9201392571 3.1272862829 -2.3330058034
C 1.8972296108 3.6359121052 -1.5341990651
C 0.8071530536 2.8374681013 -1.2072731745
H -3.7625300994 -1.3914757778 2.7245798244
H -2.2793334420 -1.1687499796 3.6880674548
H -3.7118056304 -0.1689004454 4.0091288262
H -3.4755118164 0.8826812743 1.7466614045
H -0.8388736161 0.9160040874 3.3182907763
H -1.3459461364 2.1179406363 2.1052010747
H -2.2348410992 1.9666628079 3.6354318345
H -1.2249552215 -2.3569394416 -0.3829664124
H -1.4792292695 -2.2432637608 -2.8391729032
H -2.5273437872 -0.8106555247 -2.6857853230
H -3.0582360983 -2.3727267155 -2.0357088672
H 0.9232292784 -2.8239399990 -1.8096202840
H 3.2737705772 -0.5059710378 1.8971072429
H 1.1386375834 0.4266241916 0.9974788316
H 1.7223186823 -0.0119490191 -2.8262898234
H 3.6370716721 1.4247634000 -3.4404440920
H 3.7673567803 3.7534490146 -2.5943887707
H 1.9470274415 4.6572571020 -1.1704469256
H -0.0016441217 3.2274765091 -0.5977518883
