48
CONF11
C -3.6001181862 1.9442518308 1.4506505613
Si -2.1723596908 0.7935430040 1.2177303178
O -2.0071491884 -0.0786689237 2.6044106611
O -2.4525196828 -0.1897570801 -0.0713462121
Si -1.8134023652 -1.6431242936 -0.5246917522
C -1.1978870364 -1.4995322156 -2.2751954509
C -3.1130018415 -2.9587553932 -0.3234444783
O -0.5864374565 -1.9891821314 0.5285948052
Si 1.0501062645 -2.0289720025 0.7159876340
C 1.4347987650 -1.2192315548 2.3533895785
C 1.6120999385 -3.8011799666 0.6449821485
O 1.7861355705 -1.2270245323 -0.5137480512
Si 2.2391496621 0.2723908355 -1.0189782456
C 3.4788995941 0.9913719491 0.1784197312
C 2.9319915660 0.0882443173 -2.7341819100
O 0.9120708264 1.2367975635 -1.1126797605
Si -0.0399039430 2.3399584577 -0.3495860770
C 0.9966294850 3.7385311184 0.3136237101
C -1.3058349464 2.9067744716 -1.5936475150
O -0.7806731187 1.6266295428 0.9391794423
H -3.7824534992 2.5231961219 0.5402313095
H -3.4040691187 2.6437857643 2.2686627995
H -4.5115679745 1.3876313572 1.6872446597
H -1.3956894326 -0.8213759507 2.5568719423
H -2.0399183351 -1.3608959871 -2.9621615920
H -0.5309085805 -0.6380448839 -2.3774410052
H -0.6520366508 -2.3966673287 -2.5856905618
H -2.7324257775 -3.9428173093 -0.6164266823
H -3.4353987211 -3.0172880268 0.7215087306
H -3.9935170175 -2.7383462298 -0.9354862292
H 0.9790842953 -1.7706491349 3.1838858478
H 1.0562407736 -0.1907301590 2.3842539142
H 2.5145218866 -1.1894264002 2.5341588889
H 1.3828749458 -4.2359746333 -0.3337515957
H 1.1105799272 -4.4049707927 1.4080830919
H 2.6925851335 -3.8816203068 0.8020510823
H 4.3563792966 0.3414290069 0.2643285360
H 3.8215113856 1.9772017708 -0.1536505892
H 3.0481922444 1.1048043435 1.1786162117
H 3.7975903953 -0.5818206932 -2.7410770405
H 2.1764057400 -0.3313297090 -3.4066205177
H 3.2453120120 1.0552656784 -3.1405394731
H 0.3607245997 4.5112939268 0.7581544073
H 1.5914796880 4.2043609412 -0.4789750152
H 1.6820820572 3.3866883954 1.0912154909
H -1.9704431995 3.6685107825 -1.1728392272
H -0.8199330548 3.3336688628 -2.4770950756
H -1.9197969600 2.0610558083 -1.9225414428
