82
CONF57
C -2.8502614413 3.1131816064 -0.6869166541
C -2.1192665333 2.4128629904 0.4248930870
C -1.0874177895 2.9966850311 1.0475116550
C -2.6266803781 1.0624384836 0.8729210915
C -3.9340202264 1.1737458443 1.6825609581
C -4.3517556462 -0.2853591510 1.8340132007
C -4.0338747991 -0.9437900382 0.4665888490
C -3.0123163596 0.0289169615 -0.2226954557
C -1.9138324050 -0.7090311543 -1.0286640800
C -0.9976154786 0.2624231430 -1.7761675734
C 0.2078089430 -0.4700987581 -2.3474492118
C 1.1509586384 -1.0009749635 -1.2447281233
C 2.3619822893 0.0204864773 -1.0123589609
C 1.9816771774 1.5204790726 -1.0854175141
C 3.1860666290 2.4466059806 -0.8725330981
C 3.8928842851 2.2347626829 0.4609123708
C 4.2241170743 0.7401473543 0.7232315687
C 3.0173258573 -0.2040053569 0.3790411571
C 1.9504494133 -0.1358771774 1.5073040295
C 0.5024323630 -0.4351716523 1.1058080713
C 0.3803938783 -1.5158170970 0.0319712425
C -1.1311043246 -1.8751918797 -0.3048881383
C -1.9402548413 -2.2864235928 0.9504754880
C -3.4394966387 -2.3479442050 0.6522943717
C -1.1404630259 -3.1181485742 -1.2402303498
C 1.0778142522 -2.7871517499 0.5637343675
C 5.4894813073 0.4007339343 -0.0948679194
C 4.6443081356 0.5399734262 2.1929231665
O 3.0437698040 2.8406750421 1.4614205763
C 3.3143767775 -0.3186636941 -2.1830707618
C -5.3475968676 -1.0239677665 -0.3214734775
O -5.2081111619 -1.4927980265 -1.6711868842
H -2.4998224078 4.1425178277 -0.7959844852
H -3.9311694343 3.1305570793 -0.5060254752
H -2.7013782815 2.5979775380 -1.6422742326
H -0.5556053809 2.4947666220 1.8522922283
H -0.7455615928 3.9900646472 0.7683323938
H -1.8811168948 0.6254684752 1.5442400630
H -3.7829881071 1.6885346962 2.6366970455
H -4.6846913275 1.7329461784 1.1103834918
H -3.7499758114 -0.7563067035 2.6203482847
H -5.4051012487 -0.4110704081 2.1123684955
H -3.5709505666 0.6079720266 -0.9749701692
H -2.4857300513 -1.2235280795 -1.8115709450
H -1.5686347543 0.7392219369 -2.5831397320
H -0.6641958631 1.0679156956 -1.1180912280
H 0.7579102104 0.1840642763 -3.0293175532
H -0.1516152471 -1.2959429180 -2.9713689456
H 1.6463365799 -1.8901512096 -1.6543214089
H 1.2307221760 1.7601767374 -0.3259926246
H 1.5364436376 1.7638663016 -2.0554564005
H 3.9125364573 2.3304663298 -1.6822626510
H 2.8539136744 3.4906209663 -0.9146219272
H 4.8505695720 2.7823599743 0.4508172670
H 3.4437182502 -1.2167525255 0.3678391257
H 2.2533084087 -0.8252553892 2.3027691333
H 1.9603633257 0.8613596773 1.9503457246
H 0.0281281240 0.4791820250 0.7472917203
H -0.0355461549 -0.7252874609 2.0148359617
H -1.5958807764 -3.2614523214 1.3107424776
H -1.7861494393 -1.5807229716 1.7731349361
H -3.6193303521 -2.9505275027 -0.2445512466
H -3.9702549893 -2.8452679060 1.4745329218
H -0.3950608851 -3.0493485225 -2.0350566953
H -2.1159841540 -3.2404302468 -1.7188464589
H -0.9372922622 -4.0337092450 -0.6775034224
H 1.1072778662 -3.5784185269 -0.1886648456
H 0.5658048597 -3.1743230223 1.4510695397
H 2.1099743219 -2.5820359414 0.8491546495
H 5.6538276627 -0.6816280597 -0.1104995864
H 6.3629246574 0.8676106593 0.3732598703
H 5.4512270272 0.7500779273 -1.1253943474
H 3.8511126942 0.7504820000 2.9127423953
H 5.4976591953 1.1879055530 2.4269627280
H 4.9626397033 -0.4975132963 2.3485824301
H 3.5006986204 2.7879601723 2.3093624397
H 3.8564922274 -1.2484950675 -1.9790183085
H 4.0467674881 0.4563132940 -2.4019711136
H 2.7356508720 -0.4683570187 -3.1002163726
H -6.0161766565 -1.7411555546 0.1706670268
H -5.8398282232 -0.0387975087 -0.3125723954
H -4.7777474467 -0.7976140913 -2.1840360077
