65
CONF69
C 5.2907385364 -3.9874896302 5.9763785237
O 3.9405195996 -3.8087033044 5.5670168136
C 3.7119463007 -3.5699217199 4.2407150943
C 4.7057699828 -3.4923798501 3.2653212144
C 4.3434211498 -3.2465287614 1.9406956791
C 3.0154555840 -3.0753819609 1.5600274581
C 2.0369490078 -3.1583573800 2.5573419360
C 2.3720252928 -3.4031783402 3.8780105084
C 2.6524257448 -2.7557124513 0.1355303778
C 2.5766622710 -1.2433440686 -0.1308029119
N 1.5428134228 -0.5688245529 0.6504479144
C 0.2016679327 -0.8309404160 0.1233308562
C -0.8708730121 -0.2204774856 1.0181762882
C -0.6654365248 1.2911464818 1.1806173569
C 0.7707860921 1.5566005979 1.6320360718
C 1.7914694444 0.8686234727 0.7271084296
N -0.9207229732 2.0289327981 -0.0683891785
C -2.2060362024 2.1059438507 -0.5341056436
N -3.2980053195 1.8512508252 0.1543801074
C -4.3371032837 2.1267487169 -0.7207025243
C -5.7125142565 2.0251790443 -0.5314736029
C -6.5495975440 2.3456643708 -1.5977932070
C -6.0360697116 2.7592504045 -2.8320197866
C -4.6607910028 2.8700778489 -3.0428598251
C -3.8366744815 2.5533456242 -1.9741184784
N -2.4545815775 2.5470315603 -1.8275680049
C -1.4532588363 2.8524869733 -2.8285987078
C -0.6337805512 1.6400392294 -3.2220708925
C -1.2584525538 0.4094746195 -3.4406724073
C -0.5171895276 -0.7108809840 -3.7935139281
C 0.8578585376 -0.5821592884 -3.9171369393
C 1.5122078470 0.6183958203 -3.7055838520
C 0.7515633300 1.7306074404 -3.3535872065
F 1.5869410193 -1.6724910741 -4.2385696738
H 5.7477776583 -4.8558909852 5.4832531441
H 5.2564213267 -4.1606188716 7.0529940002
H 5.8935422980 -3.0925747756 5.7713577777
H 5.7514293304 -3.6256368863 3.5138765722
H 5.1257428947 -3.1921970328 1.1873210392
H 0.9925695140 -3.0255696089 2.2915315605
H 1.6121267691 -3.4704572421 4.6492270804
H 3.4057663306 -3.1711150407 -0.5437781783
H 1.7038665410 -3.2348144045 -0.1303025945
H 2.4391245210 -1.0694872205 -1.2187809414
H 3.5446029195 -0.8064559863 0.1458876430
H 0.0459932778 -1.9129123362 0.0606365463
H 0.0988402540 -0.4431862686 -0.9141807689
H -1.8668814953 -0.4138823964 0.6078352378
H -0.8191761946 -0.6882644342 2.0089005946
H -1.3727765028 1.6797159932 1.9189750725
H 0.9637125914 2.6343913643 1.6632852869
H 0.8900692561 1.1597830596 2.6462119741
H 1.7895761795 1.3354136677 -0.2861690548
H 2.7977340687 1.0260059491 1.1326030240
H -0.2338645659 1.8565392349 -0.7912759486
H -7.6247940138 2.2725697688 -1.4707833686
H -6.7166125086 2.9999096377 -3.6417791003
H -4.2710108483 3.1920820703 -4.0036085855
H -1.9769085466 3.2561373188 -3.7020338458
H -0.7897635443 3.6474986461 -2.4620169941
H -0.9854362063 -1.6741282414 -3.9613557402
H 2.5905322240 0.6714544162 -3.8023727269
H 1.2496590021 2.6800759601 -3.1752356574
H -2.3347058258 0.3257711787 -3.3189792104
H -6.1099173331 1.7023219885 0.4247509319
