22
CONF2
C -0.7314036786 0.0603250789 -0.0855077169
C -1.5138078008 0.7152105670 0.8610977826
C -2.8882193686 0.8363683012 0.7140089417
C -3.5046818329 0.2911706274 -0.4054378527
C -2.7483574050 -0.3680095564 -1.3665899948
C -1.3753863868 -0.4755635926 -1.1969250019
F -0.6639284785 -1.1135143863 -2.1332230439
F -3.3454602780 -0.8920978775 -2.4399017503
F -4.8237734175 0.4000280480 -0.5571784551
F -3.6189684969 1.4686642659 1.6357063458
F -0.9375404543 1.2469812974 1.9450213595
C 0.7320193153 -0.0612212744 0.0839138579
C 1.2915072018 -1.1439185780 0.7561763641
C 2.6633603585 -1.2689222312 0.9222495410
C 3.5042167818 -0.2902476893 0.4067226502
C 2.9731266419 0.8016042702 -0.2687737453
C 1.5979183084 0.9037501475 -0.4222427124
F 1.1032344256 1.9616591172 -1.0748666699
F 3.7869924995 1.7381280076 -0.7625829634
F 4.8231045724 -0.3994617777 0.5598816972
F 3.1802589571 -2.3164747066 1.5693681622
F 0.4957881494 -2.0944582487 1.2590833050
