51
CONF130
C -2.8026788484 3.6199466969 3.5589974971
C -3.2962809407 3.2467104472 2.1888085888
C -2.8735554523 2.1192708209 1.5916171852
C -3.3244483407 1.6178199900 0.2825636857
C -2.3450315617 1.3244847896 -0.8867854519
C -3.1086088005 0.2051124798 -0.1736683017
C -2.3712127239 -0.7891655468 0.6929184148
C -4.2139174949 -0.4248691878 -0.9951550037
C -0.8985333945 1.5090392689 -0.7280295231
O -0.2430036787 1.4059083226 0.2921596244
O -0.3419965584 1.8363130212 -1.9321930956
C 1.0979514193 1.9663303362 -1.9517136617
C 1.7542283181 0.6316056008 -2.0637776400
C 3.1564033596 0.3612489173 -1.9283164125
C 3.3200651557 -0.9770597135 -2.1172560134
O 2.1028745808 -1.5603721251 -2.3577977283
C 1.1603358630 -0.5626700293 -2.3241796311
C 4.4990166577 -1.8814138959 -2.0822575678
C 4.3956902058 -2.9262002716 -0.9877922894
C 4.2891998859 -4.2817927442 -1.3001733213
C 4.1797414712 -5.2368883779 -0.2898324931
C 4.1744027126 -4.8437467146 1.0455420333
C 4.2794791235 -3.4899415631 1.3658195726
C 4.3873463845 -2.5392310251 0.3556919268
C -4.2623108767 4.2291727146 1.5919112336
H -2.3022125310 4.5965408624 3.5364254733
H -2.1040512991 2.8791574153 3.9565099769
H -3.6429021489 3.7179276137 4.2585405034
H -2.1531356886 1.5094815227 2.1281140481
H -4.2381757244 2.0691813781 -0.0926707369
H -2.7152659846 1.5788985198 -1.8741073524
H -3.0647212073 -1.2169277353 1.4256480665
H -1.9919272331 -1.6078265984 0.0712552290
H -1.5280037437 -0.3505988439 1.2249443739
H -3.8076268432 -1.1971551708 -1.6579304870
H -4.9469944370 -0.8977942144 -0.3316881068
H -4.7337137916 0.3179320875 -1.6069881191
H 1.4389103866 2.4959840667 -1.0566900056
H 1.3097016927 2.5861343274 -2.8279611744
H 3.9406180637 1.0732240814 -1.7136357829
H 0.1388998154 -0.8665093312 -2.4920364355
H 5.3842275059 -1.2564707606 -1.9251091927
H 4.6181567144 -2.3803272283 -3.0513701203
H 4.2926123220 -4.5922754018 -2.3416293545
H 4.0980674298 -6.2883524534 -0.5485542964
H 4.0896022494 -5.5857794388 1.8333984368
H 4.2784785066 -3.1754196962 2.4051790420
H 4.4652361931 -1.4846375553 0.6085880858
H -4.5819203822 3.9706178210 0.5814622915
H -3.8053112010 5.2262414789 1.5591150042
H -5.1537051193 4.3191407301 2.2257941841
