110
CONF176
C -3.2538656865 1.2587563037 -1.6230514401
N -4.1676620085 1.3685796726 -2.7744979666
C -3.9078901084 0.2012484697 -3.6361065149
C -3.3337402810 -0.8704502688 -2.6847011585
C -3.3727198805 -0.2352705306 -1.2697075011
C -2.2850463418 -0.7485278124 -0.3639460135
C -0.9126428384 -0.6448761363 -0.4817650571
C -0.0635629457 -1.2182547077 0.4694160860
C -0.6606528429 -1.9261366030 1.5351059409
O 0.2224217022 -2.4514117127 2.4254451751
C -0.2775318291 -3.1466135154 3.5628294390
C -2.0453720229 -2.0615120702 1.6652044787
C -2.8499519142 -1.4489485410 0.7017078754
N -4.2186579842 -1.4179832251 0.6471653088
C -5.0372980102 -2.4000966374 1.3297882926
C -4.6934371707 -0.6140360694 -0.4827760916
C -5.5264738390 0.6458059686 -0.0534070356
O -6.2873749152 1.1068672312 -1.1539705727
C -4.5455354328 1.6744813532 0.5383297450
O -5.1933421877 2.7446181791 1.2126088003
C -3.5779347998 2.2807945203 -0.5137855992
C -2.2839292322 2.6590809181 0.2717717725
C -1.2171139445 3.4392688837 -0.4902412287
C -4.1246672825 3.5477191849 -1.1253376005
C -4.2939390322 3.7497908707 -2.4293055792
C -4.1087121692 2.6613283974 -3.4414368370
C -6.5329396468 0.2592303408 1.0450549093
N -7.7428822978 -0.1365313479 0.5759189955
O -6.2410303512 0.2741733281 2.2373360334
C 1.4555017992 -1.0459122873 0.4414100406
C 1.9469235489 -0.5172499733 -0.9485215864
C 3.4722398547 -0.4219748879 -0.9442278625
C 4.0351234561 0.9990881216 -0.8135825680
N 5.3914539604 0.9268853595 -0.3052233077
C 6.2430296411 0.1171943393 -1.1702890565
C 5.7112537461 -1.2602127523 -1.6608792935
O 5.8823145076 -2.2689378083 -0.6457991957
C 6.5879789669 -1.7262163130 -2.8289209765
C 6.2042425563 -3.0862157226 -3.4070550364
C 4.2248231656 -1.1455377166 -2.0575006501
C 5.4902771237 0.8294183674 1.1515983409
C 4.5399144231 -0.0981869379 1.9815116236
C 3.1066144425 0.3570459884 2.0898233021
C 1.9018803210 -0.0470872837 1.5165256365
N 0.9026306623 0.8166572438 1.9487852249
C 1.4055339347 1.7503552443 2.8102891106
C 0.7689244567 2.7816028868 3.4972875435
C 1.5553139011 3.5791502439 4.3157449516
C 2.9354303836 3.3447764551 4.4466803527
C 3.5590627955 2.3138421092 3.7605375665
C 2.7924247417 1.4929594527 2.9201491649
C 2.1158954896 -2.4280093782 0.6105407111
O 3.0301910912 -2.7164755692 1.3464001893
O 1.5849120044 -3.3006258231 -0.2731075569
C 2.2077660794 -4.6020796238 -0.2765345003
H -2.2149094497 1.4317982399 -1.9607033343
H -3.1774147920 0.4499357345 -4.4232636644
H -4.8354252447 -0.1103884984 -4.1303845718
H -2.2934574340 -1.0909765744 -2.9404221012
H -3.8830450957 -1.8145401994 -2.7151322403
H -0.4925588671 -0.1014806953 -1.3210769507
H 0.6034070574 -3.4564511179 4.1259201240
H -0.8981944456 -2.4895335399 4.1846185169
H -0.8556715558 -4.0309998680 3.2658707150
H -2.4843840224 -2.5976609809 2.4959838331
H -6.0525956033 -2.3696311205 0.9281969666
H -4.6345558678 -3.4132238429 1.1799929751
H -5.1041504806 -2.1942068357 2.4044695505
H -5.3628978387 -1.2091413645 -1.1212749734
H -5.6366092285 1.2565969823 -1.8980216777
H -3.9357084636 1.1033179194 1.2560618484
H -5.5762259436 2.3588158592 2.0121888040
H -2.6069612187 3.2401823792 1.1435308843
H -1.8534956920 1.7248322060 0.6510741603
H -1.5951911778 4.4040688404 -0.8390933962
H -0.8473045206 2.8930418393 -1.3642469323
H -0.3580546747 3.6246262688 0.1624709447
H -4.3148866951 4.3543415834 -0.4242680392
H -4.6112161753 4.7213925173 -2.7973181118
H -3.1508806590 2.7889301400 -3.9883999216
H -4.9063498043 2.7063359443 -4.1955367031
H -8.4826473434 -0.2567433432 1.2493185811
H -7.9707692306 0.1117815631 -0.3755745095
H 1.5057497457 0.4724704777 -1.1156352600
H 1.5798900405 -1.1899436909 -1.7308813596
H 3.7865574046 -0.9132967421 -0.0269673627
H 3.4265751307 1.6079440846 -0.1360241006
H 4.0342580617 1.4913725263 -1.8014343441
H 6.4368339870 0.7155493761 -2.0770937501
H 7.2076923938 -0.0521723909 -0.6791677778
H 5.2109359692 -2.1636047032 0.0387702647
H 6.5500359259 -0.9618667325 -3.6141838993
H 7.6245555392 -1.7615009964 -2.4693173528
H 5.2161907133 -3.0617223005 -3.8775156499
H 6.1911993203 -3.8474099360 -2.6230164745
H 6.9239567592 -3.3935144683 -4.1718491729
H 3.8210337979 -2.1531552002 -2.2174001571
H 4.1332344347 -0.5951918399 -3.0050629003
H 6.5203310240 0.5382903007 1.3877408850
H 5.3456024422 1.8444521230 1.5513204880
H 4.9518386812 -0.0625021707 3.0002133793
H 4.6173883316 -1.1450200623 1.6935012793
H -0.0695257386 0.6803987964 1.7270624796
H -0.2987578302 2.9536818282 3.3967040710
H 1.0978839312 4.3949210415 4.8659386834
H 3.5209812088 3.9847777353 5.0987265938
H 4.6253860028 2.1486245306 3.8794507415
H 1.6756725375 -5.1754802488 -1.0354860394
H 3.2689778135 -4.5140961961 -0.5280123057
H 2.1095054768 -5.0723723569 0.7053498265
