78
CONF385
C -0.8081743055 -0.6577730206 -0.4689998274
C 0.1109909931 -1.8144604278 -0.8315980732
O -0.7343278348 -3.0007373604 -0.6237759201
C -1.7420378181 -2.7172547263 0.2419342237
O -2.5142824906 -3.5724316438 0.6097335591
C -1.6447681849 -1.2665205459 0.6454245200
C -2.9148114441 -0.4552390709 0.9152572292
C -3.9757527637 -0.6027899110 -0.1694652037
C -3.9932807252 0.2425444312 -1.2809334874
C -4.9490775768 0.0726053217 -2.2843490165
O -5.0438186712 0.8432247184 -3.4069630930
C -4.0644650748 1.8766348174 -3.5722540648
C -5.9048355737 -0.9427173782 -2.1721113759
O -6.8400372334 -1.0919428677 -3.1578684722
C -5.8920923171 -1.7745805456 -1.0461878550
O -6.8842840235 -2.7163843632 -1.0462646825
C -6.9393344324 -3.6191116771 0.0667702211
C -4.9359962032 -1.6089070547 -0.0467161201
C -2.5033403826 0.9995369059 1.1054538533
C -3.4409218817 1.8437565752 1.7375574367
C -3.1237759497 3.1719001446 1.8716115693
C -1.9224013266 3.6899222865 1.3972283875
O -1.8615736435 5.0358226487 1.6437852390
C -3.0805818877 5.3729575780 2.3423639493
O -3.8720908828 4.1666877935 2.4386801796
C -0.9950640338 2.8958484513 0.7734374964
C -1.2934420390 1.5216792840 0.6275918982
C -0.2180823992 0.6590604446 -0.0070024735
O 0.8098905580 0.4078614202 0.9969314454
C 2.0735137189 0.8839551464 0.6769107836
O 2.6293542950 0.0311881759 -0.3385464594
C 3.9338040867 0.4681086404 -0.7119581249
C 4.4595720477 -0.3939122774 -1.8447418661
O 5.8103861124 0.0225347118 -2.1264957328
C 6.6768689114 -0.0436416181 -1.0005820312
O 6.1933776401 0.7068889920 0.1047334079
C 4.8656298740 0.3092498223 0.4838354230
C 4.3852268316 1.1874049067 1.6197485571
O 5.1243781178 0.9879897648 2.8264159534
C 2.9320550702 0.8334868036 1.9403677135
O 2.3793744261 1.7565150851 2.8727176076
C 6.9951795142 -1.4640453359 -0.6045339761
C 7.3121317902 -1.9520943232 0.6351657900
C 7.6660040398 -3.3290106035 0.6199361532
C 7.6270409092 -3.8745318820 -0.6337927072
S 7.1500334041 -2.7029296157 -1.8187986281
H -1.4626307875 -0.4494092630 -1.3250333836
H 0.9694290650 -1.8932564335 -0.1606258320
H 0.4370804888 -1.8298933412 -1.8720511241
H -1.0423261763 -1.2720002467 1.5692051794
H -3.3572648378 -0.8095217402 1.8532989481
H -3.2744446468 1.0493936788 -1.3482895648
H -4.2958439538 2.3515202753 -4.5261078568
H -3.0518090101 1.4571881224 -3.6037388413
H -4.1320062145 2.6169342395 -2.7662097616
H -7.4151170235 -1.8302944037 -2.9060845960
H -6.0148758098 -4.2032294635 0.1397941768
H -7.1090234023 -3.0737147745 1.0019849164
H -7.7812256391 -4.2823544734 -0.1320401507
H -4.9233113260 -2.2575088573 0.8197274073
H -4.3857822365 1.4483918030 2.0965502643
H -3.6332428842 6.1214165552 1.7657266380
H -2.8349821081 5.7250760219 3.3501980007
H -0.0628945276 3.3056994431 0.3987133429
H 0.2389976844 1.1953795039 -0.8468457957
H 2.0336418975 1.9181811398 0.2879872990
H 3.9135726607 1.5239772869 -1.0288017233
H 3.8955957388 -0.2463585949 -2.7683922496
H 4.4211318439 -1.4547350748 -1.5579847899
H 7.5857086911 0.4766454137 -1.3216283808
H 4.8598127475 -0.7438352840 0.8034306238
H 4.4360890294 2.2429327388 1.3086467192
H 5.9859414066 1.4113367986 2.7223231162
H 2.8960412236 -0.1951660128 2.3347563863
H 2.9997317269 1.8134137790 3.6126676126
H 7.2876704182 -1.3391732369 1.5286976127
H 7.9359823791 -3.8935264552 1.5048456301
H 7.8381925264 -4.8923857884 -0.9343732929
