47
CONF101
C -2.1444791643 -3.0237984100 0.1169312569
O -3.4231986285 -2.6127148345 0.6735396808
P -4.6613420878 -2.1524308376 -0.2381845781
S -4.5420755556 -2.6269226137 -2.1176835196
O -5.9281353598 -2.6492563984 0.5970748988
C -6.2602459621 -4.0651837898 0.5852988964
O -4.8692671312 -0.5788711801 0.1028363062
C -3.9161949418 0.3452962446 -0.3448588132
C -2.7616212704 0.5534658453 0.3996633517
C -1.8429000718 1.5062935402 -0.0243142565
C -2.0796535546 2.2332746730 -1.1935661911
C -3.2490281025 2.0147053097 -1.9277142562
C -4.1759378083 1.0711681812 -1.4989241024
S -0.9659303014 3.5117262784 -1.7673073100
C 0.6131151987 2.9346314863 -1.1548851181
C 1.3402876236 3.7348415593 -0.2736366270
C 2.5841327807 3.3115830939 0.1861301308
C 3.0773685154 2.0865903439 -0.2364307966
C 2.3696060858 1.2788533486 -1.1215226230
C 1.1355558079 1.7121516100 -1.5865469875
O 4.3399520195 1.7125840897 0.2211623051
P 4.6039084107 0.3312156198 1.0332355877
S 3.1782246143 -0.2431593602 2.2193457956
O 6.0290344148 0.6382782003 1.6880159470
C 6.1144660644 1.4307534652 2.9059267164
O 5.0114267526 -0.6409427971 -0.1674755070
C 5.2391657579 -2.0562746367 0.0891946433
H -2.2806360552 -3.8860675224 -0.5389176364
H -1.5301839873 -3.2911136058 0.9768304703
H -1.6858799893 -2.1988025459 -0.4333857462
H -6.4969553895 -4.3860422688 -0.4325222298
H -5.4296298681 -4.6514933117 0.9883780534
H -7.1352721043 -4.1647215295 1.2265029165
H -2.5912450514 -0.0143861921 1.3078687832
H -0.9466734166 1.6809018915 0.5609775195
H -3.4348578598 2.5737030217 -2.8393396327
H -5.0849200895 0.8871831469 -2.0606784241
H 0.9318513260 4.6806020471 0.0660210408
H 3.1604655671 3.9149115456 0.8789964771
H 2.7846918184 0.3324403031 -1.4510740168
H 0.5759187408 1.0963298348 -2.2829044703
H 5.5694973776 0.9350001484 3.7130090706
H 7.1763024065 1.4884778134 3.1429110201
H 5.7115091456 2.4321330026 2.7309239047
H 4.3411711889 -2.5068170613 0.5193100790
H 5.4570512534 -2.4971329264 -0.8828985424
H 6.0915597692 -2.1829636318 0.7617325296
