39
CONF22
C -3.6018215936 2.8394370834 -1.3516428464
N -3.3443083926 1.4735928288 -0.9131157778
C -2.1523429436 0.8525925982 -0.8291353527
C -2.4004575536 -0.4297711647 -0.3467055236
C -3.8053926293 -0.4626230404 -0.1748944111
N -4.3675713515 0.6929458029 -0.5248514283
C -4.6394810579 -1.5897157905 0.3365732607
F -4.7501064268 -1.5055744759 1.7166627552
F -5.9212960766 -1.4988322998 -0.1534429320
C -1.4700452682 -1.5212020632 -0.0196014561
O -1.8252229349 -2.4820050209 0.6652227401
N -0.2036894986 -1.3723220919 -0.5252449835
C 0.9221009213 -2.1744676901 -0.2593862756
C 0.8077825679 -3.5531571306 -0.0566411546
C 1.9473232523 -4.3256518971 0.1345119282
C 3.2110555044 -3.7424500551 0.1027436699
C 3.3266366714 -2.3743494159 -0.1114958867
C 2.1966517334 -1.5682720727 -0.2774558732
C 2.3681888976 -0.1087235566 -0.4688107708
C 3.2426585018 0.3627563253 -1.4549215012
C 3.4254250735 1.7244710954 -1.6087456573
C 2.7564182983 2.6419327047 -0.8093754253
C 1.8938012093 2.1606671482 0.1675085289
C 1.6936656998 0.8059761261 0.3519568490
F 1.2573670961 3.0537716444 0.9461738488
F 2.9378800804 3.9581924915 -0.9758587831
F 4.2571485885 2.1966382835 -2.5539219675
H -4.2793072252 2.8263408105 -2.2086284407
H -4.0537799136 3.4078896426 -0.5352463529
H -2.6532372895 3.2948641391 -1.6373936086
H -1.2382555866 1.3643307791 -1.0977152992
H 3.7714779713 -0.3195267828 -2.1111582777
H -0.1706083658 -4.0130604927 -0.0669621673
H 1.8422207840 -5.3940737247 0.2938377254
H 4.1007362054 -4.3464825437 0.2458861953
H 4.3061001858 -1.9060522320 -0.1229895203
H 1.0298906883 0.4755819348 1.1434679949
H -4.2361139858 -2.5750514200 0.0942909451
H -0.0151741205 -0.5204937661 -1.0333283438
