15
CONF36
N -0.5401855242 0.8761219746 -1.2201367356
C -0.4254556783 0.6492148279 0.2114330261
C 1.0278109207 0.4041393862 0.6311443259
S 1.7442216808 -1.1813626978 -0.0021749074
S 2.7668924073 -0.6535532920 -1.7402085613
C -1.3310221214 -0.4734938890 0.7254579188
O -1.2719415539 -0.5811734057 2.0678894098
O -2.0267616402 -1.1792894020 0.0283138018
H -1.4980617216 1.1336022594 -1.4375316105
H -0.3841456255 -0.0024337292 -1.7076256688
H -0.7415873297 1.5606566902 0.7405158578
H 1.1055506380 0.3346813267 1.7198901994
H 1.6603131843 1.2235854649 0.2820544856
H 1.7787814450 -0.8105468055 -2.6474600873
H -1.8644093831 -1.3001486982 2.3484388473
