47
CONF5
C -2.6605464131 -3.2824440779 1.1968261965
C -3.1823268880 -2.5474995868 -0.0421028925
C -4.0936272562 -3.4810683698 -0.8480399915
C -2.0729901345 -1.9812169790 -0.9494108095
C -0.8311422070 -2.8502746812 -1.1705539937
C 0.1090163171 -1.8822903668 -1.8866764708
C -0.0172225490 -0.5726532499 -1.0789475545
C 1.0366466432 -0.5193602786 0.0442977594
C 1.1670065776 0.8160297234 0.7328603676
C 0.9064052957 0.9642425973 2.0977703097
C 1.0399646703 2.1954230109 2.7344940143
C 1.4450630537 3.2912648286 1.9850625832
Cl 1.5978736317 4.8639948836 2.7698465165
C 1.7267821703 3.1818500359 0.6296024915
C 1.5851988717 1.9418138784 0.0164705528
C -1.5032793626 -0.5794613151 -0.5553754487
O -1.6051290969 -0.4284389956 0.8594852778
C -2.3568500440 0.4939556428 -1.2559977000
N -1.9289474168 1.8605451734 -0.9797492354
C -1.4310998284 2.7786758343 -1.8303552701
N -1.1816147199 3.9163435019 -1.1909117066
C -1.5460504612 3.6276927365 0.0863986161
N -2.0124635619 2.3964044785 0.2658212592
H -1.9532259515 -2.6738174568 1.7638851342
H -3.4964085983 -3.5420314904 1.8556238668
H -2.1638582082 -4.2176265184 0.9137457908
H -3.7891096124 -1.6987334204 0.3008785323
H -4.8888855661 -3.8899223726 -0.2154113033
H -4.5617800177 -2.9559562356 -1.6875342445
H -3.5222788136 -4.3253887121 -1.2518126915
H -2.5223731514 -1.8418616933 -1.9439244449
H -0.3971492183 -3.1588628663 -0.2126740409
H -1.0448357727 -3.7541127515 -1.7495400703
H -0.2435309990 -1.7253307833 -2.9136438997
H 1.1445831590 -2.2325383478 -1.9404236389
H 0.1479923000 0.2931411393 -1.7304883785
H 2.0032073770 -0.7580386782 -0.4171007475
H 0.8321078463 -1.2957554449 0.7869567644
H 0.5864774984 0.1030333782 2.6770063299
H 0.8292178115 2.2974647522 3.7931914250
H 2.0438887141 4.0483581927 0.0604244530
H 1.8079536228 1.8552260191 -1.0436378700
H -3.4026045214 0.3889252812 -0.9448815713
H -2.2952073857 0.3621347648 -2.3397655044
H -1.2823264401 2.5791975805 -2.8836918883
H -1.4720413598 4.3317315120 0.9055318840
H -1.4764666470 0.5091665575 1.0751475887
