38
CONF9
C 5.1748521830 1.3669788423 -1.2400717332
C 3.9698952380 0.6151629240 -0.7842710730
N 2.9796976089 0.4335507537 -1.6711825760
C 1.9183817990 -0.2258785303 -1.1903238017
N 1.7905830483 -0.6985774155 0.0532102836
C 2.8372735136 -0.4501660999 0.8436629881
N 3.9518530782 0.1951746935 0.4875030299
O 2.8154242320 -0.8670966624 2.1032241108
C 1.6390323468 -1.5879180342 2.5565935906
N 0.8877590698 -0.4097042806 -2.0882046394
C -0.3758193639 -0.9878355624 -1.9429306954
O -1.1750967055 -0.9539219078 -2.8641487077
N -0.6193682514 -1.5871318133 -0.7240555741
S -2.1898302877 -2.0494082213 -0.2661151652
O -2.0759470120 -2.3566788265 1.1616113382
O -2.6650012458 -3.0773890197 -1.1935242351
C -3.2194558791 -0.6089969494 -0.5280619379
C -3.0764659351 0.6329424108 0.0693691258
S -4.3600872996 1.6825586149 -0.4480044248
C -5.0522104926 0.4559779871 -1.4338621372
C -4.3397658164 -0.7121835716 -1.3837254382
C -2.0324183076 1.1199451177 0.9779221408
O -1.0592459700 0.4746723028 1.3170410590
O -2.2848396826 2.3768607230 1.3799645690
C -1.2930642620 2.9580137153 2.2647984541
H 6.0753488537 0.9640374799 -0.7726885297
H 5.2593919825 1.3438514097 -2.3267723635
H 5.0780316302 2.4125702358 -0.9231793144
H 1.5141771997 -2.5065938876 1.9779854518
H 0.7511539542 -0.9583602480 2.4655777902
H 1.8423248665 -1.8192051769 3.6010047892
H 1.0427020268 -0.0101817673 -3.0055797370
H 0.0340297494 -1.3736956062 0.0420845389
H -5.9481272264 0.6605050918 -2.0055915590
H -4.5969120543 -1.6075430063 -1.9327368629
H -1.6535768076 3.9634425196 2.4753664311
H -0.3219206676 2.9897618509 1.7655207071
H -1.2227604047 2.3699953031 3.1825901074
