18
CONF3
C -0.8016296916 0.8620469801 0.8379453527
N 0.1903580142 1.4312304108 -0.0688009514
C 1.2584717774 0.5298026822 -0.5656794070
N 1.0458652317 -0.7605008644 0.0466864001
C -0.2491163280 -1.4011397084 -0.1089130564
N -1.2662385820 -0.3961762220 0.2690027881
N -2.5193211859 -0.4752353116 -0.1472936784
O -2.8096854940 -1.5258656441 -0.7155601188
N 1.9889843663 -1.1722251228 0.9204995424
O 1.7582049114 -2.2183389274 1.4993029347
N -0.0704234397 2.5858128059 -0.6522373561
O 0.7524256284 2.9267746540 -1.5024103432
H -0.3474008187 0.6768012555 1.8172898362
H -1.6433604175 1.5504991325 0.9304568273
H 1.1748633658 0.4675787999 -1.6583891406
H 2.2513700865 0.8979937822 -0.2904500737
H -0.2907441492 -2.2818929876 0.5395187016
H -0.4226228782 -1.6971656142 -1.1509681622
