51
CONF110
C 4.3945072439 1.4253584263 4.6848613898
C 3.9244444137 0.9177995189 3.3492248733
C 4.5879665715 -0.1238471049 2.6963544777
C 4.1289368394 -0.6140303433 1.4760019761
C 2.9970532636 -0.0718412407 0.8705298514
C 2.3313391863 0.9721510121 1.5155493162
C 2.7885842011 1.4582056990 2.7357289549
C 2.5408728229 -0.5761617428 -0.4869733490
C 2.9970376973 0.3581525984 -1.6077453055
N 1.0876216691 -0.7234000741 -0.5552941553
C 0.4344956331 -1.7166110901 0.0762600436
O 1.0062372211 -2.6015016174 0.7193017481
C -1.0982622306 -1.7267748218 -0.0431968338
C -1.7395265940 -1.8032236186 1.3607436747
C -1.4066480172 -0.5803744384 2.2190652583
C -3.2481426002 -2.0212407533 1.2545557837
N -1.6324666116 -0.6266770668 -0.8274202987
C -2.1578778389 -0.8105010646 -2.0707953035
O -2.0998956171 -1.8510841240 -2.7102078424
O -2.7287809767 0.3383824352 -2.5092114306
C -3.3805440685 0.2887360988 -3.8229434030
C -3.3751593064 1.7143906673 -4.3358945245
C -4.7776676287 -0.2833458993 -3.6665557562
H 3.8085472759 0.9797929213 5.4976077787
H 5.4442000555 1.1736186603 4.8563118237
H 4.2783749160 2.5106794439 4.7584275453
H 5.4717384652 -0.5628757315 3.1521350197
H 4.6565047252 -1.4313696976 0.9901458839
H 2.2554120242 2.2711795652 3.2224776079
H 2.9795927629 -1.5688707545 -0.6424924574
H 2.7058055060 -0.0385022448 -2.5854306156
H 2.5554821630 1.3527844845 -1.4806886184
H 4.0843667901 0.4624643755 -1.5796950041
H 1.4438173596 1.4074032686 1.0632867983
H -1.3424040907 -2.6502734638 -0.5815488084
H -1.2888986080 -2.6832698866 1.8320727947
H -1.8568506549 0.3357357799 1.8177512623
H -1.8029465178 -0.7150587824 3.2301196017
H -0.3252117291 -0.4252070724 2.2994976029
H -3.6807149231 -2.1570130280 2.2506403960
H -3.7405679379 -1.1592859004 0.7907023626
H -3.4796789564 -2.9085884339 0.6560153003
H -1.8388841656 0.2478588833 -0.3673738566
H -2.7737426507 -0.3546186132 -4.4673034768
H -3.8389282247 1.7445327944 -5.3259204078
H -3.9458161100 2.3664357406 -3.6670082625
H -2.3539708307 2.0962315217 -4.4184271584
H -5.3751595728 0.3514760486 -3.0042016699
H -4.7428361115 -1.2959547332 -3.2565564249
H -5.2686289278 -0.3234162531 -4.6437399516
H 0.5452663342 -0.0283247410 -1.0480667137
