47
CONF177
C -0.6925072599 -0.3794674118 2.9681501207
C -1.6457252982 0.5417482058 2.2101115917
C -0.8944835398 1.6087114307 1.4139778758
C -1.7917327367 2.5211570235 0.6050805624
O -2.4911478345 1.6835042402 -0.3699535472
C -2.8039890054 2.2138872181 -1.5492974064
O -2.6734278562 3.3810774937 -1.8604191102
C -3.4041131875 1.1797981759 -2.5038871360
C -4.9221299343 1.2826916575 -2.4833270085
O -3.0754360261 -0.1655944695 -2.1425178366
C -1.7507841979 -0.5120962218 -2.0767927602
C -0.7115472627 0.2395946544 -2.6287503845
C 0.6048331235 -0.1921279979 -2.4740039131
C 0.8646775090 -1.3601847986 -1.7791007146
C -0.1626176676 -2.1289846114 -1.2481714188
C -1.4741992342 -1.7015151770 -1.3968015583
O 2.1897326043 -1.8074741505 -1.6620654345
C 2.8838936789 -1.4511509242 -0.5479328727
C 4.1949369021 -1.9323873414 -0.4510883199
C 4.9242769658 -1.5843461103 0.6675165919
C 4.3250671041 -0.7796459174 1.6409485522
C 3.0162320843 -0.3558909717 1.4447676261
N 2.3011668044 -0.6846369724 0.3648206060
C 5.0494765382 -0.3520183112 2.8748039662
F 5.2534974953 0.9944989349 2.9076224230
F 6.2630116141 -0.9344802440 2.9936001176
F 4.3513928580 -0.6512315252 4.0032235370
H -1.2388595461 -1.1296309315 3.5480693639
H -0.0309682139 -0.9067755065 2.2711448011
H -0.0618775008 0.1904262811 3.6599751479
H -2.2630470701 -0.0532603043 1.5267890192
H -2.3329944381 1.0333175737 2.9110150544
H -0.3154611499 2.2430715732 2.0978617303
H -0.1729225744 1.1305414793 0.7378552202
H -1.2229378393 3.2832009620 0.0668554169
H -2.5529313222 3.0081854414 1.2244527709
H -3.0281398560 1.4131260195 -3.5080508352
H -5.3045781807 1.0603846710 -1.4832197709
H -5.3446396506 0.5714003377 -3.1969038331
H -5.2264022865 2.2922675748 -2.7684890072
H -0.8993841589 1.1592313622 -3.1704892508
H 1.4248281091 0.3879026768 -2.8844203818
H 0.0658606365 -3.0427386478 -0.7093784620
H -2.2949575994 -2.2734148750 -0.9767152069
H 4.6091975704 -2.5558380530 -1.2344285680
H 5.9436727233 -1.9337551878 0.7854113875
H 2.5181871324 0.2717215695 2.1821505613
