124
CONF1
C -3.1941465486 2.1028673023 0.0376241748
O -3.0201335858 0.6710348640 0.0009058472
C -3.6202103628 0.0293697625 -1.1269959774
O -3.0491949762 0.4423560701 -2.3338057971
C -5.1338737775 0.2955472866 -1.1626215010
C -5.8124296067 -0.3774254555 -2.3514731787
C -5.3704404658 1.8090626138 -1.1345556414
C -4.6823472892 2.4394311953 0.0747589411
O -4.7674745553 3.8656333210 0.0697941480
C -6.0588297087 4.3559341443 0.4265568263
C -3.2678022186 -1.4515959084 -0.8574540634
O -2.6704611311 -2.1169524685 -1.6797964746
C -3.7837595012 -2.1010503002 0.4254718884
O -4.9717986472 -2.4361619018 0.3957636960
N -2.9246962352 -2.3166592436 1.4364209621
C -3.3697558444 -3.0600607634 2.6301532735
C -2.8764254861 -2.3893158243 3.9062006815
C -1.3641300908 -2.1819359856 3.8573773477
C -1.0114597946 -1.3199298828 2.6492049888
C -1.5183023606 -1.9336550002 1.3296792796
C -0.6498020374 -3.1238970039 0.9191810604
O -0.9116315524 -4.2894726207 1.1171353520
O 0.4637417001 -2.6610909288 0.3309567302
C 1.5172335718 -3.5970655524 -0.0456796318
C 1.4913754585 -3.8344762745 -1.5712175495
C 0.1300453951 -4.3491443060 -2.0370658048
C 2.0056712249 -2.6413589654 -2.3906843461
O 2.1282668464 -3.1030814387 -3.7455378776
C 1.1327201820 -1.3929612083 -2.3154017533
C 1.6445594382 -0.2276129120 -3.1204884982
O 2.5817413022 -0.3249791675 -3.9033138194
C 0.9143300064 1.0944280958 -2.9154176145
C 0.1741412992 1.4657154360 -4.2198084210
C -0.6821520475 2.7182452527 -4.0598899053
C 1.9132311568 2.1477146024 -2.5163631969
C 2.0829192281 2.6673746364 -1.2927233008
C 3.1447127795 3.6977063150 -1.0330543531
C 1.2501860776 2.2572765574 -0.0988041267
C -0.1721524355 2.8576723122 -0.0700509896
C -0.1484055080 4.3856766832 -0.0848337173
C -0.9152115493 2.2913159964 1.1466133056
C -2.4063463890 2.6247422782 1.2310209252
O -2.9753035662 2.0565569010 2.4209418181
C -2.8572211203 2.9096892309 3.5561999230
C 2.8448630845 -3.0759441404 0.4551319126
C 3.9734952563 -4.0498541567 0.2487085339
C 2.9727094802 -1.8558976149 0.9890748867
C 4.2308952604 -1.1835350940 1.4433637735
C 4.1369128597 -0.7667660766 2.9193588792
C 5.3827088031 -0.0002139970 3.3617060155
C 5.6741476128 1.2011032313 2.4774819815
Cl 4.3658221505 2.4970150039 2.7498598335
C 5.7342637373 0.8092571850 1.0091252741
C 4.4878381415 0.0527242254 0.5561253780
O 6.0062472722 1.9837724627 0.2506454503
C 6.3098817723 1.7312097360 -1.1209612701
H -2.7702008845 2.5459851488 -0.8754958011
H -2.2557762035 -0.0924249135 -2.4973396204
H -5.5368686750 -0.1269666461 -0.2359462336
H -5.4586163766 0.0478200278 -3.2945357104
H -6.8948017548 -0.2299125333 -2.2898655644
H -5.6205997414 -1.4553960109 -2.3640588704
H -4.9817928637 2.2734995466 -2.0499651251
H -6.4505224904 1.9877410203 -1.1006349434
H -5.1161683493 2.0434827372 1.0070182611
H -6.3760373013 3.9545382235 1.3999811169
H -5.9756849164 5.4429480714 0.4953960863
H -6.8170750533 4.1056282453 -0.3269201101
H -2.9801183533 -4.0827253768 2.5654384395
H -4.4597133420 -3.1023570184 2.5950374778
H -3.3760034066 -1.4196597571 4.0283298865
H -3.1604026763 -3.0189149018 4.7556454548
H -0.8547701746 -3.1530846224 3.7990265231
H -1.0145417752 -1.6876998652 4.7695041267
H -1.4875312973 -0.3375629057 2.7533504366
H 0.0679020084 -1.1590978020 2.5637366321
H -1.4169158079 -1.1694075017 0.5532655553
H 1.2939453768 -4.5552162597 0.4382622276
H 2.2240644370 -4.6349992378 -1.7402956435
H -0.1255221039 -5.2729047619 -1.5097905266
H -0.6669509159 -3.6251452910 -1.8499341428
H 0.1537815822 -4.5583183138 -3.1089123218
H 3.0031193346 -2.3704396788 -2.0106543448
H 2.5169972861 -2.3600119312 -4.2318637510
H 1.0293598758 -1.0500494091 -1.2794120697
H 0.1057682768 -1.5926843633 -2.6590570270
H 0.1692221675 0.9463546971 -2.1268941962
H -0.4567304365 0.6198082183 -4.5225731262
H 0.9200518196 1.6100594743 -5.0105570398
H -1.4519428021 2.5705263145 -3.2944864113
H -1.1840637191 2.9666351641 -5.0000908328
H -0.0702594382 3.5758564871 -3.7614605408
H 2.5639971310 2.4845911255 -3.3236478721
H 3.8928216717 3.3005324353 -0.3347938252
H 2.7173101663 4.5889475613 -0.5580141537
H 3.6537159663 3.9985880409 -1.9531650897
H 1.1579211961 1.1642260114 -0.0627673019
H 1.7720353573 2.5562666584 0.8199337813
H -0.6817433982 2.5181693341 -0.9802613144
H 0.3794673636 4.7575084398 -0.9685714483
H -1.1594469506 4.8039004011 -0.1081393190
H 0.3607603684 4.7716257698 0.8068522905
H -0.4257396853 2.6570902051 2.0589627746
H -0.8170451289 1.2004354148 1.1445595478
H -2.5554923424 3.7129208992 1.2481042556
H -1.8082455628 3.1306863510 3.7982348865
H -3.3914027917 3.8574232654 3.3935506173
H -3.3094357315 2.3824744448 4.3997932962
H 4.8213755379 -3.8365876313 0.9008939438
H 3.6387770015 -5.0736918209 0.4497709183
H 4.3348475045 -4.0301489090 -0.7871879127
H 2.0813758762 -1.2377335193 1.0851585427
H 5.0892127601 -1.8574197758 1.3324653676
H 3.2446338410 -0.1434906466 3.0614181349
H 4.0119030029 -1.6560754660 3.5463714817
H 6.2604447629 -0.6584685206 3.2935642996
H 5.3033380251 0.3190961706 4.4049622784
H 6.5979706472 1.7055303578 2.7688282279
H 6.6037248086 0.1273792509 0.9350809797
H 4.6061580471 -0.2749159134 -0.4818130403
H 3.6232205702 0.7271054079 0.5928555223
H 5.4205186510 1.4296508701 -1.6900740570
H 6.6889714150 2.6688810602 -1.5336781396
H 7.0815876486 0.9541282715 -1.2200611211
