35
CONF4
C -5.8323142770 0.3115901269 0.7736508946
C -4.5257003474 0.1457793794 0.0091469602
C -4.2838926278 -1.3395179326 -0.2490612024
O -4.7087103329 -1.9205237868 -1.2189219936
O -3.6071860627 -1.9346164000 0.7545729990
O -3.5078579157 0.7546457000 0.7926849386
C -2.2581871281 0.8747129954 0.2427536900
C -1.3014375176 1.4736280098 1.0676348726
C -0.0076022861 1.6574673991 0.6128570839
C 0.3303169053 1.2342757394 -0.6672575148
C -0.6045554739 0.6408353534 -1.4927161059
C -1.9118749496 0.4570958301 -1.0421403946
O 1.6069732754 1.4883659389 -1.1844381481
C 2.6610549417 0.7825910283 -0.6996828400
N 2.4565178167 -0.1943201586 0.1676267731
C 3.5259668292 -0.8678361260 0.6063625626
C 4.8192814440 -0.5868888477 0.1914248240
C 5.0150107686 0.4508687183 -0.7283225489
C 3.9237163573 1.1530116125 -1.1880538850
C 5.9985807542 -1.3405246905 0.7143515045
F 6.7911621957 -0.5565040058 1.4926524464
F 5.6396893835 -2.4074987431 1.4602642846
F 6.7877487473 -1.7965643622 -0.2922411292
H -6.0383039199 1.3753862304 0.9116988430
H -6.6521049797 -0.1423323645 0.2118443463
H -5.7569285963 -0.1653212087 1.7541339940
H -4.6004998260 0.6279431720 -0.9746058802
H -3.5214672451 -2.8718849099 0.5168233100
H -1.5950291855 1.7899752378 2.0621892191
H 0.7418574735 2.1200036649 1.2452742601
H -0.3155368755 0.3212489648 -2.4877114116
H -2.6297556855 -0.0108479536 -1.7051251779
H 3.3331586654 -1.6672236708 1.3169496718
H 6.0142978730 0.6952051276 -1.0739600263
H 4.0136118071 1.9638697432 -1.9006593152
