71
CONF317
C 6.5575086532 -1.4239244727 4.1041065176
C 6.8138221381 -1.2341125240 2.6372039619
C 5.7667564031 -1.1244901374 1.7071655338
C 6.0120977180 -0.8702022102 0.3458948146
C 7.3347010959 -0.7534336132 -0.0807375162
C 8.3876325815 -0.8914503944 0.8188260543
C 8.1248424473 -1.1252696001 2.1628872508
C 4.8743729180 -0.7390245736 -0.6272412889
N 4.4179204646 -1.2239231656 2.1353924719
C 3.8528304228 -2.3091292722 2.7242215868
O 4.4494759006 -3.3498615157 2.9958159856
C 2.3825119481 -2.1148907969 3.0924503672
N 1.7027083004 -1.1458671805 2.2410800118
C 0.5161414443 -0.5669530692 2.8805701668
C -0.1152745756 0.4748478865 1.9685202907
N -0.4968058970 -0.1212933812 0.6829621667
C 0.6932040974 -0.7045938370 0.0546002489
C 1.3162452663 -1.7520361830 0.9601915889
C -1.1080156077 0.8620231207 -0.2199184314
C -2.4673224766 1.3653486789 0.2621720022
C -3.2106282268 2.1901740398 -0.7939603118
C -3.6866837720 1.3757220845 -2.0114326030
C -4.6391760058 0.2713484330 -1.5844741934
C -4.2388690696 -1.0656325907 -1.6090978122
C -5.0920478056 -2.0838710537 -1.1858839644
C -6.3519992420 -1.7330456764 -0.7370135431
C -6.7927358060 -0.4198769904 -0.6969929137
C -5.9242654983 0.5780067895 -1.1265033786
F -7.1954489351 -2.7156313143 -0.3205981612
C -4.3095816520 2.2239757974 -3.1094619750
C -4.8377858616 3.4974477155 -2.8883547666
C -5.4366673250 4.2201050602 -3.9208035471
C -5.4975145035 3.6453524789 -5.1760380839
C -4.9834802360 2.3869979268 -5.4444456766
C -4.3919448109 1.6864399219 -4.3999241080
F -6.0815458438 4.3407682253 -6.1885986317
H 7.4251900961 -1.1023992538 4.6849926536
H 5.6831412915 -0.8518852475 4.4301931504
H 6.3541504488 -2.4746911615 4.3342867614
H 7.5361610820 -0.5612773097 -1.1307313444
H 9.4129469403 -0.8044958628 0.4726418912
H 8.9455675307 -1.2076175365 2.8699742387
H 4.2109639090 0.0950045695 -0.3687281249
H 4.2584400617 -1.6449117978 -0.6368049114
H 5.2522098588 -0.5676804783 -1.6373756310
H 3.7482398194 -0.5115310481 1.8559773862
H 1.9073815150 -3.1103495256 3.0894214691
H 2.3717244155 -1.7538200653 4.1298171219
H -0.2326058636 -1.3470739290 3.1165835246
H 0.8171913818 -0.0896903688 3.8199480145
H 0.5974474228 1.3122061626 1.8226760719
H -1.0051690783 0.8746422675 2.4641301139
H 0.3999796499 -1.1735252731 -0.8920314304
H 1.4520388331 0.0720763730 -0.1733782262
H 2.2073909014 -2.1693733299 0.4769623894
H 0.5991824612 -2.5800031683 1.1188560780
H -1.2231238656 0.3641100202 -1.1900594500
H -0.4338092406 1.7276338296 -0.3841429655
H -3.0790238142 0.5064890097 0.5665626447
H -2.3393510256 1.9941637697 1.1496855632
H -4.0798783367 2.6556189619 -0.3152136942
H -2.5662494527 3.0068118567 -1.1463280078
H -2.8152336764 0.8858675125 -2.4603595370
H -3.2430552762 -1.3202043372 -1.9615027660
H -4.7878396769 -3.1248665298 -1.2022413679
H -7.7919422344 -0.1913292597 -0.3419631853
H -6.2575586984 1.6119908045 -1.1093565030
H -4.7894390141 3.9509133546 -1.9046062251
H -5.8472874997 5.2101138580 -3.7538302714
H -5.0454608477 1.9733883234 -6.4452616375
H -3.9872988728 0.6956503935 -4.5899153985
