26
CONF1
C -3.4513492451 0.6071857869 0.2620627142
C -2.5665515518 1.6794619143 0.2025586397
C -1.1851738368 1.4613741764 0.0980903356
C -0.2438520032 2.5386647818 0.0345553438
C 1.0929986638 2.3034957123 -0.0670404437
C 1.6114893724 0.9694305139 -0.1144073413
C 2.9843781160 0.7028924481 -0.2188626289
C 3.4513492267 -0.6071856999 -0.2620627453
C 2.5665515630 -1.6794618302 -0.2025586693
C 1.1851738517 -1.4613741253 -0.0980903215
C 0.6974236032 -0.1227091245 -0.0530169366
C -0.6974236172 0.1227091519 0.0530170138
C -1.6114893847 -0.9694304779 0.1144074068
C -2.9843781490 -0.7028923824 0.2188626423
C -1.0929986478 -2.3034956803 0.0670404914
C 0.2438520278 -2.5386647427 -0.0345553458
H -4.5175787342 0.7947247013 0.3429073051
H -2.9393317838 2.6992347052 0.2364212852
H -0.6243805892 3.5557569727 0.0693603499
H 1.7968318534 3.1298637363 -0.1143522902
H 3.6820740713 1.5342571567 -0.2658111662
H 4.5175787113 -0.7947245818 -0.3429073851
H 2.9393317972 -2.6992346037 -0.2364213604
H -3.6820741287 -1.5342570678 0.2658111271
H -1.7968318221 -3.1298637199 0.1143523025
H 0.6243806359 -3.5557569218 -0.0693604232
