55
CONF20
C -5.0377075364 -4.5765000767 -0.0889101874
C -3.8786842823 -3.7854859273 0.4676510739
O -3.7818366185 -2.5613272691 -0.3189451999
C -2.7855447658 -1.7210179691 0.0406332705
O -2.0034095576 -1.9235345059 0.9535700576
N -2.8055324620 -0.6217383829 -0.7800373594
C -1.8806611508 0.4301659759 -0.7879565420
C -1.1154701361 0.7654721370 0.3312948531
C -0.1660051043 1.7772778370 0.2329485050
C -0.0641735209 2.5490794281 -0.9284841512
C -0.8756954693 2.2517667276 -2.0222833638
C -1.7538074402 1.1806656596 -1.9646563415
S 1.0926067529 3.8986570036 -0.9796415628
C 0.9440890558 4.4209872027 0.7183069552
C 1.0318750700 5.7716576601 1.0554416402
C 0.9244777227 6.1526960312 2.3886925069
C 0.6949874114 5.1965876077 3.3772179908
C 0.5906181944 3.8514826818 3.0395335220
C 0.7406182087 3.4598219056 1.7121397993
N 0.6902797379 2.0824683273 1.3329808096
C 1.6643851475 1.2092784950 1.8242611942
O 2.4404454336 1.5720243311 2.7021922128
C 1.7818755607 -0.1407912001 1.1687639111
C 2.5592080488 -0.0013227435 -0.1747823131
N 2.5025576123 -1.1602883234 -1.0556271242
C 1.1715655808 -1.3985499749 -1.6180472299
C 1.2520968316 -2.5171346019 -2.6442246658
O 1.7553188572 -3.7215481840 -2.0535384188
C 3.0551075146 -3.4904864145 -1.4964776523
C 3.0129553839 -2.3910440477 -0.4465258409
H -5.9718120261 -4.0141463249 -0.0048859946
H -5.1415830363 -5.5052683912 0.4792759327
H -4.8696227492 -4.8312624798 -1.1389971881
H -2.9328897303 -4.3293056062 0.3821494912
H -4.0342325549 -3.5135349716 1.5162154626
H -3.4506142057 -0.6631290937 -1.5563234586
H -1.2338180597 0.2293808796 1.2620600098
H -0.8086621483 2.8485745822 -2.9259459572
H -2.3590455631 0.9319063497 -2.8311059925
H 1.1800372250 6.5143709704 0.2780790159
H 1.0000973617 7.2026477426 2.6519680706
H 0.5928521182 5.4986861915 4.4141861684
H 0.4120595267 3.0980671455 3.7979753598
H 2.3343610889 -0.7785765805 1.8610155325
H 0.8082715629 -0.5935815777 0.9812090352
H 2.1627181502 0.8547522865 -0.7337885207
H 3.6095350586 0.2142512951 0.0564775455
H 0.4301686656 -1.6837594589 -0.8466319938
H 0.8143695563 -0.4799810933 -2.1013673061
H 0.2565936578 -2.7517985497 -3.0325784474
H 1.9040020004 -2.2139937716 -3.4795505566
H 3.3751859207 -4.4358243785 -1.0489444906
H 3.7577734990 -3.2148676307 -2.2994568292
H 4.0254495764 -2.2118845975 -0.0633196239
H 2.3822656334 -2.7310432221 0.3967959098
