12
CONF46
C -0.8172763554 -1.2319459686 -0.4498012897
O -2.2118826402 -1.1686790021 -0.3234133289
O -0.2290555762 -0.0208128230 -0.8963680450
O -0.3465081628 0.9641838520 0.1995180751
C 0.9507796055 1.1137313851 0.7531900119
O 1.8287809761 1.8347213346 -0.0706541525
H -0.4190918675 -1.5127437925 0.5308714232
H -0.4960944712 -1.9435383002 -1.2245090486
H -2.5954835141 -1.1019848565 -1.2084232422
H 1.3587350797 0.1285551318 1.0166067698
H 0.7633389321 1.7140874955 1.6507742753
H 2.2137579993 1.2244256602 -0.7130144605
