26
CONF164
C -3.0079577814 0.1543277896 0.0182608444
C -1.5508729497 -0.0658787288 0.3876608754
C -0.6193715438 0.3651043419 -0.7534158358
C 0.8660764355 0.4293030960 -0.3721837680
C 1.3818012361 -0.8775103790 0.2790321344
C 2.8739137036 -1.0867743582 0.0760152906
O 3.6321955439 0.0087386895 0.6057428701
O 1.0744336842 -0.8499921257 1.6906744282
O 1.6222840354 0.7878308729 -1.5321556019
O -0.7169727357 -0.5868785496 -1.8315338317
O -1.3186923300 0.6995319713 1.5756470175
O -3.8865156999 -0.3297839695 1.0350721518
H -3.1693564418 1.2298969071 -0.1608146112
H -3.2516472740 -0.3924836406 -0.8970777826
H -1.3933850386 -1.1371122686 0.5861455874
H -0.9088825722 1.3651166698 -1.1075219589
H 1.0147431024 1.2430272778 0.3461454438
H 0.8536245835 -1.7467534524 -0.1302705723
H 3.0924260977 -1.2481538993 -0.9859927630
H 3.1817732679 -1.9764049007 0.6347784696
H 1.7556536074 -0.2945934742 2.1011521405
H 1.3116493175 0.2097826630 -2.2459241456
H -1.3357402568 -0.2475899032 -2.4877247534
H -0.5174821107 0.3206544172 1.9760491837
H 3.5284827631 0.7449581301 -0.0124475282
H -3.5925930964 0.0754610178 1.8623760690
