25
CONF2
O 5.9093202123 -0.2756473331 0.2709697865
N 4.9479248979 0.1169768195 0.9232174293
O 5.0209138273 0.6649440446 2.0179503846
C 3.6097449830 -0.0848112891 0.3504112838
C 3.4894850893 -0.7050491116 -0.8904358939
C 2.2297680060 -0.8940596454 -1.4275180541
C 1.1102455504 -0.4603516436 -0.7168495259
O -0.1005462567 -0.6890335730 -1.3279139623
C -1.2442972922 -0.2904216865 -0.6877189298
C -1.7882769253 0.9747854676 -0.9226110598
Cl -0.9322231225 2.0820274133 -1.9514488331
C -2.9913944768 1.3621315276 -0.3452973306
C -3.6473238123 0.4595265508 0.4825900097
Cl -5.1598392427 0.9298473399 1.2157374080
C -3.1364111842 -0.8054338194 0.7456013656
C -1.9314945630 -1.1671310230 0.1554822402
Cl -1.2545334243 -2.7350436817 0.4730087219
C 1.2333848859 0.1599570350 0.5251918212
C 2.4980142257 0.3483295519 1.0616834171
H 4.3790717489 -1.0291708114 -1.4153300658
H 2.0917286987 -1.3724418651 -2.3900643532
H -3.4016715175 2.3446670733 -0.5389991317
H -3.6588518824 -1.4963024524 1.3944553491
H 0.3549282152 0.4916894964 1.0665096970
H 2.6313915382 0.8267147860 2.0236513163
