28
CONF43
O -1.6322301600 -0.5780141675 -3.5542537109
C -1.8322799101 0.2970613333 -2.4430225057
C -1.7845275821 -0.4234576520 -1.1152483614
O -0.4379521396 -0.8990436533 -0.9070077195
C -0.1823086732 -1.0038436841 0.4956635199
C -1.3290599394 -0.2737988948 1.2142130654
C -2.0751767420 0.4627145992 0.1032517125
O -3.4581173635 0.5499810713 0.4253595484
N 1.1507670836 -0.4292943184 0.7488033227
C 1.4444734873 0.8348829266 0.3079932755
C 2.6424474030 1.4263617967 0.5042127502
C 3.6850439755 0.7197543803 1.2040575997
O 4.8133726662 1.1407687642 1.4468348492
N 3.3070663692 -0.5648696657 1.6193642850
C 2.0911624526 -1.1936820624 1.4427891272
O 1.8675401050 -2.3199793287 1.8642356382
H -0.7395696615 -0.9391405026 -3.4820661725
H -1.0895135816 1.1097909709 -2.4375723565
H -2.8277850776 0.7372969205 -2.5692015362
H -2.4844291566 -1.2739896275 -1.1165691866
H -0.1093562556 -2.0513380853 0.7943321908
H -0.9684540008 0.3806868085 2.0099457253
H -2.0091931304 -1.0116362185 1.6506794953
H -1.6586723256 1.4678778020 -0.0591906774
H -3.8701313088 1.1835197219 -0.1752038746
H 0.6462516255 1.3317753714 -0.2321563142
H 2.8387712290 2.4247190211 0.1383306674
H 4.0018611884 -1.1051030505 2.1214256430
