49
CONF22
C -5.1224659425 -2.1151823611 0.8947997958
C -4.4083753650 -1.0284092604 0.1443952339
C -3.2676906751 -0.4923957938 0.6006398955
C -2.4960195600 0.5651944754 -0.1041368877
C -1.4801013376 1.3774309226 0.6808934401
C -2.7478912539 2.0334692843 0.1037823955
C -3.7753385415 2.4561520354 1.1279304285
C -2.6426363865 2.9643758690 -1.0806273547
C -0.1583627547 1.6434491021 0.0991162779
O 0.1554587427 1.5658534579 -1.0724510425
O 0.7225338396 2.0124519076 1.0769726168
C 2.0788025204 2.2886217617 0.6581581440
N 2.8054615939 1.0858684449 0.3729367431
C 3.2858599656 0.6891229258 -0.8883810079
O 3.2009043652 1.3353527877 -1.9118043706
C 3.9437593318 -0.6318260579 -0.6843101898
C 3.8679984752 -0.9585835208 0.6165391102
C 3.1581431054 0.1309998793 1.3391359149
O 2.9131809130 0.2208876701 2.5264543937
C 4.4059408563 -2.2057767756 1.2156433819
C 4.7495468450 -3.2023903146 0.0975171038
C 5.4866941200 -2.5190467740 -1.0613104293
C 4.6147536357 -1.4445531187 -1.7298015476
C -5.0620623765 -0.5959089127 -1.1358952811
H -6.1428262243 -1.8013126864 1.1488776489
H -5.2192098664 -3.0142547518 0.2728707835
H -4.5993658265 -2.3840815209 1.8161972845
H -2.8645772372 -0.8503742862 1.5474833119
H -2.1568248774 0.3245049970 -1.1110953199
H -1.4854519755 1.2573914478 1.7596203501
H -3.5578664897 3.4667050877 1.4902886800
H -4.7711937048 2.4671291444 0.6691633678
H -3.8042015863 1.7758568000 1.9823252204
H -1.9268079940 2.6063904046 -1.8221750248
H -3.6247245969 3.0474469575 -1.5597088321
H -2.3405611678 3.9677408419 -0.7588393482
H 2.0888987962 2.9157946008 -0.2363125225
H 2.5180909835 2.8050348863 1.5130972045
H 3.6786211545 -2.6289105025 1.9186239472
H 5.2985053335 -1.9651289471 1.8105974981
H 5.3572375461 -4.0160417728 0.5045140215
H 3.8207308169 -3.6485340588 -0.2802575513
H 5.7906481812 -3.2609379142 -1.8056559705
H 6.4012324552 -2.0486118111 -0.6782910864
H 5.2085414993 -0.7964515687 -2.3849936036
H 3.8513098142 -1.9076167209 -2.3711811160
H -4.5319444133 0.2269711341 -1.6202468546
H -5.1221208489 -1.4363944089 -1.8390662697
H -6.0942337874 -0.2774732613 -0.9433549611
