57
CONF1
C 3.7349838085 -0.5634811608 -2.7834166017
C 3.0085138577 -0.6623161103 -1.4458860132
C 1.6834001830 -1.4761453295 -1.5057824894
C 0.6242668268 -0.4991070289 -0.9923756010
C -0.7575591690 -1.0157151375 -0.5840347774
C -0.7758970320 -2.1293031269 0.4702784855
C -2.2047514801 -2.5679658304 0.7998377692
C -3.0275858751 -1.3845642991 1.2071558241
C -3.6750327877 -1.3368193537 2.3828492906
C -4.5189249962 -0.2070549082 2.7961337677
O -5.1114459290 -0.2087596122 3.8734149735
C -4.6203669572 0.8987075412 1.8429190594
C -3.9349728358 0.8996429146 0.6932271090
C -3.1027188136 -0.2521998251 0.2075534480
C -1.6441271740 0.1905078630 -0.1896095509
C -0.9494033479 1.1077789729 0.8442340870
C 0.4625424032 1.5490606154 0.4031342968
C 1.3678173869 0.3732118807 0.0457377207
C 2.6320369986 0.7218749415 -0.8358706471
C 3.7784026388 1.3378635391 -0.0412922468
O 4.6053401346 0.6676381160 0.5532442491
C 3.8684030853 2.8491584540 0.0223006908
O 4.8583849584 3.2710149349 0.9227132567
O 2.2045786209 1.6716628858 -1.8205412617
C 1.8208187490 -0.3436212420 1.3268696829
O -1.7136898885 2.2764911884 1.1149835946
F -1.7828695257 1.0020613378 -1.3534740708
C -3.8481961315 -0.7660003793 -1.0611281359
H 3.0832026307 -0.1716105989 -3.5740461393
H 4.6337054062 0.0620595129 -2.7139784951
H 4.0598380816 -1.5566484216 -3.1064319452
H 3.6931227181 -1.1235196823 -0.7287318587
H 1.7592842910 -2.3727378994 -0.8823718985
H 1.4608087303 -1.8097150591 -2.5250584807
H 0.4259767111 0.1896707890 -1.8207712849
H -1.2096095086 -1.4335206382 -1.4947129149
H -0.2009857321 -2.9834026636 0.0974554109
H -0.2972223767 -1.8098209742 1.3969087382
H -2.2025041693 -3.3118289086 1.6016572193
H -2.6528502016 -3.0477667731 -0.0808402218
H -3.6250307762 -2.1686730862 3.0813268366
H -5.2564366623 1.7307746327 2.1279139968
H -4.0342819249 1.7293716735 -0.0009192508
H -0.9136189910 0.5657059547 1.7966925313
H 0.3510735323 2.1991286749 -0.4714014071
H 0.8775347918 2.1486847059 1.2214463001
H 2.8809476220 3.2518157690 0.2975698897
H 4.0695576969 3.2258744649 -0.9943213671
H 5.3117430046 2.4623537505 1.2144984375
H 2.8285291088 1.6425850184 -2.5548664797
H 0.9809318502 -0.5031993281 2.0023145728
H 2.2905242525 -1.3111074759 1.1347763294
H 2.5424595432 0.2688443233 1.8727062326
H -1.7134359185 2.8061498399 0.3068938427
H -3.3060270159 -1.5656281443 -1.5689234775
H -4.8264920509 -1.1482041307 -0.7585065295
H -3.9926930502 0.0514283186 -1.7694548938
