41
CONF19
C -1.1461275603 -3.6757782163 0.3345899619
C -0.9668602756 -2.1891231136 0.5613738525
O 0.3419873336 -1.7452843940 0.1153154851
C 1.3479867543 -1.9199201225 1.0127744538
O 1.2190551008 -2.4046798450 2.1226268432
N 2.5318688468 -1.4851273920 0.4903322398
C 3.6907811238 -1.3349634470 1.3586996173
C 3.5487067268 -0.2305093111 2.4037752865
O 3.3754630035 1.0507069606 1.7830785550
C 2.1176816027 1.4274151855 1.3828819320
C 0.9361935705 1.0555647229 2.0287437918
C -0.2858380733 1.5001338903 1.5349064483
C -0.3277172757 2.3220598406 0.4186063648
C 0.8447440000 2.7285369228 -0.2056838754
C 2.0664797803 2.2795791153 0.2765702346
O -1.5538568086 2.7711268331 -0.0577890093
C -2.1831859205 1.9993355318 -1.0096162363
C -1.6422056340 0.8245194887 -1.5301115148
C -2.3620615276 0.1171307363 -2.4912584753
C -3.6014471799 0.5666906505 -2.9320366022
C -4.1265691029 1.7445484528 -2.4016843086
C -3.4255279637 2.4629546167 -1.4435575485
H -2.1633300381 -3.9689961258 0.6134762297
H -0.4427333237 -4.2464307279 0.9456360468
H -0.9927731118 -3.9275598858 -0.7187532068
H -1.0849686176 -1.9284546491 1.6171228166
H -1.6666707118 -1.6008844343 -0.0375382396
H 2.4716191224 -0.8994500665 -0.3279886341
H 4.5563020258 -1.1272011038 0.7219220175
H 3.8693510404 -2.2825774283 1.8801028351
H 2.7377289569 -0.4644707392 3.0982887304
H 4.4780394807 -0.1532857190 2.9766880696
H 0.9465253489 0.4087518212 2.8971939101
H -1.2140583666 1.2066441126 2.0141734121
H 0.7906433350 3.3782594388 -1.0727803397
H 2.9969364419 2.5749873415 -0.1964552411
H -0.6778586268 0.4641564583 -1.1903485651
H -1.9383141860 -0.7965582320 -2.8974536590
H -4.1529839936 0.0091553258 -3.6810485019
H -5.0928072977 2.1084709322 -2.7365896287
H -3.8201969991 3.3805266757 -1.0210270548
