24
CONF1
C 4.9458048065 -0.6884442156 -0.4082650232
C 4.9325653150 0.7057947641 -0.3778340970
C 3.7504225639 1.3893901523 -0.1201206564
C 2.5717462150 0.6770015707 0.0959963555
C 2.5850352458 -0.7252886739 0.0652515835
C 3.7769373078 -1.4050196395 -0.1812400078
C 1.3489424015 -1.5024829081 0.3128199805
O 1.3393059190 -2.7194852507 0.3986704029
C 0.0882178818 -0.7314962799 0.5049520846
C 0.0755795738 0.6170535427 0.5353758785
C 1.3213855062 1.4193297722 0.3769598514
O 1.2893234409 2.6309441157 0.5165473704
S -1.3608994465 1.6073408721 0.8599163984
C -2.6015246126 0.6067411926 0.0733790167
C -2.5888070093 -0.7501505440 0.0425380055
S -1.3292857622 -1.7622431359 0.7830045138
C -3.5896177688 -1.4842662832 -0.6356428090
N -4.4006010846 -2.1208189062 -1.1655923278
C -3.6158170650 1.3521813890 -0.5715960273
N -4.4382082163 1.9974541676 -1.0726408747
H 5.8717228937 -1.2173282813 -0.6079467976
H 5.8481758086 1.2603532783 -0.5539538657
H 3.7189268307 2.4727263855 -0.0845051348
H 3.7661737502 -2.4892787812 -0.1930280578
