25
CONF164
C -1.7258991983 -0.3053281175 0.6936166993
C -0.3868480793 0.3443922807 1.2164275440
C 0.9020082420 0.1038101262 0.3626752356
C 2.2258933805 0.4087118802 1.1283391532
F 2.4934548320 -0.5959079074 1.9792409654
F 2.1062072060 1.5604303652 1.8208936377
S 3.7786425981 0.6396855378 -0.0007503023
O 3.5892261955 1.9179745141 -0.6854655451
O 4.8846910283 0.4125567165 0.9302443875
N 3.8079892664 -0.5567705896 -1.1320306270
F 0.8368170411 0.8993280442 -0.7314892046
F 0.9402736082 -1.1892497150 -0.0331722089
F -0.1838684983 -0.1854038299 2.4480583414
F -0.5832438095 1.6729282675 1.3432421671
C -2.1555305514 0.0399680681 -0.7665039799
C -3.6383669620 -0.3286110561 -1.1074522951
F -3.8167413292 -0.1908284818 -2.4281147264
F -3.9010381607 -1.5961954365 -0.7645222665
F -4.4899689999 0.4840334327 -0.4740463973
F -2.0077072478 1.3664367180 -0.9813211269
F -1.3579097344 -0.6402242467 -1.6208034138
F -2.6932259837 0.1324391763 1.5371032936
F -1.6254749077 -1.6456742128 0.8113948913
H 3.1067192755 -0.4645599519 -1.8632265651
H 3.8769477946 -1.4950122169 -0.7440024413
