70
CONF190
C -2.8340706115 0.7573282582 -0.1792354915
C -4.1648230049 0.8363003583 0.6106616702
C -4.4054831562 -0.4544501277 1.3246011655
C -5.5235425700 -1.1235035408 1.7613317876
N -5.1372404378 -2.3234529771 2.3511448968
C -3.7683055252 -2.4478891284 2.2876356420
C -2.8658575092 -3.4342898624 2.6944689892
C -1.5197225139 -3.1970745191 2.4256750374
C -1.0600006718 -2.0267475026 1.7784229520
C -1.9564849126 -1.0390742106 1.3844343695
C -3.3017725373 -1.2806738548 1.6497752766
C -1.6502536280 0.2879568438 0.7212781702
C -0.3375624113 0.2470390510 -0.0562431239
C -0.0754980317 1.5988706268 -0.7252025227
C -1.2697913698 1.9573568053 -1.5954829174
N -2.4882468130 2.0660293681 -0.7771217771
C -3.5739259845 2.6044066933 -1.6192231004
C -3.2676871617 3.9834611267 -2.1204792479
C -3.4295118615 4.3814450126 -3.3802574413
C 1.2041845910 1.5758548963 -1.5464536522
O 1.1867922310 1.7089439021 -2.7715679649
N 2.3921594447 1.3226325344 -0.8945512648
C 3.6152085936 1.2199599603 -1.7271999780
C 3.7516487001 -0.0675867527 -2.5486714935
C 4.3757760863 -1.2603412164 -1.8280810165
N 3.5970123690 -1.7711801441 -0.6888372765
C 4.3766693325 -2.7714581811 0.0497352532
C 2.3145547805 -2.3448325254 -1.1070226226
C 2.5292492225 1.4190729464 0.5439050251
O 2.0499667552 2.3630359508 1.1740192852
N 3.2492965892 0.4183559471 1.0629523704
C 3.5105356589 0.3318118848 2.4952512185
C 2.3704874993 -0.3485714442 3.2503959909
H -2.9613612977 -0.0049465515 -0.9778425174
H -4.0965946501 1.6767556548 1.3172450025
H -5.0002911912 1.0460321283 -0.0614748834
H -6.5711644376 -0.8605782066 1.7076426958
H -5.7726617382 -2.9998196860 2.7423542746
H -3.1880221899 -4.3441886599 3.1907295329
H -0.7894521230 -3.9439890092 2.7230630868
H 0.0052751986 -1.9197644927 1.6011046082
H -1.5469090377 1.0470404509 1.5146106324
H 0.4792261305 -0.0211959662 0.6209692980
H -0.3922128247 -0.5352537550 -0.8257763745
H 0.0269636090 2.3588330822 0.0553331454
H -1.0953847588 2.9189714223 -2.0855652922
H -1.3942764260 1.2026284744 -2.3960694404
H -3.8057833874 1.9360420316 -2.4714448037
H -4.4794846114 2.6835966894 -1.0093114063
H -2.9312043081 4.6929541194 -1.3634743130
H -3.7566181957 3.6885584843 -4.1524481296
H -3.2450152802 5.4092904979 -3.6778248479
H 4.4743967164 1.3394488304 -1.0611076522
H 3.6016341783 2.0738424862 -2.4117366933
H 2.7860499881 -0.3258021032 -2.9922149754
H 4.4147053690 0.1621760896 -3.3914949825
H 5.3578259205 -0.9605460572 -1.4391310711
H 4.5527614710 -2.0682997631 -2.5636466319
H 4.6229417760 -3.6489962872 -0.5739157071
H 3.8029355809 -3.1135918546 0.9174109976
H 5.3114415031 -2.3238178532 0.4028727610
H 2.4516097262 -3.1971078025 -1.7963274500
H 1.7702682721 -2.6958040955 -0.2241115169
H 1.7004937254 -1.5904869182 -1.6042887420
H 3.4038714786 -0.4224357508 0.4572154249
H 4.4402711896 -0.2320936970 2.6261711069
H 3.6742827198 1.3430026848 2.8808317132
H 2.6033595169 -0.4059327159 4.3183174937
H 2.2139465102 -1.3653403017 2.8756677030
H 1.4384132218 0.2120818829 3.1276104224
