49
CONF11
C -3.2665518570 -3.5509042891 -1.5069810042
C -3.0379309946 -2.1392694332 -2.0046557791
C -1.9253738790 -1.2736948718 -1.3835800474
C -3.4168030445 -0.9636351055 -1.1501268665
C -3.9266378507 0.3126504273 -1.7916783544
C -4.0275725474 -1.1789026976 0.2189405890
C -1.0449400597 -1.7601436005 -0.3165412988
O -1.3068691613 -2.5102438409 0.5994125281
O 0.2140986637 -1.2262762915 -0.4927156094
C 1.1752420008 -1.5803232878 0.5365830845
C 2.4733719787 -1.6746164232 -0.1277345246
N 3.5169204011 -1.7449659250 -0.6171962722
C 1.1753937862 -0.5541181751 1.6477553267
C 0.5166778003 -0.8359266273 2.8422898734
C 0.4813428183 0.1313389203 3.8432143820
C 1.1033724830 1.3588423411 3.6636561962
C 1.7595853554 1.6278838152 2.4624321324
C 1.7935090715 0.6789112752 1.4458673486
O 2.3079961690 2.8821565143 2.3386167586
C 3.3453585379 3.0887764203 1.4408461299
C 3.2533381074 4.1998252201 0.6120708847
C 4.3055358498 4.4910349728 -0.2508772276
C 5.4307886310 3.6735228833 -0.2900227725
C 5.5075311792 2.5641928961 0.5486833241
C 4.4697553536 2.2682168326 1.4250324713
C -3.1591654099 -2.0529723203 -3.5139012848
H -3.1015547110 -3.6666361064 -0.4382149354
H -2.5905788565 -4.2408833147 -2.0233840286
H -4.2935938220 -3.8544447535 -1.7403898140
H -1.4220194177 -0.6076632473 -2.0766192133
H -3.4268723790 0.5555438320 -2.7301541247
H -5.0013701622 0.2290198481 -1.9909386424
H -3.7785440620 1.1558689068 -1.1090034709
H -3.6230084660 -2.0416057266 0.7431204745
H -5.1113584826 -1.3050703875 0.1151721524
H -3.8524111340 -0.2978148681 0.8455434981
H 0.9111953945 -2.5642877326 0.9409988024
H 0.0261734456 -1.7934571882 2.9766502196
H -0.0287972570 -0.0771633978 4.7778261957
H 1.0936792113 2.1186703859 4.4371878247
H 2.3022730417 0.8907018915 0.5114949882
H 2.3653081650 4.8206470448 0.6562034001
H 4.2392826031 5.3584755135 -0.8995929131
H 6.2451442558 3.8986058948 -0.9700588999
H 6.3828943488 1.9235359718 0.5263137558
H 4.5253366051 1.4087478913 2.0844730974
H -2.8858470938 -1.0750615941 -3.9116869267
H -4.1880941535 -2.2709423680 -3.8229059961
H -2.5052108480 -2.7961463159 -3.9817564187
