21
CONF25
C 1.3259314983 -0.1540339134 0.4552858420
C -0.1223794847 0.1193134063 -0.0075102108
C -0.3880312374 1.6230075877 0.0285423868
O 0.6366878914 2.2971098604 -0.7147755781
C -0.3374188167 -0.3907981903 -1.4318630050
O 0.1014879848 -1.7617511436 -1.4991694028
C -1.1251009925 -0.5712403077 0.9412683238
O -0.8224402445 -0.3657835691 2.3155857318
O 1.5098857512 -1.4806349259 0.9613932013
H 1.5765102923 0.5197009851 1.2802550722
H 2.0238687687 0.0533195934 -0.3658502405
H -1.3808710917 1.8324761352 -0.4042792620
H -0.3931455443 1.9437052967 1.0801116859
H 0.5201386902 3.2445948859 -0.5951107558
H -1.4056860771 -0.3213121417 -1.6962591232
H 0.2384694085 0.2307632519 -2.1299188126
H 0.0870338499 -2.0420380647 -2.4191331114
H -2.1253148316 -0.1505017271 0.7754520999
H -1.1727551568 -1.6413194728 0.7023501604
H -0.0411424307 -0.9078440707 2.4919663122
H 1.2942720691 -2.0767331633 0.2316586806
