111
CONF69
C 2.9917917419 -1.0746375951 1.5847589478
N 2.0474867107 -1.9633083624 2.2791052881
C 2.4978088287 -3.2026252630 2.8811400320
C 0.8173483473 -1.8613376506 1.6506616304
C -0.2736549828 -2.7236242877 1.7311476309
C -1.4430821859 -2.3598101323 1.0513117511
O -2.5611857983 -3.1464891197 1.0488176591
C -2.5324444745 -4.3792888487 1.7741739187
C -1.5407792191 -1.1676537372 0.3057582151
C -0.4062426839 -0.3482793403 0.2333285162
C 0.7579697982 -0.6909142911 0.8878531867
C 2.0543930587 0.0613161934 1.0787231915
C 1.8987119652 1.1535119102 2.2029738524
C 2.2508554588 2.4708171669 1.5121281408
N 3.1973873466 2.0511333744 0.4800490364
C 3.4949585389 3.0840242115 -0.5002613291
C 4.2396284486 2.5030641194 -1.6627039912
C 4.2348785201 1.2000964720 -1.9331868288
C 3.4240293741 0.1800105877 -1.1682433733
C 2.5331516394 -0.5870479908 -2.1936611995
C 1.7723944577 0.2974523427 -3.1799632544
C 4.4196415046 -0.8089126178 -0.5174269830
O 5.4079008475 -0.0444552903 0.2129619842
C 6.7151801083 -0.3416997882 0.0296430574
C 7.5760922854 0.5735009512 0.8434601668
O 7.1138144337 -1.2221635106 -0.7057505625
C 3.7845947242 -1.8212423738 0.4794265643
O 2.9042233744 -2.6964612020 -0.1985657612
C 4.9539733104 -2.6052264288 1.1160881393
O 5.5847448543 -2.2486260045 2.0890900910
O 5.2215414004 -3.7139493075 0.4135445709
C 6.3610062422 -4.4865002129 0.8717170563
C 2.5409954496 0.8864677592 -0.1299535358
C -2.8816635581 -0.7767235849 -0.3206636832
C -3.9413335967 -0.4797861180 0.7681982291
C -3.5440472864 0.4990666911 1.9020814282
C -2.7949717555 1.7788699552 1.5043292963
N -3.6357193870 2.7973225012 0.8698251343
C -4.6625008133 3.2300744468 1.8249153007
C -5.3283629217 2.1104242828 2.5988122050
C -6.6099730121 2.4657807799 3.3033338351
C -7.8104098762 2.5097256478 2.3459946253
C -4.7956804954 0.8836221630 2.6467030642
C -4.2745325316 2.3209743983 -0.3819974668
C -3.3266475492 1.6500949654 -1.3275622596
C -2.7577098523 0.3829510278 -1.2961596047
N -1.9606132375 0.2270912318 -2.4185313409
C -1.9796835498 1.3675997789 -3.1771069259
C -1.3471439972 1.6636547547 -4.3846546779
C -1.5592739037 2.9262599865 -4.9218072237
C -2.3839005467 3.8657953397 -4.2739851064
C -3.0196310836 3.5610699609 -3.0789369809
C -2.8253099191 2.2924309022 -2.5113796726
C -3.4439141670 -1.9355075589 -1.1831246637
O -4.6185748629 -2.2130842773 -1.2870752673
O -2.4714320683 -2.5550014089 -1.8762682096
C -2.9143847041 -3.6109025601 -2.7645559044
H 3.7355690978 -0.6827441588 2.2827114300
H 2.7334962681 -3.9789757462 2.1349605318
H 1.7188784256 -3.5890969725 3.5452249697
H 3.3877118950 -3.0086272202 3.4853825132
H -0.2156346621 -3.6486250654 2.2889586766
H -1.7619255848 -5.0516402375 1.3789550245
H -2.3584346926 -4.2035927057 2.8422324063
H -3.5170909311 -4.8262807416 1.6322806770
H -0.4487270667 0.5683650138 -0.3469618362
H 2.5949260110 0.9528960599 3.0219605928
H 0.8852640916 1.1600479232 2.6103993932
H 2.7007900267 3.2078162967 2.1862446156
H 1.3453502372 2.9258371701 1.0607147653
H 4.0954038341 3.8712998709 -0.0254643411
H 2.5676664073 3.5779340715 -0.8673130237
H 4.7934332083 3.1931153080 -2.2946615475
H 4.8006394569 0.8128471800 -2.7804071848
H 1.8222728212 -1.2066614261 -1.6440333952
H 3.1799169271 -1.2728253617 -2.7560706313
H 2.4441366642 0.8830772153 -3.8136896835
H 1.1590395748 -0.3341951724 -3.8301732002
H 1.0963864888 0.9940927550 -2.6740421567
H 4.9262905664 -1.3776579306 -1.3057492979
H 7.4783066025 1.5934773501 0.4573633305
H 7.2359328667 0.5807096002 1.8822214533
H 8.6159234146 0.2550070341 0.7841538220
H 3.4128189509 -3.1999476535 -0.8495874475
H 6.1877286356 -4.8323562872 1.8932389811
H 7.2634370326 -3.8721878895 0.8319873651
H 6.4330536137 -5.3280326656 0.1846407504
H 1.6314686992 1.2341843515 -0.6597028764
H -4.8519678333 -0.1448972230 0.2718442126
H -4.1946079483 -1.4315276644 1.2406877444
H -2.8815775157 -0.0571474376 2.5816903910
H -1.9491739068 1.5570710031 0.8538608237
H -2.3839458727 2.2266055497 2.4190356197
H -4.2067140740 3.9246148518 2.5497215940
H -5.4195394924 3.8142893547 1.2850017991
H -6.8058255931 1.7359517975 4.0969294442
H -6.4995096414 3.4464757210 3.7870685310
H -8.7209070388 2.8059984103 2.8764996020
H -7.6489730414 3.2239176217 1.5322807975
H -7.9774508681 1.5239295805 1.9002517023
H -5.3070452038 0.1008617756 3.2088823539
H -4.6802825898 3.2055503694 -0.8875467108
H -5.1415829830 1.6763727884 -0.1698458934
H -1.4311570435 -0.6059918423 -2.6241712706
H -0.7143633675 0.9370076942 -4.8832337619
H -1.0815926256 3.1931003764 -5.8593903294
H -2.5250430218 4.8445777388 -4.7219075794
H -3.6555427496 4.2956950797 -2.5936682934
H -2.0081113755 -3.9918357450 -3.2336664388
H -3.4107734700 -4.3964477583 -2.1897393661
H -3.6000423590 -3.2103777403 -3.5151707626
