33
CONF30
O -3.6334105370 -1.8053009104 3.7491586476
C -3.2401194997 -1.3097101766 2.5526979727
C -4.2423830002 -1.1257635862 1.5973409317
C -3.8933810309 -0.6212268020 0.3550010053
O -4.8553152143 -0.4156658904 -0.5595801734
C -2.5394104979 -0.3013238680 0.0444888330
C -2.1937711380 0.3388374444 -1.1933343336
O -3.0338071380 0.5868258842 -2.0837412256
C -0.7538657598 0.7508939286 -1.3479294921
C 0.1633970896 -0.1874592345 -0.5759240965
O -0.2495384677 -0.2411803651 0.8268545511
C -1.5573332211 -0.5213370019 1.0429522588
C -1.8966583221 -1.0153089197 2.2916440436
C 1.6049451843 0.2278422904 -0.6074031664
C 2.0207943507 1.4073920082 0.0115068088
C 3.3552798853 1.7983401074 -0.0524919966
C 4.2780406246 1.0222705122 -0.7458592529
O 5.6051982485 1.3286971785 -0.8709009490
C 3.8644818313 -0.1631159140 -1.3718527306
O 4.7501074914 -0.9453602505 -2.0555360253
C 2.5344916430 -0.5566434471 -1.2920223654
H -2.8705273430 -1.8942710293 4.3381936701
H -5.2742071760 -1.3642377594 1.8272990583
H -4.4001674344 -0.0093291565 -1.3501081075
H -0.4825022636 0.7555961102 -2.4071996311
H -0.6495480839 1.7774343428 -0.9694190578
H 0.0605651684 -1.2051861868 -0.9766984551
H -1.1282607189 -1.1866482684 3.0382256632
H 1.3091376227 2.0228246032 0.5521002929
H 3.6871248841 2.7122283571 0.4332107206
H 5.7994594139 2.1616395626 -0.4203078713
H 5.6282658872 -0.5400898399 -2.0054315808
H 2.2329184210 -1.4816644216 -1.7749341160
