50
CONF57
C 4.3131077812 -1.8412448117 1.5183561796
C 2.9015539733 -1.6732905942 2.1120208128
C 3.0147915816 -0.8506251843 3.4008757292
C 2.3280977935 -3.0585486468 2.4691995546
C 1.9898522475 -1.0101843784 1.0784363010
C 1.7773458596 -1.6324054398 -0.1612601767
C 0.9295783096 -1.0875343472 -1.1150406384
C 0.2787728418 0.1059198150 -0.8335372290
C 0.4834436432 0.7712570599 0.3625293963
C 1.3358788191 0.2019611630 1.3100353144
O -0.5801738072 0.6005993918 -1.8338127888
P -2.1019657068 1.0479647638 -1.5662547751
O -2.8485701098 1.0731201446 -2.8404750558
O -2.0852095704 2.4294371642 -0.7452233835
C -1.9311955371 3.6391979951 -1.4533110266
C -0.6514349285 4.1100093385 -1.7101937286
C -0.5126647763 5.3322573699 -2.3646624020
C -1.6389424677 6.0575003472 -2.7472274978
C -2.9129916268 5.5623186178 -2.4747684214
C -3.0685976264 4.3416585374 -1.8225183026
O -2.6457473718 0.1314014682 -0.3664634638
C -2.4288462110 -1.2555793566 -0.3167847580
C -2.0861941292 -1.7762626286 0.9236209225
C -1.8610978094 -3.1444380370 1.0342032214
C -1.9756351272 -3.9698205750 -0.0838140703
C -2.3334109824 -3.4247830765 -1.3140832087
C -2.5719144116 -2.0572258235 -1.4411056002
H 4.7386986821 -0.8669455371 1.2553224624
H 4.3025270259 -2.4651045837 0.6197289960
H 4.9705414817 -2.3178654046 2.2536843844
H 3.6758361898 -1.3710967514 4.1007804034
H 3.4398177891 0.1405373986 3.2109791659
H 2.0416738829 -0.7259780486 3.8873359631
H 2.2726106378 -3.7096057185 1.5916733520
H 1.3204349397 -2.9617618300 2.8878185790
H 2.9675029073 -3.5452785222 3.2137607494
H 2.2694423252 -2.5721515492 -0.3903812358
H 0.7531070477 -1.5867997506 -2.0619415286
H -0.0155104400 1.7108813059 0.5706411335
H 1.4742518505 0.7309422712 2.2452090288
H 0.2135876769 3.5330222666 -1.4001643227
H 0.4809988713 5.7158262404 -2.5724329127
H -1.5242955047 7.0091483473 -3.2556156781
H -3.7923774431 6.1254875251 -2.7701256560
H -4.0500650594 3.9360041562 -1.6018533649
H -1.9851151113 -1.1125300385 1.7753784562
H -1.5876034807 -3.5634149007 1.9972783726
H -1.7915671873 -5.0352485731 0.0057648502
H -2.4337059140 -4.0628624726 -2.1861429506
H -2.8586234110 -1.6278664142 -2.3954404541
