41
CONF55
C -0.2755778780 -3.0371913559 -0.0493065792
C 0.2917392718 -3.6501598931 1.2138184825
O 0.8684083449 -2.6402958524 2.0797031680
C 2.1506954045 -2.2886562077 1.7973627619
O 2.8269635858 -2.7572604920 0.8994460240
N 2.5863759590 -1.3558931922 2.6927616536
C 3.8682091744 -0.6986778255 2.5047943693
C 3.8777099633 0.2967632431 1.3500758307
O 2.9268912064 1.3464633231 1.5856793100
C 1.6396736693 1.1720662119 1.1391771693
C 0.6243636062 1.6511187552 1.9677650841
C -0.7044273744 1.5672761999 1.5699264999
C -1.0182929186 0.9927177905 0.3454791349
C -0.0128619786 0.5221194922 -0.4914794499
C 1.3171042298 0.6159717580 -0.1014932148
O -2.3559427734 0.8245734970 0.0187123681
C -2.8268386478 1.3907356938 -1.1473423612
C -4.0021633682 0.8470420060 -1.6622017817
C -4.5641925324 1.3967721122 -2.8072074932
C -3.9595865855 2.4785377177 -3.4438606419
C -2.7871374137 3.0114968501 -2.9177218958
C -2.2125480176 2.4764872123 -1.7682519738
H -1.0036199215 -2.2573137514 0.1915795693
H -0.7758724631 -3.8116221995 -0.6400548993
H 0.5228672730 -2.6022066760 -0.6551617115
H 1.0554462244 -4.3995267849 0.9864292069
H -0.4933476879 -4.1044820394 1.8238311822
H 1.8845160616 -0.9016413549 3.2549213512
H 4.6339181327 -1.4605481831 2.3170741873
H 4.1198309697 -0.1825225633 3.4367628559
H 4.8566142535 0.7829864469 1.2871926176
H 3.6864122368 -0.2237590897 0.4078412004
H 0.8934909836 2.0943743042 2.9208365055
H -1.5033260446 1.9313880978 2.2066695624
H -0.2743259596 0.0859235443 -1.4500447705
H 2.0892832237 0.2522000944 -0.7688031561
H -4.4580677281 0.0043381871 -1.1540949275
H -5.4795055092 0.9720234806 -3.2070785879
H -4.3996232753 2.9022731667 -4.3399048844
H -2.3109518946 3.8590778387 -3.4005236427
H -1.3023027861 2.8970305485 -1.3561496144
