41
CONF17
C -6.1667045804 -0.9147671854 1.5491898119
C -5.7036202178 0.3887174925 1.7111667898
C -4.6183014646 0.8425573940 0.9650952053
C -3.9854995434 0.0020802126 0.0474212184
C -4.4585407293 -1.3038781925 -0.1108776588
C -5.5408392760 -1.7608955052 0.6354228431
C -2.7946528432 0.4786500552 -0.7412350794
C -1.4822231996 -0.0982449438 -0.2028641918
N -0.3795697428 0.2989746833 -1.0802357804
C 0.9243920464 0.2593351467 -0.7132394795
C 1.3495030250 -0.0071123124 0.6058849851
C 2.6891406354 0.0159537152 0.9584348050
C 3.6675073162 0.2795244343 0.0105925833
C 3.2742019832 0.5357315081 -1.3234854195
C 1.9356500713 0.5303599669 -1.6609829020
C 4.2472346275 0.8557957821 -2.4396583561
F 5.3444386254 0.0657813771 -2.4121143502
F 4.6621576845 2.1411476618 -2.3937706628
F 3.6837784202 0.6777182104 -3.6567865062
S 5.3592880988 0.3128128036 0.6362951783
O 5.2616115971 0.2494757974 2.1033403263
O 6.0668030015 1.4281094617 -0.0090305181
N 6.0152583964 -1.1576369016 0.1318366834
S 0.1230998210 -0.3277095300 1.8595222012
O 0.4471375054 0.4256098839 3.0764216779
O -0.1231902980 -1.7741567951 1.9384972565
N -1.2541162877 0.3691737111 1.1689261029
H -7.0126930354 -1.2693971715 2.1295742620
H -6.1872593192 1.0542194529 2.4196525687
H -4.2581157742 1.8593909065 1.0955340315
H -3.9774953238 -1.9652938084 -0.8272551999
H -5.8990653876 -2.7768546963 0.5003726979
H -2.8844839929 0.1620063031 -1.7870518726
H -2.7299167091 1.5724013866 -0.7269528571
H -1.5571754299 -1.1940663877 -0.1571485457
H -0.5911776180 0.4492152503 -2.0555124233
H 2.9756777263 -0.1661651201 1.9883191991
H 1.6356984423 0.7372525523 -2.6816974567
H 6.4013167333 -1.6478997097 0.9352470074
H 6.7245255275 -1.0154343976 -0.5827808295
H -1.1837783263 1.3875174438 1.2265721571
