40
CONF35
C -1.0294699454 -2.1160204759 2.7824014600
C -0.5218962871 -1.6673927676 1.4014204074
C 0.9274156844 -2.1416844613 1.2288341366
C -1.4746947655 -2.2290539978 0.3400683915
C -2.7252089680 -1.6305413818 0.1510202237
C -3.6371984141 -2.1460623866 -0.7635123073
C -3.3176881266 -3.2790337851 -1.5100079462
C -2.0796432009 -3.8860958129 -1.3266887822
C -1.1671012962 -3.3663346311 -0.4089198613
N -0.5585819292 -0.1933258414 1.4091789976
C -0.3338385317 0.5643723893 0.2908884649
O 0.0982488866 0.0978093128 -0.7676374567
N -0.6525443782 1.9036169903 0.4253886360
C -0.1143719490 2.8591824846 -0.5403868777
C 1.3748307071 3.0873603822 -0.4038368482
C 2.2583452407 2.5898610295 -1.3664545826
C 3.6335432610 2.7662897488 -1.2547409602
C 4.1579278693 3.4530960303 -0.1636938361
C 3.3062919351 3.9660563244 0.8105106996
C 1.9370456757 3.7756615504 0.6734402865
Cl 0.8834422542 4.4528853100 1.9231683274
H -0.3758248332 -1.7299427570 3.5721377620
H -1.0313934362 -3.2075610554 2.8312500377
H -2.0509681002 -1.7620595914 2.9557429623
H 1.5502967827 -1.6422087605 1.9760620557
H 1.0064626499 -3.2198660838 1.3916272524
H 1.3067667206 -1.9001077093 0.2343355333
H -2.9859785127 -0.7423289478 0.7195197876
H -4.5992971099 -1.6599817221 -0.8959154834
H -4.0261632127 -3.6815627397 -2.2272362394
H -1.8149579016 -4.7678668840 -1.9027501945
H -0.2075122129 -3.8569095290 -0.2924545897
H -1.0424995239 0.2382648342 2.1822820848
H -0.7817600429 2.2587859571 1.3623651935
H -0.6557919646 3.8006655645 -0.4078546460
H -0.3238413836 2.4886017936 -1.5462374720
H 1.8457075835 2.0503831815 -2.2132728846
H 4.2939835042 2.3669708019 -2.0174050593
H 5.2289356032 3.5964957783 -0.0641056304
H 3.6989807789 4.5095825718 1.6625145731
