19
CONF3
C 2.5478554198 -1.4759960214 0.2612808244
O 1.9996038444 -0.5372063807 -0.6763047909
C 0.7470989747 -0.0781350007 -0.4266329394
C -0.0442887741 -0.4410756019 0.6477640245
C -1.3312937940 0.1094146627 0.7956934177
C -1.8159076495 1.0255808214 -0.1406172496
C -1.0275566298 1.3947806961 -1.2219744316
C 0.2454246456 0.8526643552 -1.3750627368
O 1.0644929568 1.1663544899 -2.4044703780
C -2.1773239479 -0.2648460598 1.9224728262
O -1.8671463189 -1.0559844365 2.8064128105
H 1.9376580118 -2.3854411980 0.3047433817
H 3.5433991917 -1.7159403492 -0.1118064834
H 2.6223600368 -1.0306540777 1.2599818051
H 0.3028322519 -1.1486181220 1.3910323298
H -2.8096128011 1.4474584092 -0.0216495167
H -1.3901442311 2.1057826103 -1.9592168607
H 0.6234153019 1.8007885542 -2.9879055151
H -3.1708666003 0.2310731465 1.9362594823
