57
CONF5
C 3.5042752779 -0.2579083426 -3.1584288144
C 2.7936341266 -0.7002333174 -1.8845092779
C 1.3139546539 -1.1393125958 -2.0990013013
C 0.5176335930 -0.2213282207 -1.1715993035
C -0.9514133230 -0.5254779934 -0.8601015102
C -1.2556355442 -1.9128468904 -0.2839683539
C -2.7548159611 -2.0875869574 -0.0090170056
C -3.2651105096 -0.9747375107 0.8499241910
C -3.9059950267 -1.2027157569 2.0129696961
C -4.4458535108 -0.1332400682 2.8468618618
O -5.0496353718 -0.3725484257 3.9029320505
C -4.2529395734 1.2341768681 2.3645578975
C -3.5719311945 1.4877582327 1.2357180848
C -3.0402495286 0.4224999109 0.3275574240
C -1.5076370182 0.6210311825 0.0177589940
C -0.6187967316 0.8554162781 1.2647841164
C 0.8473745162 1.1346175659 0.8916035689
C 1.4473941716 0.0227747840 0.0369204544
C 2.7606287072 0.4015959263 -0.7790750401
C 4.0100739774 0.3994429477 0.0859988614
O 4.6379098463 -0.6175147631 0.3368331885
C 4.4660532212 1.7105340920 0.6855432079
O 5.5329770654 1.5202680310 1.5920802014
O 2.7007435342 1.7317124571 -1.2990747723
C 1.7265568453 -1.2081391757 0.9142131870
O -1.0282721930 1.9962714021 2.0232979096
F -1.4241783504 1.8139679845 -0.7498004998
C -3.8658053721 0.5937809158 -0.9869343532
H 2.9656323407 0.5502211476 -3.6640912335
H 4.5206280777 0.0908488405 -2.9467477978
H 3.5703452929 -1.1002346149 -3.8539652467
H 3.3545535255 -1.5352923080 -1.4567322780
H 1.1838567940 -2.1940665765 -1.8387881316
H 1.0059872270 -1.0178410152 -3.1425864987
H 0.4563433291 0.7488649478 -1.6827037072
H -1.4837275690 -0.4582738427 -1.8183274759
H -0.9261704039 -2.6734938532 -0.9983431195
H -0.7156515261 -2.0976044134 0.6452348180
H -2.9465265933 -3.0495104374 0.4736594920
H -3.2983349507 -2.0861231926 -0.9631116111
H -4.0706986617 -2.2196050994 2.3609275432
H -4.6731150694 2.0358566981 2.9656262086
H -3.4404441397 2.5100723032 0.8919261419
H -0.6919250583 -0.0463315993 1.8890830947
H 0.8793197124 2.0887930480 0.3561335141
H 1.4001668394 1.2582466710 1.8295914667
H 3.6102458810 2.1901038349 1.1835429146
H 4.7611041079 2.3763036360 -0.1389553201
H 5.7613202637 0.5762971977 1.5360157076
H 1.9965987199 1.7874093678 -1.9560789288
H 2.0124681016 -2.0909471224 0.3377793714
H 2.5354852605 -0.9896501408 1.6158395886
H 0.8583274264 -1.4670604241 1.5191187030
H -1.7211332433 1.7268393170 2.6387678264
H -4.9121371369 0.3581128994 -0.7754904928
H -3.7998759272 1.6249503430 -1.3370878541
H -3.5135836355 -0.0684586555 -1.7782817654
