52
CONF3
C 1.6044142665 -0.9177186093 -1.2225906352
C 1.0073931183 -0.6009038955 0.1388462200
N -0.4027287715 -0.2159421668 0.0093427777
C -0.4697906468 0.9841727230 -0.8337964592
C 0.1037626498 0.6874373586 -2.2087147694
N 1.5049207979 0.2511759221 -2.1059833351
C 2.0849924527 0.0364161004 -3.4344376370
C 3.5722402911 -0.3034680733 -3.3645040221
O 4.2941843816 0.5195242010 -2.4578832636
C 4.5682077638 1.8430673205 -2.8991765468
C 3.7333396990 2.9599264170 -2.2604322560
O 4.0834451378 4.1080482078 -2.4068567717
O 2.6550330673 2.6217346266 -1.5573970249
C -1.0051027871 0.0203286177 1.3305796729
C -2.4396585121 0.5111849261 1.2092809988
C -2.8559040673 1.6369114755 1.9166524429
C -4.1768212751 2.0724874837 1.8441295173
C -5.0932611251 1.3871659609 1.0547667712
C -4.6820329785 0.2641204536 0.3392872971
C -3.3660236554 -0.1734829920 0.4194484257
C -0.9844706520 -1.2370121657 2.1848730671
C -0.8021893001 -1.1311002022 3.5625554606
C -0.8466260379 -2.2519276420 4.3845889852
C -1.0713958449 -3.4957817325 3.8097042811
C -1.2494070904 -3.6330508354 2.4377423974
C -1.2071763860 -2.5002634945 1.6342420594
Cl -1.1216708919 -4.9215153046 4.8307979957
H 1.0831349360 -1.7885020856 -1.6626566197
H 2.6589979060 -1.1744662710 -1.0864764095
H 1.5994900243 0.2070033506 0.6141591543
H 1.0879534879 -1.4878428566 0.7739410247
H 0.0863513380 1.8282923531 -0.3801219616
H -1.5128194317 1.2930335660 -0.9455812870
H 0.0696778699 1.5979799491 -2.8184818045
H -0.5119735462 -0.0856496466 -2.7036921728
H 1.5677264560 -0.7677851093 -3.9917456366
H 1.9419612336 0.9654371318 -4.0034929933
H 3.9981058365 -0.2441545000 -4.3783212266
H 3.7209759018 -1.3281626788 -3.0097622843
H 5.6103900877 2.0701361388 -2.6508342422
H 4.4658181868 1.9384906246 -3.9903442336
H 2.4001024040 1.6436921991 -1.6492512573
H -0.4388694750 0.8008645825 1.8781399226
H -2.1395968254 2.1809921296 2.5264297395
H -4.4862939407 2.9515945648 2.4003231655
H -6.1223223377 1.7259753925 0.9938765948
H -5.3920097350 -0.2735755652 -0.2813413976
H -3.0445797739 -1.0448914320 -0.1414680059
H -0.6266328413 -0.1550881312 4.0066051485
H -0.7037545584 -2.1628711850 5.4551401255
H -1.4170574472 -4.6134740543 2.0069617137
H -1.3324508573 -2.5985638622 0.5608249999
