46
CONF91
C -4.1585591722 1.1707662374 -0.6761985770
C -3.1875337953 0.1707229676 -1.2609005795
C -3.6411005842 -0.4058018999 -2.5840257035
C -2.4101111140 -0.6867160496 -0.2901356529
C -2.1191927259 -2.0963068905 -0.5530449156
C -2.0438084079 -3.0542701562 0.3714822840
Cl -1.7283753416 -4.7213841962 -0.0394131633
Cl -2.2492032950 -2.7836500908 2.0808156961
C -1.6833997460 0.3853681992 -1.1111880963
C -1.1339560903 1.5518383365 -0.3961177728
O -1.4749397163 1.9583630330 0.6976545617
O -0.1626370455 2.1395372878 -1.1416004800
C 0.4943058943 3.2818013151 -0.5519628038
C 1.5614266953 2.8990005976 0.4440657873
C 1.8945190348 1.5675059285 0.6800931820
C 2.8993751757 1.2651248372 1.5977985188
O 3.2565878264 -0.0275230142 1.9204499468
C 2.7692820017 -1.0743674221 1.1450129883
C 1.9226826245 -1.9934736213 1.7518733432
C 1.4832350745 -3.0937742206 1.0188122408
C 1.8761399960 -3.2582143708 -0.3071935915
C 2.7255037693 -2.3244686019 -0.9002420140
C 3.1839890445 -1.2286735006 -0.1744060932
C 3.5790883982 2.2732201230 2.2779229219
C 3.2351998810 3.5982470815 2.0339536779
C 2.2320977239 3.9183122225 1.1232924091
H -3.8370095147 1.5369871787 0.2994459967
H -5.1391069025 0.6956056289 -0.5655485681
H -4.2716160982 2.0259607238 -1.3519306924
H -3.8667272571 0.4094859993 -3.2791158699
H -2.8880373712 -1.0443091947 -3.0502170287
H -4.5553221477 -0.9925439362 -2.4413026776
H -2.5422069735 -0.4107863973 0.7514608901
H -1.9568726618 -2.4079258673 -1.5804651000
H -1.0847391592 0.0387572579 -1.9468942105
H 0.9399989199 3.8087581649 -1.4002324600
H -0.2501524397 3.9334214068 -0.0841393929
H 1.3794959993 0.7707483830 0.1574777263
H 1.6218083726 -1.8450140880 2.7838500869
H 0.8290703693 -3.8213565432 1.4881103843
H 1.5247870847 -4.1130580244 -0.8758849952
H 3.0413521138 -2.4524241488 -1.9308752604
H 3.8507004338 -0.4976503454 -0.6208505861
H 4.3557911721 2.0109057875 2.9883518222
H 3.7576805226 4.3897997962 2.5621495170
H 1.9704898391 4.9563960786 0.9398120764
