44
CONF11
C 0.4525019431 -2.0157677121 1.7300775369
C -0.2843394024 -1.9465273226 0.3842892525
C -1.3340307716 -3.0579817903 0.3328860411
C 0.7264953122 -2.0985608025 -0.7730334603
C 1.3503955883 -0.7064676853 -0.9966595086
C 0.4328780993 0.3002147108 -0.2593028916
C 0.1642584396 1.5855180088 -1.0554314801
C 1.4319829674 2.3617825413 -1.2998523362
C 2.0408019387 3.0764919749 -0.2644027440
C 3.2281379567 3.7710966229 -0.4608260643
C 3.8184261274 3.7485675677 -1.7192091445
Cl 5.3183257323 4.6225745339 -1.9820046623
C 3.2393964560 3.0534410459 -2.7719798888
C 2.0491253319 2.3667701255 -2.5515240261
C -0.8403823527 -0.5093054192 0.0938228994
O -1.6527698388 -0.5195360892 -1.0778986787
C -1.5888861636 0.1722472626 1.2497997087
N -2.7724160135 -0.5560306889 1.6916690409
C -3.0556221808 -1.0883572416 2.8998306193
N -4.2180648597 -1.7231004529 2.8676637554
C -4.6140271339 -1.5491999138 1.5810514214
N -3.7751734148 -0.8441164248 0.8280350015
H 0.9216376709 -2.9994284523 1.8342644924
H 1.2455304035 -1.2663308860 1.8176160134
H -0.2311165651 -1.8977828420 2.5774105920
H -1.9280159093 -2.9985819848 -0.5825666771
H -2.0104979269 -3.0407256136 1.1931455276
H -0.8276422893 -4.0297129011 0.3368556584
H 0.1868996886 -2.4132702147 -1.6709097920
H 1.4702468628 -2.8691240482 -0.5460626906
H 1.3984836457 -0.4687650905 -2.0632872152
H 2.3745817216 -0.6441557429 -0.6177971178
H 0.9112541516 0.5885655432 0.6852802342
H -0.5477423504 2.2206772698 -0.5134641667
H -0.3076273057 1.3207442632 -2.0049125117
H 1.5743784950 3.0990936413 0.7174045356
H 3.6890303374 4.3277322678 0.3469277185
H 3.7091568157 3.0525001039 -3.7487335504
H 1.5900351166 1.8281343117 -3.3754488251
H -2.5523581605 -0.7785078280 -0.8175415788
H -1.9029151126 1.1707317311 0.9254833991
H -0.9373637150 0.2773914493 2.1211943933
H -2.4024129109 -0.9828248978 3.7559414137
H -5.5405566101 -1.9401134333 1.1821998404
