41
CONF114
C 7.0480889795 0.7276962062 1.6007843393
C 5.8793821454 0.6087950141 2.5500721449
O 4.8394752323 1.5002683100 2.0595419388
C 3.7022806453 1.5302029222 2.8008924084
O 3.5225539414 0.8642667309 3.8120465498
N 2.8150196099 2.4179629540 2.2834436958
C 1.4531410951 2.4920671018 2.7885103662
C 0.5520802337 1.3991246444 2.2444772455
O 0.4461266267 1.6075163805 0.8274514742
C -0.2629641645 0.6976597238 0.0982001517
C -0.2788942016 0.9092016427 -1.2848181404
C -0.9808162274 0.0462722381 -2.1143621294
C -1.6592067289 -1.0348201405 -1.5621065854
C -1.6449138583 -1.2577512651 -0.1929495820
C -0.9499250810 -0.3896350076 0.6470640987
O -2.2958494723 -1.9331426462 -2.4155986156
C -3.6744901912 -1.9626154749 -2.4238489896
C -4.4668153324 -0.9693382350 -1.8492270460
C -5.8538139078 -1.0741999843 -1.9389173272
C -6.4488815752 -2.1500352046 -2.5920473831
C -5.6412248110 -3.1328445414 -3.1645914333
C -4.2566035452 -3.0464253620 -3.0825425491
H 7.4305175001 1.7520232709 1.5768962241
H 6.7604682742 0.4336683599 0.5874008529
H 7.8525145656 0.0668135044 1.9363773288
H 6.1493518497 0.9085611241 3.5676716005
H 5.4827094871 -0.4110743867 2.5806213998
H 3.0095735105 2.7956629211 1.3686834267
H 1.0443616526 3.4728111244 2.5267052716
H 1.4739768210 2.4122997494 3.8791600339
H 0.9820067477 0.4094550577 2.4475123218
H -0.4391702269 1.4654611549 2.7135557365
H 0.2615157992 1.7559988785 -1.6949986977
H -1.0023502856 0.2034576080 -3.1878172041
H -2.1797270968 -2.1072094563 0.2203073234
H -0.9506277321 -0.5758783385 1.7137866347
H -4.0103077901 -0.1267434788 -1.3423213371
H -6.4704163146 -0.2997203278 -1.4928732586
H -7.5294035235 -2.2227809506 -2.6559521529
H -6.0912222806 -3.9777291517 -3.6768831655
H -3.6175193803 -3.8053025745 -3.5221484669
