51
CONF117
O 3.3149928291 2.1392255682 -1.2385827302
C 3.5098997002 1.1580477357 -0.2127043783
C 2.1773308972 0.5725565420 0.2648196264
C 1.2205132980 1.6253559052 0.8220711437
C -0.0921182436 1.0024592945 1.2669429083
C -1.0728291199 0.5219065350 0.1404638648
N -2.0489622570 1.4975855663 0.6893577592
C -1.2039330571 1.9730998540 1.6663568392
O -1.3303115059 2.8591937426 2.4924504633
C -3.3388568605 1.8200059008 0.2665832485
C -3.8285558640 1.2651821001 -0.9217224450
C -5.1136464396 1.5700621064 -1.3567116724
C -5.8837442258 2.4309168907 -0.5944925408
F -7.1403788122 2.7332480204 -1.0174373128
C -5.4246725650 2.9961864730 0.5838147192
C -4.1428133056 2.6854629019 1.0213460742
C -1.5099563947 -0.9112691205 0.1544248611
C -1.1365721165 -1.7657985470 -0.8833466118
C -1.4882103830 -3.1117900393 -0.8681711765
C -2.2352398766 -3.6157686831 0.1973972024
O -2.6199994742 -4.9237166092 0.2734804044
C -2.6257438000 -2.7708546958 1.2397203969
C -2.2604348835 -1.4323852276 1.2134091938
C 4.4529524165 0.0492740679 -0.6392456948
C 5.2444199153 -0.5872246960 0.3204533550
C 6.0788454374 -1.6474445651 -0.0221029675
C 6.1042054145 -2.0542464069 -1.3453748416
F 6.9175048780 -3.0880978413 -1.6941487147
C 5.3404706997 -1.4499580305 -2.3283941892
C 4.5120316893 -0.3910557949 -1.9619969159
H 2.6567765682 1.8024007814 -1.8609684445
H 3.9737439508 1.7032971719 0.6192907380
H 1.7140397247 0.0402582606 -0.5796368896
H 2.3861096338 -0.1809721648 1.0341732239
H 1.6841903543 2.1291992563 1.6796176845
H 1.0188807144 2.3937714553 0.0663096955
H 0.0678152791 0.2282723798 2.0263675284
H -0.7270006178 0.8139413639 -0.8586776015
H -3.2084343889 0.5951203300 -1.5068398134
H -5.5092345565 1.1478892154 -2.2739945729
H -6.0616991222 3.6653349509 1.1519643391
H -3.7645249894 3.1116010377 1.9421019093
H -0.5615361643 -1.3752935320 -1.7189344623
H -1.1916076676 -3.7674829420 -1.6825504692
H -2.2925900574 -5.4039601265 -0.4994060083
H -3.2128749389 -3.1731286533 2.0591182562
H -2.5711281703 -0.7825745440 2.0273999174
H 5.2126997111 -0.2494597896 1.3531116776
H 6.7011920217 -2.1437334697 0.7147958551
H 5.3955801352 -1.7989159140 -3.3540255595
H 3.9134143776 0.0942756989 -2.7261707414
