41
CONF8
C 0.1676809675 -3.3780591837 -0.5899152000
C -0.2254849431 -1.9772850268 -0.2898240599
C -1.3564803124 -1.5189506352 0.3350784875
C -1.2635881309 -0.0881999057 0.4392552572
C -0.0237574990 0.2961443556 -0.1069687655
N 0.6217183059 -0.8805491275 -0.5431989857
C 1.8412225883 -0.9636076523 -1.2349189955
O 2.0221537531 -1.8015373320 -2.1056729041
C 2.9127219485 -0.0276509927 -0.8161543864
C 3.8129061707 0.4345745138 -1.7802410517
C 4.8716990191 1.2549385366 -1.4179175831
C 5.0333195086 1.5804945428 -0.0742586230
C 4.1666402697 1.1117491502 0.9081407784
C 3.0973773316 0.3124679624 0.5277181963
Cl 6.3756419323 2.6064811575 0.3960813330
C 0.3220991338 1.6399734982 -0.2305114142
C -0.5642359730 2.5871798939 0.2590119640
C -1.7874253891 2.2109681101 0.8466247646
C -2.1565873484 0.8719317527 0.9318045383
O -2.5566439292 3.2500808627 1.2906570123
C -3.8146195612 2.9233807029 1.8905384642
C -2.5084088574 -2.3555131173 0.8081173402
C -3.4573280229 -2.6189784942 -0.3399922911
O -3.5336371378 -3.6592390758 -0.9590323850
O -4.2007302523 -1.5303229014 -0.6319387202
H -0.4903290267 -4.0609201090 -0.0487981660
H 1.2010668782 -3.5761111456 -0.2909078525
H 0.0891079683 -3.6016296488 -1.6578893798
H 3.6723042339 0.1575126391 -2.8195639321
H 5.5621044796 1.6326884263 -2.1629913270
H 4.3243717058 1.3668440467 1.9495813762
H 2.4126733665 -0.0580223666 1.2833385248
H 1.2473731463 1.9609451275 -0.6920772469
H -0.3267437448 3.6432600402 0.1883450056
H -3.1097270490 0.5652509427 1.3436343252
H -4.2603447259 3.8744826785 2.1833635689
H -3.6758132215 2.2925367766 2.7769722800
H -4.4718642375 2.4135381239 1.1755274095
H -3.0451443809 -1.8318161377 1.6050801706
H -2.1725720480 -3.3211284602 1.1899120979
H -4.7527172187 -1.7379020309 -1.4053691276
