65
CONF503
C -4.2657924132 2.6742815219 -2.4686393527
C -3.9141766885 1.2748886085 -2.9684749230
C -3.2915204973 0.3886510429 -1.8817004547
C -2.9900253478 -1.0228321068 -2.4068707505
C -1.9984316677 1.0032066600 -1.3918551070
O -1.0735599455 1.3180314739 -2.1187206141
O -1.9756562934 1.1334039273 -0.0511498163
C -0.7554885132 1.6770816792 0.5472056111
C -0.8406438519 3.1932694163 0.5858147388
C 0.4625490808 3.7848228413 1.1438243456
C 0.9414990230 3.0011400947 2.3292025323
C 0.4640931000 1.7985952255 2.7046359835
C -0.6477826500 1.0945974207 1.9467857683
C -0.4359011484 -0.4349526161 1.9746348467
C -0.4537580082 -0.8920710313 3.4480830047
C 0.5611018262 -0.1153561497 4.2418097528
C 0.9823462245 1.1067742889 3.8745002686
C -0.2895607247 -2.4040541955 3.6227933020
C 0.8433990309 -0.8488530443 1.2111035625
C 0.5149376502 -1.5227594829 -0.1230193674
C 1.7288984202 -1.7094942421 -1.0132626739
C 2.7776800536 -2.6488305675 -0.4563930419
C 3.8386172450 -2.9034852700 -1.5051816971
C 3.1832223074 -3.5794271727 -2.7029329532
C 1.8840935263 -2.9576243098 -3.1569957441
O 1.4037659599 -3.1803021882 -4.2525286176
O 1.1894887899 -2.1826525299 -2.3060517100
O 4.8487326371 -3.7386496570 -0.9290058464
C 1.5648022357 3.8848921411 0.0735918573
H -4.9663685575 2.6250060156 -1.6279462430
H -3.3722942264 3.2121642348 -2.1308743525
H -4.7299286918 3.2687320940 -3.2611968326
H -4.8158971850 0.7693921779 -3.3333780927
H -3.2170530820 1.3367415080 -3.8127016085
H -3.9799058364 0.3202823038 -1.0324980927
H -2.2862649631 -0.9750680679 -3.2438269188
H -2.5574103590 -1.6554895156 -1.6254412022
H -3.9154903442 -1.4900527279 -2.7559866872
H 0.0906475811 1.3618606146 -0.0704784202
H -1.0330500455 3.5833990216 -0.4191070354
H -1.6857386240 3.4760769202 1.2253886258
H 0.2514377783 4.8097002143 1.4806948557
H 1.7446232156 3.4474918656 2.9159649955
H -1.5962883787 1.3023105193 2.4671342928
H -1.2993373976 -0.8996101749 1.4819658284
H -1.4530502416 -0.6371186035 3.8378668913
H 0.9617959452 -0.5769918648 5.1427337872
H 1.7348217993 1.6268864456 4.4645602266
H -1.0182188442 -2.9436130896 3.0087241659
H 0.7125060501 -2.7435142545 3.3428698199
H -0.4507923786 -2.6829629388 4.6691743134
H 1.4739240785 0.0324638138 1.0309508302
H 1.4489092489 -1.5240439132 1.8218224733
H 0.0454809612 -2.4986743575 0.0567267698
H -0.2101090120 -0.9154314037 -0.6757378805
H 2.1822342471 -0.7328400127 -1.2308966509
H 2.3172042266 -3.5977037183 -0.1501675886
H 3.2271015282 -2.1832610379 0.4263013328
H 4.2799378380 -1.9433659993 -1.8144900628
H 2.9337479740 -4.6127954027 -2.4225727485
H 3.8488541831 -3.6305496018 -3.5693162144
H 5.5480236900 -3.8557411715 -1.5852555409
H 1.8042337696 2.8987548359 -0.3382124568
H 2.4824548963 4.3002236874 0.5021792023
H 1.2423288645 4.5350488002 -0.7461768818
