55
CONF60
C 4.6469524814 -1.0663662812 -5.2963968246
O 3.4813432114 -0.3444688599 -4.9136298817
C 2.9755340701 -0.5803507433 -3.6693237449
C 1.8242656187 0.1417637920 -3.3368213846
C 1.2290870450 -0.0253861555 -2.1004651313
C 1.7680462181 -0.9112184432 -1.1586992786
C 2.9100694999 -1.6267380752 -1.5058247228
C 3.5223901604 -1.4729431214 -2.7477481228
C 1.1617220809 -1.1156082632 0.2026067966
S -0.5978858611 -1.6818084954 -0.0259506788
C -1.2512742417 -1.4644757302 1.6179259935
C -1.6497527129 -2.5853906948 2.3476321247
C -2.2528853583 -2.4478890057 3.5926764827
C -2.4297520192 -1.1788273393 4.1349802382
C -2.0202641224 -0.0559816821 3.4275934980
C -1.4515082312 -0.1804496819 2.1581326369
N -1.1013752310 0.9895195589 1.4407515035
C -2.1453707080 1.9872660187 1.1663267303
C -2.9065127475 1.6615974889 -0.1166039076
N -3.5830344472 0.3695889672 -0.0593299334
C -4.7670834544 0.4018934795 0.7895876415
C -3.9195510536 -0.1048380117 -1.3968331809
C 0.1088967170 1.1611416448 0.8183548710
O 0.3506014462 2.1187371097 0.0982637527
C 1.1793864012 0.1059235071 1.1397097154
O 2.4802656110 0.6922789134 1.0116230729
C 2.7505280797 1.6822466242 1.9067046944
C 4.0579859431 2.3392496877 1.5813674898
O 2.0104918324 1.9761521646 2.8146922779
H 4.4640485532 -2.1489938802 -5.2969254436
H 5.4932229435 -0.8383209042 -4.6350443125
H 4.8815496689 -0.7384706807 -6.3099358429
H 1.4140736378 0.8313028210 -4.0665205567
H 0.3421060517 0.5474193335 -1.8576373576
H 3.3426257357 -2.3217489717 -0.7913441275
H 4.4094820731 -2.0499621984 -2.9768120262
H 1.7127764853 -1.9164249073 0.7072625616
H -1.4898526466 -3.5687308464 1.9183392824
H -2.5673437562 -3.3289037812 4.1420117298
H -2.8713689917 -1.0605078981 5.1190239146
H -2.1269863821 0.9322241007 3.8629539443
H -1.6617445051 2.9616120053 1.0617965215
H -2.8165184384 2.0268537308 2.0274605108
H -3.6095392061 2.4948871776 -0.3300382314
H -2.1787616418 1.6360898330 -0.9350269175
H -5.2174832957 -0.5952640063 0.8253418655
H -5.5345918977 1.1167409745 0.4298820030
H -4.4998657362 0.6728476850 1.8158492206
H -3.0074224850 -0.1951313204 -1.9954173043
H -4.3789803502 -1.0967743994 -1.3306310508
H -4.6247812551 0.5646955992 -1.9287250462
H 1.0407439623 -0.2317176679 2.1722387244
H 4.3810078322 2.9485884822 2.4243333548
H 4.8147589342 1.5958407542 1.3217853890
H 3.9075266825 2.9772318838 0.7044760804
