74
CONF230
C -0.5682510516 -1.9663538289 -0.6759184259
C 0.0322974308 -3.3105692272 -1.0663555491
O -0.7800176138 -4.2818167725 -0.3232384026
C -1.3829303289 -3.6861038800 0.7417641462
O -2.0454470793 -4.3234583141 1.5257426096
C -1.0104483561 -2.2244310420 0.7563280736
C -2.0104323691 -1.1730812028 1.2433290084
C -3.4000604553 -1.3321542327 0.6341666029
C -3.7450078789 -0.6896681469 -0.5569959623
C -5.0116885357 -0.8841323941 -1.1025739748
O -5.4703098572 -0.3130784824 -2.2595203738
C -4.5753089156 0.5550944734 -2.9654614064
C -5.9470907353 -1.7099163700 -0.4703192725
O -7.1955759068 -1.9008890007 -0.9909017001
C -5.6011654725 -2.3442503167 0.7286196955
O -6.5768005036 -3.1234392746 1.2775529723
C -6.2471295851 -3.8285493306 2.4805879983
C -4.3322236570 -2.1486669997 1.2772754695
C -1.4318969177 0.2045321878 0.9371866040
C -2.0345484352 1.2987340053 1.5902260915
C -1.6265301543 2.5627268281 1.2425936133
C -0.6652589047 2.7781251543 0.2613091400
O -0.4595728573 4.1212942416 0.0905502708
C -1.3321788452 4.7838902823 1.0321701159
O -2.0694718333 3.7584743545 1.7359292056
C -0.0631034795 1.7346241000 -0.3940872871
C -0.4411148878 0.4202929866 -0.0344494074
C 0.2882050951 -0.7196516469 -0.7180783474
O 1.5323750937 -1.0750574890 -0.0353184134
C 2.4482326743 -0.0536521022 0.1792485882
O 2.9570642700 0.3810068279 -1.0873715560
C 3.8842196812 1.4455242796 -0.8877970676
C 4.3449949501 1.9872008558 -2.2303056705
O 5.3471662723 2.9843205575 -1.9901391786
C 6.4541415398 2.4542014133 -1.2683185019
C 7.4618244041 3.5542278119 -1.0715683076
O 6.0493503670 1.9815973262 0.0157511466
C 5.1015416439 0.9222292722 -0.1249291354
C 4.6880764618 0.3996326829 1.2423902838
O 5.7837027024 -0.1336098238 1.9797851154
C 3.5677090399 -0.6289488829 1.0544917019
O 3.0596183115 -0.9621065999 2.3415107188
H -1.4548583789 -1.7843941913 -1.2952185969
H -0.0623496811 -3.5562810875 -2.1247633048
H 1.0697087124 -3.4211162813 -0.7391710531
H -0.1214872341 -2.1707317535 1.4061878093
H -2.1158620516 -1.2716823398 2.3298012201
H -3.0391189006 -0.0238554667 -1.0375099507
H -4.2945785754 1.4142442347 -2.3451565597
H -3.6749366805 0.0142726889 -3.2794634454
H -5.1249383123 0.8972493193 -3.8425346653
H -7.2548849450 -1.3794611955 -1.8052143977
H -6.0158442259 -3.1321720086 3.2953638562
H -7.1355357607 -4.4073127050 2.7348893032
H -5.3986418789 -4.5040983617 2.3198434525
H -4.0541141215 -2.6391060500 2.2006925154
H -2.8158251918 1.1399138919 2.3265897057
H -0.7278995688 5.3500893402 1.7490459806
H -2.0351053844 5.4226767523 0.4874461167
H 0.6836624324 1.9042153008 -1.1635085134
H 0.5389518934 -0.4360461561 -1.7468868982
H 1.9870588068 0.8068245628 0.6957210639
H 3.4175367627 2.2598323362 -0.3082346015
H 3.5290727945 2.4736806784 -2.7706694136
H 4.7531856682 1.1682044571 -2.8437703514
H 6.8676804046 1.6011081942 -1.8375612666
H 7.0103083877 4.3742734505 -0.5063586700
H 7.7960981465 3.9271398428 -2.0421797942
H 8.3241367020 3.1705134864 -0.5219770921
H 5.5507572328 0.0978357348 -0.7093425527
H 4.3046628140 1.2333312086 1.8450360251
H 6.1495940501 -0.8759440786 1.4792284999
H 3.9756652458 -1.5185802470 0.5453383724
H 2.3909447866 -1.6487667319 2.2169487283
