40
CONF4
C 2.6063770648 0.7877647717 2.5670708131
N 1.7628027941 1.0264701906 1.4017886460
C 1.6984504248 2.4525763849 1.0984864716
C 2.2156436277 0.2636830762 0.2383907229
C 1.8888554434 -1.2268653637 0.3472188244
C 0.4182052685 -1.4571675444 0.7078391714
N -0.4766302885 -0.7523773092 -0.2106958487
C -0.4443758595 -1.0617621835 -1.5819476197
C -0.0459037981 -2.3212432801 -2.0438292039
C 0.0035738147 -2.5941928461 -3.4070776549
C -0.3760020819 -1.6309890536 -4.3347090616
C -0.8051671204 -0.3842988057 -3.8891610636
C -0.8153996899 -0.0940228799 -2.5292426696
S -1.2170340939 1.5446284462 -1.9667771431
C -2.0245794121 1.1051232355 -0.4462822722
C -1.5329738197 0.0169282162 0.2937974893
C -2.1327625881 -0.2784315779 1.5235306646
C -3.1479440252 0.5369866638 2.0057044774
C -3.6337651652 1.6180377839 1.2847398984
C -3.0741134922 1.8768105315 0.0372794007
Cl -3.8538445062 0.1613413700 3.5696254419
H 3.6585251717 1.0973155187 2.4039372573
H 2.6047787438 -0.2739741721 2.8340457617
H 2.2162010869 1.3448606536 3.4250748812
H 1.3076776815 2.9959817056 1.9652989903
H 2.6862193382 2.8839458286 0.8400939359
H 1.0187797182 2.6182345034 0.2560270691
H 3.3029593582 0.3893314717 0.0594236378
H 1.6987606835 0.6651805449 -0.6409918503
H 2.1446348333 -1.7038485750 -0.6049157174
H 2.5007949230 -1.7179077453 1.1130637774
H 0.2514082724 -1.0253735151 1.6955586886
H 0.1915239263 -2.5323958789 0.7693268114
H 0.2294733479 -3.0930585608 -1.3349050933
H 0.3294658033 -3.5740465214 -3.7400559143
H -0.3468567161 -1.8456894351 -5.3972266295
H -1.1143998546 0.3785351264 -4.5965055337
H -1.8196785313 -1.1378551550 2.1017760979
H -4.4318915390 2.2345258097 1.6786200299
H -3.4417892466 2.7072387550 -0.5566905905
