38
CONF17
C 0.1506467227 0.9727744762 -2.8862363800
S 1.8981258978 0.5791469699 -2.9959591143
O 2.2575023721 0.3667596069 -4.4018600127
O 2.6563745863 1.5148519454 -2.1607363454
N 2.0081012105 -0.9887669121 -2.2893162195
C 2.3075985194 -1.3410591540 -0.9904555121
O 2.4876677940 -2.5067092351 -0.6838234015
C 2.2154185366 -0.2747069513 0.0669763738
C 3.3122366496 0.3953235490 0.6107051726
C 3.1614627024 1.2949758181 1.6642301671
C 1.9055926260 1.5350979870 2.1842669345
C 0.8049917155 0.8669561422 1.6443634136
C 0.9530585665 -0.0418997845 0.5958013935
O -0.4074324938 1.1727961158 2.1944259323
C -1.5239632015 0.4754692794 1.7710245699
C -1.8122736042 -0.7868025285 2.2909938327
C -2.9693920457 -1.4529654045 1.9071049011
C -3.8291779820 -0.8410228514 1.0013838070
C -3.5506332706 0.4236506451 0.4840744722
C -2.3922154661 1.0807244344 0.8714594301
C -5.1034971755 -1.5221569668 0.5919358926
F -5.1313534909 -2.8265370379 0.9375188368
F -6.1879192739 -0.9363035768 1.1657473502
F -5.2965672602 -1.4565520663 -0.7485321377
Cl -0.7144437738 -1.5293808139 3.4207619141
N 4.6354883548 0.1917722539 0.0443942931
O 4.7316353880 -0.5515205769 -0.9328972437
O 5.5878830217 0.7690410487 0.5615797693
H -0.4084704076 0.1900967962 -3.4026737199
H -0.1246782189 1.0370627183 -1.8315173041
H 0.0263210933 1.9399440394 -3.3810544628
H 2.0288318227 -1.7447048081 -2.9697674124
H 4.0296807394 1.8054902873 2.0612528719
H 1.7602212623 2.2331006576 3.0005684512
H 0.0949544823 -0.5678018352 0.1908694364
H -3.1867282812 -2.4326580618 2.3146167843
H -4.2300976352 0.8929103449 -0.2188245766
H -2.1449512820 2.0636034762 0.4851331040
