52
CONF269
C -6.1739027716 -2.4663658385 -0.3190871218
C -4.8195274890 -2.6356531999 0.3071469746
C -3.9251594896 -1.6527103061 0.5085689294
C -4.1146911174 -0.2287230553 0.1928424929
C -3.0307325229 0.6141741196 -0.5301856365
C -3.4110367676 0.8771982668 0.9282953883
C -2.4355647658 0.5717821983 2.0411660130
C -4.1953411502 2.1524427570 1.1549015087
C -1.7353403050 0.0362862955 -0.9098457397
O -1.1227051089 -0.8545863987 -0.3514594493
O -1.2672814111 0.6521360311 -2.0344067138
C 0.0420388533 0.2225073066 -2.4799415403
C 1.1433370837 0.7360690789 -1.5893738303
C 2.2556614581 -0.0661330757 -1.3449825716
C 3.2952365814 0.4153849236 -0.5553447030
C 3.2390699490 1.6872106048 0.0106196136
C 2.1235503197 2.4806765304 -0.2410375985
C 1.0811178423 2.0180484280 -1.0391362437
O 4.3270716150 -0.4671265019 -0.2938901830
C 5.6137733956 0.0231337748 -0.1391543323
C 6.1475995406 0.9672914899 -1.0138437729
C 7.4718291686 1.3632910232 -0.8520621459
C 8.2566668135 0.8181395129 0.1632292255
C 7.7092029019 -0.1322233363 1.0220837476
C 6.3831366080 -0.5323015746 0.8778693136
C -4.5052287473 -4.0477314561 0.7182260832
H -6.9580475556 -2.7619405009 0.3896543222
H -6.3812454004 -1.4488251913 -0.6526294118
H -6.2713170129 -3.1349509115 -1.1836491804
H -2.9758824256 -1.9271324607 0.9572450800
H -5.1057975945 0.0406737846 -0.1593646256
H -3.4116655929 1.3364313503 -1.2442576330
H -1.7536537261 1.4184262199 2.1781122437
H -1.8367633616 -0.3179844870 1.8527937435
H -2.9885350689 0.4306841703 2.9766357417
H -4.7673691958 2.0772673721 2.0867176296
H -3.5180947954 3.0097345399 1.2400500566
H -4.8957375194 2.3448484614 0.3370387803
H 0.0735103171 -0.8685357623 -2.5449424791
H 0.1285277573 0.6449181657 -3.4852478965
H 2.3191136455 -1.0709511283 -1.7518216212
H 4.0464516479 2.0451903839 0.6399183506
H 2.0685589363 3.4722073978 0.1975599620
H 0.2167763969 2.6466194207 -1.2265305362
H 5.5354051922 1.3819578797 -1.8078749622
H 7.8936820190 2.0971659377 -1.5317264397
H 9.2889910364 1.1304433039 0.2812186657
H 8.3128942682 -0.5636620255 1.8143966530
H 5.9396413907 -1.2688058923 1.5397237517
H -4.5514265410 -4.7214747322 -0.1470936195
H -5.2476183720 -4.4155923328 1.4382550602
H -3.5131770508 -4.1289297676 1.1698851508
