34
CONF39
C -1.5218436609 -1.5675184108 -1.8788965286
C -2.6950214270 -0.7096753096 -1.4559288453
O -2.4754751375 -0.0909108237 -0.1519561310
P -1.4736607969 1.1461942303 0.0162964778
S -1.4362620140 2.4823340096 -1.3705548739
O -1.7454709788 1.5801068110 1.5242699615
C -2.7010683154 2.6357792967 1.8466405107
C -4.1309666694 2.1717496232 1.6796433692
O 0.0387611987 0.4754822276 0.1522145375
N 0.1119724217 -0.5763306428 1.0771099772
C 1.2813619688 -1.1339591905 1.0768940496
C 1.3291774977 -2.2344382304 2.0012657421
N 1.4153874891 -3.1248787681 2.7346697666
C 2.5005018764 -0.8638429147 0.2913025637
C 3.3945943755 -1.9265676074 0.0839932081
C 4.5546339663 -1.7393285278 -0.6528724346
C 4.8534585154 -0.4841366779 -1.1742505835
C 3.9848126177 0.5806706511 -0.9529413945
C 2.8119107853 0.4011379025 -0.2321430752
H -1.7787645857 -2.0976293255 -2.8014778690
H -0.6335957120 -0.9594778642 -2.0727098969
H -1.2847350501 -2.3056071429 -1.1075640329
H -2.9038740510 0.0817930475 -2.1845173722
H -3.5965635333 -1.3091207761 -1.3091095613
H -2.4791520312 3.5054952976 1.2183880124
H -2.4747600615 2.8782059376 2.8873996659
H -4.8068926583 2.9566381634 2.0339717324
H -4.3140833498 1.2632686266 2.2592047860
H -4.3614806380 1.9719305737 0.6295103249
H 3.1730357686 -2.9037557962 0.5007404307
H 5.2291198104 -2.5736947046 -0.8129637659
H 5.7638028862 -0.3342224815 -1.7454131942
H 4.2191793247 1.5642001872 -1.3463074114
H 2.1519599831 1.2401093127 -0.0679965548
