56
CONF140
C -4.3412983482 -3.4163115349 -1.1653906985
N -3.1352736385 -2.6019973506 -1.0400378708
C -2.4363082514 -2.6251362688 0.2478609580
C -2.7803229535 -1.4959858468 1.2096556670
C -1.6634256004 -1.3354659647 2.2501065870
O -0.4552646322 -0.8631739101 1.6538063283
O -4.0248581457 -1.8296029516 1.8364218962
C -2.6404478215 -1.9904757223 -2.1518928911
O -3.1152338959 -2.0805530423 -3.2748754302
C -1.4580369151 -1.0833665785 -1.8848687776
C -1.6632719416 0.2722509619 -1.6353213028
C -0.6161266291 1.1166140790 -1.2511439433
C 0.6631856185 0.5693609481 -1.1176914871
C 0.9040455471 -0.7776962970 -1.3756423064
C -0.1554968000 -1.5718899407 -1.8043755148
I 0.2075850228 -3.6101264475 -2.2645450430
C 2.2368085281 -1.3884945439 -1.0159405541
O 3.1713020138 -1.4690516295 -1.8089671083
N 2.2563664718 -1.8056725801 0.2644575869
C 3.4140995668 -2.4661717704 0.8684197658
C 4.5692480875 -1.5090660215 1.1866238027
C 5.5699547151 -2.1460225290 2.1432475776
O 6.1349806252 -3.3296202325 1.5918130358
O 5.3164781979 -1.1593793701 0.0219529045
I 2.2512745432 1.8021057218 -0.4601175333
N -0.8705037166 2.4499826849 -0.8617600714
C -1.1797230974 2.7333580569 0.4273967798
O -1.2309682767 1.8959062701 1.3250967915
C -1.4648753803 4.1901282634 0.7240053703
O -1.3948814079 4.9662630453 -0.4541834347
C -1.6232055467 6.3493988577 -0.2085151353
I -3.6102343766 1.0874668186 -1.8048972421
H -4.9703817803 -3.2541602178 -0.2864564247
H -4.8751430401 -3.1219719577 -2.0696460880
H -4.0864632190 -4.4819909762 -1.2386215388
H -2.6773877586 -3.5751604612 0.7404528659
H -1.3575531107 -2.6137217219 0.0874020711
H -2.8716920294 -0.5515977859 0.6541449448
H -1.4450517451 -2.3046859556 2.7148017341
H -2.0028652901 -0.6517618340 3.0422151532
H -0.5914472871 0.0816038435 1.4487515522
H 1.4340056328 -1.6223165912 0.8316620248
H 3.0671612028 -2.9388695319 1.7923349156
H 3.7697723778 -3.2568127253 0.1986989836
H 4.1510258164 -0.6046365425 1.6637859822
H 6.3492746146 -1.4027582946 2.3731012000
H 5.0796473887 -2.4297742878 3.0808961264
H -0.8808676660 3.2079694427 -1.5318167672
H -0.7274929546 4.5202466593 1.4742136774
H -2.4627062899 4.2414361387 1.1890252471
H -1.5461250555 6.8607172625 -1.1694486121
H -0.8709972324 6.7575650242 0.4817445277
H -2.6253915714 6.5163242832 0.2119250101
H -4.3518848148 -1.0466478787 2.2933194155
H 4.7287450793 -1.2117266771 -0.7528734860
H 6.4596804132 -3.0741580282 0.7172364198
