52
CONF707
C -0.3936233386 -6.0238274708 0.7275951106
C 0.4770299400 -5.0875092484 -0.1081439298
C 1.0043474700 -3.8991910894 0.6968213717
C 1.8443287434 -2.9456087101 -0.1519920193
C 2.5723363816 -1.8386359315 0.6255453227
C 3.4022506513 -0.9745021374 -0.3362224647
C 4.2464080056 0.1079155986 0.3345510747
C 1.6319001360 -1.0164742401 1.4883786358
O 0.6134848561 -0.4029608235 0.6219934421
P 0.1733745388 1.1076436644 0.7814504966
O 1.1252771560 2.0337401825 1.4370163211
O -0.2749026668 1.4799550207 -0.7248664829
C 0.6799635901 1.3812397412 -1.7524736628
C 0.5036302635 0.3816502655 -2.6992514623
C 1.4251963077 0.2736745120 -3.7369620439
C 2.5039411782 1.1528914951 -3.8138571211
C 2.6552766725 2.1530018499 -2.8563550556
C 1.7373908568 2.2789382992 -1.8155328124
O -1.2691604460 0.9861765536 1.4877333492
C -1.8881902474 2.0621373116 2.1340180680
C -2.4509393473 1.7997214069 3.3760361008
C -3.1236411332 2.8221687910 4.0388681173
C -3.2227289020 4.0882000300 3.4654127636
C -2.6503654457 4.3290170310 2.2188322672
C -1.9810619665 3.3141977754 1.5384581554
H 0.1695849177 -6.4223006460 1.5788817552
H -1.2667350477 -5.4940697916 1.1245330919
H -0.7545700523 -6.8714815604 0.1365156998
H -0.0980713468 -4.7127046972 -0.9653744986
H 1.3260061799 -5.6450329012 -0.5253167679
H 1.6047621149 -4.2699364245 1.5401577495
H 0.1499604065 -3.3650392738 1.1331963753
H 2.6041641677 -3.5255461147 -0.6924795237
H 1.2084875758 -2.4833761298 -0.9192977529
H 3.2594816058 -2.3153973204 1.3427080679
H 2.7285278371 -0.5156355841 -1.0706997962
H 4.0581225907 -1.6487584658 -0.9006393098
H 4.9017401937 0.5909826962 -0.3971716575
H 3.6250638183 0.8911225833 0.7808706552
H 4.8775743982 -0.3160334107 1.1240936646
H 2.1641182579 -0.2276051619 2.0260935948
H 1.0953440010 -1.6377762807 2.2100674535
H 1.3014126408 -0.5053870661 -4.4823444824
H 3.2229940951 1.0608035693 -4.6211349315
H 3.4901899870 2.8438120032 -2.9158812781
H 1.8400167777 3.0524074838 -1.0626437898
H -2.3589314624 0.8087194585 3.8072533171
H -3.5676763130 2.6257691394 5.0095044272
H -3.7452685315 4.8831756885 3.9868932654
H -2.7264835251 5.3111898366 1.7634721377
H -1.5454706038 3.4963842512 0.5615768278
H -0.3357562373 -0.2997822496 -2.6115101332
