39
CONF2
C -3.5584354314 -1.5983906407 1.6447431621
C -2.7860819448 -0.7654058581 0.6213715525
C -3.4282000029 0.6095859039 0.4389562230
C -1.2698872034 -0.6412373562 0.9859125741
C -1.0202928429 0.0741755574 2.3233707113
C -0.6847061924 -1.9938221947 1.0924969965
N -0.2183497604 -3.0417031431 1.2341933237
N -0.5314648221 0.0913271104 -0.0489037529
C -0.3086681314 -0.3731743723 -1.2970636394
O -0.7460775106 -1.4360523394 -1.7316300035
C 0.5193612712 0.5516809588 -2.1977188835
C -0.3942945407 1.4832267009 -2.9756044846
O 1.4136557646 1.3909982593 -1.4424036570
C 2.4664509228 0.8041991072 -0.8077916040
C 3.3026691509 1.6489755524 -0.0614604422
C 4.4020063544 1.1597772427 0.6273374406
C 4.6658544710 -0.2040108189 0.5733500982
C 3.8570157430 -1.0685217193 -0.1477791015
C 2.7586843361 -0.5608730692 -0.8357441792
Cl 6.0547342797 -0.8345903133 1.4450189651
Cl 2.9502519281 3.3607680161 0.0069760531
H -4.5751373215 -1.7650350936 1.2776574365
H -3.6339580815 -1.0824603842 2.6070313600
H -3.0991376412 -2.5779944892 1.8103288089
H -2.8107289024 -1.2895220902 -0.3395979167
H -2.8742723928 1.2308591229 -0.2706976405
H -3.5062597795 1.1471813002 1.3893043480
H -4.4421473011 0.4784389851 0.0499132698
H -1.4103278370 1.0932508553 2.2683660259
H 0.0519820134 0.1120539338 2.5323834415
H -1.5171910889 -0.4548878535 3.1367149601
H -0.1001918703 0.9650566002 0.2205372845
H 1.0890153982 -0.0856010886 -2.8836924458
H -1.1098265675 0.8917595862 -3.5520418792
H -0.9419311894 2.1382038931 -2.2920872285
H 0.1965562338 2.0927692231 -3.6633724073
H 5.0342224229 1.8320505177 1.1945225862
H 4.0691851972 -2.1306644724 -0.1781965721
H 2.1359225673 -1.2523912302 -1.3904392940
