35
CONF4
C 1.0291342335 -2.3087390748 -0.6351110707
C -0.0978005737 -1.3322036744 -0.4830083568
C -1.4467315884 -1.7285439810 -0.4535211996
N -2.4537004631 -0.8584494419 -0.3273646775
C -2.1332518864 0.4508200124 -0.2360793069
N -0.8701832741 0.9341602674 -0.1993267547
C 0.0868111073 0.0365645030 -0.3247156184
O 1.3702282432 0.5726654121 -0.3588148282
C 2.1690708523 0.3183149021 0.7459981456
O 1.7160268986 -0.1526884285 1.7795820212
N 3.4488001715 0.6622175531 0.5074347473
C 4.4022008930 0.6758739085 1.6131317315
C 3.8897811120 1.2874475690 -0.7396023410
N -3.1536563923 1.3536823850 -0.1827893679
C -4.5197591495 0.8834903343 0.0305024832
C -2.8676247696 2.7441353187 0.1587834873
C -1.8117055957 -3.1777986084 -0.5616101951
H 0.8057153050 -3.0442699634 -1.4133217572
H 1.9579226625 -1.8036307690 -0.9086154248
H 1.2073139161 -2.8604735015 0.2958143454
H 4.6537372436 1.7081348025 1.8876878588
H 5.3190681020 0.1598901960 1.3110782614
H 3.9702925556 0.1697049201 2.4754084510
H 4.9585597985 1.0920712799 -0.8564335167
H 3.3606270530 0.8631896069 -1.5925319641
H 3.7312468561 2.3732552993 -0.7192988721
H -4.7524902640 0.0634238677 -0.6500280161
H -5.2034495826 1.7115880384 -0.1664026318
H -4.6770789961 0.5332546938 1.0610766885
H -2.0286809285 3.1173002402 -0.4301130474
H -3.7511981387 3.3442067174 -0.0670391096
H -2.6231300744 2.8630630254 1.2245449977
H -1.2725362473 -3.7716136469 0.1840195825
H -2.8854192531 -3.3093279899 -0.4243809473
H -1.5281407152 -3.5707155776 -1.5449539987
