53
CONF211
C -5.2027638743 -2.0991232365 -0.5474113204
O -4.0280443269 -1.2791829372 -0.2889316475
C -3.7268651586 -0.3869444626 -1.2329890885
O -4.3262564820 -0.2368964895 -2.2722594444
C -2.5310963276 0.4915135898 -0.8021831537
C -3.0232769175 1.4629332406 0.3015743683
C -2.6074437050 0.7684856540 1.5765896369
C -1.6550465908 -0.2309730631 1.3246970336
C -1.4202605956 -0.2725747534 -0.1071469309
N -0.3187474363 -0.6367045018 -0.6597218510
N -0.1949826021 -0.3775668861 -1.9948930707
C -1.3042010381 0.2284509859 -2.7523737259
O -1.9934654519 1.1618220599 -1.9301432699
C 1.0242338091 -0.5496528534 -2.6104486712
O 1.1481366068 -0.4848295694 -3.8213639773
N 2.1175980449 -0.7666540931 -1.7176001045
C 2.3375943259 0.1624350666 -0.6537862122
C 2.6961908767 -0.2935172146 0.6143875740
C 2.8679268805 0.6143899195 1.6488668009
C 2.6621009388 1.9636583914 1.3968637475
C 2.2937638511 2.4347497317 0.1482455628
C 2.1466041328 1.5214406355 -0.8910702855
O 2.7634953349 2.8761770892 2.4732128688
C 3.9766515143 3.4440469004 2.6538751966
F 4.9561233208 2.5356752149 2.8675321869
F 3.9014854093 4.2410195993 3.7257102766
F 4.3690666098 4.1927700101 1.5967977798
C 3.0960182745 -1.7224760686 -2.0046473325
O 4.2098196987 -1.7130699246 -1.5226153998
O 2.6171747807 -2.6601801495 -2.8315100162
C 3.5805798911 -3.6634256363 -3.2403563930
C -1.0645913372 -0.9450616032 2.3630023640
C -1.4535804510 -0.6675934483 3.6685595721
C -2.4143175535 0.3176215481 3.8989834383
C -3.0038719997 1.0537621507 2.8726906436
Cl -2.8999019806 0.6465203896 5.5551652544
H -5.0501740323 -2.6850420793 -1.4559130112
H -5.2940034591 -2.7466779044 0.3227047830
H -6.0824910006 -1.4610772786 -0.6534602340
H -2.4804519785 2.4084954398 0.1851659435
H -4.0943484134 1.6729674682 0.2446443561
H -0.8874304452 0.7742173746 -3.5981968854
H -1.9826175274 -0.5598336167 -3.1039572103
H 2.8205373991 -1.3546199104 0.7953849471
H 3.1374503847 0.2820610974 2.6450946039
H 2.1352294506 3.4947778795 -0.0134930804
H 1.8762002972 1.8721016657 -1.8822639776
H 3.9281256442 -4.2257336003 -2.3709964063
H 4.4259196106 -3.1893359993 -3.7438880004
H 3.0381904427 -4.3115802853 -3.9269697730
H -0.3242531189 -1.7120925854 2.1611948405
H -1.0252132388 -1.2132059241 4.5012579991
H -3.7365218891 1.8235331578 3.0883883885
