47
CONF17
C -2.7861112041 2.1744151335 0.1392656007
C -2.3056408165 0.8333011730 -0.3677000489
C -3.2813914509 -0.3079891946 -0.5192457105
C -2.3055934066 -0.3012338181 0.6594358228
C -1.2309170118 -1.3054920391 0.6703364238
O -0.8216374874 -1.9430858514 -0.2737028062
O -0.7085814614 -1.4074883618 1.9351355820
C 0.3839401698 -2.3463332551 2.0874782475
C 0.0915608062 -3.1470308571 3.2733190575
N -0.1271837501 -3.7939646608 4.2039788878
C 1.7156138975 -1.6209280567 2.1639615789
C 1.9581102270 -0.6033731261 1.2417811084
C 3.1917517780 0.0384814297 1.2489013457
C 4.1795187940 -0.3211727245 2.1644658792
C 3.9198080593 -1.3305212123 3.0789596256
C 2.6918525310 -1.9883739373 3.0855289579
O 3.4910681740 1.0959668906 0.4211041382
C 2.8685998439 1.2234243468 -0.8078118474
C 2.7023530253 0.1443637400 -1.6727508909
C 2.1425926024 0.3654548269 -2.9263251708
C 1.7659303791 1.6469840166 -3.3202693296
C 1.9504539648 2.7162776030 -2.4487320787
C 2.4962816566 2.5092140232 -1.1860817150
C -4.7147013587 -0.1655439280 -0.2541271519
C -5.6899872187 -0.7432241411 -0.9581698905
Cl -7.3707025158 -0.5109028572 -0.5707101398
Cl -5.4162343361 -1.7780053061 -2.3269984989
C -1.1895355558 0.9348276841 -1.3806675059
H -3.5330091175 2.0880989940 0.9312024986
H -3.2252789735 2.7501746921 -0.6826885007
H -1.9404477421 2.7442260280 0.5378041316
H -3.0082949297 -1.0230085861 -1.2889337558
H -2.6989078722 -0.0436279127 1.6368309621
H 0.3813510762 -3.0104161527 1.2112919722
H 1.2005090561 -0.3124372820 0.5239197069
H 5.1284091808 0.2030068907 2.1490467570
H 4.6818597199 -1.6100984004 3.7986972079
H 2.4966204387 -2.7741818368 3.8068973882
H 3.0089810599 -0.8503815819 -1.3688147067
H 2.0092201951 -0.4729400000 -3.6023354593
H 1.3339352102 1.8102090999 -4.3016605058
H 1.6635014056 3.7192425018 -2.7479457613
H 2.6493971921 3.3280526580 -0.4916740827
H -5.0311889396 0.4543771923 0.5784564843
H -0.8696612131 -0.0412400181 -1.7470796120
H -0.3193267967 1.4440110860 -0.9504369692
H -1.5288857825 1.5288857917 -2.2358905159
