51
CONF24
C 3.4188772006 -2.3451482537 2.9056074651
C 3.1924494168 -1.9776965562 1.4315092903
C 2.6704130958 -0.5772047145 1.2569783622
N 3.4530338455 0.4558088625 1.3394835337
O 4.7911434064 0.1520866518 1.5747435627
C 5.5512189609 1.3806381321 1.6507822250
C 6.9896673872 0.9869250774 1.8938326078
C 1.2780262058 -0.2831833485 0.8806454048
C 0.9364714216 0.9403459491 0.3154019950
C -0.4251165975 1.2588373829 -0.2069913044
C -1.1650668400 -0.0185180504 -0.6076918090
C -1.1703526273 -0.9819442237 0.5812569388
C 0.2083879195 -1.2356109986 1.1673376594
O 0.3667219387 -2.2117380717 1.9059126007
C -2.5338361820 0.1640808451 -1.2413026984
C -3.5672490286 0.9299859620 -0.6630259522
C -4.8029087074 1.0231685121 -1.3149455076
C -5.0607822985 0.3815245502 -2.5211562417
C -4.0399799656 -0.3918666916 -3.0715577251
C -2.7941353614 -0.5135805441 -2.4567381818
C -1.7618586149 -1.3896894255 -3.1257857879
C -6.3880094678 0.5170748648 -3.2157524227
C -3.4354470718 1.6906940354 0.6357722057
O 1.7929465945 1.9393646908 0.2078735963
H 2.4754521175 -2.3032982271 3.4541054860
H 3.8161592776 -3.3619018115 2.9773000419
H 4.1333568705 -1.6637217181 3.3742323411
H 4.1444335743 -2.0380856379 0.8926680184
H 2.4957849948 -2.6813376792 0.9776237820
H 5.4361015842 1.9308718648 0.7080293331
H 5.1570892212 1.9942272559 2.4705669750
H 7.6031188574 1.8891873427 1.9687714884
H 7.0869452081 0.4251957673 2.8273797831
H 7.3725788025 0.3760169498 1.0713575305
H -0.9472341819 1.8160971742 0.5780766458
H -0.3131089549 1.9408955909 -1.0566710795
H -0.5244416666 -0.4814625325 -1.3630396650
H -1.5844480247 -1.9555666185 0.2991098030
H -1.7974557316 -0.6027441212 1.3980790029
H -5.5889615486 1.6167759260 -0.8534012979
H -4.2192319139 -0.9210787948 -4.0048607684
H -1.4025913469 -2.1825943984 -2.4606875342
H -2.1920376932 -1.8653173004 -4.0099775480
H -0.8860616208 -0.8159052379 -3.4499207444
H -6.7565951291 -0.4556319256 -3.5564595619
H -7.1372218959 0.9610090790 -2.5553838543
H -6.2990865177 1.1570345429 -4.1014250814
H -2.8697363323 1.1506026076 1.3962766778
H -4.4277568659 1.8974052808 1.0444048681
H -2.9424570408 2.6576672349 0.4816594444
H 2.6627894423 1.6213042406 0.6523451903
