43
CONF24
C -3.0865004680 -1.6696579163 1.5578907111
Si -1.6302269240 -0.6106010231 2.0234512655
C -1.8567296843 0.2371142777 3.6671824748
O -0.3131893994 -1.6239299234 2.0573042363
O -1.3437026644 0.5913270662 0.9225237194
Si -1.4818753801 1.0632491710 -0.6536143636
C -1.5428503931 2.9208522899 -0.6695442598
C -2.9764410571 0.2879783290 -1.4504442919
O -0.1138747252 0.6193033951 -1.4637335764
Si 0.8142045918 -0.7060901537 -1.7962844835
C -0.2005728173 -2.2651328109 -1.7363908678
C 1.6125878108 -0.4262617937 -3.4526673890
O 1.9923013777 -0.8279791168 -0.6419823192
Si 2.7266342898 0.1924053502 0.4279874666
C 4.1740686696 -0.7010724035 1.1688296403
C 3.1664829971 1.7956036471 -0.4134755208
O 1.6902395257 0.4886774609 1.7098095538
H -3.2662718728 -2.4200722352 2.3360025588
H -2.9142349631 -2.1943929519 0.6126057516
H -3.9935737541 -1.0649884978 1.4548609309
H -0.9725224662 0.8348129906 3.9171689630
H -2.7233033800 0.9072246390 3.6466626869
H -2.0094049272 -0.4951280205 4.4672089651
H 0.5342555483 -1.1470679553 2.0488596673
H -2.4260017398 3.2863509366 -0.1347686876
H -0.6530826989 3.3372577568 -0.1838917165
H -1.5821825159 3.3025333592 -1.6952491985
H -3.8900268456 0.5644383751 -0.9128637849
H -2.9055633685 -0.8041152473 -1.4634174542
H -3.0717902705 0.6352100792 -2.4853402107
H 0.4351981200 -3.1412977151 -1.9051813144
H -0.6813899800 -2.3791687024 -0.7584202472
H -0.9796348910 -2.2563311471 -2.5060928134
H 2.2974474682 -1.2449605615 -3.6984139998
H 0.8577545010 -0.3636797476 -4.2440332835
H 2.1843796858 0.5084689842 -3.4515687836
H 3.8458583436 -1.6187663162 1.6692945970
H 4.8951800789 -0.9763359620 0.3921471091
H 4.6871693512 -0.0732503130 1.9045495284
H 3.6852826328 2.4687092411 0.2774757060
H 3.8220534619 1.6155708301 -1.2726488487
H 2.2662595537 2.3050579290 -0.7757399837
H 0.9275890673 1.0481345810 1.5039513641
