48
CONF6
C -3.3478522530 2.1263696023 -1.3571232536
C -3.1588118336 1.0720051086 -0.2676103526
C -3.0820717006 1.7035539845 1.1511940557
C -3.8904126918 0.7450112503 2.0168156079
N -4.9854685663 0.3787802049 1.1119959118
C -4.3605862931 0.0670130945 -0.1673874131
N -3.7490324273 -1.2882333069 -0.2592446351
C -2.4048617310 -1.1730209647 -0.5670355045
C -1.9864483982 0.1653382151 -0.5485694757
C -0.6675085796 0.4972755132 -0.7935667492
C 0.2269270495 -0.5339625020 -1.0763294088
C -0.1742773333 -1.8594731809 -1.1279345881
C -1.5065302199 -2.1971409193 -0.8780709301
O 1.5588499972 -0.2160582094 -1.3979134069
C 2.4170849638 -0.0539381078 -0.3355037066
O 2.0947350256 -0.1863800550 0.8279676582
N 3.6472463276 0.2685443113 -0.8242904179
C 4.8268037404 0.5254095954 -0.1055942425
C 4.9326227125 0.4018021232 1.2845559001
C 6.1504800997 0.6739015586 1.9031159240
C 7.2645211139 1.0648009164 1.1664526966
C 7.1530258666 1.1841403157 -0.2177814918
C 5.9469485573 0.9186529102 -0.8517046317
C -4.5118306542 -2.3828014349 -0.8445064607
C -5.8960018965 -0.6265737013 1.6408789502
H -2.5116174029 2.8335010388 -1.3504908834
H -3.3996582339 1.6621060103 -2.3468126504
H -4.2720438746 2.6870759857 -1.1811229557
H -2.0486212774 1.8241311852 1.4854284225
H -3.5628351465 2.6873552218 1.1410548031
H -4.2870810469 1.2082211530 2.9267391347
H -5.1003964181 0.1774405817 -0.9741608667
H -0.3259179157 1.5284412640 -0.7847376298
H 0.5540840375 -2.6280870113 -1.3659846543
H -1.8221030355 -3.2339077225 -0.9204830366
H 3.7096726159 0.3471345905 -1.8297221641
H 4.0776258063 0.0972372310 1.8707015119
H 6.2214115074 0.5742031959 2.9819875151
H 8.2068811887 1.2729244328 1.6620422842
H 8.0093986170 1.4871628260 -0.8120922579
H 5.8659695712 1.0142741583 -1.9310189537
H -4.3696272788 -2.4450451949 -1.9357319698
H -4.2155647854 -3.3406366059 -0.4025563993
H -5.5739200474 -2.2382558364 -0.6395148882
H -6.3416089259 -0.2539181964 2.5692891171
H -5.3977496872 -1.5873291215 1.8614059854
H -6.7055626859 -0.8111381097 0.9256665636
H -3.2848876402 -0.1326507086 2.3152052419
