32
CONF51
C 4.2708419358 0.8677007487 -2.7358229826
C 3.0628852414 0.7190498883 -1.8535946883
C 2.1976061151 1.7978338185 -1.6425946338
C 1.0631405386 1.6640099464 -0.8552446854
C 0.7829601109 0.4364278731 -0.2600219004
C 1.6288785675 -0.6482594700 -0.4546963780
C 2.7614555270 -0.5016183281 -1.2464661583
N -0.3863752363 0.2410452036 0.5653745623
S -0.5280896308 1.2262169098 1.9732804301
C 0.1377429646 0.0685981884 3.2222698150
F 1.4191015411 -0.2695645962 2.9595249916
Cl -0.7797092569 -1.4701854801 3.3985541391
Cl 0.0809039554 1.0104335674 4.7555708936
S -1.8901010636 0.1372019221 -0.3443584270
O -1.5279671271 -0.6531916426 -1.5202611997
O -2.4685642913 1.4778984905 -0.4688142330
N -2.8253648805 -0.7334910167 0.7249702821
C -2.7034422249 -2.1888223121 0.6135726343
C -4.1633485466 -0.2266875272 1.0416100542
H 3.9921623625 0.7658020137 -3.7912503939
H 5.0208628442 0.1039270127 -2.5161587647
H 4.7339168655 1.8509001795 -2.6139246310
H 2.4158829780 2.7561621282 -2.1053496844
H 0.3939663743 2.5046053182 -0.6996106260
H 1.3935951141 -1.5958773846 0.0176329573
H 3.4230212021 -1.3503976768 -1.3934875280
H -3.0819109884 -2.6279932377 1.5415788973
H -3.2701226786 -2.5879571761 -0.2385330616
H -1.6538109271 -2.4692139722 0.5054353277
H -4.1363063272 0.8581075148 1.1392437588
H -4.9049261385 -0.5034331423 0.2787937076
H -4.4588846240 -0.6592273588 2.0027773240
