38
CONF4
C -2.0105737237 3.7883560870 -1.9784363855
N -0.9567204710 2.9734708054 -1.3743468217
C -1.1860069679 2.0700069076 -0.4291763497
C -0.3207451532 1.1442835942 0.1583341202
C -1.0965837551 0.3792984055 1.0769572021
O -0.7786027630 -0.5478830263 1.8250173675
C -2.5316645839 0.9447285190 1.0104372225
O -2.4521536391 2.0120389771 0.0243622504
C -3.5455599635 -0.0805487104 0.6006373520
C -3.6891859763 -0.4502351928 -0.7390489555
C -4.5854137820 -1.4535944562 -1.0926806613
C -5.3336973006 -2.1039309838 -0.1121900861
C -5.1854028209 -1.7426734714 1.2243921477
C -4.2968703383 -0.7308817156 1.5804454877
C 1.1035293879 0.9768417356 -0.1082102535
C 1.6586015406 -0.3131825763 -0.1316589042
C 3.0160447604 -0.4837690953 -0.3698618379
C 3.8542585173 0.6090535602 -0.6006627836
C 3.3116847034 1.8874375439 -0.5702760424
C 1.9561293192 2.0722092149 -0.3166480879
C 3.6105872296 -1.8589538042 -0.4269060607
F 2.7744426124 -2.8169128549 0.0296730222
F 3.9503240818 -2.2096261177 -1.6998081695
F 4.7528523821 -1.9474024040 0.3045369877
H -1.5390984134 4.4891971702 -2.6673654357
H -2.7268001113 3.1680285980 -2.5281182265
H -2.5451012272 4.3508886017 -1.2091171353
H -0.0493574907 2.9593777111 -1.8137633253
H -2.7920863052 1.3993724156 1.9722304528
H -3.1048711929 0.0504902096 -1.5052063399
H -4.6982729500 -1.7307883731 -2.1361842243
H -6.0318924195 -2.8869473229 -0.3906426455
H -5.7683039878 -2.2418809179 1.9920791669
H -4.1886475931 -0.4410787599 2.6217099662
H 4.9121908030 0.4618567593 -0.7907677596
H 3.9519766840 2.7490359340 -0.7285943612
H 1.5646192417 3.0826258337 -0.2470152235
H 1.0175430289 -1.1698989845 0.0334422075
