47
CONF1
C -4.3258814742 -3.2368589382 0.0681299895
C -3.6285960858 -1.8839005760 -0.1221956717
C -4.2727741855 -1.1440859151 -1.2981529342
C -2.1163857454 -2.0872579013 -0.3090878349
C -1.4484211166 -2.9485271544 0.7723435114
C 0.0353898085 -2.6545238779 0.5807478471
C 0.0939995464 -1.1289962535 0.3966476025
C 0.2422217275 -0.4025598656 1.7485394009
C 0.6151117164 1.0542308896 1.6319980644
C -0.2245274267 2.0687974610 2.0994558904
C 0.1260261184 3.4122694715 1.9886445414
C 1.3419017648 3.7360658939 1.4022838394
Cl 1.7932713932 5.4341498518 1.2337677216
C 2.2110255219 2.7564158592 0.9400716076
C 1.8374926076 1.4223480654 1.0603976900
C -1.2399990289 -0.7840286111 -0.3668767778
O -1.9722555369 0.2778177300 0.2431684326
C -0.9388409540 -0.4519973540 -1.8420269333
N -0.1050299964 0.7338178024 -2.0123807935
C 1.1426945929 0.8269439859 -2.5099824152
N 1.5504701706 2.0922649412 -2.5051242324
C 0.4861753954 2.7479625757 -1.9707343247
N -0.5455151964 1.9701348038 -1.6608677018
H -3.9871200015 -3.7501351330 0.9721746776
H -5.4092811557 -3.0972291519 0.1464583689
H -3.8663951988 -0.1370719946 -1.4167619681
H -4.1116845145 -1.6972692901 -2.2322416156
H -5.3539634318 -1.0556492672 -1.1459570203
H -1.9752461049 -2.6092778645 -1.2686229953
H -1.7836892854 -2.6284265461 1.7684467247
H -1.6852953354 -4.0105887429 0.6671153996
H 0.3864387915 -3.1529447714 -0.3317153992
H 0.6643096657 -2.9964337289 1.4087282944
H 0.9589936423 -0.8564457586 -0.2183764780
H -0.6738188676 -0.5032705593 2.3368836356
H -1.1756860974 1.8084503427 2.5545460104
H -0.5378857725 4.1894695341 2.3505245206
H 3.1590618580 3.0276485898 0.4891584642
H 2.5170408263 0.6551175737 0.6993507838
H -1.8709138645 -0.2994433294 -2.3936612354
H -0.3939934913 -1.2849864394 -2.2952362844
H 1.6972724683 -0.0331439685 -2.8625557526
H 0.4611649746 3.8177467144 -1.8053717030
H -4.1322714056 -3.8939204660 -0.7891255645
H -3.7798313822 -1.2906496385 0.7881127239
H 1.0423098246 -0.9145323747 2.2978099673
H -1.5216356576 1.1123200755 0.0384943722
