18
CONF1
C -0.3546780226 -1.3606147081 -0.0002632856
C -1.3105033564 -0.3561218617 0.0003808837
C -0.9846436047 0.9914801155 0.0007343912
C 0.3630918604 1.3168147603 0.0004900824
C 1.3672087976 0.3606023883 -0.0001269460
C 0.9754236456 -0.9693507220 -0.0005268097
N 2.0274861529 -2.0217930220 -0.0013730091
O 1.6488793954 -3.1821149861 0.0008810909
O 3.1879181048 -1.6436763820 0.0010320831
N 0.7486961376 2.7540336937 0.0008867007
O -0.1588119536 3.5701705754 0.0006192377
O 1.9429283396 3.0061636223 0.0000085423
N -2.7478621772 -0.7412076906 0.0007084176
O -3.0004687133 -1.9352925358 -0.0017290908
O -3.5636559153 0.1666667116 -0.0007701929
H -0.6355819808 -2.4057655919 -0.0005632169
H -1.7496902362 1.7568172294 0.0012235233
H 2.4124639225 0.6411147962 -0.0003232183
