43
CONF2
C -4.5443063725 -0.0321913069 -2.3649769764
N -4.0437524952 0.1020328581 -0.9961122591
C -2.9755941056 -0.4772325045 -0.3996626123
C -2.9053511475 0.0103990374 0.9105308087
C -4.0066866830 0.8893584934 0.9770949605
N -4.6775511080 0.9483840294 -0.1679174441
Cl -4.5054903533 1.8813360208 2.2898156580
C -1.8475019792 -0.2657574428 1.8893586253
O -0.7089356743 -0.5753033750 1.5978734828
O -2.2841715217 -0.1119622954 3.1504547797
C -1.2803564350 -0.3091572344 4.1691495888
S -1.9800081084 -1.7584122526 -1.1570986050
O -1.7157134955 -2.7903271679 -0.1589654367
O -2.5829791969 -2.0787892617 -2.4445225447
N -0.4760012095 -1.0189933977 -1.4074347324
C -0.3954429534 0.2201466956 -2.0174287521
O -1.3038901385 0.7409446024 -2.6411027349
N 0.8362218283 0.8615396473 -1.8879661078
C 1.9462858547 0.5718250149 -1.1007502415
N 1.9492023613 -0.5579856670 -0.3954357861
C 3.0248162493 -0.7717271732 0.3723434752
C 4.0962385212 0.1117317670 0.4199970597
C 3.9741945356 1.2441018290 -0.3817042675
N 2.9073450492 1.4970692336 -1.1449560698
O 4.9916958653 2.1164107673 -0.3688442748
C 4.8692619504 3.2870208654 -1.1995847741
O 3.0843937177 -1.8760894547 1.1207478632
C 1.9558389725 -2.7797436901 1.0691599984
H -5.3255049566 0.7188838810 -2.4752611061
H -3.7267782833 0.1449950994 -3.0646766688
H -4.9503929423 -1.0328837327 -2.5231095367
H -0.4495644442 0.3858815312 4.0233338216
H -1.7881759923 -0.1150549503 5.1130755208
H -0.9045069291 -1.3349444195 4.1344573494
H 0.2541775878 -1.2250656838 -0.7070522412
H 0.8728902942 1.7522327866 -2.3626100228
H 4.9661283928 -0.0686687385 1.0351329550
H 5.7926782458 3.8429430621 -1.0378463837
H 4.7698009324 3.0064581916 -2.2514903564
H 4.0041333507 3.8851431000 -0.9014017937
H 1.8278872302 -3.1773517871 0.0580288125
H 2.2144692046 -3.5847245364 1.7564910527
H 1.0409972705 -2.2764720552 1.3926705062
