44
CONF27
C 3.4873830351 -0.7748344779 -1.3182901855
C 2.7114648060 0.4907166140 -1.4553191119
N 1.6684193322 0.6775311600 -0.6441249315
C 1.0002785134 1.8402961365 -0.7942090188
N 1.3071642938 2.7716165093 -1.6976554754
C 2.3599581828 2.4674908326 -2.4635888716
N 3.1057524546 1.3621451511 -2.3928715222
O 2.6486815764 3.4011069732 -3.3650625937
C 3.7784253921 3.1642720899 -4.2429813667
N -0.0824121366 2.1194320196 0.0278574680
C -0.7899724992 3.3920475504 -0.2112628927
C -0.5598730858 1.3292450036 1.1054149990
O -1.5157410111 1.6860310247 1.7765170961
N 0.1155948376 0.1567795997 1.3362869272
S -0.3988562415 -0.9751698549 2.4874156089
O 0.4437382683 -2.1477806383 2.2101847752
O -0.3752821743 -0.3552127073 3.8145217157
C -2.1062090399 -1.3886511911 2.0985945619
C -3.0965956702 -0.8329986105 2.9020578032
C -4.4194108912 -1.2206034442 2.7198255443
C -4.7385951453 -2.1766596953 1.7606858380
C -3.7400206888 -2.7420454362 0.9752141192
C -2.4108027887 -2.3436918221 1.1214353662
C -1.4084955004 -2.9908677041 0.2181770872
O -1.2691329539 -4.1915277435 0.1282375224
O -0.7611224083 -2.0864480976 -0.5261963354
C 0.2380671535 -2.6251289362 -1.4317828578
H 4.5549576496 -0.5476967841 -1.2524005953
H 3.1660504864 -1.3386266890 -0.4424126699
H 3.3423334040 -1.3862476206 -2.2158936855
H 3.8194419886 4.0445692630 -4.8829543271
H 3.6142629699 2.2626623689 -4.8367478719
H 4.6969989159 3.0674000176 -3.6604523732
H -1.6377059666 3.4355102695 0.4666740628
H -1.1349763448 3.4316189941 -1.2457509360
H -0.1199322620 4.2344493610 -0.0254112479
H 0.8504614488 -0.1155881166 0.6521857974
H -2.8285878956 -0.1122382187 3.6643529011
H -5.1952294763 -0.7833927969 3.3388459523
H -5.7682438647 -2.4903169985 1.6254058683
H -3.9831024939 -3.4935488941 0.2312816533
H 0.6079701486 -1.7672373608 -1.9907354070
H 1.0415474381 -3.0909601399 -0.8559125264
H -0.2186518468 -3.3574463413 -2.1006786525
