67
CONF4
C 1.0875469338 1.8322967926 -0.5783532597
C 0.5161632212 2.7396458203 -1.6940939706
C -0.9692857340 2.3202225339 -1.8730532937
C -1.2216260572 1.3599357899 -0.7073956196
C -2.4348214713 0.4374208646 -0.7422069400
C -3.7299059884 1.2210795873 -0.9768791627
C -4.9667911114 0.3286310834 -0.8752614056
C -4.9586672843 -0.3625515244 0.4771299049
N -6.1882065579 -1.1223885083 0.7065802707
C -6.3419026691 -1.8855114925 1.8198706833
O -7.4332945868 -2.3580354989 2.1689703634
C -5.0932328280 -2.1589721758 2.5630093127
C -3.8870736000 -1.8966492426 2.0426038289
C -3.7263249301 -1.2720977833 0.6767686704
C -3.6705257084 -2.4333249596 -0.3385335736
C -2.4695161151 -0.3591567647 0.5880223012
C -1.1457327101 -1.1053818207 0.8163014868
C 0.0745165369 -0.1715023047 0.7703640890
C 0.1166093566 0.6071366531 -0.5449000121
C 0.4327199517 -0.3276881293 -1.7212913522
C 2.5348087313 1.4405428347 -0.7825539433
O 3.1107858954 1.4675386277 -1.8624318635
N 3.1452192792 1.0028136128 0.3804825945
C 4.4390980890 0.4904111401 0.5138431880
C 5.0520246854 -0.1964645284 -0.5397904566
C 6.3259723911 -0.7213027152 -0.3753087482
C 7.0211620001 -0.5868920566 0.8236112717
C 6.4133047815 0.0813655372 1.8751990626
C 5.1395268323 0.6252220705 1.7307411958
C 4.5280230109 1.3707601340 2.8824942518
F 5.3233345314 1.3981484438 3.9669035828
F 3.3442260491 0.8134027531 3.2812626327
F 4.2473870005 2.6610701614 2.5626816477
C 6.9881552427 -1.4232684417 -1.5277290519
F 7.7424462657 -2.4701883526 -1.1169025895
F 7.8208659732 -0.5876413931 -2.2051996691
F 6.0990031946 -1.9007892800 -2.4261467392
H 0.9956194126 2.3357948113 0.3928083038
H 1.0855877474 2.6019434457 -2.6159918698
H 0.6096709992 3.7910989028 -1.4096414128
H -1.1217705733 1.8102810040 -2.8311936938
H -1.6426981596 3.1811125632 -1.8531356229
H -1.3248676025 1.9779649541 0.2009993175
H -2.3170247891 -0.2687236718 -1.5760681975
H -3.8041167098 2.0253000693 -0.2300388412
H -3.6963587207 1.7018132164 -1.9604311907
H -4.9755520309 -0.4144288665 -1.6818695304
H -5.8788353730 0.9299134329 -0.9751182174
H -4.8839693900 0.4230573141 1.2504753441
H -7.0345975835 -0.8238410205 0.2400560318
H -5.2126357678 -2.6588884912 3.5186942446
H -2.9948841349 -2.2048560781 2.5826112928
H -3.4047760706 -2.0886108564 -1.3410008331
H -4.6408192116 -2.9350151643 -0.3900997013
H -2.9275209536 -3.1724124480 -0.0269249017
H -2.5716504509 0.3854941868 1.3956990439
H -1.0298784422 -1.8925461157 0.0631340295
H -1.1550956512 -1.6091742008 1.7882080572
H 0.0148906576 0.5421134557 1.6049482860
H 0.9882375018 -0.7632546666 0.9091825075
H 0.5424879918 0.2217261234 -2.6598095604
H -0.3420580133 -1.0835841541 -1.8662198119
H 1.3751503591 -0.8554550905 -1.5350509067
H 2.6080581179 1.1227937838 1.2265264685
H 4.5188626285 -0.3255245005 -1.4698415682
H 8.0156850229 -1.0005258105 0.9418998755
H 6.9388673765 0.1885965201 2.8158556634
