65
CONF529
C -2.6729392070 2.3617433544 -1.8565996268
C -3.0714600656 3.1622173158 -0.6196524392
C -1.9023169695 3.9475699657 -0.0091996406
C -2.3525885454 4.7839564266 1.1977667480
C -0.7568299486 3.0466504324 0.4061042306
O 0.4018709357 3.1966233367 0.0652827992
O -1.1751342355 2.0708514235 1.2346752836
C -0.1651966109 1.1881308238 1.8178802093
C 0.2848866617 1.7667703358 3.1486181276
C 1.3440107801 0.8672560276 3.8030058779
C 0.9366793578 -0.5751458149 3.7298638079
C -0.0293060709 -1.0549379430 2.9244660762
C -0.8255171986 -0.1694528207 1.9891702642
C -1.0631608276 -0.9034784455 0.6532778612
C -1.9222850427 -2.1505292594 0.9443259531
C -1.2759320268 -2.9735127904 2.0281033788
C -0.3921697928 -2.4644802497 2.9042298137
C -2.2230611731 -2.9855006071 -0.3038393038
C 0.2634545710 -1.2505717136 -0.0632870005
C 0.2871115750 -0.7578143362 -1.5092127426
C 1.6022204957 -1.0365774176 -2.2154074400
C 1.9099842927 -2.5078486556 -2.4080612472
C 3.1225747450 -2.6630287803 -3.3006279738
C 2.8011668868 -2.0629436684 -4.6632778279
C 2.1385333274 -0.7061647505 -4.6218415149
O 2.1021067531 0.0298121694 -5.5885605788
O 1.5082404961 -0.3145972028 -3.4999931852
O 3.4250485050 -4.0582600003 -3.4061956883
C 2.7446594423 1.0758122361 3.1995238864
H -3.5341127530 1.8356301221 -2.2791814402
H -2.2606263227 3.0165370992 -2.6317825261
H -1.9124365370 1.6112168880 -1.6146910926
H -3.8530385620 3.8861331075 -0.8800410319
H -3.4951135200 2.4989743253 0.1433466353
H -1.4851822442 4.6146126592 -0.7717235383
H -2.7918062924 4.1435149516 1.9684491413
H -1.5138576878 5.3325597329 1.6374177799
H -3.1071678381 5.5091847727 0.8790928371
H 0.6721867121 1.1304567373 1.1175809939
H 0.6830183004 2.7765601977 2.9999618835
H -0.5928274945 1.8419411791 3.8024978438
H 1.4085681752 1.1447030566 4.8645664677
H 1.4771924806 -1.2715665571 4.3710481262
H -1.8110790704 0.0023778358 2.4503102355
H -1.6482923932 -0.2357172939 0.0078855740
H -2.8908481108 -1.7876551085 1.3256625697
H -1.5330152363 -4.0304072118 2.0764901626
H 0.0774435008 -3.1101762579 3.6440458136
H -1.3129500026 -3.4187658090 -0.7314587544
H -2.8994065202 -3.8100600044 -0.0563384189
H -2.7016102605 -2.3689534815 -1.0718466947
H 1.1141220228 -0.8124228149 0.4744724854
H 0.4245357755 -2.3323711710 -0.0266433112
H -0.5281807928 -1.2172572666 -2.0830045354
H 0.1210599132 0.3264598281 -1.5207395678
H 2.4260888742 -0.5540170824 -1.6722891521
H 1.0488023468 -3.0241868167 -2.8532859546
H 2.1087933369 -2.9538653736 -1.4288385234
H 3.9740103065 -2.1290725210 -2.8502036468
H 2.0890331953 -2.7264614248 -5.1741279848
H 3.6842553615 -1.9811533751 -5.3034612847
H 4.2239343583 -4.1512170215 -3.9412638310
H 2.7486009113 0.8517497809 2.1277202962
H 3.4750577770 0.4181557074 3.6814776015
H 3.0701962802 2.1120082133 3.3383565482
