57
CONF2
C 3.4241862881 0.3570065645 -3.1948315791
C 2.7563127192 -0.3432499486 -2.0165679546
C 1.2746948941 -0.7474945769 -2.2775492803
C 0.4955475585 -0.0125252363 -1.1876221835
C -0.9712398263 -0.3668536091 -0.9198042536
C -1.2646638171 -1.8378265419 -0.6003678209
C -2.7582691727 -2.0717105536 -0.3516517049
C -3.2661098317 -1.1433018379 0.7051558561
C -3.9167292448 -1.5894614413 1.7962419877
C -4.4670401337 -0.6996864541 2.8165481342
O -5.0848381662 -1.1449211115 3.7969285431
C -4.2656928331 0.7297319958 2.6135965321
C -3.5612082347 1.1947415765 1.5704605613
C -3.0419360215 0.3297579626 0.4628982353
C -1.5182079522 0.5892273552 0.1639359055
C -0.6133353964 0.6132514896 1.4160559366
C 0.8576971576 0.9356969667 1.0841189763
C 1.4412198028 -0.0041769455 0.0340208606
C 2.7474133741 0.5171333890 -0.7118028385
C 4.0111058596 0.3315509525 0.1135180010
O 4.6257978997 -0.7228172613 0.1510122374
C 4.4997174347 1.4952342018 0.9470914417
O 5.5835506563 1.1202477697 1.7721041460
O 2.6964941816 1.9253528271 -0.9530924183
C 1.7209622736 -1.3780657301 0.6632632934
O -1.0733445209 1.5490873913 2.3892927811
F -1.4490701985 1.9134107147 -0.3655164880
C -3.8924977648 0.7460181268 -0.7803152980
H 4.4390188041 0.6823392189 -2.9431029093
H 3.4866617472 -0.3304680426 -4.0440858340
H 2.8552936392 1.2348094877 -3.5185769180
H 3.3363819589 -1.2394322379 -1.7801405304
H 1.1528255820 -1.8321545573 -2.2030183976
H 0.9452114314 -0.4480237476 -3.2777288599
H 0.4387495799 1.0360855592 -1.5107638515
H -1.5170560658 -0.1266820021 -1.8421217024
H -0.9313108587 -2.4574979169 -1.4382801927
H -0.7185761062 -2.1752588919 0.2808369870
H -2.9385164134 -3.1082747547 -0.0539702894
H -3.3139983506 -1.9007830113 -1.2833623665
H -4.0860590656 -2.6541425213 1.9389984514
H -4.6838433955 1.4012004793 3.3580214694
H -3.4278392627 2.2640485053 1.4350774118
H -0.6968020847 -0.3660934021 1.9006126077
H 0.9021066823 1.9695682365 0.7230589735
H 1.4185424897 0.8848632646 2.0243453756
H 3.6620296434 1.8759990640 1.5503714026
H 4.7865235003 2.3071635535 0.2627065360
H 5.7919495263 0.2008660641 1.5320269117
H 1.9903310954 2.1204739940 -1.5803225556
H 0.8583814236 -1.7433574026 1.2194190955
H 1.9937940638 -2.1372158542 -0.0735865059
H 2.5388579253 -1.3006878309 1.3841641657
H -0.9491117076 2.4348468176 2.0203189181
H -3.5561729003 0.2471113419 -1.6901625606
H -4.9345088486 0.4708469373 -0.5977942956
H -3.8333817221 1.8251771202 -0.9300625274
