51
CONF123
C -6.1502500955 -1.4109751449 -1.7287438810
C -5.6441327371 -0.5105951669 -0.6363295714
C -4.4769757643 0.1418095967 -0.7733023138
C -3.8971448149 1.0877841908 0.1942526521
C -2.4747067486 0.9042968883 0.7924535117
C -2.8070234586 2.0560977211 -0.1591643917
C -2.2171662104 2.0917005811 -1.5499420302
C -2.8639384961 3.4180070991 0.5008713860
C -1.6295201796 -0.2272184037 0.3951890134
O -1.6185175092 -0.8089288751 -0.6736620509
O -0.8144055332 -0.5792271695 1.4339267322
C 0.1230602209 -1.6479913230 1.1698449680
C 1.3314830814 -1.1421969447 0.4568914300
C 2.3629297752 -1.9444958243 -0.1346671889
C 3.2753198977 -1.0848413299 -0.6656142194
O 2.8765180223 0.2072066594 -0.4403184278
C 1.6894496134 0.1520610480 0.2478886649
C 4.5717593126 -1.2711362606 -1.3685126107
C 5.7497331143 -0.8157120321 -0.5281945171
C 6.1206237460 -1.5400452180 0.6084980195
C 7.1870711080 -1.1218358430 1.3982504541
C 7.8956784433 0.0321901628 1.0636355637
C 7.5308925761 0.7604675782 -0.0654794863
C 6.4631218964 0.3375824900 -0.8566631890
C -6.5401588577 -0.4351756252 0.5662514027
H -6.2906941322 -2.4324945914 -1.3524866815
H -5.4649606661 -1.4441726483 -2.5797831430
H -7.1323590353 -1.0736140186 -2.0845463770
H -3.9162181133 -0.0251236728 -1.6877054268
H -4.5839155965 1.4527452259 0.9522638770
H -2.3739591535 1.1815545723 1.8363057529
H -2.8538881909 2.7040099718 -2.1983176775
H -1.2254180791 2.5562383149 -1.5168944421
H -2.1128864323 1.1031612788 -1.9953473922
H -3.2994984880 3.3606508790 1.5025321321
H -1.8589423089 3.8468107240 0.5834136260
H -3.4758500910 4.0985558286 -0.1020719348
H -0.3656670194 -2.4410824381 0.5953512985
H 0.3823480374 -2.0398639684 2.1578588673
H 2.4146274390 -3.0235982756 -0.1630441496
H 1.2346827706 1.0998957988 0.4899245179
H 4.5641586851 -0.7229018035 -2.3175329256
H 4.6676236990 -2.3362681830 -1.6017609608
H 5.5682402404 -2.4383177821 0.8734080754
H 7.4680279161 -1.6972513966 2.2752627263
H 8.7278814574 0.3592877017 1.6792133031
H 8.0776578585 1.6593753456 -0.3341519554
H 6.1826027576 0.9076985256 -1.7383379169
H -6.1532991264 0.2038104876 1.3612179670
H -6.6905164930 -1.4400050717 0.9809413179
H -7.5334783217 -0.0679299607 0.2786327913
