18
CONF51
C 1.2852630605 -0.4673604311 -0.2380403765
C 2.2067129254 0.7380823141 -0.1516232387
O 2.1434688779 1.7185182678 -0.8625014901
O 3.1376031335 0.5693444075 0.8071465555
N 0.1449121513 -0.2852785582 -1.1178230812
C -0.8473031086 0.6873621134 -0.6325374114
P -2.2147092874 -0.1899233581 0.1989091524
O -3.4673493876 0.5716058965 0.4601080116
O -1.4702691045 -0.7563595783 1.5194209317
O -2.5085491601 -1.4671530912 -0.7456176281
H 0.9542605605 -0.7318571321 0.7715666640
H 1.8969602454 -1.3079436569 -0.5918653705
H 3.7295655526 1.3414942463 0.8042635000
H 0.4665270696 -0.0014572005 -2.0360109417
H -0.4404466802 1.4554781173 0.0416225486
H -1.3029646526 1.2088016599 -1.4817926840
H -2.0454214678 -1.2869427012 2.0939222610
H -1.6682608335 -1.7964110136 -1.1185061060
