45
CONF68
C 4.9894307747 2.2382577666 -2.4737272658
C 3.6766824635 1.4823734174 -2.6667862126
C 2.8306858078 1.4328249366 -1.3952432177
C 1.5163833874 0.6759241144 -1.5776361636
C 0.6826854275 0.6169854150 -0.2992240017
C -0.6738412573 -0.0845110303 -0.4821979308
C -1.4997267690 -0.1154830233 0.8180892854
C -1.8544460037 1.2656088917 1.3742946756
C -2.9253858383 1.2239189452 2.4682740766
C -2.5210006095 0.4305928587 3.7116741173
C -3.5627059741 0.5239413329 4.8245479374
C -0.5134217803 -1.4859308539 -1.0333154335
C 0.2215872894 -2.4527878113 -0.3395566144
C 0.3617229438 -3.7414197567 -0.8420653867
C -0.2328493488 -4.0910888945 -2.0520274631
C -0.9671171720 -3.1400929052 -2.7520803503
C -1.1036883472 -1.8507562649 -2.2441848365
H 4.8041064687 3.2733861548 -2.1668603942
H 5.5795747180 2.2628667260 -3.3948858349
H 5.6013000869 1.7676024545 -1.6965184192
H 3.0935735227 1.9524194145 -3.4696305896
H 3.8849574211 0.4573306088 -3.0001177033
H 3.4129146146 0.9602869134 -0.5913783634
H 2.6212425539 2.4580719392 -1.0582798865
H 0.9256606368 1.1538096829 -2.3723666167
H 1.7271245871 -0.3432192643 -1.9258414256
H 0.5072961593 1.6385784346 0.0594937702
H 1.2527930209 0.1075224909 0.4907343978
H -1.2455239600 0.4927028227 -1.2239079592
H -2.4266426187 -0.6710287151 0.6203856571
H -0.9507338969 -0.6947163045 1.5711363063
H -0.9571264765 1.7535074382 1.7754459137
H -2.2107233129 1.9006564751 0.5513098000
H -3.8511984166 0.7992572653 2.0549682231
H -3.1673101061 2.2523489771 2.7686439628
H -1.5534459855 0.8012907385 4.0771431098
H -2.3670612306 -0.6222952261 3.4466576136
H -3.2657759218 -0.0559199749 5.7037196054
H -4.5324377514 0.1438254553 4.4851810513
H -3.7072414923 1.5627036116 5.1408599359
H 0.6948466147 -2.1947204866 0.6035847724
H 0.9376485337 -4.4764555130 -0.2880633254
H -0.1229677670 -5.0966993973 -2.4449316611
H -1.4339191405 -3.4002747618 -3.6971274384
H -1.6759248289 -1.1111939977 -2.7983149404
