40
CONF61
C -5.1751367579 -0.7686184338 1.5258226754
C -3.6881620565 -1.0217009783 1.4330939312
O -3.2106316728 -0.3428153772 0.2540095219
C -1.8809195217 -0.4400005131 -0.0301552086
C -0.9440148137 -1.1273754125 0.7318589812
C 0.4004176134 -1.1787966008 0.3525868992
C 0.8188563554 -0.5098166729 -0.7901758540
C -0.1153875389 0.1893342783 -1.5708995301
C -1.4560283417 0.2208118116 -1.2074664921
O -2.4307322218 0.8644690616 -1.9036676538
C -2.0499044342 1.5554283854 -3.1121243580
C -3.3038336231 2.1674574674 -3.6916882703
N 2.1542821580 -0.5437788779 -1.2633462283
C 3.3323156888 -0.4831974893 -0.5698344431
O 4.4231132438 -0.4867747944 -1.1294393380
O 3.1503187027 -0.4252401425 0.7610369114
C 4.3577375052 -0.3396285652 1.5946757930
C 3.9542146870 -0.8978927372 2.9440649213
C 4.8182120777 1.1044496490 1.6590378075
H -5.5739861651 -1.2717244132 2.4112965352
H -5.3823271498 0.3017414528 1.6131584630
H -5.6915688337 -1.1585203753 0.6440581864
H -3.4728778972 -2.0952247830 1.3463207236
H -3.1637558054 -0.6308278361 2.3154886680
H -1.2487863833 -1.6513780734 1.6292739396
H 1.1019913274 -1.7427451690 0.9526424917
H 0.2266005685 0.7062877338 -2.4596439329
H -1.5970810557 0.8399795757 -3.8113452703
H -1.3068465149 2.3265390087 -2.8690972304
H -3.0531243768 2.7041161694 -4.6110962320
H -3.7515566976 2.8755719942 -2.9886527838
H -4.0387234453 1.3938710877 -3.9317850911
H 2.2798557069 -0.4528167278 -2.2610251832
H 5.1239050235 -0.9672059508 1.1299005582
H 3.6093614132 -1.9314133852 2.8517774354
H 4.8161364724 -0.8774637684 3.6170391765
H 3.1553961654 -0.2938009502 3.3859268381
H 5.0601328189 1.4837775117 0.6630554352
H 5.7147187787 1.1736661597 2.2827238373
H 4.0378187141 1.7312576539 2.1025931524
