40
CONF32
C 4.7663189512 -0.9121666185 2.1398715881
O 4.4998166990 0.5008611255 1.9950542473
C 3.3077290107 0.8992446799 2.4599478656
O 2.5013753026 0.1729702785 2.9954281626
C 3.0841999971 2.3915253511 2.2859499831
S 3.6621978961 3.1444180504 0.7280035845
C 2.6385482327 2.3320025954 -0.4742458454
C 1.6173859128 1.4343056783 -0.1619677177
C 0.8336883819 0.8263041395 -1.1505916136
C 1.1285765381 1.1315943152 -2.4835882818
C 2.1306802150 2.0171769369 -2.8326804650
C 2.8756719670 2.6153356660 -1.8277291494
Cl 4.1379187168 3.7413608064 -2.2743110608
F 0.4355412978 0.5209067913 -3.4694325077
N -0.1280647524 -0.1100849709 -0.7851393455
C -1.3514549762 0.0379928605 -1.1177022794
N -2.2954302672 -0.9438653912 -0.8726272649
N -3.6196254897 -0.4536613743 -0.9264032363
C -3.7742479208 0.7488791884 -1.5704434153
O -4.8212360068 1.2479324472 -1.9065886801
S -2.1302015516 1.4723981730 -1.8503412820
C -4.6422503653 -1.4973628758 -1.0592110097
C -4.5049959866 -2.4801746542 0.0972732401
C -3.0754645457 -3.0180336991 0.1603682451
C -2.0731205137 -1.8734834176 0.2487528093
H 4.0104241531 -1.4918905133 1.6043217996
H 4.7580492673 -1.1935983250 3.1958650590
H 5.7527856643 -1.0649669160 1.7038957475
H 3.6633280226 2.9089467299 3.0602628908
H 2.0268733289 2.5984994680 2.4682008130
H 1.3827765230 1.1732640143 0.8621966373
H 2.3276602203 2.2273058171 -3.8769070387
H -5.6069389003 -0.9866620405 -1.0608792607
H -4.5115986495 -2.0121134085 -2.0232801432
H -4.7575738450 -1.9723618124 1.0360981121
H -5.2213333203 -3.2962790993 -0.0411297185
H -2.9436354630 -3.6683985172 1.0308421523
H -2.8622739237 -3.6155153604 -0.7345079196
H -1.0439454334 -2.2235745666 0.1640486846
H -2.1781555933 -1.3290316581 1.2000305963
