34
CONF119
C -4.6438015131 -0.4360088272 1.0459623307
C -3.6588562546 -1.5216786296 0.6829261734
O -2.2710103969 -1.0349084500 0.7387361258
P -1.6745024911 -0.0608356211 -0.3645037784
S -2.2137782630 -0.2669118651 -2.2109314050
O -1.8498889783 1.3669547735 0.3248077781
C -1.3597718395 2.5764676638 -0.3543138811
C -1.5501920673 3.7282972892 0.6001799922
O -0.0506281194 -0.3913447377 -0.2674669447
N 0.4847103676 -0.1939564931 1.0154597384
C 1.7511949378 -0.4612958981 1.0457684132
C 2.2859057339 -0.3036378027 2.3704375515
N 2.7518698642 -0.1830307893 3.4222263661
C 2.6791232723 -0.8973501569 -0.0117281706
C 3.7177103818 -1.7743275943 0.3349874269
C 4.6166039812 -2.2079957443 -0.6301158687
C 4.5063609765 -1.7496747074 -1.9408244786
C 3.4926698491 -0.8565564679 -2.2833661665
C 2.5750245219 -0.4325542228 -1.3313339566
H -4.4155673066 -0.0143385943 2.0286052212
H -4.6427920788 0.3672514254 0.3031603187
H -5.6483503448 -0.8696085159 1.0774588695
H -3.6692116731 -2.3398011579 1.4049468219
H -3.8375429239 -1.9223473540 -0.3196234915
H -1.9364731502 2.7037198973 -1.2754681456
H -0.3034469522 2.4294291854 -0.6054324662
H -2.6060167458 3.8473517640 0.8579157517
H -1.2036815050 4.6484118168 0.1204466697
H -0.9727998691 3.5741871596 1.5155450237
H 3.8111095776 -2.1280953581 1.3571720262
H 5.4071964641 -2.8985094051 -0.3561737345
H 5.2140147987 -2.0818049047 -2.6935416377
H 3.4151758794 -0.4855184823 -3.3000097097
H 1.7996416653 0.2700215085 -1.6059971462
