45
CONF123
C 4.6060625523 -3.1189576165 1.8549322087
C 4.2304393803 -1.8357446296 1.1168602702
C 2.7195815305 -1.6125753651 1.0788382420
C 2.3479463648 -0.3305571239 0.3457167583
N 0.8974529957 -0.1665361514 0.3275055533
C 0.2968909313 0.9395151394 -0.1995187913
C -1.0887581115 1.1492192840 -0.0006959848
C -1.7161583223 2.2742445244 -0.5176740715
C -1.0316274745 3.2210231086 -1.2680376622
C 0.3290166877 3.0048623693 -1.4967516369
C 0.9830539695 1.8910783810 -0.9691926167
C 1.1387521389 3.9597972743 -2.2937229519
O 2.3259615336 3.8286439099 -2.5239501740
O 0.4174242724 5.0061976426 -2.7470595483
S -3.4846811255 2.4825494340 -0.2667928825
O -3.8631722363 3.8065650707 -0.7852212416
O -4.1563976920 1.2815825679 -0.7929616138
N -3.6080692445 2.5823571747 1.4124479280
O -1.7998996891 0.2911995784 0.8088277003
C -2.0776152090 -0.9918930933 0.3352915908
C -1.9584222077 -1.3398731929 -1.0045532454
C -2.2724528331 -2.6422646861 -1.3857680673
C -2.7046405774 -3.5745768999 -0.4457723131
C -2.8237613498 -3.1994630559 0.8915742829
C -2.5078480023 -1.9051098494 1.2915296248
H 4.2533814697 -3.0903015893 2.8916669712
H 4.1554801508 -3.9929271231 1.3721150147
H 5.6903904413 -3.2647558338 1.8717669312
H 4.6160676455 -1.8729223069 0.0899342145
H 4.7115125925 -0.9760222447 1.6006066875
H 2.3306889595 -1.5684561815 2.1057327896
H 2.2316484028 -2.4641355990 0.5866662251
H 2.7181984281 -0.3779972665 -0.6870925604
H 2.8345438260 0.5330088846 0.8284538770
H 0.3994233762 -0.6212255071 1.0795540253
H -1.5469721754 4.0866058914 -1.6606338868
H 2.0442372952 1.7803326822 -1.1536765619
H 1.0139830480 5.5791443750 -3.2568855302
H -3.7703901795 1.6627745123 1.8179957177
H -4.3684735044 3.2178070859 1.6484430369
H -1.6318879149 -0.6095223531 -1.7372210356
H -2.1810976049 -2.9233150766 -2.4302092212
H -2.9488526733 -4.5859449026 -0.7529047903
H -3.1614907715 -3.9173540882 1.6322577148
H -2.5894687708 -1.5960769421 2.3284400180
