34
CONF1
C 3.1215217306 -2.4149388057 -0.1866274609
C 3.6783000599 -1.1513258680 -0.2807137047
C 2.8558892432 -0.0138430146 -0.2490552549
C 1.4435840379 -0.1732135972 -0.1207242635
C 0.8784300254 -1.4781132418 -0.0249592989
C 1.7423770990 -2.5772820419 -0.0604770378
C -0.5715438031 -1.6183933034 0.1034372020
C -1.2032652857 -2.8624468413 0.1966470041
C -2.5881350850 -2.9679474816 0.3202996394
C -3.3824372593 -1.8350951876 0.3545718522
C -2.7989296304 -0.5612801016 0.2638511019
C -1.3821308103 -0.4466142516 0.1370697775
C -0.7961419281 0.8498489657 0.0413970634
C -1.6147241481 2.0074118085 0.0749577469
C -3.0276535031 1.8583649340 0.2045757628
C -3.5958973375 0.6245057563 0.2953841556
C -1.0123875207 3.2836634376 -0.0212951701
C 0.3483618999 3.4153014656 -0.1462243849
C 1.1899223012 2.2788557284 -0.1819322299
C 0.6141975890 0.9863285194 -0.0867146337
C 2.6053131437 2.4036164575 -0.3107932305
C 3.4049145769 1.3022223285 -0.3428301331
H 3.7596332913 -3.2926948422 -0.2104548860
H 4.7525028074 -1.0249448214 -0.3790085714
H 1.3508388997 -3.5848143081 0.0101914001
H -0.6208910179 -3.7754194301 0.1737509833
H -3.0417356908 -3.9516069393 0.3898355597
H -4.4611224919 -1.9174510770 0.4508933275
H -3.6418390872 2.7541027525 0.2289613558
H -4.6723076691 0.5165479365 0.3934723987
H -1.6493400622 4.1632822872 0.0052660720
H 0.8005389891 4.4003098533 -0.2196210977
H 3.0320836818 3.4000117262 -0.3826247646
H 4.4820720544 1.4030509970 -0.4405060802
