39
CONF40
C 3.6764752251 -0.6241815552 -3.0286144641
C 3.2513072606 -0.0638008045 -1.6726511347
C 1.7316161165 0.0584248037 -1.5593302014
C 1.2827731368 0.6095068476 -0.2153656342
C 1.3470867187 -0.3917883716 0.9365270883
O 0.0409049627 -0.9959024125 0.9019070741
C -0.8522681065 0.0468007904 0.5731368590
C -2.0433502887 -0.5905898582 -0.1660745560
N -1.6443138472 -1.2236439608 -1.4071817929
C -1.1076735948 -2.4464519117 -1.5921487265
N -0.8316250548 -2.6374958584 -2.8768756744
C -1.2254571366 -1.4620396839 -3.4447876841
N -1.7239469068 -0.5733745800 -2.5956557199
O -0.1335846164 0.9407241091 -0.2645690600
C -1.3557198880 0.7631016262 1.8348549061
C -2.0520716229 1.9764883388 1.8204254112
Cl -2.4374967440 2.8121919117 0.3209037013
C -2.4948306772 2.5895405041 2.9884886600
C -2.2401176107 1.9637432288 4.2005357209
Cl -2.7915278271 2.7311465379 5.6793017773
C -1.5698703967 0.7506717571 4.2664153659
C -1.1437187598 0.1672027173 3.0804974239
H 4.7652981505 -0.7043071365 -3.1029585515
H 3.2521133026 -1.6218087091 -3.1873832854
H 3.3278184735 0.0206059516 -3.8427581139
H 3.7057007866 0.9236908603 -1.5190750568
H 3.6350823434 -0.7113126948 -0.8739379243
H 1.2626056037 -0.9216174498 -1.7206345777
H 1.3597985428 0.7277150123 -2.3448355349
H 1.8280934203 1.5298672038 0.0248950767
H 1.5126101371 0.1043475704 1.9015303701
H 2.0827678008 -1.1845977092 0.7921428978
H -2.4838433931 -1.3440419890 0.4930971293
H -2.7952098526 0.1651202855 -0.3950620286
H -0.9520742518 -3.1457312390 -0.7816641780
H -1.1500190983 -1.2558531881 -4.5051544907
H -3.0278238558 3.5315582587 2.9475542845
H -1.3841585815 0.2679264212 5.2185261064
H -0.6213496480 -0.7818348569 3.1159784311
