44
CONF3
C 4.7648122714 -0.5854788361 0.3732327919
N 3.7304854347 -0.2553460941 -0.6009030121
C 3.4160849347 -1.3983528075 -1.4527207618
C 2.5429646139 0.3435978531 0.0017038976
C 1.7701168589 -0.5330090180 1.0275472061
C 0.4661040215 0.1078170866 1.3879753167
C -0.6513218182 0.0722175305 0.6367715632
C -1.8828815145 0.7841200925 1.0656894927
C -2.2856867047 0.6260545801 2.4042643210
C -3.4229874087 1.2385552223 2.9079541424
C -4.2012600126 2.0284595089 2.0661651650
C -3.8182718147 2.1904756233 0.7422797550
C -2.6715784462 1.5843090821 0.2126960537
C -2.3782723046 1.8865480487 -1.2459659530
C -0.9993104068 1.5030148627 -1.7946682496
C -0.8247575978 0.0136901025 -1.8465345214
C -0.8283353538 -0.6917695094 -3.0498138915
C -0.7154441201 -2.0798126066 -3.0640164343
C -0.6087432500 -2.7775538016 -1.8640555695
C -0.6012813745 -2.0826110915 -0.6579858806
C -0.6967420717 -0.6889762480 -0.6391491968
H 4.4920759878 -1.4251681055 1.0399517385
H 4.9792578243 0.2900380280 0.9960156007
H 5.6852212001 -0.8653870722 -0.1516399819
H 4.3095355881 -1.6873312236 -2.0177576708
H 3.0719436644 -2.2898747061 -0.8951501226
H 2.6312568608 -1.1227486489 -2.1659756772
H 1.8514795822 0.5969586800 -0.8113247739
H 2.8348560236 1.2842881566 0.4870620934
H 1.6054530914 -1.5198324179 0.5868367461
H 2.3770434830 -0.6695240067 1.9282450792
H 0.4532349743 0.7273960771 2.2836691127
H -1.6931079556 -0.0185417700 3.0457836423
H -3.7072719924 1.0883035097 3.9447187349
H -5.0988331472 2.5135842618 2.4366922256
H -4.4192843272 2.8168786970 0.0871214374
H -2.5234979223 2.9639110259 -1.3914194372
H -3.1443344705 1.3942442536 -1.8614627955
H -0.8951434888 1.9245561436 -2.7993828926
H -0.2195441314 1.9535196109 -1.1671902291
H -0.9182274761 -0.1451747956 -3.9850099015
H -0.7165418338 -2.6146422327 -4.0087128020
H -0.5335266575 -3.8604457154 -1.8654319567
H -0.5257377395 -2.6209568486 0.2823736011
