70
CONF154
C -2.7510569933 -0.0466749575 0.3143247667
C -4.0719534069 0.7637117679 0.3240424380
C -5.1958980639 -0.1050857209 0.7855551004
C -6.5547822604 -0.1158012230 0.5819820408
N -7.1094105994 -1.1985041449 1.2579633987
C -6.1130529238 -1.9045654348 1.8922572071
C -6.0961021738 -3.0600261769 2.6776747013
C -4.8502570665 -3.4846239588 3.1338403548
C -3.6484656428 -2.8018397844 2.8347999172
C -3.6652291927 -1.6458012215 2.0614161506
C -4.9116832786 -1.2253461295 1.6043969279
C -2.4921607712 -0.7673995447 1.6736914058
C -1.1801413028 -1.5480823631 1.6375333041
C -0.0329646097 -0.6247299527 1.2617751147
C -0.3494411413 0.0640190279 -0.0681719665
N -1.5983410623 0.8330943196 0.0113809127
C -1.7721486024 1.5641097713 -1.2609456207
C -0.6627902764 2.5397847429 -1.5099430565
C 0.0109993430 2.6392969190 -2.6536796218
C 1.2749238792 -1.3909787006 1.1226069036
O 1.2939535182 -2.6199583118 1.1103971194
N 2.4440493445 -0.6834720073 0.8832293004
C 3.6158742650 -1.4767168099 0.4417526198
C 3.4916713699 -2.0246733448 -0.9823135325
C 3.2178207278 -0.9805896453 -2.0600143123
N 4.1780386382 0.1346845183 -2.0724386998
C 3.7580880639 1.1424032648 -3.0523459750
C 5.5463414253 -0.3102975714 -2.3535736148
C 2.5959952969 0.7121836000 1.1990909643
O 2.0156861712 1.2198995572 2.1621026888
N 3.4444285621 1.3695088088 0.3942179591
C 3.7881846326 2.7657532264 0.6431928649
C 2.7768787069 3.7384473415 0.0426881911
H -2.8421589083 -0.8366711191 -0.4617912188
H -3.9363280327 1.6293214832 0.9891031147
H -4.2940851907 1.1529479717 -0.6723961073
H -7.1901136092 0.5488974068 0.0127432530
H -8.0891485688 -1.4316476175 1.2593236599
H -7.0007074542 -3.6078935652 2.9215719852
H -4.7971682499 -4.3814473834 3.7441931545
H -2.7175118118 -3.2002822048 3.2249186437
H -2.4030308272 0.0284505816 2.4318468076
H -0.9841097218 -2.0071396118 2.6113092371
H -1.2660457307 -2.3607621975 0.9060238416
H 0.0799636454 0.1492323986 2.0239405326
H 0.4549761085 0.7565943633 -0.3367915832
H -0.4002471829 -0.7016276705 -0.8710543261
H -1.8672149034 0.8733663058 -2.1212862887
H -2.6981678284 2.1442421478 -1.2018625986
H -0.4485063600 3.2263505151 -0.6903408423
H -0.1803001680 1.9608965750 -3.4824658080
H 0.7694373115 3.4026519379 -2.7990315276
H 3.7325567298 -2.3151311055 1.1352063393
H 4.4987529726 -0.8432334710 0.5422434471
H 4.4117783017 -2.5789544834 -1.1997495832
H 2.6774390122 -2.7547026670 -1.0190059128
H 2.2226861544 -0.5454455584 -1.8941296606
H 3.1884251332 -1.4830274765 -3.0450135109
H 4.4441774562 1.9949992419 -3.0217863674
H 2.7510460971 1.4967075357 -2.8053734024
H 3.7429145617 0.7406571350 -4.0809154653
H 6.2069520072 0.5609505427 -2.3936265819
H 5.9069475420 -0.9726979944 -1.5621705318
H 5.6155581741 -0.8462315821 -3.3171761908
H 3.7967026376 0.9219981151 -0.4785510716
H 3.8638971371 2.9187532734 1.7246128195
H 4.7798066903 2.9367332556 0.2103290055
H 2.7099260747 3.6056197332 -1.0415764624
H 3.0787876894 4.7706965828 0.2465397368
H 1.7850570319 3.5750983786 0.4737042153
