21
CONF2
C 2.4447219576 -0.9496877312 0.0753698295
C 1.3227206754 -0.0695351908 0.6278834807
C 0.0105543552 -0.3160966514 -0.0777030503
C -1.1569230918 0.5412372937 0.4852174814
C -2.5502568907 0.3815227434 -0.1938196214
F -2.5016271597 0.7432808307 -1.4822525085
F -3.4315566714 1.1761817043 0.4371350331
F -2.9844856691 -0.8823218727 -0.1114033425
F -0.8123977176 1.8518452690 0.3855944281
F -1.3142348259 0.2346289172 1.8000261548
F -0.3558333419 -1.6326781319 0.0275130221
F 0.1221290293 -0.0364550768 -1.4150735113
C 3.7794511863 -0.6253279512 0.7393511235
O 4.1717102325 0.7365926893 0.5589792794
H 2.2138218275 -2.0081165891 0.2423821509
H 2.5320616337 -0.8080148985 -1.0089723748
H 1.5832201206 0.9865071858 0.5143192395
H 1.1754162504 -0.2627632982 1.6957570856
H 4.5542124390 -1.3124890432 0.3683680700
H 3.7060449956 -0.7654326684 1.8235657564
H 4.3651846322 0.8712296089 -0.3754913170
