39
CONF70
C 6.8413090991 2.7231972746 -2.5177071163
C 6.4525819237 1.3681008544 -1.9296139702
C 5.9159981089 1.4783271584 -0.5020538336
C 5.5035028872 0.1243593850 0.0741729258
C 5.1408174551 0.1292813480 1.5674803274
C 4.7431543332 -1.2805186917 2.0302063019
C 4.6382386274 -1.4472707288 3.5450118516
C 4.0798245596 1.1680145996 1.9065366181
O 2.8886438153 0.9302414543 1.0855127222
C 1.7823411704 0.4839878415 1.6865791213
O 1.6387327087 0.2948563837 2.8746376724
C 0.6877288040 0.2982377234 0.6780151298
C 0.4003579480 1.3685617091 -0.1622754074
C -0.6637302240 1.3017017462 -1.0475620751
C -1.4509522063 0.1495454349 -1.1272834865
C -1.1445621092 -0.9472780969 -0.3027067297
C -0.0783194572 -0.8675215331 0.6018976622
Br 0.3960004793 -2.3650853154 1.6703846271
Br -2.1732613048 -2.5335878393 -0.4227011913
Br -2.9018588671 0.0738789664 -2.3381243381
Br -0.9917465405 2.8261854140 -2.1330388859
H 7.2261546122 2.6227266757 -3.5374709526
H 5.9780848261 3.3973847667 -2.5486166029
H 7.6171755946 3.2030230180 -1.9107046756
H 5.6911291596 0.8942546709 -2.5634164599
H 7.3222942771 0.6979437701 -1.9373264635
H 6.6836900472 1.9334671807 0.1404885827
H 5.0610855375 2.1675530234 -0.5021803343
H 6.3295271562 -0.5858509196 -0.0627298926
H 4.6563649951 -0.2743899994 -0.4999841318
H 6.0310955767 0.4412085427 2.1358702948
H 5.4908240621 -1.9829006114 1.6417883772
H 3.7928553954 -1.5586599805 1.5534133568
H 5.5793978533 -1.1698911804 4.0326988721
H 3.8408910675 -0.8294483647 3.9683443811
H 4.4187908182 -2.4876980772 3.8042591404
H 4.4052849525 2.1772057197 1.6459315235
H 3.7972100695 1.1408662804 2.9599679895
H 1.0041012168 2.2661571294 -0.1083481467
