30
CONF24
O 6.0674785146 -0.4197411223 0.6692316689
S 4.8873887670 0.6638989709 0.4387431218
O 4.6167647756 1.4117273977 1.6609857391
O 5.1812023648 1.2956649857 -0.8362672933
C 3.4265697966 -0.5513741346 0.1773282124
F 3.6155010666 -1.1566604721 -1.0058727574
F 3.4770639364 -1.4592264476 1.1643913792
C 2.0552230139 0.1969913847 0.1985864286
F 1.7453597409 0.4802724938 1.4817092992
F 2.1946021538 1.3510655669 -0.4918143677
C 0.8904108728 -0.6400340740 -0.4391573328
F 0.9982874196 -1.9158703279 -0.0046667857
F 1.0310979431 -0.6154096826 -1.7815774903
C -0.5354728432 -0.0981885427 -0.0578751835
F -0.8198134446 -0.4997744173 1.1992984704
F -0.5123316075 1.2546541554 -0.1000020234
C -1.6614906715 -0.5991514135 -1.0216638770
F -1.4830816976 -1.9281415204 -1.2232081253
F -1.5463558203 0.0397160341 -2.2033010774
C -3.1503389237 -0.4421711236 -0.5216285387
F -3.9226158099 -0.8467847118 -1.5598610245
F -3.3468974972 -1.2833670259 0.5145445398
C -3.6049781576 0.9906805147 -0.1009618390
F -3.0482001997 1.2819004638 1.0966177177
F -3.1806037214 1.8883148387 -1.0185321007
C -5.1539218120 1.1636848652 0.0429120649
F -5.6639901540 0.2089425854 0.8314505815
F -5.3955701156 2.3593430377 0.5968645030
F -5.7540679881 1.1157489950 -1.1504500806
H 6.1080941186 -0.6942022231 1.6065458193
