76
CONF34
C -0.6873945160 -1.9624450981 -1.1659640277
C -1.9034772934 -1.2307437986 -0.6338919467
C -3.1752117196 -1.8744171240 -1.1246372993
C -4.4193315847 -1.6667768836 -0.6664675080
C -5.5601634636 -2.4535010769 -1.2586757938
O -6.3007201641 -3.1747373684 -0.2551804447
C -4.8456644010 -0.6650852875 0.3822511483
C -3.8851907669 0.4932688545 0.6655242416
O -2.9464766320 0.2036484272 1.7190841362
C -4.6225743932 1.7716749155 1.1329177906
O -5.4512236816 1.7899422969 2.0337807704
C -4.1158689833 2.9128706717 0.3700445598
C -4.5507466431 4.3113777805 0.6393157506
C -3.2652310401 2.4566823612 -0.5711607505
C -3.1367933908 0.9625381029 -0.5947251443
C -1.7715391078 0.3038718141 -0.9053541395
O -1.4566494618 0.5793906177 -2.2804597823
C -0.5499197098 0.7935459836 -0.0990768785
C -0.3398719689 2.3084248536 -0.0783087892
C 0.7393425008 0.1411594262 -0.6447134901
O 1.7369329850 0.2639468280 0.4109981694
C 2.8981359719 0.8988508785 0.1336405495
O 3.1083838455 1.4514830104 -0.9445007210
C 3.8411814731 0.8548937498 1.2549678578
C 3.5031350519 0.1628159936 2.4310563941
C 4.3644568711 0.0858991330 3.5097909815
C 5.6091979300 0.7207239807 3.4233476044
C 5.9815849249 1.4106130840 2.2859916445
C 5.1183493309 1.5008892303 1.1657316191
N 5.5046845323 2.1797891239 0.0597338366
C 6.7949741698 2.8259233441 -0.0864731317
C 0.6526823999 -1.2892626910 -1.1256894201
O 1.4058424502 -1.4801968330 -2.3437498891
C 2.7441920003 -1.6767304939 -2.2389169903
C 3.3531195891 -1.8604236908 -3.5961264659
O 3.3458017877 -1.7040496264 -1.1865837933
C 0.4101593461 -2.5080456420 -0.2656202744
C 0.3230463242 -2.3638765372 1.2368510145
C 1.0190748163 -3.8298253264 -0.6883303112
H -0.8509045080 -2.5438942572 -2.0707512989
H -1.9190889368 -1.3092114838 0.4566693254
H -3.0601010714 -2.6207078462 -1.9104703986
H -6.2900464217 -1.7740894592 -1.7155727234
H -5.1898123388 -3.1363481863 -2.0349004601
H -5.6820573452 -3.7803016989 0.1739123331
H -5.7974190785 -0.2339173673 0.0392908825
H -5.0886850377 -1.1707158913 1.3259584751
H -3.4645266245 0.0389354626 2.5206340149
H -4.0812922569 5.0112308123 -0.0552600194
H -5.6389526996 4.4003240476 0.5491812093
H -4.2919751132 4.6032886490 1.6633171807
H -2.7798862140 3.0838524803 -1.3118929295
H -3.7563883214 0.6341734092 -1.4441961413
H -2.1513376857 0.1953125267 -2.8333799334
H -0.6989482268 0.4600347785 0.9299731594
H -0.3312016723 2.7231395609 -1.0909316233
H 0.6196465091 2.5428885667 0.3928869065
H -1.1166304453 2.8100611307 0.5029184182
H 1.0770300762 0.7292692223 -1.5010526270
H 2.5363723460 -0.3232791486 2.4803505998
H 4.0790861967 -0.4559118783 4.4046391411
H 6.3007612308 0.6736510866 4.2597688658
H 6.9520742492 1.8905702979 2.2489647100
H 4.8542355111 2.1874835694 -0.7129243372
H 7.6240355315 2.1111063503 0.0024459920
H 6.8377069652 3.2796941974 -1.0780306765
H 6.9435044298 3.6167025513 0.6606597419
H 3.0763879930 -1.0281404796 -4.2489269135
H 4.4365791685 -1.9290841657 -3.5086120235
H 2.9590229109 -2.7766864363 -4.0475243236
H -0.0744977125 -1.4019890172 1.5615270760
H 1.3195607064 -2.4745956557 1.6769070543
H -0.3190306973 -3.1531833943 1.6449942146
H 1.0880304057 -3.9261362752 -1.7745472787
H 2.0198258040 -3.9519710347 -0.2626693763
H 0.3886935076 -4.6456616063 -0.3173109070
