44
CONF32
C -2.9446858867 -3.3474242606 -1.7599249139
S -3.1464140904 -1.6355900962 -2.2849488453
O -4.3886169337 -1.0873675279 -1.6969276675
O -2.9926919178 -1.5904952913 -3.7534383331
C -1.6976405673 -0.7802156772 -1.5688403001
C -1.5610281958 -0.5342524432 -0.1927142895
C -0.3498568214 0.0508178646 0.2043000216
C 0.6411384536 0.4183671985 -0.7032512394
C 0.4321981746 0.2117923650 -2.0645675586
C -0.7264515356 -0.4139249396 -2.4959386624
C 1.9420956494 1.0383291348 -0.2816371107
O 2.2341184708 2.1602991129 -0.6414698277
C 2.8980065615 0.1162778417 0.4752603783
C 3.5264546973 0.7946303764 1.7057415545
O 3.2322935677 0.4032242607 2.8154462789
C 4.5447755151 1.8554964788 1.4179681144
C 5.6362037991 1.2851034312 0.4957426394
C 5.0503784162 0.7306949239 -0.8121309488
C 3.9958018275 -0.3000269047 -0.5391391274
O 3.9612311978 -1.4077320583 -1.0288528552
Cl -0.0443975448 0.3807637159 1.8967877502
C -2.6176366756 -0.8300085510 0.8534622248
O -3.0947805480 0.3818829761 1.4600040393
C -3.9874900586 1.1392426422 0.6614069902
C -5.4209723728 0.8664310067 1.0803660596
F -5.6509013714 1.2389140938 2.3630860881
F -5.7534085569 -0.4423262204 0.9915849043
F -6.2821542525 1.5617573100 0.2983717546
H -2.9846697212 -3.4043148801 -0.6703800859
H -3.7787475581 -3.8955993691 -2.2076051652
H -1.9872129771 -3.7073554202 -2.1427578535
H 1.1917450614 0.5152559172 -2.7773247221
H -0.8803772837 -0.6138773103 -3.5490878248
H 2.3714643553 -0.7849887682 0.7916494743
H 4.0444108361 2.6863864363 0.9046850187
H 4.9623553293 2.2119575740 2.3617448311
H 6.1836537874 0.4931450761 1.0188204215
H 6.3501459280 2.0769948815 0.2567348022
H 5.8209526447 0.2826442186 -1.4430019323
H 4.5788186929 1.5536381943 -1.3664326822
H -3.4476386493 -1.4028613297 0.4393611066
H -2.1698635326 -1.4036955216 1.6690363394
H -3.7937400099 2.2026914561 0.8361988786
H -3.8968648039 0.9253185850 -0.4089104183
