46
CONF19
C -3.2109407702 3.1971223381 0.3941000031
C -2.4575279241 1.8859816183 0.2556890460
C -2.6821081859 1.2486895035 -1.1200637836
O -2.3992220500 1.7086862473 -2.2008654007
N -3.2552224266 0.0194409599 -0.8554566432
C -3.4782161320 -0.1781209195 0.5170533428
O -3.9763692403 -1.1465208891 1.0277719923
O -3.0587488156 0.9157128298 1.1796337401
N -3.5331187502 -0.9286187110 -1.8168697241
C -2.6851196466 -2.0623276089 -1.8439048713
C -1.3610883109 -1.9967988261 -1.4039852269
C -0.5456227054 -3.1204082119 -1.5118308831
C -1.0310813366 -4.3051423920 -2.0590176398
C -2.3529760830 -4.3592074870 -2.4997986329
C -3.1817267227 -3.2488613040 -2.3922970084
C -0.9652690916 1.9688658413 0.5185360231
C -0.2127425082 2.9821812962 -0.0831016492
C 1.1639010668 3.0355021447 0.0856465487
C 1.8000581780 2.0716650424 0.8642766007
C 1.0661382915 1.0600673034 1.4783316909
C -0.3109070702 1.0096062881 1.2942309633
O 3.1584259485 2.2213035386 1.0420082543
C 3.9419276947 1.0928729031 1.2455574365
C 4.8923535287 1.1544423461 2.2579486065
C 5.7552325147 0.0765276211 2.4431233090
C 5.6607054364 -1.0499694880 1.6291618296
C 4.7021028675 -1.0929077688 0.6172875039
C 3.8390152115 -0.0202033762 0.4145663741
H -2.8539432045 3.9123872351 -0.3488780806
H -4.2791845154 3.0308351253 0.2328960276
H -3.0469415192 3.6058853824 1.3938199123
H -4.5243615740 -1.1435899401 -1.8472290474
H -0.9600168173 -1.0812965460 -0.9813352380
H 0.4810606149 -3.0608766614 -1.1637139361
H -0.3895889516 -5.1761934468 -2.1399124992
H -2.7492990623 -5.2763298614 -2.9246054020
H -4.2131853803 -3.2969254751 -2.7300487791
H -0.6913722920 3.7320086477 -0.7025881805
H 1.7517052004 3.8182003405 -0.3819201579
H 1.5596360740 0.3179853168 2.0959991675
H -0.8724047489 0.2174885666 1.7754479363
H 4.9493271189 2.0381960743 2.8848558964
H 6.4999350092 0.1190107277 3.2317056711
H 6.3317354380 -1.8892991061 1.7790847292
H 4.6284453041 -1.9633632639 -0.0271869259
H 3.0965981419 -0.0437036636 -0.3765225974
