47
CONF91
C -4.3260304639 3.0263974101 -3.9192442749
O -3.7552624217 2.7786659162 -2.6097379038
C -2.4383042858 2.5777508912 -2.5903586228
C -1.7631653299 2.3313692250 -1.4425157853
C -2.4327159737 2.2957483883 -0.1251602994
C -3.1668307956 3.3879034320 0.3541051934
C -3.8213359039 3.3314045886 1.5790868811
C -3.7650980197 2.1704626371 2.3486545882
C -3.0494583243 1.0682798858 1.8927767566
C -2.3897476138 1.1509252053 0.6752273903
O -1.7544339434 0.0277139662 0.1345080211
C -0.6632482508 -0.5022420451 0.7337667324
C -0.0836575833 -1.5922663489 0.0940450745
C 1.0434554523 -2.0991986608 0.7194733147
N 1.5573606691 -1.6066202464 1.8443886186
C 0.9014452499 -0.5617407539 2.3561981464
N -0.1899189292 0.0228765323 1.8646311918
O 1.6451237813 -3.1719642496 0.1305507112
C 2.7953064336 -3.6855406020 0.7164283087
C 2.7116739750 -4.8382798574 1.4750853779
C 3.8789889330 -5.3987748443 1.9881658784
C 5.1181945949 -4.8098871335 1.7419889766
C 5.2020762684 -3.6562197459 0.9760934848
C 4.0334923299 -3.0837564289 0.4533065143
C 4.0926816717 -1.9070407011 -0.3377983712
N 4.1426336776 -0.9445261663 -0.9809953874
C -0.3191800207 2.0965428218 -1.5786389891
O 0.2822365527 1.9085934426 -2.6262395732
O 0.2971718850 2.1263272903 -0.3758148463
C 1.7122504022 1.8314607330 -0.3873512982
H -5.3963722135 3.1498593548 -3.7596794590
H -4.1375927559 2.1720731314 -4.5756219036
H -3.8999037467 3.9389542489 -4.3456742871
H -1.9133701872 2.6107045685 -3.5443073568
H -3.2120681762 4.2898051376 -0.2476963460
H -4.3788110610 4.1925876882 1.9328186821
H -4.2819471979 2.1175542800 3.3013339536
H -3.0038471432 0.1501616216 2.4678161473
H -0.4783096978 -2.0058281587 -0.8251700260
H 1.3051129506 -0.1415568107 3.2764304431
H 1.7402574514 -5.2843418090 1.6577729958
H 3.8171353493 -6.3029530039 2.5844580955
H 6.0219835921 -5.2530772671 2.1448525751
H 6.1586873207 -3.1886785248 0.7720694382
H 1.8853128824 0.8273223944 -0.7836585561
H 2.0269480015 1.8880570885 0.6544324297
H 2.2510803127 2.5649913782 -0.9920042167
