45
CONF17
C 1.0906783940 -3.3462737512 0.6302316030
O 1.6416553582 -2.7438559238 1.8247305078
C 1.9522547632 -1.4417951923 1.7672424168
C 2.5338369686 -0.8517251248 2.8812432467
C 2.8310613235 0.5055728565 2.7481137775
O 3.4080800525 1.1071677609 3.7956193133
C 3.7197463105 2.5091095404 3.6657718466
N 2.5678160975 1.2161898034 1.6491157685
C 1.9954515296 0.5347246383 0.6524716633
N 1.7094329599 1.2862001957 -0.4775265032
C 0.9619985406 0.9801144271 -1.6247785095
O 0.7111727803 1.8443749441 -2.4442617610
N 0.5633813467 -0.3352393972 -1.7223224272
S -0.6654441674 -0.8170541779 -2.7969531771
O -0.1802174003 -0.6998484129 -4.1665784640
O -1.1044317109 -2.1008632400 -2.2518414582
C -1.9445634709 0.3879736335 -2.5522806510
C -2.7769192979 0.5697240885 -1.4447069205
C -3.6572988297 1.5875358339 -1.8536049020
N -3.3876355303 2.0039546344 -3.0895695741
N -2.3472822318 1.2737218552 -3.5070106979
C -1.7725465645 1.5560764977 -4.8201640061
C -2.7776131414 -0.0282620228 -0.1317816633
N -1.7646305056 -0.6834072306 0.4487911656
N -2.2712787539 -0.9417351595 1.6483037529
C -1.5460320220 -1.6474085816 2.6893602240
N -3.5084294676 -0.4858691790 1.8247318606
N -3.8462729678 0.0975806364 0.7075710565
N 1.6860320909 -0.7630749803 0.6478055781
H 0.1468025567 -2.8709793034 0.3454761821
H 0.9260451395 -4.3903809992 0.8953543031
H 1.8003879997 -3.2746534035 -0.1985939212
H 2.7595582261 -1.4061723802 3.7810474437
H 4.1767500075 2.7826865668 4.6165130255
H 2.8114471698 3.0922932214 3.4938185452
H 4.4185152517 2.6746446731 2.8417719651
H 1.9639094991 2.2618988748 -0.4192999409
H 0.6780297600 -0.9113282541 -0.8764654250
H -4.4630272556 2.0270920850 -1.2839286835
H -1.8857905665 0.6953878367 -5.4817279977
H -2.3219490254 2.4118503770 -5.2110486456
H -0.7123614702 1.7915746621 -4.7113287159
H -1.3167357441 -2.6646753088 2.3626791386
H -0.6157496170 -1.1195470934 2.9153557761
H -2.1878346764 -1.6733001292 3.5700184444
