73
CONF27
C -2.9414917683 -1.9902339008 -2.0249633285
C -2.5183543834 -1.4203130974 -0.6628654896
C -3.7498514870 -1.1399327858 0.1550663008
C -4.0749461379 -1.7386252021 1.3011222757
C -5.3160096408 -1.4567778962 2.1000204007
C -4.9347136945 -1.0285695737 3.5249012919
C -6.3020583591 -2.6579662128 2.0627311274
C -7.6833126874 -2.2671938050 2.5952372609
C -5.7813468319 -3.8972136828 2.7947033663
C -1.6762582821 -0.1326390187 -0.7678856358
C -1.2740161771 0.3993988607 0.6406240302
C 0.1194172523 1.0586008493 0.4987821527
C 0.3251970651 1.1367258078 -1.0107556697
C -0.3357695424 -0.1730724056 -1.5522950309
C -0.4430103352 -0.0358039458 -3.0772036128
C 0.9194096659 0.2527269754 -3.7213200857
C 1.6248933814 1.4731965697 -3.0984203194
C 1.6822367250 1.3726448485 -1.5963414994
C 2.8026084678 1.4495519334 -0.8445300484
C 4.1431551055 1.6872350591 -1.3235981111
C 5.2749674636 1.6730731166 -0.5780761311
C 6.6101073861 2.0519414045 -1.1722036397
C 7.2390624504 3.2095538174 -0.3858045631
C 7.3742339468 2.8335360892 1.0903681110
C 6.0255753600 2.4264020855 1.6994718948
C 5.3257973946 1.3743021970 0.8689422470
C 4.8337630422 0.2494675005 1.4016762994
O 6.4746736920 4.4165314617 -0.5608651311
C 0.4904909890 -1.4065337048 -1.1649340748
H -2.0846375682 -2.3609042386 -2.5922284799
H -3.4458505730 -1.2253151371 -2.6270121336
H -3.6371280554 -2.8239268023 -1.8844456609
H -1.9255764676 -2.1782208399 -0.1322745494
H -4.4233860018 -0.3825993699 -0.2568952055
H -3.3922077567 -2.4859730205 1.7117943476
H -5.8355854687 -0.6169292482 1.6174933294
H -4.3286371982 -1.7960201314 4.0177833723
H -4.3436890536 -0.1077298242 3.4955940430
H -5.8183949123 -0.8437305438 4.1433283826
H -6.4165418610 -2.9165983743 1.0004030246
H -8.0722292976 -1.3822101862 2.0798186187
H -7.6495195694 -2.0489844467 3.6682085164
H -8.3955328893 -3.0862757418 2.4488110726
H -5.7034474600 -3.7144645121 3.8721282801
H -6.4702556263 -4.7365707726 2.6525422803
H -4.7970822245 -4.2080047328 2.4304011728
H -2.3027633713 0.6247290980 -1.2641401330
H -1.2468201709 -0.4272547389 1.3589464816
H -2.0219141997 1.1058671664 1.0119731041
H 0.1745269629 2.0425868585 0.9746237153
H 0.8878705651 0.4315697323 0.9628906852
H -0.3219298910 1.9479927859 -1.3886976482
H -0.8641176034 -0.9389615483 -3.5293611548
H -1.1333184804 0.7895218357 -3.3041151386
H 0.7884360501 0.4241672485 -4.7959339721
H 1.5702131189 -0.6243124352 -3.6223809458
H 1.0450000505 2.3725568848 -3.3570047451
H 2.6153932032 1.5917624253 -3.5440377484
H 2.6972553043 1.3379791543 0.2313477733
H 4.2637258477 1.9338518687 -2.3768435484
H 6.5007197746 2.3301867145 -2.2255323694
H 7.2996554544 1.1975054605 -1.1166882448
H 8.2285280407 3.4368858587 -0.7980743846
H 8.0798381724 1.9965247758 1.1683657917
H 7.7985835469 3.6768756001 1.6457434561
H 5.3785415445 3.3145945400 1.7498913589
H 6.1595010635 2.0703134545 2.7255379597
H 4.9124281333 0.0547546761 2.4680674208
H 4.3504419166 -0.5024180391 0.7847346063
H 5.5394621511 4.1855177571 -0.4679974913
H 0.4681588898 -1.5833626919 -0.0853936103
H 1.5386248432 -1.2921085245 -1.4563653008
H 0.0992105820 -2.3028815461 -1.6575443371
