63
CONF445
C -11.4263250415 -0.9778293617 1.7738716649
C -10.0750954541 -1.2419610974 1.1131244098
C -9.0869408851 -0.0923515108 1.3065839358
C -7.7284455163 -0.3480823610 0.6567016365
C -6.7430446109 0.8045925995 0.8428467309
C -5.3790792216 0.5390377177 0.2082361857
C -4.3953086843 1.6946291189 0.3840273245
C -3.0247138629 1.4170277406 -0.2315831879
C -2.0436922106 2.5755327791 -0.0489092227
C -0.6921187470 2.3707480051 -0.7389519120
C 0.1253002761 1.2028083935 -0.1855041106
C 1.5117848304 1.0940892384 -0.8185308790
C 2.3308571088 -0.0760354831 -0.2762214270
C 3.7177316061 -0.1857079342 -0.9085273319
C 4.5340099014 -1.3514875385 -0.3486598464
C 5.8883039943 -1.5660644837 -1.0316749611
C 6.8775406004 -0.4182342875 -0.8260380644
C 8.2265726242 -0.6261435108 -1.5255345776
C 9.0085549749 -1.8731100767 -1.0934158940
C 9.2686063800 -1.9596566723 0.4066324568
O 10.0314717102 -0.8577889985 0.9092027678
H -11.8929770197 -0.0754130018 1.3641071075
H -12.1189127093 -1.8112309818 1.6215524155
H -11.3123615364 -0.8299206415 2.8532667030
H -10.2174668710 -1.4179972382 0.0387286357
H -9.6390063965 -2.1642710761 1.5190719334
H -8.9478624801 0.0886273989 2.3818442931
H -9.5202163196 0.8306413983 0.8959063047
H -7.8685926291 -0.5359456164 -0.4171376636
H -7.2938640487 -1.2678037832 1.0730338282
H -6.6117307279 1.0007815418 1.9163006030
H -7.1718390075 1.7218480704 0.4153392999
H -4.9481121769 -0.3737945384 0.6430851559
H -5.5100032436 0.3336959783 -0.8635961494
H -4.8194257035 2.6045355275 -0.0634710018
H -4.2744579958 1.9094962840 1.4552340255
H -3.1420128950 1.2077120426 -1.3047299738
H -2.6137886134 0.5032032252 0.2163109190
H -2.5063662398 3.4928697381 -0.4369147181
H -1.8805154900 2.7457228686 1.0247328595
H -0.8533497831 2.2217048556 -1.8160081866
H -0.1002907518 3.2908002664 -0.6423871182
H 0.2298450999 1.3182241863 0.9030087727
H -0.4120071031 0.2590635993 -0.3440122345
H 1.4062803081 0.9901495491 -1.9076813376
H 2.0622437211 2.0309854968 -0.6533658907
H 2.4362374073 0.0284034695 0.8128829717
H 1.7803298685 -1.0129083583 -0.4409058744
H 3.6138127955 -0.3062267236 -1.9964882338
H 4.2522513146 0.7602143373 -0.7537884614
H 4.6919463046 -1.1995058685 0.7286199452
H 3.9410504232 -2.2708314795 -0.4428658561
H 5.7340759945 -1.7193454183 -2.1096040967
H 6.3267536991 -2.4961508461 -0.6499327135
H 7.0237218290 -0.2664743424 0.2538804711
H 6.4416101849 0.5148177548 -1.2013743556
H 8.0590570252 -0.6788787585 -2.6089165064
H 9.9725163930 -1.8852594516 -1.6160190840
H 8.4731985504 -2.7810249835 -1.4002887937
H 9.8651967644 -2.8504715616 0.6273771572
H 8.3212850916 -2.0578094745 0.9604589157
H 9.4991129727 -0.0607431975 0.8146298497
H 8.8533324346 0.2620105897 -1.3693442669
