52
CONF75
C 2.3908358811 2.6863828781 1.6383404722
N 2.3326430379 1.2419934993 1.4274403366
C 3.3699764121 0.5956297217 2.2451639546
C 3.3240537996 -0.9213171425 2.1344519371
C 3.4746671663 -1.3433947076 0.6768422656
C 2.4097997177 -0.6416297036 -0.1582994032
C 2.4741690829 0.8812472141 0.0042927191
C 1.4161300633 1.5765188712 -0.8694077193
C -0.0258575172 1.3482347333 -0.3898691827
N -0.6220465890 0.1350888331 -0.9524581879
C -0.7694856809 0.0345318274 -2.3494130749
C -0.7608950461 1.1592520325 -3.1820431799
C -0.8784688112 1.0208674937 -4.5619025993
C -1.0386918117 -0.2342487399 -5.1357063831
C -1.0785760251 -1.3595672445 -4.3174233177
C -0.9211657868 -1.2291005702 -2.9424302918
S -0.8291248254 -2.6752950105 -1.9123096253
C -1.6463117477 -2.0195750988 -0.4797858942
C -1.4330049786 -0.6706479522 -0.1356891438
C -2.0322358754 -0.1880219702 1.0330003008
C -2.7794800447 -1.0473572956 1.8306704358
C -2.9703047466 -2.3800290953 1.5093317990
C -2.4157188693 -2.8538537031 0.3237916439
S -3.4965071166 -0.4254162112 3.3914795039
O -4.0496198139 -1.6254408754 4.1341934748
C -4.9551638662 0.3936043971 2.6036960352
H 2.3804915330 2.8928404392 2.7131437531
H 3.3037058413 3.1485674719 1.2122428812
H 1.5210627760 3.1868379803 1.2021601905
H 3.2141873198 0.9014123893 3.2866434280
H 4.3802941450 0.9526675050 1.9499974571
H 2.3648690006 -1.2812400031 2.5272844352
H 4.1179287767 -1.3514537638 2.7557981073
H 3.3874275699 -2.4303720311 0.5722180248
H 4.4743699589 -1.0629904182 0.3156645023
H 2.5184099467 -0.8878902696 -1.2209494001
H 1.4190593843 -0.9953866524 0.1492227533
H 3.4666187133 1.2214014269 -0.3679629501
H 1.6090454560 2.6535639276 -0.9065808257
H 1.5407844982 1.2161385228 -1.8951789698
H 0.0156028948 1.2142040541 0.6938422585
H -0.6534744398 2.2318001886 -0.5883627515
H -0.6484705857 2.1487594270 -2.7554125437
H -0.8525913616 1.9075024918 -5.1867590806
H -1.1380517227 -0.3421962335 -6.2100788690
H -1.2119093587 -2.3484096222 -4.7443286276
H -1.9146462802 0.8504748127 1.3239946537
H -3.5394541246 -3.0190101196 2.1764714829
H -2.5590609236 -3.8884052152 0.0278946133
H -4.6145571190 1.1752685863 1.9192439928
H -5.5202140656 -0.3754800197 2.0712483170
H -5.5510448628 0.8229398592 3.4125868945
