33
CONF29
O -3.8068415217 1.7729517406 -3.4669691741
C -3.3446407777 1.1754634549 -2.3433581371
C -4.3064346926 0.6516921479 -1.4771373143
C -3.8857212113 0.0295599676 -0.3122861601
O -4.8025496795 -0.4999503144 0.5126377526
C -2.5001999413 -0.0716582875 0.0083206334
C -2.0553739118 -0.8255422157 1.1469140392
O -2.8433514442 -1.3697198931 1.9476244013
C -0.5644235567 -0.9721103542 1.3039117819
C 0.1594036094 0.2401689174 0.7341898100
O -0.2310003334 0.4362341824 -0.6628819980
C -1.5649232688 0.4911093643 -0.8956304523
C -1.9741568065 1.1060496924 -2.0670820591
C 1.6535823157 0.1270237768 0.7738097580
C 2.4007241456 0.9689722075 1.5934630154
C 3.7869867281 0.8410259532 1.6628204450
C 4.4362678583 -0.1212357501 0.9021495730
O 5.7936948024 -0.2294929024 0.9706277454
C 3.6861912524 -0.9678330815 0.0671509124
O 4.4116486356 -1.8808297111 -0.6500263923
C 2.3064940032 -0.8467817695 0.0094356659
H -3.0656142456 2.1014369131 -3.9952982634
H -5.3610392564 0.7226561922 -1.7157521232
H -4.2895640339 -0.9330521831 1.2514988976
H -0.3159435888 -1.0977546089 2.3613313847
H -0.2525071925 -1.8832368504 0.7744061280
H -0.1553058912 1.1391816093 1.2820136926
H -1.2408420233 1.5398214006 -2.7387463792
H 1.9025015335 1.7303642352 2.1856682668
H 4.3778755087 1.4917474277 2.2992962214
H 6.0796349231 -0.9397042565 0.3776460906
H 3.8230700729 -2.4183198143 -1.1961322634
H 1.7423588825 -1.5082378886 -0.6436157104
