65
CONF896
C -2.1405825837 3.4672230829 -3.2851435112
C -1.7113464605 2.6016007763 -2.1030710115
C -2.6706464705 2.7085687037 -0.8952469165
C -4.0851590817 2.2242424585 -1.2191022911
C -2.0370587859 1.9614446043 0.2575092761
O -1.3064161235 2.4724530516 1.0869355654
O -2.3234113498 0.6459464503 0.2234195589
C -1.7077939264 -0.2045116913 1.2396930711
C -2.5833319480 -0.2360682535 2.4808832019
C -1.9185429455 -1.0794460151 3.5795153974
C -1.3458653242 -2.3433004832 3.0105768524
C -1.1772167872 -2.5898114037 1.6971914856
C -1.5702438104 -1.5881952481 0.6264456560
C -0.5791337896 -1.6487905059 -0.5557597207
C -0.6361105427 -3.0701503510 -1.1525498113
C -0.3795253993 -4.0904511410 -0.0768732110
C -0.6152777029 -3.8450335916 1.2231014648
C 0.2810050200 -3.2645958663 -2.3631618498
C 0.8426003662 -1.2148533408 -0.1302536808
C 1.2150217399 0.1589074615 -0.6924779042
C 2.5050597117 0.7099229322 -0.1139847472
C 3.7438664018 -0.0904114386 -0.4593762914
C 4.9792109436 0.6560132386 0.0155612746
C 5.0567166795 1.9839989894 -0.7136349669
C 3.7552258300 2.7437411360 -0.8041097115
O 3.7140888396 3.9215926265 -1.1009606777
O 2.5913288048 2.0953354129 -0.6153533724
O 6.1941217995 -0.0427884613 -0.2775377842
C -0.8439462473 -0.2920038011 4.3507615384
H -3.0915379024 3.1318912060 -3.7087791332
H -2.2528408288 4.5139438541 -2.9819980469
H -1.3892587812 3.4244436632 -4.0793280106
H -1.6502458829 1.5493737433 -2.4100045541
H -0.7065701962 2.9001404382 -1.7794995871
H -2.7017732770 3.7578588237 -0.5798167530
H -4.7023778985 2.1830546238 -0.3166767236
H -4.5652047122 2.9088820105 -1.9228425855
H -4.0649760435 1.2268178390 -1.6677800155
H -0.7261775219 0.2144961376 1.4801702025
H -2.7599735197 0.7827422782 2.8410224898
H -3.5523316458 -0.6723109195 2.2088007091
H -2.6938704516 -1.3580690544 4.3072558391
H -1.0361479837 -3.1044106597 3.7269463392
H -2.5601978557 -1.8775965998 0.2395808205
H -0.9387045135 -0.9564033982 -1.3276894822
H -1.6679812602 -3.2137177188 -1.5133480393
H 0.0168319167 -5.0580868432 -0.3800575097
H -0.3935703093 -4.6029751213 1.9722110874
H 0.0915072266 -2.4939524968 -3.1177231358
H 1.3390597417 -3.2206186673 -2.0868773598
H 0.1007904079 -4.2427009425 -2.8208032261
H 0.9146866717 -1.1912385380 0.9657199332
H 1.5773903003 -1.9555824870 -0.4570627124
H 1.3043245128 0.1055114141 -1.7854616343
H 0.4184665568 0.8783174155 -0.4716910346
H 2.4112117755 0.7999927890 0.9771649608
H 3.8018136579 -0.2570417813 -1.5433496841
H 3.6773861764 -1.0648891863 0.0362820372
H 4.9006367812 0.8314830689 1.1000919304
H 5.3604399103 1.7914433624 -1.7525240304
H 5.8050181102 2.6521664348 -0.2800004164
H 6.2075586437 -0.8476163112 0.2558799940
H -1.2879202055 0.5792404171 4.8433564984
H -0.0522948637 0.0558048336 3.6787129733
H -0.3798044780 -0.9209739443 5.1171207699
