41
CONF9
C 0.4839340636 -2.4589656264 -2.5863268200
C -0.0747614044 -1.7350478593 -1.4147904485
C -1.3845493834 -1.5856378236 -1.0465766251
C -1.4334814380 -0.7380552027 0.1141229650
C -0.1033043534 -0.3828014775 0.4320190176
N 0.7306773522 -0.9864590426 -0.5342955218
C 2.1371510092 -0.9973096067 -0.5562390697
O 2.7606958493 -1.9686270994 -0.9445217802
C 2.8245806449 0.2566607663 -0.1507801224
C 2.2952833351 1.5167760217 -0.4432102137
C 3.0132138646 2.6668276394 -0.1469146321
C 4.2587590154 2.5443283372 0.4613420715
C 4.8077216741 1.2995515558 0.7572087626
C 4.0897713322 0.1580045395 0.4333370191
Cl 5.1611074986 3.9896016450 0.8559411694
C 0.1879646219 0.3406497229 1.5784355898
C -0.8698415860 0.7731072356 2.3765630489
C -2.1972896404 0.4664187215 2.0383195882
C -2.4865490569 -0.2991472123 0.9108040915
O -3.2814955356 0.8686137872 2.7690439863
C -3.0406795513 1.6348392491 3.9428555094
C -2.5751248864 -2.1670420171 -1.7494786925
C -3.0551142705 -1.2096071950 -2.8184600594
O -2.7307014595 -1.2404651897 -3.9811439204
O -3.8771499882 -0.2593507445 -2.3021973289
H -0.3251553804 -2.7128454056 -3.2735606907
H 1.0141905189 -3.3671594280 -2.2869294382
H 1.2031112573 -1.8385187885 -3.1290961136
H 1.3203352570 1.5992900776 -0.9114369372
H 2.6160401252 3.6468417591 -0.3830978492
H 5.7828632895 1.2318477770 1.2247799958
H 4.5027172407 -0.8258431370 0.6281483751
H 1.2033775104 0.5786244534 1.8679650151
H -0.6422402640 1.3464245984 3.2656430673
H -3.5188283875 -0.5360106756 0.6787630786
H -2.4449249896 1.0727560323 4.6744369059
H -4.0234642235 1.8472792495 4.3662117761
H -2.5348729537 2.5810767330 3.7084193626
H -3.3770446120 -2.3483424960 -1.0274595901
H -2.3221384183 -3.1089587626 -2.2389523824
H -4.0947839629 0.3466753756 -3.0282516517
