52
CONF118
C 1.1878065874 -1.2137858388 2.6315105679
N 2.0786689575 -1.3423215805 1.4744061655
C 3.3715795502 -1.8703121230 1.9488274288
C 4.3595715686 -2.0801267135 0.8113228646
C 4.5886076091 -0.7653761362 0.0734129433
C 3.2463461066 -0.1998810345 -0.3810858749
C 2.2660083919 -0.0459459521 0.7884919619
C 0.9313560558 0.5611956204 0.3230662684
C 0.0582708656 -0.4060917477 -0.4952495228
N -1.0409480800 0.2218569676 -1.2492476403
C -0.7445637133 0.7973517094 -2.5010733402
C 0.5783587360 0.9961577400 -2.9249530704
C 0.8629708759 1.5442158290 -4.1733165986
C -0.1599499159 1.9388383563 -5.0260711926
C -1.4799076151 1.7559972229 -4.6220478227
C -1.7672583417 1.1692519635 -3.3936273795
S -3.4579213409 0.7623317843 -3.0319886557
C -3.4059803158 0.8763230617 -1.2646195803
C -2.2283837839 0.5292361473 -0.5702362714
C -2.3072762346 0.4705363043 0.8286230082
C -3.4986363670 0.7547904817 1.4770478483
C -4.6415439780 1.1527444718 0.7994133213
C -4.5773327181 1.2098745597 -0.5896201758
S -3.5136692660 0.6693419675 3.2964734531
O -2.0557711948 0.5201692318 3.7456077426
C -4.2521655923 -1.0060870170 3.4263641378
H 1.1611702142 -2.1659308697 3.1708089440
H 1.5208699355 -0.4286716489 3.3371739711
H 0.1640837203 -0.9833114244 2.3268267610
H 3.1769881516 -2.8185894580 2.4633686858
H 3.8195303330 -1.1803260209 2.6944543925
H 3.9625297269 -2.8320672541 0.1167220879
H 5.2982066039 -2.4719581057 1.2194310921
H 5.2538477077 -0.9067607099 -0.7857385415
H 5.0768273188 -0.0491563506 0.7488205802
H 3.3824509947 0.7824821321 -0.8488083070
H 2.8184268530 -0.8697958767 -1.1382976200
H 2.7143745954 0.6817193208 1.4994143247
H 0.3766104254 0.9351176222 1.1880332311
H 1.1649086161 1.4483240443 -0.2749958263
H 0.6658277422 -0.9528917072 -1.2206164417
H -0.3876637062 -1.1658045836 0.1527936381
H 1.4066190638 0.7201421131 -2.2884550524
H 1.9008021078 1.6684486541 -4.4654447268
H 0.0571466638 2.3770910100 -5.9940995046
H -2.2991308521 2.0398226773 -5.2758924643
H -1.4549645364 0.2067896346 1.4385273562
H -5.5583159053 1.4029652450 1.3235865460
H -5.4546676091 1.4946946317 -1.1622438450
H -5.2546328527 -0.9791661039 2.9908500826
H -3.6058028229 -1.7068793854 2.8912884170
H -4.3042803472 -1.2465719467 4.4910621940
