94
CONF278
C 9.5034288996 -1.2498859847 -2.9917272356
C 8.4303519221 -1.3230614820 -1.9225696544
C 7.6018811569 -2.6103591559 -2.0030157760
C 6.5397736673 -2.6647061225 -0.9539426155
C 5.2521314039 -2.3421739855 -1.1847044238
C 4.2343020060 -2.2761262678 -0.1747522986
C 2.9793054957 -1.8065351957 -0.4028531785
C 1.9689329882 -1.7025279940 0.6033843644
C 0.7434341393 -1.1527356234 0.3972812400
C -0.2712156697 -1.0616153543 1.4095396827
C -1.4595762875 -0.4544470434 1.2292811798
C -2.4996720939 -0.3569589506 2.2946981544
C -2.7553164221 1.0620771788 2.8035277680
C -3.0167712194 2.0810615512 1.7002579680
C -3.8819062791 3.2681100437 2.1767066291
C -4.0038632758 4.2949469548 1.0340452073
C -2.6162243379 4.6996848278 0.5699092439
C -1.7795084907 3.4834648523 0.1760120942
O -1.7376180601 2.5600095771 1.2759175346
C -0.3215258277 3.8587016845 -0.0919749508
C 0.5813296745 2.6806942852 -0.4579875721
C 2.0323262371 3.1377804372 -0.6013348941
C 2.9335129117 2.0558814993 -1.1271014249
C 4.1943378816 2.4114041284 -1.8117219063
O 3.0358769470 1.9438173216 -2.5564607937
C 5.3340565540 1.4935134342 -1.8056739533
C 6.6068719751 1.8965513060 -1.6898237059
C 7.7431433466 0.9644473322 -1.5944808760
O 8.8131478742 1.2623747813 -1.0860847888
O 7.4631782336 -0.2410263359 -2.1175083213
O 0.1218462581 2.0178163171 -1.6624666735
O -2.3926116630 2.8937302544 -0.9561941205
O -4.6715632874 5.4854815646 1.4732007404
C -5.2494773968 2.7682322880 2.5612818087
O -5.9864096394 2.1509192046 1.8161114830
O -5.5812690080 3.0792892673 3.8299662959
O -3.7979061501 -0.8148330811 1.8154965135
C -3.8473085560 -2.1426893269 1.3858956366
C -5.2616116731 -2.6678524429 1.6436523049
C -5.3982003197 -4.0704104215 1.0446588543
C -4.9503744479 -4.0777228319 -0.4190474882
C -3.5395489244 -3.5046711458 -0.5431212235
O -3.5396133578 -2.1686267955 -0.0078762908
C -3.0565491973 -3.4134705773 -1.9748226911
O -4.9415071992 -5.4169445320 -0.9197090196
N -6.7394139727 -4.6572350104 1.1329543037
O -6.2464904932 -1.8230420316 1.0465845375
H 10.2127490822 -2.0714605736 -2.8536749940
H 10.0490386840 -0.3055691161 -2.9297021277
H 9.0545993696 -1.3405947156 -3.9858630119
H 8.8640102864 -1.2059307967 -0.9236909574
H 8.3012883395 -3.4480446522 -1.8959521078
H 7.1569418859 -2.6684440147 -3.0033868581
H 6.8529625605 -2.9099001466 0.0614059540
H 4.9538976865 -2.0769299175 -2.2003877916
H 4.5053134838 -2.5923543828 0.8332000150
H 2.7202114298 -1.4707108226 -1.4083745050
H 2.2129882215 -2.0827463893 1.5962691395
H 0.5033826259 -0.7509597607 -0.5880174698
H -0.0483514183 -1.5130369205 2.3775980640
H -1.6956765087 0.0028570045 0.2706614657
H -2.2086478728 -0.9853337177 3.1491777349
H -3.6134418875 1.0089369533 3.4836245857
H -1.8950304232 1.3951030816 3.3933698928
H -3.5330210606 1.6044717954 0.8558421142
H -3.4022967119 3.7484099895 3.0369038864
H -4.5604149027 3.8349615663 0.2067301170
H -2.1081366045 5.2256961575 1.3860941397
H -2.6945336821 5.3781986654 -0.2846280388
H -0.3003719270 4.5980586901 -0.9021438338
H 0.0797434008 4.3403893626 0.8063825859
H 0.5165338051 1.9068779795 0.3148359711
H 2.3946261429 3.4562711726 0.3840121311
H 2.0899832217 4.0062040061 -1.2704704887
H 2.8921347302 1.0923378869 -0.6136776988
H 4.4122187208 3.4723402144 -1.9379537842
H 5.0953256451 0.4344909013 -1.8767471036
H 6.8592833358 2.9473825733 -1.5760186404
H 0.3389927069 2.5865692654 -2.4158040125
H -1.7088639503 2.3405986510 -1.3808323873
H -5.6244238677 5.3330899082 1.4382689353
H -6.4718983484 2.7278579643 4.0073907677
H -3.1167447001 -2.7673913250 1.9341253742
H -5.4109526252 -2.7211277516 2.7341711066
H -4.7075291675 -4.7248733791 1.5959035263
H -5.6335612965 -3.4512727976 -1.0167228099
H -2.8528821009 -4.1344019736 0.0502553030
H -3.7336208727 -2.7851170584 -2.5629233117
H -2.0529696619 -2.9795910705 -2.0075539144
H -3.0219016162 -4.4084626877 -2.4246179420
H -5.7394358292 -5.8277320021 -0.5499292107
H -6.9626739310 -4.8644075351 2.1011103619
H -7.4209462936 -3.9702853389 0.8223453338
H -6.1180146436 -0.9347583529 1.4059866517
