40
CONF108
C 7.0141649881 -0.0702987721 1.1638482996
O 6.2452528926 -0.0757203353 -0.0663558183
C 4.9808695023 -0.5106377704 0.0423854290
O 4.4823911559 -0.9140226962 1.0750799046
C 4.2418331791 -0.4081115762 -1.2642423952
S 3.5637571496 1.3018743730 -1.4700241473
C 2.4023713778 1.3484975478 -0.1137117284
C 1.1519437953 0.7459258954 -0.2745865194
C 0.1834414953 0.7490034172 0.7363051474
C 0.5392085722 1.3807938410 1.9372742702
C 1.7584173962 1.9943637854 2.1360624057
C 2.6913754550 1.9767443122 1.1030586280
Cl 4.2353453663 2.7484176811 1.3905927547
F -0.3589242328 1.4046084810 2.9426370971
N -1.0460195699 0.1149818476 0.6404440796
C -1.8031106826 0.2862341306 -0.3807681555
N -2.9468729645 -0.4480818075 -0.5757577138
N -3.8225023728 0.1234374839 -1.5179074084
C -3.2884576443 1.0995483968 -2.2989128115
O -3.8029000199 1.6132272296 -3.2742731023
S -1.6343948849 1.5132595437 -1.6776565340
C -4.8799937040 -0.7681475351 -2.0260538814
C -5.6486940300 -1.3653410138 -0.8567845391
C -4.6798074085 -2.0515960643 0.1017529323
C -3.6224613470 -1.0699745837 0.5844275247
H 7.9931943218 0.3197166802 0.8895049209
H 7.0991688294 -1.0859434215 1.5570252840
H 6.5330453567 0.5764257283 1.9014792466
H 3.4232637464 -1.1292847381 -1.2866540656
H 4.9090144268 -0.5565219533 -2.1168587580
H 0.9397329406 0.2287412355 -1.2047254289
H 1.9707904536 2.4777098651 3.0824976886
H -5.5160313201 -0.1565609395 -2.6675640249
H -4.4127854284 -1.5584847731 -2.6300908853
H -6.1988776248 -0.5728797564 -0.3355620704
H -6.3784279198 -2.0788294025 -1.2504759156
H -5.2084394570 -2.4401880546 0.9771807283
H -4.1931786130 -2.8975839004 -0.3982475463
H -2.8457849435 -1.5694438755 1.1634235028
H -4.0709194183 -0.2758586119 1.1989386200
