78
CONF871
C -0.8246481735 -0.6740291747 -0.3950115871
C 0.0835702441 -1.8335577438 -0.7759689237
O -0.7547602552 -3.0180070168 -0.5319010146
C -1.7357823514 -2.7268889544 0.3616657770
O -2.4973415122 -3.5784989666 0.7588252388
C -1.6251859636 -1.2731931862 0.7507427016
C -2.8852375352 -0.4587966036 1.0541968524
C -3.9760741167 -0.6057916467 -0.0008510487
C -4.0232722538 0.2398176039 -1.1111864961
C -5.0061086251 0.0710986958 -2.0882765934
O -5.1300943045 0.8412621489 -3.2082884466
C -4.1603217769 1.8801728055 -3.3950979565
C -5.9590849388 -0.9436564391 -1.9504591062
O -6.9203840209 -1.0919308441 -2.9108657315
C -5.9165282720 -1.7757870220 -0.8254697648
O -6.9101350681 -2.7157263382 -0.7978093336
C -6.9194656756 -3.6357778037 0.3025495419
C -4.9334648235 -1.6112509984 0.1477636335
C -2.4647416485 0.9952624894 1.2273513770
C -3.3781190272 1.8429298062 1.8894258377
C -3.0565802225 3.1719134687 2.0037997878
C -1.8741609748 3.6872781001 1.4815532230
O -1.8034776236 5.0341796244 1.7192715193
C -3.0019390285 5.3781035416 2.4495828989
O -3.7823834759 4.1693404349 2.5948794120
C -0.9700523429 2.8894678370 0.8290788513
C -1.2729638262 1.5143936316 0.7025343826
C -0.2219302237 0.6484594357 0.0329207481
O 0.8490921697 0.4102688870 0.9960919261
C 2.0944039719 0.8882261670 0.6131923164
O 2.6062912664 0.0294473639 -0.4205855803
C 3.8793695738 0.4826010054 -0.8711251411
C 4.3474120805 -0.3821338614 -2.0268929550
O 5.6674536596 0.0560630619 -2.4029973367
C 6.6052246687 0.0221208074 -1.3337657402
O 6.1791989223 0.7758246767 -0.2079562926
C 4.8909246010 0.3544753989 0.2653974439
C 4.4573922443 1.2268632181 1.4252993087
O 5.3243378189 1.1520030065 2.5572400637
C 3.0225815465 0.8485215397 1.8253224564
O 2.5166448296 1.7619919577 2.7918324095
C 6.9788453775 -1.3870190595 -0.9445800456
C 7.3935467862 -1.8524402780 0.2748175448
C 7.7736060542 -3.2222375252 0.2504096436
C 7.6563008574 -3.7848560681 -0.9907871478
S 7.0710443450 -2.6388509337 -2.1519472628
H -1.5062306421 -0.4753485267 -1.2320380497
H 0.9623816772 -1.9062512855 -0.1312962400
H 0.3772044948 -1.8579421483 -1.8258496626
H -0.9937946765 -1.2717631941 1.6550874031
H -3.3024403130 -0.8092358529 2.0051537201
H -3.3053606827 1.0455368007 -1.1985527633
H -3.1468067973 1.4659609419 -3.4551701872
H -4.2103011380 2.6167452891 -2.5843952942
H -4.4190808716 2.3576635291 -4.3405675798
H -7.4877650597 -1.8315070092 -2.6456312618
H -7.7613029383 -4.3041996878 0.1217568440
H -5.9872638073 -4.2110943360 0.3354669467
H -7.0630660117 -3.1062749222 1.2511557605
H -4.8980003549 -2.2595643723 1.0138049949
H -4.3088233754 1.4498748476 2.2860169965
H -3.5775402493 6.1117893231 1.8760979689
H -2.7267450445 5.7515168304 3.4417512331
H -0.0526985154 3.2974833585 0.4178027455
H 0.1999367888 1.1782990359 -0.8290457674
H 2.0316811994 1.9189752138 0.2181174226
H 3.8245008543 1.5350600454 -1.1951470917
H 3.7193613793 -0.2562217881 -2.9116176072
H 4.3495370751 -1.4400313713 -1.7270010884
H 7.4804693939 0.5565691329 -1.7185349262
H 4.9285438881 -0.6995094389 0.5849803565
H 4.4725400988 2.2791381880 1.1130993665
H 5.3913121983 0.2236924889 2.8245745011
H 3.0203543546 -0.1830572695 2.2171299445
H 3.1908023091 1.8398466331 3.4818518446
H 7.4213866550 -1.2282554340 1.1605447696
H 8.1178113017 -3.7698097818 1.1200835707
H 7.8663940375 -4.8022694807 -1.2935503403
