31
CONF13
C 3.7516945881 0.3237845717 2.3526808408
O 2.9645752515 -0.2932629900 1.3025510131
C 2.2742007629 0.5630918882 0.5379591489
O 2.1620545539 1.7498801640 0.7373483468
C 1.5452463387 -0.1632045902 -0.5541164253
C 2.1796407592 -0.8255967731 -1.6064757043
C 1.4522982311 -1.5262952750 -2.5660346188
C 0.0738427186 -1.5546643283 -2.4907331915
C -0.5679973469 -0.8809674049 -1.4496259386
C 0.1581973271 -0.1890311679 -0.4816147144
O -1.9333484980 -0.9696039031 -1.4366275060
C -2.6402476703 -0.1829215485 -0.5451367793
C -2.8596655270 1.1722657494 -0.8004694879
C -3.6276712287 1.9368426059 0.0698988453
C -4.1750025220 1.3207141077 1.1891568567
C -3.9754177791 -0.0290721793 1.4554455912
C -3.2001436515 -0.7764722930 0.5777341511
Cl -5.1462106528 2.2784891660 2.2859417516
Cl -2.1719709472 1.9111722352 -2.2182808473
N 3.6299756422 -0.7398784066 -1.7596885837
O 4.2114948683 0.1683733995 -1.1697297336
O 4.1805436203 -1.5609803373 -2.4861133097
H 3.1025875248 0.8759124070 3.0360444666
H 4.4865194665 1.0004646534 1.9098126699
H 4.2437391719 -0.5016245285 2.8647748116
H 1.9764984365 -2.0189868686 -3.3754044767
H -0.5194166106 -2.0761472460 -3.2328048545
H -0.3433845073 0.3200753772 0.3336101276
H -3.7961561409 2.9879443491 -0.1288427749
H -4.4149701678 -0.4885991734 2.3322806305
H -3.0215066042 -1.8317016606 0.7539597033
