47
CONF24
C -3.9557602253 -3.3972756916 2.3963055298
O -4.3434233942 -2.2216153072 1.6296618490
P -4.5421763694 -2.3315683990 0.0477689242
S -3.1545204171 -3.2253554677 -0.9755364879
O -6.0235806486 -2.9264481169 -0.0429722475
C -6.5800125481 -3.2959352957 -1.3355488413
O -4.8154729610 -0.7778156226 -0.3292987036
C -3.7862535983 0.0838238912 -0.7183609112
C -2.8053515490 0.4687323771 0.1885649432
C -1.8274578244 1.3688344643 -0.2148632971
C -1.8257642704 1.8612660980 -1.5229833661
C -2.8186520335 1.4625933557 -2.4206739950
C -3.8094747284 0.5744982063 -2.0148708494
S -0.6298471322 3.0706349991 -2.0777182490
C 0.8756683277 2.5280726953 -1.2789003438
C 1.6766394696 3.4813024105 -0.6480968371
C 2.8861537432 3.1043516186 -0.0723407419
C 3.2720837829 1.7733562391 -0.1217251495
C 2.4856351980 0.8100750969 -0.7463286242
C 1.2885416524 1.1937295438 -1.3356139440
O 4.5053703138 1.4365078915 0.4344291974
P 4.6398487514 0.3920216292 1.6836893278
S 3.2375823289 0.5045813544 3.0138583749
O 6.1466773705 0.6985319444 2.1187848057
C 6.4689953118 1.9596202618 2.7695515894
O 4.7676846261 -1.0626903835 1.0445543475
C 5.7501120428 -1.3286424644 -0.0041948182
H -3.0011752364 -3.7835750556 2.0302910252
H -4.7317860509 -4.1639667819 2.3256430004
H -3.8572484810 -3.0545174193 3.4257029636
H -5.9717274390 -4.0801100192 -1.7930115738
H -7.5836842778 -3.6651141868 -1.1271243535
H -6.6281396022 -2.4199492302 -1.9885170226
H -2.8149889917 0.0808140483 1.2015541799
H -1.0669255033 1.6842915061 0.4912823206
H -2.8148375071 1.8350834855 -3.4398927072
H -4.5831575915 0.2489113590 -2.7017186292
H 1.3536821791 4.5157182379 -0.5950594397
H 3.5174273222 3.8304729931 0.4283080017
H 2.8117712272 -0.2240478126 -0.7851299075
H 0.6752035914 0.4520675545 -1.8364428165
H 5.9023376716 2.0536315264 3.6995866115
H 7.5371135349 1.9170094683 2.9796859968
H 6.2479735978 2.7945024767 2.0992660188
H 5.5316953136 -2.3360913675 -0.3564358688
H 5.6349890646 -0.6103809632 -0.8201633650
H 6.7582308637 -1.2799369473 0.4120800796
