28
CONF49
O -0.8926810950 0.3326469476 -3.3106263179
C -1.6732053724 0.7294500565 -2.1841489560
C -1.8559686000 -0.4164250891 -1.2001499837
O -0.5516423846 -0.9427237847 -0.8329690178
C -0.3170535132 -0.7287463605 0.5617351124
C -1.3290158224 0.3272955153 1.0006460793
C -2.5244930895 0.0107361503 0.1143455455
O -3.2355290925 -1.0691024133 0.7273787604
N 1.0883611241 -0.3374321260 0.7407032729
C 1.6090839540 0.6981845245 0.0083006319
C 2.8948225534 1.0986417476 0.1051396733
C 3.7902123758 0.4244279636 1.0102310739
O 4.9756925742 0.6897764783 1.1933376853
N 3.1846654459 -0.6246527538 1.7165153397
C 1.8757426242 -1.0564871143 1.6442345711
O 1.4515252180 -1.9818059359 2.3215808065
H -0.0515549471 0.0018099318 -2.9669448835
H -1.2218197692 1.5987756664 -1.6795131931
H -2.6541159084 1.0308759198 -2.5663607912
H -2.4124616913 -1.2308965120 -1.6802205974
H -0.4397916970 -1.6641653824 1.1127509933
H -0.9556112627 1.3334672525 0.7881237986
H -1.5696851975 0.2557396093 2.0630462670
H -3.1807314217 0.8792563079 -0.0315075789
H -3.9611555441 -1.3201209589 0.1414793451
H 0.9163792639 1.1752908590 -0.6758418829
H 3.2708057899 1.9179985642 -0.4918279761
H 3.7692260939 -1.1318144656 2.3705622330
