26
CONF2
C 2.6141270766 -1.0051038542 0.6688053158
C 1.4752769002 -0.0985485039 0.3271392486
C 1.2851330940 1.1181848903 0.8528939739
C 0.0647827995 1.9184126680 0.4684167576
C -0.7673080961 1.1599855633 -0.5739928565
C 0.1920923981 0.6070758537 -1.6617376500
C 0.4492729935 -0.5742074401 -0.6796651487
C -1.0058448232 -0.3236892325 -0.1263430120
C -2.0683656213 -1.0180615693 -0.9799492034
C -1.3026993598 -0.6080994101 1.3387722394
H 2.2397113880 -1.9479906870 1.0895181026
H 3.2938733250 -0.5464981753 1.3926259157
H 3.1849238338 -1.2726546303 -0.2298834568
H 1.9799251637 1.5368379587 1.5790117806
H 0.3605537479 2.8977673679 0.0648533621
H -0.5413744802 2.1329966535 1.3613097784
H -1.6449727560 1.7347448494 -0.8919607865
H 1.0618109779 1.2202362211 -1.9159569609
H -0.3265253092 0.3060063232 -2.5723644615
H 0.6794742973 -1.5655015749 -1.0844934678
H -2.0527280338 -2.0982009746 -0.7933796398
H -1.9311061509 -0.8608530540 -2.0520548929
H -3.0644149605 -0.6466663998 -0.7110854076
H -1.3303500368 -1.6900515704 1.5158101825
H -0.5587638113 -0.1729235523 2.0086677818
H -2.2865040483 -0.2031979162 1.6050424153
