52
CONF622
C -4.3267127531 -2.0162681471 -1.1666599015
C -2.9445239302 -1.8162384327 -1.7821501746
C -1.8157230676 -2.0784668534 -0.7861848726
C -0.4421837663 -1.7429400939 -1.3675494415
C 0.7498777371 -2.2035713715 -0.5165835161
C 2.0975490428 -1.7527489639 -1.1010408155
C 2.3818324658 -2.2855880230 -2.5040586297
C 0.6233805862 -1.7620583239 0.9319732758
O 0.5892628224 -0.3027309148 0.9651082150
P -0.2262917754 0.4622493014 2.1053740406
O -1.3726929638 -0.2526173168 2.6914798011
O 0.8399367413 0.9161275749 3.2220821878
C 2.0426662674 1.5428681223 2.8754585275
C 3.1621692706 0.7631443024 2.6208654730
C 4.3689252528 1.3924329728 2.3321011813
C 4.4470058210 2.7820178815 2.3027675156
C 3.3130647777 3.5458779549 2.5660248716
C 2.0996179039 2.9293581983 2.8543412719
O -0.5028329683 1.8788706611 1.3823103723
C -1.2731891910 1.9264228827 0.2157090495
C -2.6257314378 1.6119182443 0.2516957131
C -3.3666398425 1.7299648673 -0.9208806842
C -2.7619813461 2.1564645828 -2.1002225894
C -1.4041239618 2.4644612537 -2.1116999769
C -0.6483233200 2.3481745038 -0.9495249681
H -4.4698900405 -1.3457440212 -0.3120888479
H -5.1234135979 -1.8167449517 -1.8902422082
H -4.4522335409 -3.0422352493 -0.8036529432
H -2.8530203323 -0.7881879877 -2.1553676947
H -2.8233290072 -2.4752220598 -2.6521647949
H -1.8427335523 -3.1329941360 -0.4737517858
H -1.9999108399 -1.4822164301 0.1173015760
H -0.3588378247 -2.2057282813 -2.3582929328
H -0.3727227131 -0.6577099948 -1.5241573216
H 0.7411107729 -3.3054281971 -0.4808394228
H 2.8968356536 -2.0815524355 -0.4231236113
H 2.1299729465 -0.6562647595 -1.1059933712
H 2.2864010605 -3.3769038221 -2.5393568129
H 1.6963122961 -1.8655300856 -3.2452335046
H 3.3984584312 -2.0297965135 -2.8172272528
H 1.4942076908 -2.0884749750 1.5145594928
H -0.2848745895 -2.1492184296 1.4026858101
H 3.0814123978 -0.3174978897 2.6559257592
H 5.2508175315 0.7923355484 2.1330232108
H 5.3904339860 3.2686647535 2.0795273675
H 3.3702579854 4.6293705857 2.5490386104
H 1.2038423603 3.5033787075 3.0609482669
H -3.0753780851 1.2807940355 1.1811863616
H -4.4240917636 1.4860316776 -0.9088511126
H -3.3477653324 2.2471752188 -3.0088119271
H -0.9276468648 2.7949993714 -3.0289129610
H 0.4114476285 2.5775752567 -0.9299673674
