38
CONF26
C 2.7909558616 -2.8671055383 0.2638806642
C 1.3788324812 -2.3106608136 0.4510484915
C 1.3159406236 -0.8543734582 0.8545870989
C 0.2651020718 -0.0179545660 0.4255814918
C 0.1603966865 1.3180260342 0.8457255769
C 1.1533912354 1.8195659645 1.6918349783
C 2.2062328326 1.0199628367 2.1104849963
C 2.2834753568 -0.3051664640 1.6967060359
C -0.9656023600 2.2314584081 0.4259731210
C -0.5145056416 3.3643223241 -0.5059511496
N -0.7493443069 -0.5768847162 -0.4282833664
C -1.8031989260 -1.3754391149 0.2162271419
O -2.8740893047 -0.6074650169 0.7162475797
C -3.8158406539 -0.2142387572 -0.2878489247
C -0.7216900003 -0.4874881812 -1.7966192439
O -1.5877482666 -0.9667629192 -2.5184183990
C 0.4677410855 0.2386550532 -2.4116558737
Cl 1.7016418685 -1.0010826559 -2.9233142963
H 3.3593780969 -2.2522875646 -0.4404152172
H 3.3466627166 -2.9139436287 1.2043839838
H 2.7389881629 -3.8837947141 -0.1359756091
H 0.8585286710 -2.9054401212 1.2158526098
H 0.8152322227 -2.4541769133 -0.4744977357
H 1.0855115340 2.8495134275 2.0311400002
H 2.9669399980 1.4248784781 2.7707080377
H 3.1080445796 -0.9211490685 2.0379578591
H -1.7596446491 1.6552247840 -0.0495996759
H -1.4000638414 2.6697648152 1.3324529588
H 0.2773727686 3.9638806595 -0.0470965663
H -0.1305283012 2.9738362133 -1.4532654467
H -1.3544106955 4.0275696593 -0.7334257544
H -1.3573109803 -1.8645970943 1.0858349913
H -2.1522029595 -2.1170304547 -0.5132210044
H -4.6118721630 0.3248808511 0.2298003506
H -3.3597391566 0.4400234290 -1.0408713048
H -4.2328307113 -1.0933660567 -0.7964129023
H 0.1342587925 0.7469538087 -3.3161722102
H 0.9759960762 0.9218907539 -1.7333830804
