56
CONF93
C -0.1625959676 -3.3526263007 -1.3190847032
C -0.0426403797 -2.5438515708 -0.0284453999
C 0.3318456585 -3.4009508674 1.1820840613
N -1.2532039318 -1.7350434743 0.2260962016
C -2.4484700515 -2.2339109898 0.7153179647
C -2.9396674609 -3.5422692402 0.7560488640
C -4.2135986448 -3.7448469475 1.2716559683
C -4.9979349373 -2.6721987082 1.7297958389
C -4.5149166502 -1.3734725105 1.6914630613
C -3.2220804727 -1.1419056248 1.1986591309
C -2.4482591898 0.0440993346 0.9926482539
C -1.2567798432 -0.3485133755 0.3888711838
C -0.1909807186 0.5428978841 -0.0203396393
C 0.6044176926 0.4216560627 -1.0930539500
C 1.6726010073 1.3997753634 -1.4669113835
C 3.0537470749 0.7208701552 -1.4408665361
C 4.1550590759 1.5761804906 -2.0511114571
C 5.4801218162 0.8228747395 -2.1055306694
C 6.5772106885 1.6350824550 -2.7365370337
O 6.4770480725 2.7961442956 -3.0876164797
O 7.7135542855 0.9271884386 -2.8732774227
O 4.2842849127 2.7655868408 -1.2451595523
O 1.6162688566 2.5313221220 -0.6001949988
C -2.8592841744 1.4143815683 1.3008433229
C -3.4677966594 1.7102185302 2.5319220798
C -3.8667591810 3.0036974888 2.8495297310
C -3.6450692849 4.0061407331 1.9203599695
C -3.0519156347 3.7664563013 0.6931805282
C -2.6680867658 2.4645587837 0.3885295010
F -4.0271170508 5.2754873062 2.2255152459
H -0.4113791337 -2.7028491086 -2.1632653975
H 0.7932514529 -3.8422057882 -1.5284105014
H -0.9289324945 -4.1285703704 -1.2453011202
H 0.7593498105 -1.8150755244 -0.1598756296
H 1.3174780300 -3.8429185880 1.0082356174
H -0.3753287289 -4.2147527016 1.3548919451
H 0.3844576963 -2.7857487902 2.0853763907
H -2.3686812207 -4.3840194911 0.3861369125
H -4.6137147823 -4.7532836850 1.3072078874
H -5.9957871932 -2.8653907399 2.1110236070
H -5.1295421606 -0.5466445497 2.0335861200
H -0.0900151490 1.4356966731 0.5913769703
H 0.4935021158 -0.4096818176 -1.7860364200
H 1.4820062117 1.7187995416 -2.5097623505
H 3.3071259851 0.4670026264 -0.4031648558
H 2.9955731774 -0.2150986470 -2.0083622071
H 3.8638032651 1.8628593883 -3.0731629207
H 5.8013949341 0.5424868541 -1.0940085530
H 5.3736666599 -0.1101303156 -2.6713479856
H 8.3873855859 1.5049460666 -3.2717434151
H 4.8727832672 3.3646704621 -1.7276882523
H 2.4637507324 2.9940556431 -0.7116326378
H -3.6087859743 0.9193685622 3.2614274200
H -4.3290820634 3.2360817175 3.8028588200
H -2.9068689548 4.5787238068 -0.0109012009
H -2.2264128145 2.2566491843 -0.5801912283
