45
CONF455
O -0.7722476878 -0.5224818701 -2.8530458985
C -1.9789115345 -1.2635476472 -2.7008183188
C -2.5989669695 -1.1081760286 -1.3284720349
O -1.7016246039 -1.7004221000 -0.3434526250
C -1.5918843085 -0.8830867784 0.8061596049
C -1.6573877813 -1.8062937763 2.0213393504
O -1.4630296031 -1.1142693303 3.2440043940
O -0.3683655695 -0.1243997284 0.8074531103
C 0.8292138912 -0.8156397469 0.5038184588
O 1.3157564279 -0.4369123717 -0.7744136696
C 1.6481703719 0.9721787361 -0.8981478286
C 2.1284712948 1.1649643251 -2.3263084002
O 3.3099277477 0.4158302143 -2.6170036488
C 2.7032850949 1.3578938400 0.1457966412
O 2.9134528504 2.7738626133 0.1387912950
C 2.2258217460 0.9816460452 1.5396993700
O 3.2429881433 1.1821967568 2.5236632420
C 1.8780339319 -0.4953873911 1.5673819390
O 1.3617658701 -0.9031602016 2.8347520149
C -2.7104706891 0.1730437345 0.6788232289
O -2.4968352600 1.3828918242 1.3748068754
C -2.8221453152 0.3226459025 -0.8442499175
O -4.0290969283 0.9080821325 -1.3044389144
H -0.1709399836 -0.7597537552 -2.1256240986
H -2.6868680156 -0.8867088794 -3.4472857995
H -1.8144286565 -2.3338863890 -2.8962721789
H -3.5532374550 -1.6571542318 -1.3040591215
H -0.9224486283 -2.6160739573 1.8913585463
H -2.6532137577 -2.2600172934 2.0462769181
H -0.5305928757 -0.8324357787 3.2465045313
H 0.6592815967 -1.8945897871 0.4424515171
H 0.7453079243 1.5809564423 -0.7412285128
H 2.3763331058 2.2201266671 -2.4752670912
H 1.3159516367 0.9054826207 -3.0175798458
H 3.0910120393 -0.5192708731 -2.5113038061
H 3.6394552328 0.8246164472 -0.0669743942
H 3.6365697214 2.9738340480 -0.4677925043
H 1.3321817316 1.5754618399 1.7885062062
H 3.4295838492 2.1297439408 2.5561203388
H 2.7805327080 -1.0780289908 1.3279797910
H 1.9812920337 -0.5951389279 3.5110768019
H -3.6431577264 -0.2559735504 1.0674662663
H -1.5980697771 1.6773448087 1.1674219563
H -2.0127937347 0.9710848034 -1.1999127369
H -4.7676711043 0.3689217372 -0.9880008826
