39
CONF37
C 3.2049257379 -0.4322318720 -3.1816461716
C 2.5882731271 0.2289780607 -1.9509657502
C 2.1529598035 -0.7958903609 -0.9057911101
C 1.5600563852 -0.1711332679 0.3449776410
C 1.0427586152 -1.1863804536 1.3636336560
O -0.3412346261 -1.3303179318 0.9972957162
C -0.7636274842 -0.0421221393 0.6094127974
C -1.9073984293 -0.2045864778 -0.4081805926
N -1.4690474540 -0.8255628273 -1.6410464498
C -0.9618486027 -0.2223449101 -2.7345662908
N -0.6209585818 -1.1277660070 -3.6433099792
C -0.9451078461 -2.3018593559 -3.0297506443
N -1.4610936264 -2.1718427088 -1.8143062040
O 0.3618626865 0.5870435807 0.0127153158
C -1.2669489068 0.7625573766 1.8175337442
C -1.5048012155 2.1412520042 1.7976391794
Cl -1.2559473924 3.1116309628 0.3502439652
C -1.9656600636 2.8290799907 2.9161108992
C -2.2023526958 2.1129159689 4.0808929831
Cl -2.7774381584 2.9728780904 5.4985647521
C -2.0008691369 0.7416456876 4.1458587902
C -1.5420057758 0.0880167071 3.0097540606
H 4.0940663817 -1.0121801049 -2.9103468949
H 2.4902194130 -1.1162669499 -3.6529202558
H 3.5012071966 0.3116986048 -3.9276740453
H 1.7240624825 0.8332012685 -2.2500820587
H 3.3115641009 0.9186893970 -1.4958962567
H 3.0227012988 -1.3907931044 -0.5945395989
H 1.4234412457 -1.4950531786 -1.3381890920
H 2.2734089796 0.5253847200 0.8013894534
H 1.1296806876 -0.8132680519 2.3923110829
H 1.5150437453 -2.1666925382 1.2791271621
H -2.6896443667 -0.8200768225 0.0427165751
H -2.3234689577 0.7753792623 -0.6490181680
H -0.8744659757 0.8526618071 -2.8210473526
H -0.8059855137 -3.2733150256 -3.4874359760
H -2.1367598751 3.8977239734 2.8731934995
H -2.1974836174 0.1924429420 5.0589270090
H -1.3820833946 -0.9834955176 3.0444145085
