47
CONF161
C -7.7016613739 -0.5082885581 0.5560061459
O -6.7233959046 -0.5684106404 -0.5057440013
P -5.2806980037 -1.2090660804 -0.2040344945
S -5.1734257517 -2.9333443492 0.6285336169
O -4.5998523438 -1.1356196466 -1.6518630427
C -4.5633123056 0.1172016949 -2.3800000921
O -4.6365527344 0.0508837618 0.6298100063
C -3.4338873035 -0.0198871741 1.3207995983
C -3.3763684316 0.6399967397 2.5404832259
C -2.1807371294 0.6687113922 3.2478866515
C -1.0549851845 0.0097525036 2.7506264429
C -1.1322180329 -0.6647034966 1.5299677200
C -2.3148711171 -0.6671568320 0.8031039249
S 0.4219813810 -0.0174060140 3.7555272110
C 1.7157108503 0.2200187981 2.5465112900
C 2.8670469459 -0.5628959302 2.6469423242
C 3.9282491599 -0.3620168628 1.7709838845
C 3.8161562803 0.6090109609 0.7884829187
C 2.6744434491 1.3924744882 0.6675317697
C 1.6275094833 1.2050364309 1.5590496108
O 4.8961422242 0.8399513311 -0.0674909289
P 4.9726331162 0.1111428375 -1.5162694535
S 4.5829763522 -1.7790885652 -1.5689984601
O 6.4316038625 0.5825028179 -1.9894278817
C 7.5959151644 -0.1523169661 -1.5498000239
O 4.0395261956 1.0890792985 -2.3812301506
C 3.6568639002 0.7077601587 -3.7224786089
H -7.3648123017 0.1750927956 1.3418796571
H -7.8697362952 -1.5064904107 0.9710864861
H -8.6164894576 -0.1298604274 0.0990167672
H -5.5749887949 0.4202458503 -2.6614496048
H -4.0905160174 0.8981981325 -1.7764199277
H -3.9671951585 -0.0779186728 -3.2718897966
H -4.2615319547 1.1400085598 2.9173991976
H -2.1220810970 1.2037021998 4.1898418425
H -0.2640150976 -1.1871667270 1.1428345848
H -2.3720079058 -1.1901333690 -0.1453373270
H 2.9274704178 -1.3388057032 3.4026058307
H 4.8244777759 -0.9689847641 1.8258258064
H 2.6246220189 2.1474093510 -0.1089144397
H 0.7379478965 1.8216104206 1.4878566300
H 7.4959754494 -1.2111196292 -1.8062464210
H 8.4423477929 0.2891470912 -2.0767120072
H 7.7291058709 -0.0378581392 -0.4693463948
H 2.9552555187 1.4718710461 -4.0585840618
H 4.5341755909 0.6928626825 -4.3764608768
H 3.1772018992 -0.2751321894 -3.7148491042
