49
CONF63
C -6.1013548551 -0.3410460315 1.2904771774
C -4.6091465724 -0.4354067623 1.1324860606
C -3.8950615358 0.6246125951 0.7196077853
C -2.4338537829 0.6819315400 0.5311273274
C -1.7265580470 2.0289497462 0.6959866606
C -1.7836043640 1.3262831300 -0.6681247825
C -2.6375516542 2.0045874503 -1.7163237916
C -0.5420993173 0.6768485213 -1.2394266254
C -0.4732648965 2.2066762332 1.4439647266
O -0.0118524814 3.2936284623 1.7405752649
O 0.1165458325 1.0264905008 1.7821144395
C 1.4679312200 1.0668809537 2.3081905005
N 2.3457968694 0.4059309421 1.3946709026
C 2.4986583166 -0.9898720242 1.3124204235
O 2.0391595894 -1.7869490928 2.1054790937
C 3.3023928898 -1.2523458928 0.0889319179
C 3.5528902441 -0.0810851540 -0.5218604512
C 2.9226937696 1.0120871907 0.2647555357
O 2.8853739877 2.2011822256 0.0186156169
C 4.3367226410 0.0778322631 -1.7722876152
C 5.0907378432 -1.2265853076 -2.0741119266
C 4.1966611741 -2.4561425244 -1.8676345142
C 3.7385095072 -2.5817992988 -0.4062839172
C -4.0344273527 -1.7811129986 1.4695257138
H -6.6050680256 -1.0782264352 0.6522069139
H -6.3955316837 -0.5708909665 2.3227136311
H -6.4761978092 0.6538246278 1.0361109975
H -4.4396154806 1.5428475782 0.5058747351
H -1.8654397943 -0.1525012751 0.9274006028
H -2.3645264070 2.9048464642 0.7675558121
H -3.0179724927 1.2592783013 -2.4242969618
H -3.4896345449 2.5327521955 -1.2844441828
H -2.0361377704 2.7277325449 -2.2778650848
H 0.0091937946 0.1044822035 -0.4915576272
H -0.8340488065 -0.0085306511 -2.0427257087
H 0.1273166567 1.4316611676 -1.6690517898
H 1.7825675591 2.1025875536 2.4449677448
H 1.4553504330 0.5231836273 3.2539221879
H 5.0252742765 0.9259567822 -1.6794049557
H 3.6517511081 0.3316122358 -2.5940510395
H 5.4699257517 -1.2025932265 -3.0999686363
H 5.9597798678 -1.2984930341 -1.4078553302
H 4.7279732840 -3.3647276926 -2.1657824864
H 3.3122098847 -2.3696581095 -2.5115422497
H 2.9224022711 -3.3065583231 -0.3029305242
H 4.5565771746 -2.9524005122 0.2278090413
H -4.5083672928 -2.5549860780 0.8527063406
H -2.9553009380 -1.8450791947 1.3231208329
H -4.2577799726 -2.0376967474 2.5128898203
