44
CONF7
C -2.9993965390 -0.5544663628 3.3053044101
C -2.5031110717 0.4775082067 2.3109187857
C -1.4914775076 1.4418173693 2.8943903705
O -1.8008906219 -0.2132916108 1.2170750917
C -2.5360149362 -0.6692911259 0.1950929704
O -3.7461498803 -0.6314861492 0.1307965252
C -1.6432829144 -1.3556748294 -0.8452287990
C -2.3709119794 -1.6183889663 -2.1552967293
N -0.3820758204 -0.6108787300 -1.0296005249
C 0.8181344188 -1.1895578029 -0.5263306471
C 1.5073714089 -0.5565730597 0.5080786940
C 2.6803223377 -1.1187643958 0.9911466307
C 3.1373846455 -2.3226715323 0.4639320820
C 2.4396153580 -2.9732070352 -0.5394344706
C 1.2777918333 -2.4013830930 -1.0419860513
F 4.2729956671 -2.8680819471 0.9376520491
Cl 3.5708643416 -0.3377998363 2.2715992748
C -0.4870174025 0.7212989263 -1.3516052407
O -1.5863811932 1.2784466704 -1.3877980172
C 0.7597391929 1.4605980341 -1.7065747021
C 1.7370810286 0.9044955245 -2.5372933933
C 2.8467315327 1.6578517673 -2.9037962725
C 2.9966400189 2.9595098365 -2.4281955741
C 2.0210592921 3.5167426185 -1.6031460565
C 0.8975568434 2.7755569980 -1.2549743215
H -3.5219257602 -0.0508880358 4.1242763521
H -3.6926544515 -1.2533403051 2.8307326228
H -2.1560582045 -1.1131936889 3.7237172093
H -3.3434770193 1.0181802110 1.8646121389
H -0.6325589622 0.8977152551 3.3003024686
H -1.1400719760 2.1434287372 2.1324612375
H -1.9561689208 2.0107365719 3.7048051074
H -1.3634798287 -2.3139891839 -0.3911477164
H -3.2578946160 -2.2267279197 -1.9668432949
H -1.7094059634 -2.1617154725 -2.8345521717
H -2.6823962240 -0.6840011934 -2.6255311920
H 1.1318256473 0.3660501601 0.9348406663
H 2.8223626756 -3.9103854723 -0.9285625006
H 0.7365339829 -2.8896779514 -1.8453926306
H 1.6227991624 -0.1091161966 -2.9073631712
H 3.5962474817 1.2282290570 -3.5607313253
H 3.8700925449 3.5411267440 -2.7056272877
H 2.1342022615 4.5314185184 -1.2349249998
H 0.1254484293 3.2038406638 -0.6239289939
