41
CONF79
C -3.7320484241 -1.0490047813 3.2549679188
C -4.0118766545 0.0207239309 2.1984198012
N -3.5795099562 -0.3608523354 0.8541835757
C -4.5454186886 -1.1548333844 0.0955694487
C -5.5120830261 -0.2910690182 -0.7123676797
O -4.8602818238 0.4542253160 -1.7323308441
C -2.2742437863 -0.2043955354 0.4482561955
C -1.2876937790 0.3007307251 1.3380213994
C 0.0169373799 0.4722130335 0.9379531608
C 0.4151603118 0.1494301475 -0.3724294904
C -0.5545325038 -0.3402400932 -1.2600058477
C -1.8664568218 -0.5121190178 -0.8722771438
N 1.7038341201 0.2777352689 -0.8776194468
N 2.5668759737 0.7172015695 -0.0612976985
C 3.8614008051 0.8370321685 -0.5984200519
C 4.8363728718 1.3128935866 0.2901865755
C 6.1478568698 1.4744972500 -0.1215105550
C 6.4763076230 1.1552334967 -1.4348621614
C 5.5260717675 0.6804134879 -2.3391530211
C 4.2189608548 0.5211492671 -1.9215082619
N 7.8660865798 1.3236762956 -1.8833474084
O 8.1284238768 1.0345658694 -3.0466982305
O 8.6812087970 1.7439007969 -1.0675555092
H -4.2518161334 -1.9815061646 3.0152095068
H -4.0802879763 -0.7120641463 4.2360719090
H -2.6636456025 -1.2692376027 3.3234428960
H -3.5445521342 0.9719931195 2.4713990838
H -5.0890346748 0.2180958476 2.1491954970
H -5.1231474422 -1.7657992272 0.8032750972
H -4.0215664811 -1.8489275517 -0.5669910193
H -6.2330815810 -0.9414250781 -1.2195875413
H -6.0775697757 0.3714002719 -0.0370578443
H -4.2468548798 1.0664002712 -1.3070510935
H -1.5468861985 0.5431640581 2.3605018895
H 0.7566430752 0.8498132082 1.6341488871
H -0.2497938303 -0.5715919486 -2.2756422897
H -2.5896228565 -0.8463994037 -1.6044172513
H 4.5361298347 1.5500514503 1.3050268499
H 6.9149021744 1.8403766998 0.5490067549
H 5.8292389887 0.4451918386 -3.3517973207
H 3.4595941265 0.1545147962 -2.6009092338
