44
CONF5
C -3.6021647672 1.7947712235 2.1700227317
C -3.3008515516 0.4316396120 2.7627687405
C -4.5401014259 -0.3367021687 3.1697701478
O -2.6424936225 -0.3963870045 1.7344218446
C -1.3298281216 -0.2307908094 1.5632336362
O -0.6275256636 0.5170649183 2.2134270566
C -0.7694466727 -1.1962057860 0.5153806235
C -1.7894910201 -1.8892816698 -0.3818926418
N 0.2710682437 -0.5030802036 -0.2654684900
C 1.4311407492 -1.2486141755 -0.6240896033
C 2.2952433144 -1.6843836994 0.3808319690
C 3.4203681266 -2.4209318250 0.0403395707
C 3.6808746089 -2.7054460365 -1.2977612923
C 2.8258052292 -2.2795784022 -2.2986374490
C 1.6873353572 -1.5590072686 -1.9593432400
F 4.7763097907 -3.4151446251 -1.6245847089
Cl 4.5222271047 -2.9762823033 1.2725715404
C -0.0565157997 0.7027425121 -0.8309585747
O -1.1934113901 1.1685568260 -0.7194793156
C 1.0183970214 1.4663952821 -1.5318878761
C 2.2794200960 1.6523135080 -0.9586004166
C 3.2253236074 2.4418665093 -1.6036888374
C 2.9249416839 3.0324560680 -2.8298074258
C 1.6656390948 2.8526142466 -3.3995551901
C 0.7087419021 2.0842162276 -2.7458654331
H -2.6847351341 2.2991732547 1.8575487825
H -4.2664640951 1.6928116197 1.3060473731
H -4.1011390399 2.4144137056 2.9212933205
H -2.6043020088 0.5207909875 3.6018911014
H -5.0695045879 0.2180904078 3.9496931467
H -5.2132225840 -0.4612386985 2.3157624967
H -4.2775656032 -1.3225405795 3.5630059400
H -0.2476662209 -1.9590099162 1.1070557141
H -2.4694642233 -2.4980376951 0.2173034512
H -1.2608350911 -2.5474467284 -1.0780010815
H -2.3704657546 -1.1605441175 -0.9495533667
H 2.1036692950 -1.4339734434 1.4186861061
H 3.0502930331 -2.5296235411 -3.3297623757
H 1.0001087289 -1.2320795525 -2.7317031016
H 2.5148056192 1.1953354740 -0.0030254975
H 4.1984778425 2.5956688709 -1.1484589460
H 3.6690496221 3.6383660347 -3.3371494344
H 1.4274930880 3.3161124150 -4.3516535091
H -0.2795404796 1.9509305414 -3.1742588616
