43
CONF31
C 0.7440280446 2.9251846376 1.8758466933
C 0.3251140912 1.5052300358 1.4945364250
C -0.8818533687 1.0509956656 2.3126034489
C 0.0393001906 1.4637283150 -0.0293626348
C -0.2126262877 0.0745255255 -0.5390648735
C 0.8671992862 -0.7954421744 -0.7887737264
C 0.5881530820 -2.1137960295 -1.1568868249
N -0.6410963697 -2.5960506428 -1.2997044605
C -1.6642519033 -1.7780359616 -1.0955619654
C -1.5065238450 -0.4427363207 -0.7063046013
C -2.7131297103 0.4290534387 -0.5153934250
O -2.9224371234 1.4462538311 -1.1402061863
O -3.5228671673 -0.0798189563 0.4172614915
C -4.7628533242 0.6481598120 0.6395522095
C -3.0464630997 -2.3782325499 -1.3097288291
F -2.9593450282 -3.5428502779 -2.0131638059
F -3.7987997955 -1.5047965815 -2.0742041869
C 1.6928747144 -3.1412220784 -1.3762972663
F 2.1606883675 -3.6057015012 -0.1906471822
F 1.2595793161 -4.2034553338 -2.0753576019
F 2.7462048968 -2.6257365167 -2.0482912296
C 2.2647207695 -0.3118086964 -0.6518524121
N 2.9883298241 -0.5557641156 0.3625251345
C 4.2887199173 0.1201766314 0.2835763130
C 4.6173653720 0.4557632006 -1.1798462171
S 2.9722692529 0.6669018513 -1.9840103447
H 1.6308010752 3.2402205800 1.3159463485
H -0.0651129775 3.6339642114 1.6632192709
H 0.9736996911 2.9834514726 2.9445029075
H 1.1620491565 0.8267633721 1.6994545983
H -1.7469514743 1.6969125953 2.1165815656
H -0.6563935143 1.1064363900 3.3823317144
H -1.1665974839 0.0184754675 2.0861209850
H 0.9024067673 1.8849939371 -0.5530413108
H -0.8155161952 2.1089733939 -0.2422423592
H -5.3439512724 0.6747937106 -0.2848951856
H -5.2858731873 0.0891373845 1.4132531757
H -4.5395512534 1.6630631959 0.9749460717
H -3.5916694581 -2.5717365361 -0.3801345177
H 4.2188990164 1.0335113088 0.8914674618
H 5.0669630303 -0.5130865455 0.7199587357
H 5.1396652397 -0.3631572988 -1.6818296831
H 5.1948327164 1.3767576607 -1.2768834242
