40
CONF247
C -1.0675232366 -1.4455857412 -2.7415465983
C -1.8035959054 -0.2376047754 -2.2143270645
O -1.7602485965 -0.3203000902 -0.7539964147
P -2.4540981811 0.8128347959 0.1490916924
S -2.5612767086 2.6010658276 -0.5947688232
O -3.8408183448 0.0952835037 0.5511353022
C -4.9514613777 0.8686040005 1.1029846075
C -6.0298921100 1.0192999946 0.0549857451
S -1.3815977319 0.5955698604 1.9647118763
C 0.2150059444 1.4119313665 1.4191913149
C 0.7149760693 2.2271969956 2.6039447128
Cl 2.2812969427 3.0451030537 2.1779159139
N 1.1587825847 0.4438354742 0.9335635592
C 1.5050939219 0.3304203562 -0.4292607907
O 1.1073817056 1.0485170458 -1.3176708643
C 2.4287935117 -0.8298607543 -0.5034070181
C 3.0837623776 -1.3715526474 -1.5943846479
C 3.8982100447 -2.4828444005 -1.3650261819
C 4.0430695941 -3.0194145575 -0.0835452001
C 3.3790309837 -2.4629995034 1.0121275243
C 2.5743445298 -1.3640221590 0.7741560399
C 1.7488842541 -0.5652595396 1.7162023027
O 1.5841168963 -0.7152484996 2.9063074023
H -1.0678161761 -1.4198841548 -3.8355536330
H -0.0300267445 -1.4410213209 -2.3968752656
H -1.5456916104 -2.3720718072 -2.4130518444
H -2.8517222814 -0.2287137255 -2.5347607238
H -1.3252161018 0.6980749867 -2.5176099751
H -4.5880812810 1.8440372430 1.4436311411
H -5.2971593424 0.2954074959 1.9680619652
H -6.8904777244 1.5416370805 0.4853571213
H -6.3607148760 0.0402340826 -0.3020361564
H -5.6569367332 1.6011755567 -0.7917857699
H -0.0125638661 3.0070145219 2.8318438498
H 0.9030441977 1.6049249915 3.4790572255
H 2.9659692847 -0.9435267012 -2.5842368154
H 4.4295066693 -2.9379797559 -2.1943444763
H 4.6837912668 -3.8830521439 0.0607896339
H 3.4841095158 -2.8702631862 2.0118626702
H -0.0277367684 2.0754568414 0.5801125516
