27
CONF115
C -3.0366925112 -0.1303974750 -0.4925835113
C -4.3244189747 -0.3101706636 0.3036679830
O -4.6230522132 0.9242835734 0.9516874858
C -1.7883816366 -0.2843630875 0.3542261645
C -0.4855898351 0.0298737474 -0.4441487852
C 0.8506313337 -0.4002154144 0.2516653569
C 2.1163613355 0.3101001395 -0.3472513320
C 3.4569238386 -0.4265638678 -0.0098720932
C 4.7329831744 0.4557367130 -0.2124504024
F 4.8320600307 1.3860503106 0.7421119841
F 4.7007229077 1.0562103954 -1.4109987414
F 5.8159356288 -0.3319843116 -0.1538234677
F 3.5760221046 -1.5065663124 -0.8109567887
F 3.4421405451 -0.8294235564 1.2818352144
F 1.9982276057 0.3690184128 -1.6936428736
F 2.1810671181 1.5690986207 0.1437622539
F 0.7875375081 -0.1085080261 1.5683405952
F 0.9999635142 -1.7377810791 0.1028698311
F -0.5551515662 -0.6089729721 -1.6417236834
F -0.4520102463 1.3682583219 -0.6740373417
F -1.6892928725 -1.5774997651 0.8103502613
F -1.8197420305 0.5260304425 1.4440801724
H -2.9840396766 -0.8778839239 -1.2881334894
H -3.0361498017 0.8613339609 -0.9563941774
H -5.1247088128 -0.5847438016 -0.3997625709
H -4.2120952053 -1.1316419811 1.0263954666
H -5.3592516487 0.7800979971 1.5547865947
