47
CONF95
C -5.8383092973 -4.1656142102 1.0972380573
O -6.4634433901 -2.8520481452 1.1341117839
P -6.0160746105 -1.7285780474 0.0898073289
S -6.0815915614 -2.1273358442 -1.8033868650
O -6.9551183186 -0.5052464544 0.4943013236
C -7.0165609496 -0.0448762596 1.8800446365
O -4.5321831581 -1.3872243357 0.6825300408
C -3.6052227001 -0.6338313581 -0.0377518595
C -3.8570365896 0.6947291135 -0.3520747675
C -2.8777855152 1.4291339618 -1.0145637213
C -1.6697059940 0.8269983237 -1.3700642509
C -1.4382720130 -0.5154362973 -1.0562500101
C -2.4048790818 -1.2461838158 -0.3789335239
S -0.4850741913 1.7873928652 -2.3044191278
C 1.0621986411 1.4048130232 -1.4928338675
C 2.2003114399 1.2506431131 -2.2870785925
C 3.4403217210 1.0257786226 -1.6969255829
C 3.5227057918 0.9406517686 -0.3137425799
C 2.3986283666 1.0856820624 0.4902886438
C 1.1660336553 1.3281086769 -0.1010143084
O 4.7342153928 0.6506185129 0.3145653729
P 6.0075650681 1.6717656415 0.2527522277
S 5.5680220534 3.5549561254 0.3451818744
O 6.8257803223 1.2957571724 -1.0629622383
C 7.2190256170 -0.0873119328 -1.3233292116
O 6.9133994108 1.0311958243 1.4028619046
C 6.5146606515 1.1641317674 2.7959365183
H -6.0131940848 -4.6336335490 0.1249684358
H -6.3191586299 -4.7419065961 1.8868748392
H -4.7664304941 -4.0764823519 1.2929265042
H -7.5108463766 -0.7969774646 2.4980954259
H -6.0102375017 0.1604744899 2.2546612825
H -7.6028260562 0.8729527440 1.8544783083
H -4.7958692917 1.1587730121 -0.0689606995
H -3.0547072042 2.4740981251 -1.2465616198
H -0.5054326066 -0.9907391497 -1.3408357155
H -2.2433177380 -2.2890362026 -0.1278030035
H 2.1212381767 1.2979841482 -3.3682536288
H 4.3266630551 0.8999293212 -2.3097901247
H 2.4978145471 1.0236822611 1.5687298321
H 0.2878706920 1.4588996586 0.5223502092
H 7.6468127478 -0.0824506712 -2.3251786410
H 7.9643697104 -0.4052019202 -0.5916645364
H 6.3434124132 -0.7410133457 -1.2904409108
H 6.4557240375 2.2215147700 3.0670584933
H 5.5521553635 0.6720562496 2.9589211428
H 7.2943473686 0.6684067826 3.3731812342
