47
CONF120
C -8.0034665683 1.0356863215 1.4277511898
O -6.7990973775 0.7178544333 0.6718378869
P -5.9430558100 -0.5804054397 1.0371461922
S -5.5331699586 -0.8910753153 2.9113227239
O -6.7497162684 -1.7209026321 0.2612861008
C -6.3637472660 -3.1170471532 0.4102850077
O -4.6674847944 -0.3868532727 0.0539641925
C -3.5063273005 0.2717915850 0.4711141957
C -3.5212877718 1.6354135616 0.7302699740
C -2.3334489505 2.2677044432 1.0838099763
C -1.1502585826 1.5319481886 1.1876365290
C -1.1564358982 0.1585371825 0.9294660243
C -2.3380065788 -0.4730137198 0.5620674951
S 0.3213310483 2.3907075913 1.7341822400
C 1.6216564316 1.5452495590 0.8424814009
C 1.5738865681 1.4174175285 -0.5489585935
C 2.6187377920 0.8033177595 -1.2251510600
C 3.7133042210 0.3387177269 -0.5045288685
C 3.7827338767 0.4660078081 0.8761245975
C 2.7241653878 1.0674716364 1.5516960192
O 4.7192717133 -0.3107467421 -1.2175080749
P 6.2641418961 0.2177359618 -1.2356431038
S 6.4818005892 2.1437123413 -1.2539981076
O 6.8193514506 -0.6331226736 -2.4669905039
C 6.3857709570 -0.3198100162 -3.8217760564
O 6.9951302340 -0.4675471087 0.0029119832
C 6.8988468249 -1.9117499276 0.2168944977
H -8.3821844290 1.9612057321 0.9955549893
H -7.7539612356 1.1812311502 2.4815791673
H -8.7402811312 0.2362312728 1.3145929626
H -7.0607916818 -3.6802757244 -0.2092141740
H -5.3396559531 -3.2633421247 0.0560204381
H -6.4533460929 -3.4189102569 1.4566369477
H -4.4428149628 2.2003827811 0.6399700324
H -2.3304770487 3.3369244175 1.2698531061
H -0.2438351662 -0.4212989231 1.0162180819
H -2.3609678112 -1.5384909137 0.3592845766
H 0.7221397242 1.7970081658 -1.1037109236
H 2.6003854553 0.6948404326 -2.3043341983
H 4.6396664560 0.0856994057 1.4222241165
H 2.7571984898 1.1555927712 2.6324093628
H 5.3049003703 -0.4566116798 -3.9099230156
H 6.6654152484 0.7064986349 -4.0731849283
H 6.9094436728 -1.0240042199 -4.4671318565
H 7.3773037192 -2.0932318478 1.1783963544
H 5.8499254846 -2.2166076148 0.2532327721
H 7.4273099157 -2.4398408746 -0.5791216735
