44
CONF116
C -4.8615355976 -0.1666602716 1.9468546509
C -3.4010723665 -0.0909218994 1.5602844636
C -2.5338011238 -1.2566885072 2.0863887975
O -2.2591213401 -2.0489703080 0.9170988674
C -2.2311938461 -1.1168837145 -0.1487151937
O -3.2979215069 -0.2269272136 0.1159133397
C -2.5450944983 -1.8982126733 -1.4361639443
N -2.3274602706 -1.1014467902 -2.6273419338
C -1.2341268113 -1.0702400718 -3.4160857440
N -1.3617485938 -0.1278530979 -4.3418192750
C -2.5826472119 0.4069554186 -4.0557103988
N -3.2056591867 -0.1465472480 -3.0230848659
C -0.9019920870 -0.3563374375 -0.2290965342
C -0.9234589159 1.0347327878 -0.3784721653
C 0.2335468802 1.7898494902 -0.4857705272
C 1.4660000056 1.1452200283 -0.4535735180
C 1.5384421314 -0.2393808884 -0.3289962832
C 0.3574078532 -0.9641246791 -0.2229296183
Cl 0.5435685647 -2.7147296510 -0.1141760470
O 2.5809434289 1.9323621822 -0.6170034039
C 3.8028384289 1.4841357120 -0.1348848525
C 3.9586312083 1.1324860848 1.2029046872
C 5.2147583863 0.7621886610 1.6686134219
C 6.2894664191 0.7616498430 0.7852874210
C 6.1408772657 1.1217593512 -0.5481483557
C 4.8793351709 1.4833498765 -1.0121363417
Cl 7.8811033118 0.2948865715 1.3756989018
H -5.4348459536 0.6135763541 1.4383234657
H -4.9649117605 -0.0211650208 3.0265954702
H -5.2736453921 -1.1450590197 1.6804612011
H -2.9679145834 0.8732061099 1.8548601493
H -1.5963492729 -0.8957047864 2.5275664987
H -3.0616249421 -1.8912284199 2.8013319164
H -1.8905417289 -2.7700576942 -1.4923883380
H -3.5868821111 -2.2250045729 -1.3987573883
H -0.3979698040 -1.7452972612 -3.2832988987
H -3.0287220532 1.2146584340 -4.6224940932
H -1.8864091564 1.5314242490 -0.4029511878
H 0.1913298663 2.8678879832 -0.5940902499
H 2.4939119151 -0.7497692155 -0.3265292735
H 3.1082538211 1.1491402135 1.8765347458
H 5.3538537025 0.4875349182 2.7079535657
H 6.9909086541 1.1166153839 -1.2207038747
H 4.7314720736 1.7655909852 -2.0488716484
