52
CONF97
C -2.4068790612 0.6643360576 0.3725884412
C -3.0738442846 0.9503153826 -0.9445109446
C -3.0144154997 0.1127649404 -2.0719378352
C -3.6721666138 0.4341627644 -3.2665796244
C -4.3639958724 1.6392823070 -3.3602564614
C -4.4193947035 2.4923340574 -2.2658787805
C -3.7960648677 2.1411615894 -1.0772698690
C -3.7366346543 -0.4492936240 -4.4777062366
O -3.2414339230 -0.1652095805 -5.5462444096
O -4.5190345936 -1.5116502686 -4.2483647720
C -4.6358885223 -2.4445249905 -5.3544312465
S -2.0168148992 -1.3895930760 -2.0260722434
O -2.4905720137 -2.2982469724 -0.9727920727
O -1.8477147252 -1.8910933906 -3.3926900911
N -0.5041067086 -0.8724564553 -1.4599898813
C 0.1997417453 0.1462155271 -2.0648494376
O -0.1252839894 0.6801313887 -3.1134392326
N 1.3492432670 0.5532335921 -1.3871924474
C 1.8694177987 0.1622207060 -0.1662501530
N 1.2408634193 -0.7796969195 0.5312327427
C 1.8175683598 -1.1001802780 1.7173606337
N 2.9504157706 -0.5151929805 2.1772486965
C 3.4581733406 0.3962916992 1.3726997176
N 2.9919168002 0.8030547200 0.1884243632
O 4.5848801947 1.0540093555 1.7313319065
C 5.2250814717 0.7079303219 2.9607811761
C 6.3532279559 -0.2701216746 2.6896901428
F 5.9160290077 -1.4325000448 2.1569856685
F 6.9919561151 -0.5606689528 3.8462003945
F 7.2681217902 0.2373280017 1.8330036089
N 1.2217597813 -2.0477307010 2.4512971952
C 1.7485504266 -2.5014042430 3.7350459991
C -0.0087012985 -2.6780566139 1.9696212530
H -2.4222612526 -0.3959067509 0.6282454590
H -1.3619859332 0.9957719910 0.3625425328
H -2.9176264713 1.2195447765 1.1619004251
H -4.8680370994 1.8902041473 -4.2876279775
H -4.9623973387 3.4288423208 -2.3374594892
H -3.8579961329 2.8039016678 -0.2196240594
H -5.0767519991 -1.9466396114 -6.2208569551
H -5.2861208834 -3.2391438207 -4.9921202258
H -3.6481641535 -2.8361997933 -5.6089131647
H -0.1904859225 -1.1709341119 -0.5198936838
H 5.6611094002 1.6263785416 3.3599706502
H 4.5324897617 0.2652458321 3.6792121033
H 1.9215747724 -3.5823180312 3.6974528246
H 2.6858867623 -1.9941751934 3.9541538705
H 1.0253816945 -2.2881470232 4.5303148340
H -0.3382984034 -3.3951058570 2.7219670427
H -0.7986832624 -1.9349601261 1.8198366776
H 0.1612415568 -3.2067053528 1.0254873632
H 1.8630708765 1.2851952536 -1.8611547440
