21
CONF2
C -2.6878450822 2.0180816894 -0.1653741296
C -2.4880808399 0.6747587923 -0.8323074770
O -3.3750616873 0.1702271442 -1.4980486251
C -1.1754364657 -0.0244689273 -0.6573889978
C -0.9973338120 -1.2714767209 -1.2726447919
C 0.2056371899 -1.9388796583 -1.1270224967
C 1.2488021500 -1.3915514655 -0.3769042239
C 1.0710441189 -0.1500230681 0.2348388017
C -0.1414464555 0.5301465363 0.0929508141
O 2.0129700714 0.4850884571 0.9891812368
C 3.2674035212 -0.1674121717 1.1625520757
H -1.9464836860 2.7417302924 -0.5204844111
H -3.6899756264 2.3789896340 -0.3954122019
H -2.5677004474 1.9340718731 0.9199605351
H -1.8130668009 -1.6864772211 -1.8525193401
H 0.3499619802 -2.9048554663 -1.6006022044
H 2.1795413749 -1.9365189413 -0.2801685602
H -0.2411588025 1.4915612881 0.5832448603
H 3.1481995754 -1.1328608410 1.6713347881
H 3.8651158840 0.4984064367 1.7860991553
H 3.7749134485 -0.3185378524 0.2009048979
