47
CONF44
C -2.6078672919 -4.4771397940 -0.8313197054
C -2.9744121866 -3.0266667906 -0.4869301446
C -4.2228318192 -2.6322166666 -1.2865487690
C -1.7549894091 -2.1099129048 -0.7119934453
C -0.5385663243 -2.5158340898 0.1337814347
C 0.4370756729 -1.3516680805 -0.0212271270
C -0.4447807280 -0.0859222117 -0.1439622143
C -0.3004462330 0.8714629855 1.0539345625
C 1.0780992629 1.4752996615 1.1233991305
C 1.9890580742 1.0904204724 2.1098495733
C 3.2717343511 1.6318864271 2.1671325197
C 3.6382957784 2.5751219709 1.2175293711
Cl 5.2575230020 3.2742620455 1.2772207971
C 2.7589801705 2.9867122973 0.2224936009
C 1.4849539129 2.4302554198 0.1848903395
C -1.9064659769 -0.5958404082 -0.3679171247
O -2.6254588962 -0.4172379491 0.8608540556
C -2.5929192866 0.1989516880 -1.4969281765
N -2.6327156906 1.6318842593 -1.2274975535
C -3.4719226080 2.3043689805 -0.4159018356
N -3.1391601288 3.5903123766 -0.3683112158
C -2.0553602421 3.6464679578 -1.1910323183
N -1.7092916358 2.4861080875 -1.7362745612
H -3.4766322509 -5.1291407254 -0.6959077780
H -2.2896005015 -4.5531173496 -1.8784082496
H -1.8015053238 -4.8605742640 -0.2017970718
H -3.2226076369 -2.9975205817 0.5842030936
H -3.9819773661 -2.5046564530 -2.3487339670
H -4.9790485779 -3.4198114029 -1.2076340086
H -4.6926673490 -1.7107000557 -0.9297620988
H -1.4734664644 -2.1714827300 -1.7755859589
H -0.8537673895 -2.6231357194 1.1802574459
H -0.1009539234 -3.4655770384 -0.1818593952
H 1.0286310495 -1.4858606721 -0.9332400889
H 1.1422849727 -1.2812412494 0.8124233618
H -0.1491941260 0.4711088011 -1.0384803006
H -0.5095163068 0.3288169742 1.9804390030
H -1.0431657932 1.6731707494 0.9748488386
H 1.6946480557 0.3551459344 2.8534176636
H 3.9689615979 1.3252934763 2.9388072354
H 3.0614183370 3.7297136397 -0.5070616781
H 0.7918098000 2.7497964004 -0.5884220482
H -3.6231396277 -0.1313823449 -1.6390310504
H -2.0515395308 0.0568663646 -2.4353697769
H -4.2945244979 1.8280713334 0.0999555524
H -1.5117134516 4.5586776132 -1.4029084145
H -3.4972521319 -0.8216056091 0.7632848178
