82
CONF21
C -4.9030436291 2.2936262308 -2.9736372316
C -4.2951290894 2.0854866507 -1.6143185525
C -3.9168246987 3.1195643394 -0.8573448203
C -4.2350235876 0.6339279166 -1.1919534370
C -5.6414747966 0.1698057811 -0.6530672627
C -5.3723117564 -0.4332172198 0.7414095658
C -3.9291928029 -0.9481578544 0.6484231136
C -3.2603525508 0.2530714669 -0.0622809945
C -1.7969920879 -0.0283999913 -0.4005633907
C -1.1183530859 1.0734540802 -1.2171542920
C 0.3432937026 0.7470757252 -1.5446141782
C 1.1632370560 0.3306852407 -0.3120199920
C 2.7019394699 0.1702650008 -0.5990479514
C 3.2297262113 1.5336044782 -1.1022908129
C 4.7527485898 1.6356969433 -1.0910968662
C 5.3197349424 1.3682865971 0.2891920678
C 4.9309373141 -0.0239636829 0.8460133691
C 3.3735644100 -0.1211872012 0.7789122356
C 2.7992167168 -1.4001405616 1.3917799264
C 1.3055961508 -1.2427568839 1.6788500442
C 0.4664174288 -0.8452604355 0.4468764250
C -0.9811757413 -0.3425176788 0.8971869770
C -1.7004318896 -1.4118367330 1.7676364615
C -3.2090441810 -1.1793191491 1.9754831702
C -0.9011548852 0.9237187013 1.7834958013
C 0.3535357125 -2.1020563815 -0.4456857547
C 5.6653670755 -1.1519176089 0.1079685714
C 5.3686171624 -0.0719720320 2.3232457252
O 6.7440176272 1.5592579915 0.1899759485
C 3.0008997105 -0.8842257614 -1.6858776520
C -3.8939006500 -2.2251587524 -0.2155171286
O -4.5927872844 -3.3278165239 0.3869102063
H -5.0238783760 3.3534104753 -3.2115039230
H -4.2738282959 1.8290572473 -3.7437246869
H -5.8834076270 1.8047016784 -3.0375927748
H -4.0424884818 4.1389640346 -1.2122834102
H -3.4667833143 2.9932248220 0.1218230062
H -3.9923353986 0.0482828472 -2.0898018533
H -6.3402767719 1.0095943299 -0.6011703185
H -6.0833468537 -0.5751167677 -1.3219755284
H -5.4133804813 0.3491597887 1.5090026509
H -6.1097179408 -1.1939443401 1.0223685122
H -3.2963578908 1.0679333683 0.6711818538
H -1.7865709317 -0.9273177817 -1.0292610897
H -1.6718485712 1.2206593062 -2.1527792285
H -1.1796969123 2.0293577805 -0.6856188714
H 0.7951404307 1.6265982497 -2.0139492634
H 0.3622021001 -0.0440418184 -2.3023230770
H 1.1359427271 1.1813294348 0.3807088894
H 2.8172555836 2.3309763084 -0.4669928939
H 2.8720642552 1.7211746165 -2.1202079802
H 5.2030727040 0.9398943918 -1.8089374286
H 5.0549947199 2.6418475833 -1.4047333999
H 4.9046114055 2.1191849633 0.9844998755
H 3.0289639491 0.7045629453 1.4269167470
H 3.3010008429 -1.6328195315 2.3356614187
H 2.9819629033 -2.2585436817 0.7363448100
H 1.2062660109 -0.4853450521 2.4635946305
H 0.9131010402 -2.1789736606 2.0948906987
H -1.5644476888 -2.4104027721 1.3446767449
H -1.2167708980 -1.4385750588 2.7512194774
H -3.6340086212 -2.0417403003 2.5027199952
H -3.3793200318 -0.3048155656 2.6159223834
H -0.5492008761 1.8126770577 1.2596916631
H -0.2445140650 0.7622294023 2.6414196386
H -1.8854995824 1.1651609572 2.1907207816
H -0.3451800696 -2.8282396456 -0.0237814171
H 1.3170432029 -2.6070451651 -0.5207840255
H 0.0249014862 -1.8852243919 -1.4628979242
H 5.2871175008 -2.1269437092 0.4305782646
H 5.5616885984 -1.0930843106 -0.9762588816
H 6.7335200444 -1.1134453430 0.3421606743
H 4.8109297807 0.6543201282 2.9261950738
H 6.4379236235 0.1478769417 2.4218727921
H 5.2204811302 -1.0644549038 2.7567762679
H 7.1103473355 1.5753264858 1.0819121723
H 2.1929762686 -0.9161222683 -2.4208823270
H 3.9135010224 -0.6412974800 -2.2350060208
H 3.1262624679 -1.8926478260 -1.2893055226
H -4.2982100399 -2.0270427917 -1.2170838906
H -2.8699781015 -2.5815697071 -0.3433361653
H -5.5338822734 -3.1163738896 0.3924438218
