28
CONF93
O -0.5279593886 0.7598954254 -2.9634769935
C -1.3213443807 1.0267082631 -1.8042459487
C -1.7909006706 -0.3055585786 -1.2487331082
O -0.6805468062 -1.1894550638 -0.9385884524
C -0.3409388334 -1.0852893555 0.4231319595
C -1.4016817384 -0.1972733466 1.0957295834
C -2.5384529722 -0.1619483207 0.0700381222
O -3.4068465036 -1.2930185762 0.1854464876
N 1.0411857717 -0.5131995567 0.5500845157
C 1.7105373034 0.0288917904 -0.5097903762
C 2.9551128444 0.5524228900 -0.3941204653
C 3.6296572199 0.5450365661 0.8752444300
O 4.7536319346 0.9870365845 1.1114761381
N 2.8757145322 -0.0426970438 1.9035977483
C 1.6059261709 -0.5733801196 1.8173009896
O 1.0159203895 -1.0578226821 2.7767004177
H -0.2196742710 1.6053976616 -3.3114637553
H -0.7419621311 1.5829820982 -1.0510838932
H -2.2107424913 1.6211704320 -2.0590804864
H -2.3913835919 -0.8279853755 -1.9998123033
H -0.2902647862 -2.0882324873 0.8574575084
H -1.0059213090 0.8087180413 1.2648048439
H -1.7257419952 -0.6033681883 2.0550607572
H -3.1081248456 0.7753847592 0.1210197245
H -3.8209875543 -1.2577248540 1.0569728931
H 1.1753599967 0.0073611792 -1.4534838705
H 3.4599706757 0.9729293945 -1.2530019391
H 3.3004580280 -0.0769809226 2.8228154677
