25
CONF147
C 0.6975283038 0.6232159670 1.5136934850
C -0.4915827149 1.4732375395 1.9614696629
O -1.7281997243 0.7606255994 1.8768293894
N 0.4659610054 0.0203484588 0.2020211724
C 0.4429435617 0.9714959607 -0.9134065824
C -0.7120275631 0.6768134307 -1.8517419519
O -1.9342134542 0.8868667864 -1.1176694953
C 1.2915834830 -1.1631249916 -0.0535376589
C 0.6758235519 -2.3894129032 0.6128177703
O -0.6930763300 -2.5313775350 0.2152665100
H 1.6142898481 1.2439741645 1.5418640290
H 0.8323362493 -0.1881640215 2.2375066534
H -0.5490229159 2.4042779478 1.3783939148
H -0.3501430034 1.7538124167 3.0104457990
H -1.8552500697 0.5726122910 0.9302230024
H 0.3193432343 1.9888371504 -0.5265456915
H 1.3851976772 0.9641183152 -1.4851674261
H -0.6571437956 -0.3607675772 -2.2095357485
H -0.6667864634 1.3497256430 -2.7197833321
H -2.6660604082 0.5427407042 -1.6437343179
H 2.3368381776 -1.0326051284 0.2812394679
H 1.3106865360 -1.3384338017 -1.1353929673
H 1.2105185080 -3.2913144383 0.2971131549
H 0.7496550645 -2.3202015276 1.7087691979
H -1.0291989752 -1.6173008531 0.2034066652
