62
CONF11
C -2.5217199375 0.9251924438 1.3444366608
C -1.0975568353 1.2721980908 1.7903384423
C -0.2549338279 0.5863637338 0.7170058510
C 1.2641992851 0.5371662984 0.8537356023
C 1.8110840424 1.9642497653 0.9823921771
C 3.3297651233 2.0084233976 0.8993640621
F 3.7383008534 3.3582588033 0.9055431510
C 3.8063437223 1.3204160862 -0.3390967669
C 4.4770487791 1.9666883175 -1.3087717079
C 4.8949014947 1.2997795357 -2.5386695091
O 5.5009473472 1.9052531534 -3.4335675320
C 4.5691684380 -0.1226255758 -2.6578931915
C 3.8961875630 -0.7679364565 -1.6955393834
C 3.4134290127 -0.1341458156 -0.4305759904
C 4.0810072572 -0.9027543029 0.7457769244
C 1.8307150866 -0.1476804017 -0.4088845558
C 1.1916736205 -1.5105000046 -0.7210674467
O 1.7205809112 -2.4942456514 0.1802530160
C -0.3478595446 -1.4583378178 -0.6935357858
C -0.9077445638 -0.8050378835 0.5703628022
C -0.7051890940 -1.6915633928 1.8099702054
C -2.4255413555 -0.3851082559 0.4851785758
O -2.7493934639 0.0387188472 -0.8405810402
C -3.5123613659 1.2569338784 -0.7318281009
C -3.2491527313 2.0888254519 -1.9664198614
C -4.9923746304 0.9634796088 -0.5149391449
O -2.9571476794 1.9201859994 0.4026083089
C -3.3811349703 -1.4899855619 0.9344571270
O -3.7242782032 -1.6115808389 2.0947703886
C -3.8390684855 -2.4420767550 -0.1457805054
O -4.5639062624 -3.5107408019 0.4338434348
H -3.2376868113 0.8299988090 2.1666831757
H -0.9711153200 2.3569463680 1.8295229608
H -0.8899598562 0.8681506509 2.7863647929
H -0.4604014195 1.1166134801 -0.2270550302
H 1.5366579132 -0.0332485782 1.7496375580
H 1.4141610587 2.5770701865 0.1614239756
H 1.4940925981 2.4133490742 1.9284847068
H 3.7818783603 1.5518599586 1.7893097765
H 4.7302551864 3.0172211278 -1.2109066356
H 4.9087014781 -0.6328216269 -3.5549272892
H 3.6947127615 -1.8320580497 -1.7958692253
H 4.0105381812 -1.9768264179 0.5826237433
H 3.6068665769 -0.6755251537 1.7024925653
H 5.1357846574 -0.6169726464 0.8036290497
H 1.5366189874 0.4909466752 -1.2568813231
H 1.4727812055 -1.7838309168 -1.7496087276
H 1.2466447105 -3.3200813625 0.0193528958
H -0.7182421851 -2.4840869608 -0.8216862286
H -0.6746760148 -0.8843611313 -1.5672386587
H -1.2293056970 -1.3000901776 2.6844241902
H 0.3532370084 -1.7892997908 2.0475944232
H -1.0918782958 -2.6987737561 1.6196442242
H -2.1751897390 2.2601966826 -2.0729595071
H -3.6249703822 1.5695705227 -2.8515939982
H -3.7632534767 3.0492805010 -1.8799660701
H -5.3968187898 0.4068931072 -1.3648658213
H -5.1510372209 0.3822043489 0.3984049629
H -5.5384108972 1.9057770585 -0.4186666414
H -4.4414592311 -1.8692861163 -0.8660479963
H -2.9464645504 -2.7874250580 -0.6935114897
H -4.9080496999 -4.0492048723 -0.2886849641
