41
CONF48
C -3.4496562626 -1.1747005392 -0.2928903166
C -3.5301008460 0.0996973693 0.5542754137
C -4.3560094716 1.1706947064 -0.1518101808
N -2.2085007585 0.6673260166 0.8871089994
C -1.3351639065 -0.2316415450 1.6519810922
C -0.2795183509 0.5918051388 2.3893862325
O -0.9124244329 1.6076540172 3.1732482295
C 0.7151040505 1.2781591840 1.4562516597
O 1.3854599272 0.2596540660 0.7007879640
C 2.3356771014 0.6488268529 -0.1990317133
C 2.6953451919 1.9814032825 -0.4163984302
C 3.6786086375 2.2881207182 -1.3570844328
C 4.3056167760 1.2784872265 -2.0771943215
C 3.9398038264 -0.0481027759 -1.8482694404
C 2.9599940938 -0.3887152566 -0.9188083303
C 2.5481793181 -1.8283366239 -0.7170647249
C 1.2979922255 -2.1712410945 -1.4825371097
C 0.2204766255 -2.7549609930 -0.9622199167
H -4.4523080883 -1.5605430984 -0.5054400004
H -2.9551598663 -0.9605569823 -1.2485292630
H -2.8857219081 -1.9624830147 0.2161130128
H -4.0129785411 -0.1450125610 1.5112641533
H -4.4445197134 2.0682495276 0.4676626361
H -5.3603730338 0.7976006653 -0.3733720050
H -3.8833991662 1.4505395356 -1.1012455847
H -1.7491791487 0.9176526196 0.0142215887
H -1.9476902893 -0.7435628169 2.4046714651
H -0.8411709039 -1.0032553025 1.0441252522
H 0.2694318257 -0.0628252380 3.0769460966
H -1.6563641788 1.9018261244 2.6164571668
H 1.4376282955 1.8496261530 2.0530898741
H 0.1905035775 1.9706364796 0.7825044627
H 2.2208108272 2.7826887678 0.1366636975
H 3.9495910506 3.3271181307 -1.5182874718
H 5.0737132476 1.5153636919 -2.8061210654
H 4.4259214971 -0.8465611769 -2.4034118482
H 3.3661429000 -2.4646880602 -1.0786355156
H 2.4001607658 -2.0484084848 0.3449534370
H 1.3149413369 -1.9167810910 -2.5429371369
H 0.1758216818 -3.0198567886 0.0918677814
H -0.6466854257 -2.9902564334 -1.5722914124
