51
CONF73
C -2.6376530474 -0.4805889041 2.9588151773
N -2.0555018121 -1.5535312441 2.1449569254
C -1.2953061766 -2.4497667203 3.0340663745
C -0.7229326240 -3.6421821259 2.2819853685
C 0.1826881442 -3.1574596806 1.1563012994
C -0.5735512770 -2.1712241480 0.2709706855
C -1.1764936346 -1.0175917898 1.0791495063
C -1.9533204807 -0.0512898190 0.1753661684
C -1.1488344675 0.4741963447 -1.0183639042
N 0.1769194844 0.9616607790 -0.6211609859
C 0.2820749831 1.9634170917 0.3615290348
C -0.7462830195 2.8840879472 0.5949700824
C -0.6296583079 3.8320860714 1.6081057028
C 0.5261159811 3.9056813392 2.3799188663
C 1.5763710031 3.0257612462 2.1281443031
C 1.4465578399 2.0527190157 1.1420915884
S 2.7286593762 0.8437692052 0.8861503068
C 2.5693310285 0.6793785763 -0.8788689847
C 1.2861551019 0.7163179213 -1.4454698646
C 1.1462398970 0.5119179731 -2.8246781577
C 2.2636086914 0.2261400720 -3.6117390832
C 3.5395541731 0.1915035665 -3.0353932053
C 3.6843031027 0.4410173736 -1.6771117219
S 2.1749501419 -0.0817749810 -5.3606946569
C 0.3900350345 0.0053413099 -5.7251944933
H -3.3803406054 0.0897755627 2.3957248303
H -1.8720470103 0.2241275536 3.3396029011
H -3.1475289007 -0.9234984881 3.8199725370
H -1.9726000972 -2.7926176094 3.8250382094
H -0.4671216742 -1.8995017900 3.5291816418
H -0.1742408813 -4.2823692579 2.9823541651
H -1.5472830317 -4.2366434233 1.8666120520
H 0.5546353089 -3.9981207246 0.5595605863
H 1.0598452045 -2.6540662941 1.5872361765
H 0.1071348591 -1.7643181172 -0.4841267482
H -1.3849434302 -2.6884706234 -0.2606879117
H -0.3408424854 -0.4562480748 1.5494711266
H -2.3179782272 0.7935336798 0.7626208975
H -2.8363066243 -0.5649324259 -0.2266027038
H -0.9830722459 -0.3398361233 -1.7265373398
H -1.7312970423 1.2408354800 -1.5512118684
H -1.6429147552 2.8601760687 -0.0133889189
H -1.4473961547 4.5240621753 1.7825444990
H 0.6188979684 4.6474769739 3.1660322693
H 2.4913339469 3.0775871343 2.7103099008
H 0.1643090444 0.5891461378 -3.2713901130
H 4.4134580247 -0.0223180934 -3.6424423541
H 4.6717932763 0.4198694273 -1.2264389892
H 0.2999623540 -0.2101464747 -6.7923509938
H -0.1635814985 -0.7474959780 -5.1582914208
H -0.0059056966 1.0044068949 -5.5266383663
