47
CONF77
C -2.8923310731 -2.4685624683 0.0277037312
C -3.0427252501 -0.9641816470 0.0326829667
C -3.9601870810 -0.2958762357 1.0299597245
C -2.4472453167 -0.2395679620 1.2428252750
C -1.7657394659 1.0512956651 1.0735456946
O -2.2008982185 2.0488308969 0.5404590320
O -0.4990740064 0.9801277946 1.5920944601
C 0.3189429219 2.1552279790 1.3435864742
C 1.3696495271 2.1185108660 2.3604114327
N 2.2252197478 2.1100882938 3.1356617665
C 0.8997818412 2.1353301157 -0.0521383013
C 1.6892645911 1.0531047453 -0.4423914662
C 2.2076338930 1.0058976408 -1.7301364117
C 1.9127410748 2.0526484142 -2.6085948109
C 1.1284583358 3.1253740754 -2.2339211974
C 0.6183517452 3.1700659158 -0.9391855245
F 2.4140024829 1.9966922219 -3.8592585891
O 2.9516299467 -0.0312628454 -2.2230647005
C 3.7629719942 -0.7446318806 -1.3426964112
C 4.6423419012 -0.0904314483 -0.4853289376
C 5.4811070706 -0.8526271475 0.3219669637
C 5.4464327300 -2.2452581084 0.2632628180
C 4.5659488527 -2.8791702166 -0.6099086441
C 3.7132609376 -2.1302375511 -1.4179554797
C -4.7732625630 -1.0537534209 1.9832811084
C -6.0122193684 -0.7355568385 2.3598891703
Cl -6.8859776050 0.6536796133 1.7751679596
Cl -6.9133072988 -1.6990135670 3.5023528281
C -2.9410707648 -0.3416893249 -1.3411709502
H -1.9546835687 -2.7412307770 -0.4674803817
H -3.7167188789 -2.9214762862 -0.5340464704
H -2.8801503309 -2.8981857910 1.0312594375
H -4.3825595609 0.6426627332 0.6844611987
H -2.0237819896 -0.8865120342 2.0036028183
H -0.2791961943 3.0613421320 1.4911866721
H 1.9007805209 0.2443022503 0.2499510052
H 0.9268063565 3.9130156503 -2.9516721733
H -0.0034145777 4.0027191450 -0.6295101721
H 4.6694262973 0.9939339205 -0.4523596413
H 6.1713635847 -0.3522316162 0.9937165194
H 6.1055252074 -2.8325307459 0.8939108835
H 4.5348170096 -3.9627958510 -0.6626382784
H 3.0176926733 -2.6050373527 -2.1017972231
H -4.3488030220 -1.9466630544 2.4322201447
H -3.6957708806 -0.7911809296 -1.9949986580
H -1.9546441528 -0.5424274073 -1.7745322022
H -3.1003897526 0.7372425182 -1.3207433685
