42
CONF10
C -2.8007700117 -2.2584735167 -1.1260458560
C -2.3863313611 -1.0078999422 -0.4304240161
C -3.1891321231 0.0174166100 -0.0223326994
C -2.3649650422 1.0512004946 0.5989456330
C -1.0088457828 0.6405474955 0.5493742168
C -0.9835304150 -0.6684176958 -0.1327911022
C 0.0444151247 -1.4926399727 -0.4533880244
C 1.4798335536 -1.2437379520 -0.3880514455
C 2.3407971971 -2.2890245758 -0.0143173984
C 3.7162022630 -2.1000396899 0.0343475928
C 4.2375535900 -0.8627088966 -0.3206766873
C 3.4153613452 0.1743808694 -0.7558847079
C 2.0417720958 -0.0169109128 -0.7798502807
S 6.0433768429 -0.6302760033 -0.3100954194
O 6.6655205065 -1.9985549139 -0.0315617846
C 6.1192409201 0.2984965804 1.2741680066
C -0.0383204846 1.3950761063 1.1965296483
C -0.3983980247 2.5850258902 1.8367657070
C -1.7273687101 2.9752592527 1.8192804356
C -2.7393109475 2.2358109880 1.2221596815
F -2.0647954752 4.1394132243 2.4352861821
C -4.6766572383 0.1215347613 -0.1873767089
C -4.9949141984 0.7301835413 -1.5362016703
O -5.3734453271 0.1121991532 -2.5083226437
O -4.7669141533 2.0602521659 -1.5484181840
H -3.8873729309 -2.3396847255 -1.1886326318
H -2.4053394483 -2.2889347214 -2.1482642515
H -2.4206098399 -3.1459513021 -0.6072178250
H -0.2232150148 -2.4840769154 -0.8162214510
H 1.9204815147 -3.2543422516 0.2525237927
H 4.3838243155 -2.9020908281 0.3325526138
H 3.8406265702 1.1196438884 -1.0819326841
H 1.3955164668 0.7767742061 -1.1392645915
H 5.5641683507 1.2335644687 1.1602758479
H 5.6860114381 -0.3272145418 2.0587844432
H 7.1752413280 0.5025648480 1.4670375854
H 0.9983511333 1.0817977551 1.2224731641
H 0.3388359375 3.1987153560 2.3419310271
H -3.7671269036 2.5789346126 1.2663695563
H -5.1007283111 0.7523258693 0.6002660307
H -5.1503344099 -0.8600721157 -0.1464048497
H -4.9387046366 2.3899338122 -2.4473425801
