50
CONF94
C 1.8304128022 -1.3890218397 0.0684312157
C 3.3809169653 -1.4529483941 0.1849051303
C 3.9960532575 -0.2297963448 -0.4098764193
C 5.2131065447 0.0816015230 -0.9664345003
N 5.2307422711 1.4326409305 -1.3014111757
C 4.0234137672 2.0047289252 -0.9704210076
C 3.5023369840 3.2955937194 -1.0707043954
C 2.1984812217 3.4843735938 -0.6073125248
C 1.4189738335 2.4439619404 -0.0666769626
C 1.9407132048 1.1532088180 0.0447047960
C 3.2446217649 0.9685514105 -0.4172914567
C 1.2624314736 -0.0495715602 0.5487502316
C 0.2047410613 0.0172032731 1.3726480182
C -0.5933903113 -1.1779273635 1.7799277268
C -0.2247526205 -2.3683404465 0.8884837203
N 1.2302529939 -2.5103653199 0.8097396097
C 1.5543223350 -3.8002360165 0.1891335542
C -2.1091637638 -0.9717662755 1.6897699065
O -2.8847009635 -1.6098916391 2.4078457429
N -2.5208630035 -0.0901969812 0.7528562199
C -3.9231969729 0.1739668286 0.4450644263
C -4.0910393033 1.6156746021 -0.0292241461
C -3.7653921558 2.6470926338 1.0485855091
C -4.4087389727 -0.8468491390 -0.5955961701
O -5.8112940948 -0.7421378707 -0.8499361179
H 1.5849061171 -1.4673339715 -1.0139103378
H 3.6333574000 -1.5358887535 1.2515046607
H 3.7509624903 -2.3547643754 -0.3080912891
H 6.0826859244 -0.5330263876 -1.1543308903
H 6.0090471812 1.9062224350 -1.7298942156
H 4.0710052945 4.1188602483 -1.4908280453
H 1.7601346827 4.4749952580 -0.6819721467
H 0.3989095128 2.6550544424 0.2406851316
H -0.1149635950 0.9870407917 1.7501668136
H -0.3971158337 -1.4405527836 2.8276901480
H -0.6730822830 -2.2262061901 -0.1163676572
H -0.6455720428 -3.2855385943 1.3117057209
H 1.0395139983 -4.5963543216 0.7346469835
H 2.6258974007 -4.0031076580 0.2428157371
H 1.2417482780 -3.8481175593 -0.8710622287
H -1.8170293939 0.3524857746 0.1759775550
H -4.4922228818 0.0198496435 1.3716455589
H -3.4542265100 1.7708828934 -0.9116546744
H -5.1262406283 1.7358047338 -0.3645672713
H -4.4122916318 2.5125723566 1.9221855510
H -3.9123579192 3.6636720328 0.6720680647
H -2.7265596001 2.5598543926 1.3834542598
H -4.1426368535 -1.8583934585 -0.2575240552
H -3.9067639549 -0.6598791235 -1.5520743472
H -6.2760929675 -1.0276813573 -0.0532291709
