34
CONF174
C -4.4826975763 -0.6867131166 0.2274606747
C -3.4577453650 -1.6826243011 0.7162565555
O -2.0882704321 -1.1692628071 0.5516765100
P -1.3904050325 -1.0746047220 -0.8797372885
S -1.7095906001 -2.5024239007 -2.1437201686
O -1.6510447079 0.3670624853 -1.4921379989
C -1.4883084142 1.5974053344 -0.6853810977
C -2.4080263369 2.6403466697 -1.2659231855
O 0.1812766489 -0.8412688123 -0.3817006278
N 0.7184133494 -1.9667614324 0.2444941761
C 1.9417007943 -1.7682764204 0.6190340681
C 2.5103741569 -2.9467608325 1.2115557087
N 2.9989669554 -3.8693282204 1.7094835292
C 2.8015734304 -0.5774610246 0.5146192393
C 4.1655762020 -0.7595239448 0.2451693639
C 5.0060832201 0.3405549647 0.1365542235
C 4.5006912950 1.6251689259 0.3238741752
C 3.1510878555 1.8073774223 0.6213773277
C 2.2973344923 0.7159777052 0.7127619425
H -4.4116787915 -0.5382785077 -0.8544459150
H -5.4825830889 -1.0706390347 0.4529045783
H -4.3598508320 0.2771076016 0.7296504113
H -3.5376890585 -1.8553801863 1.7908555344
H -3.5270070820 -2.6395522159 0.1901037827
H -0.4364485594 1.8877103218 -0.7578925999
H -1.7343620389 1.3724448787 0.3563664974
H -2.2799968326 3.5730863424 -0.7082401613
H -3.4524239886 2.3272085416 -1.1852854747
H -2.1694551707 2.8292860970 -2.3159572258
H 4.5632159003 -1.7601469011 0.1055705515
H 6.0572620702 0.1934180903 -0.0877660938
H 5.1597506787 2.4839312998 0.2469859883
H 2.7595948827 2.8058377353 0.7861166752
H 1.2546817855 0.8650826739 0.9612279201
