53
CONF136
C 2.2623036570 -2.0920092597 0.0343794637
N 2.3331278775 -1.2418698705 -1.1578427682
C 3.3833463901 -1.7815922238 -2.0420667198
C 3.5619809369 -0.9451285025 -3.3005434597
C 2.2451878732 -0.8723352961 -4.0661126501
C 1.1515373005 -0.3503148833 -3.1395721345
C 1.0342580278 -1.1924976573 -1.8630132424
C -0.0967635669 -0.6758820731 -0.9568772453
C 0.2241549016 0.6570714370 -0.2599252565
N -0.9327195652 1.3395105251 0.3473126138
C -1.7559617321 2.1242097261 -0.4861393959
C -1.6430908006 2.0805884100 -1.8838297572
C -2.4486098258 2.8723348850 -2.6986047603
C -3.4100159255 3.7104071537 -2.1490144366
C -3.5408777560 3.7657038067 -0.7639691473
C -2.7086096252 3.0075223109 0.0531190170
S -2.7825987774 3.2855420778 1.8060333372
C -2.2744207047 1.6899875441 2.3740604860
C -1.3613438438 0.9264500127 1.6138912443
C -0.8691901538 -0.2451488013 2.2045289816
C -1.2849861608 -0.6190280304 3.4772724375
C -2.2097964393 0.1105782807 4.2089999339
C -2.7104526577 1.2710271072 3.6283432039
S -0.5764101729 -2.1095504810 4.1848668290
O -1.5316011296 -2.6487908153 5.1805487456
O -0.1379197830 -2.9879650857 3.0736861668
C 0.8915741362 -1.5315741430 5.0572185783
H 3.2647044758 -2.1946919000 0.4615292885
H 1.8785065004 -3.1053181305 -0.1906899502
H 1.6249502613 -1.6501347649 0.8040902864
H 4.3184952395 -1.8134575779 -1.4707727540
H 3.1423033882 -2.8252895609 -2.3337413078
H 4.3522372424 -1.3894109728 -3.9163338259
H 3.8883721681 0.0660188890 -3.0238840956
H 2.3378903893 -0.2291187234 -4.9483007100
H 1.9754698249 -1.8764903256 -4.4215781800
H 0.1800112286 -0.3586658805 -3.6477257194
H 1.3784149192 0.6907999886 -2.8760582478
H 0.7480076252 -2.2212423716 -2.1717759125
H -0.3563646646 -1.4404028906 -0.2193884910
H -0.9896832211 -0.5616576947 -1.5799519635
H 0.6722600431 1.3620202211 -0.9643205310
H 0.9669178775 0.5145184760 0.5301364464
H -0.9212867937 1.4311394693 -2.3574980711
H -2.3195451992 2.8152553745 -3.7746222176
H -4.0475932663 4.3192851659 -2.7805999343
H -4.2723868442 4.4252409705 -0.3068174608
H -0.1639994963 -0.8799758621 1.6905867523
H -2.5326228766 -0.2069124796 5.1932103779
H -3.4284588682 1.8799832601 4.1686209700
H 0.5768114627 -0.8220673563 5.8254599294
H 1.3568068215 -2.4149318304 5.5036116603
H 1.5576794093 -1.0617398486 4.3300638926
