57
CONF132
C -0.2280892811 1.7978703537 -1.6830996518
C -0.8414126534 0.5153855963 -1.1472351998
C -2.3607288722 0.4414867804 -1.4248452776
C -3.1452356691 1.6445166050 -0.9750455157
C -3.4475012605 2.6746002979 -1.8709048621
C -4.1544260996 3.7993434348 -1.4531711923
C -4.5731720842 3.9090485107 -0.1290401691
C -4.2860451338 2.8841137057 0.7704614120
C -3.5800416888 1.7606183013 0.3492120359
C -0.1883329271 -0.7589455644 -1.6604071489
C 0.5971123501 -0.7658143518 -2.8137351798
C 1.1575186262 -1.9534555348 -3.2818046796
C 0.9412433723 -3.1479633778 -2.6022828055
C 0.1516813830 -3.1493775600 -1.4536150777
C -0.4123306500 -1.9662489949 -0.9902007467
O -0.7560289627 0.5058852064 0.3393512761
P 0.4916859536 0.9370627752 1.2111499355
O 0.7438025484 2.3697175776 1.4696381544
O 1.6953141460 0.1433208103 0.4822672146
C 3.0465272267 0.4613133459 0.6207393652
C 3.6011198798 0.8245294663 1.8425794350
C 4.9696437356 1.0787840569 1.9045504557
C 5.7652315443 0.9623573676 0.7673607185
C 5.1882806224 0.5887677328 -0.4449587043
C 3.8219510694 0.3375476236 -0.5257202607
O 0.2026237342 0.1648767976 2.5967699595
C -0.1249696365 -1.2017919495 2.5980509462
C 0.8894479632 -2.1478357100 2.5561770451
C 0.5441029180 -3.4973615764 2.5772755456
C -0.7932896115 -3.8812647965 2.6421850182
C -1.7936921246 -2.9121397735 2.6975501958
C -1.4636386852 -1.5598653502 2.6761232171
H -0.6489084840 2.6555910909 -1.1550883079
H -0.4641300330 1.9063729712 -2.7449167740
H 0.8594797814 1.8019461594 -1.5671738509
H -2.7383975740 -0.4637512322 -0.9378143303
H -2.4686032415 0.3024996897 -2.5056851179
H -3.1261069091 2.5924017463 -2.9058964045
H -4.3818330612 4.5886333589 -2.1633767358
H -5.1260279042 4.7840712877 0.1983738708
H -4.6168550906 2.9573853414 1.8021208632
H -3.3632434946 0.9620676065 1.0522443825
H 0.7873762348 0.1535499624 -3.3558044869
H 1.7702581444 -1.9388571851 -4.1779732264
H 1.3837218541 -4.0710194797 -2.9634679401
H -0.0238620404 -4.0744211712 -0.9126629633
H -1.0125942410 -1.9793262529 -0.0857870962
H 2.9830551037 0.9076128683 2.7302423781
H 5.4120715099 1.3657560436 2.8531166168
H 6.8303114285 1.1603273008 0.8259455911
H 5.8010598721 0.4940968721 -1.3357284954
H 3.3507280650 0.0455046192 -1.4586686640
H 1.9258908159 -1.8318024372 2.5046989197
H 1.3266525727 -4.2483821876 2.5403973121
H -1.0560260802 -4.9339438988 2.6551137859
H -2.8367379750 -3.2067065551 2.7540824919
H -2.2256320982 -0.7886890070 2.7083326217
