61
CONF1
C -2.1780726176 0.0963280366 5.1762498736
C -2.0211042977 -0.0833300755 3.6681951771
C -2.6060381975 1.0876580147 2.8779551668
C -2.4104440539 0.9627420436 1.3718408192
C -3.1565966818 -0.2090924537 0.7198364136
C -3.2008939804 0.1788561587 -0.7770809714
N -2.9855512766 1.6368639958 -0.8104190681
C -2.9671320799 2.1359801725 0.5691990802
C -3.8687506285 2.3623999905 -1.7087337873
C -2.1140219530 -0.5913343448 -1.5280152070
O -2.1940572107 -1.8232260948 -1.6575408538
N -1.0814936989 0.1439963529 -1.9603472818
C 0.1438713060 -0.4182084748 -2.4925188948
C 1.1609492758 -0.7400585864 -1.3723007279
C 1.1439060916 -2.1688218933 -0.8251960517
C 2.2722933538 -2.2977508196 0.2088468975
C 2.1589585076 -1.1920919065 1.2720427470
C 1.9963301703 0.2016528558 0.6396879480
O 0.9551854790 0.2118174105 -0.3164577169
S 3.5826423964 0.9074482001 -0.0404250170
C 3.1695134699 2.6808250098 0.1978814444
O 1.0588353449 -1.4364479904 2.1369417021
O 3.4951824577 -2.1984529989 -0.5235475798
O -0.0521853452 -2.5340478652 -0.1553676002
C 0.7303507213 0.5673271001 -3.5244535012
C 1.8511324244 -0.0377894635 -4.3606340265
O 1.1365908308 1.7871396629 -2.8977730232
H -1.7534684596 -0.7496340224 5.7246394350
H -1.6697220408 1.0048182823 5.5175816429
H -3.2338795047 0.1822518936 5.4563337189
H -0.9594895014 -0.1976486289 3.4155878367
H -2.5129504410 -1.0145206947 3.3592242871
H -2.1399917072 2.0212141055 3.2238740891
H -3.6805281410 1.1789163369 3.0964273527
H -1.3374514281 0.8631595270 1.1501848009
H -2.6897466295 -1.1838785176 0.8751025701
H -4.1773031707 -0.2555380264 1.1193253539
H -2.3542843421 3.0429423972 0.6426288710
H -3.9853889498 2.3822380374 0.9324661691
H -3.7703395157 1.9733232352 -2.7279709299
H -3.5880841356 3.4209155796 -1.7273592595
H -4.9325934353 2.2940662864 -1.4118428209
H -1.0939334026 1.1206061376 -1.6791419783
H -0.1156882142 -1.3513695518 -3.0086014464
H 2.1750158474 -0.6013120731 -1.7763098351
H 1.3634903176 -2.8558527363 -1.6598475979
H 2.1778441220 -3.2722984382 0.7094124309
H 3.0605347572 -1.1884489413 1.8991660226
H 1.6746932424 0.8839333920 1.4331042598
H 3.9439364406 3.2654068876 -0.3040361454
H 2.2011175023 2.9137512822 -0.2541868422
H 3.1581972864 2.9397760675 1.2598725708
H 0.3222235056 -1.7262492976 1.5688351105
H 4.2292286117 -2.2494592348 0.0988770601
H -0.8200069390 -2.4204647131 -0.7612995728
H -0.0918161095 0.8569475306 -4.1904853002
H 1.5083614034 -0.9372832212 -4.8827161276
H 2.1805839358 0.6923426297 -5.1037995725
H 2.7185127637 -0.3074716564 -3.7487328902
H -4.1609867227 -0.1166404189 -1.2254442839
H 1.8564919779 1.5759371744 -2.2841268681
