111
CONF28
C 0.7704099610 -5.7830513893 1.5411523544
C 0.2214180115 -4.3771769107 1.2603630006
C 1.2274305196 -3.2665435418 1.4004851871
C 1.1115174118 -2.3063626367 2.3332676137
C 2.1627072555 -1.2346900675 2.3070315654
C 2.2028016083 0.0021490047 3.1958985831
C 2.5126882827 1.2228722051 2.2361060223
C 3.8087985250 0.9634102987 1.4363312785
C 4.1292337632 0.0609665353 0.4116491142
C 3.3914646270 -1.1137357809 -0.1680261947
N 3.5314442191 -2.3462135601 0.6867157645
C 3.5079756650 -1.9547870254 2.0949643202
C 2.4412685630 -3.3269414111 0.4666338113
C 5.5051634525 0.2952554158 0.0812748057
C 6.3961162531 -0.2980415029 -0.8247415595
C 7.6949819552 0.1791456113 -0.8966463341
C 8.1327462742 1.2349053458 -0.0762016815
C 7.2790728091 1.8315119543 0.8394829715
C 5.9742438927 1.3452885054 0.9060737263
N 4.9317828819 1.7143370595 1.7103684945
C 1.3506562317 1.4947834240 1.2727969844
C 1.4818483582 2.5476963128 0.3446625151
C 0.4612434435 2.8960717542 -0.5441951106
C -0.7424436506 2.1976458074 -0.4642808777
C -0.9156952719 1.1918818730 0.4828493778
C 0.1182247057 0.8396855368 1.3291670588
C -2.3160169821 0.6425215499 0.4041716527
C -3.0339319687 0.5113998082 1.7835665029
C -3.3632387229 -0.9744301029 1.9292688170
N -3.5110486150 -1.4200229520 0.5410955302
C -2.3573906576 -0.8113128816 -0.1553119279
C -2.4562662755 -0.9933541481 -1.6806715103
C -2.8952775174 -2.4132031896 -1.9584786296
C -3.3513936342 -3.2578656406 -1.0389869378
C -3.5582125877 -2.8685833132 0.3890248678
C -3.4440690074 0.0285124603 -2.3611283406
C -4.0855203368 1.0508911676 -1.4149515807
C -2.9992956782 1.6975861215 -0.5229379426
N -1.8857310331 2.3505171942 -1.2498073273
C -2.1370868142 3.6574994245 -1.8386030673
C -4.8097883893 2.1132464566 -2.2622564265
O -4.7932885202 2.1885587123 -3.4695554373
O -5.4599432652 2.9832095117 -1.4682400087
C -6.1894999431 4.0125878546 -2.1674913239
O -5.0956180908 0.5029325610 -0.5859382567
O -4.5557228539 -0.6297337569 -3.0087547242
C -4.3954709859 -0.9652692640 -4.3093622306
O -3.3498169904 -0.8841333781 -4.9121235470
C -5.6973857506 -1.4499168344 -4.8795572249
C -1.0657512144 -0.7958967384 -2.3512237717
C 0.0222080821 -1.7695356993 -1.9110736232
O 2.6489943068 3.2457971670 0.4314338346
C 2.9763822972 4.1626450481 -0.6077097116
C 2.6289690933 2.4136336808 3.2081351819
O 3.6311740359 2.8100238268 3.7694228243
O 1.4126541676 2.9182776282 3.4798671809
C 1.3950154282 3.9684062250 4.4699821373
H -0.0382336399 -6.5201126445 1.5259906055
H 1.5076328279 -6.0908629363 0.7948325051
H 1.2486489290 -5.8199741638 2.5251513107
H -0.6084785116 -4.1736751274 1.9480914207
H -0.2030103331 -4.3546690755 0.2447372585
H 0.2803719367 -2.3004705808 3.0387510666
H 1.9568855627 -0.7758322591 1.3446608345
H 2.9970425927 -0.0531550662 3.9486497296
H 1.2630124806 0.1945789438 3.7255194517
H 2.3375260897 -0.8546359803 -0.3576847006
H 3.8186268117 -1.3514543436 -1.1494994461
H 4.3691881720 -1.3244823465 2.3219388631
H 3.5687367906 -2.8542554685 2.7186129554
H 2.1075575490 -3.2634315094 -0.5786504357
H 2.8750804234 -4.3327757478 0.5757013903
H 6.0802256918 -1.1238794194 -1.4544045598
H 8.3932356767 -0.2723502129 -1.5940843080
H 9.1572025723 1.5834231630 -0.1569794038
H 7.6159631772 2.6389603605 1.4822650764
H 4.9490431787 2.4010382996 2.4495145749
H 0.5945749647 3.7127673165 -1.2402684934
H -0.0484057428 0.0475414626 2.0505444616
H -2.3985905435 0.8753674792 2.5943814244
H -3.9527163417 1.1027767547 1.7776132352
H -4.2777684145 -1.1645715563 2.5016125669
H -2.5311648170 -1.5170088739 2.4190902589
H -1.4370673176 -1.3153268501 0.1906867545
H -2.7717436752 -2.7484761749 -2.9860806951
H -3.5918870896 -4.2832324370 -1.3073596122
H -2.7857877583 -3.3572190397 1.0200964583
H -4.5306390811 -3.2341123341 0.7465397143
H -2.8908878666 0.5813006208 -3.1245286544
H -3.5100649070 2.4412455912 0.1103974879
H -2.9335790387 3.5969516742 -2.5817462619
H -2.4062511154 4.4118287740 -1.0789797749
H -1.2428923686 3.9960788012 -2.3675232661
H -5.5096310169 4.6181759194 -2.7737797168
H -6.6565702095 4.6162636328 -1.3898534278
H -6.9453599375 3.5654409543 -2.8178983989
H -4.7251005935 -0.3300463590 -0.1912898432
H -5.5347620902 -1.8460257347 -5.8808615549
H -6.3991601655 -0.6113509441 -4.9192575809
H -6.1338541585 -2.2116446699 -4.2283260206
H -0.7349918173 0.2320532243 -2.1765102650
H -1.2298585184 -0.8941338166 -3.4301411525
H 0.9327257539 -1.5948231725 -2.4929273259
H -0.2808289469 -2.8105603967 -2.0653681919
H 0.2821328720 -1.6483801450 -0.8552503419
H 3.9966977376 4.4893698418 -0.4020239611
H 2.3060505953 5.0321505648 -0.6021622060
H 2.9411253430 3.6720069301 -1.5880546847
H 2.0019059814 4.8131813509 4.1350800270
H 0.3483464878 4.2567500405 4.5626942889
H 1.7840150969 3.6014966845 5.4233539778
