41
CONF31
C 4.5907109565 1.1508215077 -3.3481958617
C 3.3882535478 1.2395761740 -2.4710606617
N 2.2269217660 0.7983284723 -2.9608069485
C 1.1793455986 0.9465852255 -2.1307309364
N 1.2191898353 1.4835464231 -0.9131120854
C 2.4407703534 1.8746544418 -0.5279897327
N 3.5548373579 1.7828386090 -1.2513539893
O 2.4735391768 2.3890914754 0.6953909440
C 3.7573151473 2.8352041127 1.2026082040
N -0.0204080995 0.4808754080 -2.6258497988
C -1.2926155298 0.4107859877 -2.0516080109
O -2.2032362629 -0.1428880480 -2.6464954576
N -1.4226531525 1.0135708133 -0.8191613071
S -2.8186172950 0.8063802210 0.1331825258
O -3.9732586486 1.2940530311 -0.6215291803
O -2.4591814266 1.4236665542 1.4158189409
C -3.0100537619 -0.9642464258 0.3767555950
C -4.0205092434 -1.6047741341 -0.3298978651
C -4.2741070530 -2.9511107730 -0.0851067353
C -3.5370784210 -3.6342808285 0.8757822564
C -2.5375655180 -2.9805318437 1.5907259289
C -2.2494484908 -1.6389649802 1.3405832877
C -1.0830803041 -1.0190491304 2.0428277576
O -0.1314326966 -0.5295534934 1.4696700565
O -1.1964658783 -1.1387856458 3.3684640936
C -0.0760806894 -0.6206743590 4.1368624996
H 4.4766787298 0.3540127983 -4.0840225958
H 5.4917844644 1.0026578212 -2.7507995455
H 4.7003634708 2.0997006677 -3.8878471761
H 4.1563067141 3.6326982790 0.5723799405
H 4.4590380914 1.9995024220 1.2405998945
H 3.5439045980 3.2055598362 2.2042091473
H 0.0280496921 0.0631699131 -3.5467670086
H -0.5577985828 1.2765235861 -0.3241636276
H -4.6065831474 -1.0514404873 -1.0533844285
H -5.0571197604 -3.4570402585 -0.6393180976
H -3.7408612204 -4.6807618605 1.0763497190
H -1.9612174226 -3.5135341144 2.3392302415
H 0.8355517282 -1.1627898445 3.8764121844
H -0.3435847175 -0.7874685675 5.1788069599
H 0.0503955861 0.4447313214 3.9325409419
