57
CONF156
C -4.6006735084 -2.9741773890 -1.6588247352
C -3.2455500103 -2.7952614731 -0.9885061678
C -2.7379948800 -1.3597447543 -1.0738951786
O -3.3628210158 -0.5076186679 -1.7126237171
N -1.5726705250 -1.0799491593 -0.4079262316
C -0.8969035397 -2.1352216797 0.2959123070
C -0.0161540239 -2.9704662050 -0.3906420475
C 0.6439666068 -3.9913461040 0.2872105074
C 0.4283168497 -4.1773313871 1.6514618812
C -0.4512176708 -3.3402082996 2.3355344457
C -1.1142855218 -2.3191809559 1.6603707559
C -0.9946558407 0.3153308545 -0.3854985714
C 0.3222759159 0.3143441510 0.4114810189
C 1.0818611885 1.6293529738 0.2782044562
N 1.4079296986 1.9080917245 -1.1263870155
C 0.1634503637 2.0409557570 -1.8923606676
C -0.6649631339 0.7602253448 -1.8252393567
C 2.2594036048 3.0971655540 -1.2636235629
C 3.7614208932 2.7596722761 -1.3301907952
C 4.3021173427 2.0788925742 -0.1169870088
C 4.5538293929 0.7449627258 0.0720259307
C 4.9705658330 0.4212316888 1.3939660337
C 5.0396609569 1.5124786100 2.2145075923
S 4.5953205160 2.9604933358 1.3639507832
C -2.0069836450 1.2694270821 0.2600257471
O -2.2905153121 0.8356956545 1.5881366513
C -3.2289831111 1.6982791692 2.2235658715
H -4.5545104851 -2.7148420234 -2.7195636319
H -5.3592595860 -2.3405849536 -1.1912546511
H -4.9217347807 -4.0161130712 -1.5722056989
H -3.2897432333 -3.0950470626 0.0647767585
H -2.5006983475 -3.4561014006 -1.4476917518
H 0.1459685450 -2.8134484978 -1.4529135587
H 1.3293027167 -4.6394550791 -0.2500947144
H 0.9443204405 -4.9727076672 2.1799860548
H -0.6223810077 -3.4819369218 3.3981644316
H -1.7985536048 -1.6555193483 2.1786285786
H 0.9696344330 -0.4852295293 0.0363883465
H 0.1298801141 0.1148636102 1.4689944693
H 2.0104180037 1.5441396524 0.8492980435
H 0.5076328818 2.4659423061 0.7227101830
H 0.4179993231 2.2318110148 -2.9413469859
H -0.4351104949 2.9063843113 -1.5454413979
H -1.5845246691 0.8951117838 -2.3981512231
H -0.0947888787 -0.0520226970 -2.2927121875
H 2.0043763817 3.6062303687 -2.2001763193
H 2.0762711202 3.8195942464 -0.4481295023
H 3.9314834067 2.1013049335 -2.1889426632
H 4.3051784799 3.6933279553 -1.5199000848
H 4.4272833606 0.0154684749 -0.7204876338
H 5.2139882895 -0.5825305240 1.7230504111
H 5.3381243024 1.5611001013 3.2531390881
H -1.5853635166 2.2844908376 0.2844764806
H -2.9282753567 1.2983572053 -0.3337795917
H -3.4054324410 1.3031262520 3.2267886758
H -2.8370480710 2.7234434739 2.3012832132
H -4.1801855438 1.7256268075 1.6714573427
