67
CONF7
C 6.1270385091 -2.2073123476 3.3992654374
C 5.0830170530 -2.0753245377 2.3350477847
O 5.2576265174 -2.2231980602 1.1438238152
O 3.8702421738 -1.8002581164 2.8789796472
C 2.7945115109 -1.6101197483 1.9561087499
C 2.8349072920 -0.2180258233 1.3509026619
O 3.7725042250 0.5305495781 1.5378202299
C 1.6162958534 0.1909688699 0.5224074300
C 1.9743811704 1.1619566226 -0.6473627121
C 1.1373312419 2.4189137481 -0.4442757248
C -0.0789598435 1.9738309169 0.3890236522
C 0.5269978498 0.9441899392 1.3806463607
C -0.5453897665 0.0412913188 1.9994924919
C -1.6346368093 -0.4743934716 1.0672561519
C -2.2858643323 0.6501150644 0.2558910679
C -1.2339864063 1.4651763938 -0.5011775309
C -1.8571064696 2.6834457427 -1.2149770500
C -3.2431179692 2.4381049868 -1.8100100501
C -3.4482919176 0.9690721195 -1.9754148180
C -3.4904561585 0.4530421671 -3.2168737374
C -3.4317566469 -0.9846974137 -3.4736259941
O -3.4841070264 -1.4423093714 -4.6235481136
C -3.2995206897 -1.8414558105 -2.3002840554
C -3.2685165867 -1.3351832309 -1.0592075193
C -3.4260295131 0.1224566755 -0.7277989074
C -4.8295699048 0.1936986474 -0.0406276655
F -4.2321201785 2.9830968600 -0.9420269237
F -2.8849970405 1.5252231840 1.2069706633
O -2.6013323805 -1.2031477066 1.8326064066
C 1.2012725833 1.7109902258 2.5339722788
O 1.5373542023 0.4539542262 -1.8205424638
C 1.5276705082 -0.9356754294 -1.4962203271
O 1.0660240749 -0.9601488004 -0.1244206420
C 0.5102645000 -1.6451931247 -2.3583609562
C 2.9217127007 -1.5389109180 -1.6202552483
H 6.0505954508 -1.3877169912 4.1174477825
H 7.1161973290 -2.2281200063 2.9437848955
H 5.9591875828 -3.1425102079 3.9440898169
H 2.8113071108 -2.3602918056 1.1599786144
H 1.8710384611 -1.7412819162 2.5279447430
H 3.0485931387 1.3663824347 -0.7030172762
H 0.8832117410 2.8708079784 -1.4057793946
H 1.7273490523 3.1529172591 0.1117098994
H -0.4735039607 2.8122564569 0.9745325269
H -1.0399979164 0.6242481247 2.7874943841
H -0.0922583103 -0.8225569536 2.4970684044
H -1.2081605079 -1.1850336274 0.3557501064
H -0.8307124516 0.7844417314 -1.2602748723
H -1.9423953772 3.5276118949 -0.5217507236
H -1.1948942529 2.9996099209 -2.0246616891
H -3.3694819420 2.9609224933 -2.7615203931
H -3.5178012016 1.1047807026 -4.0867598984
H -3.2495940977 -2.9133986140 -2.4696839127
H -3.2391293273 -2.0081826986 -0.2087496305
H -4.8531119031 -0.4836343207 0.8148969776
H -5.5859733741 -0.1188841216 -0.7651929971
H -5.0470295912 1.2060676121 0.2911961938
H -2.9766213460 -0.5955070429 2.4853648533
H 1.5934532734 1.0205066403 3.2885960494
H 2.0258263042 2.3419453772 2.1952119664
H 0.4546506929 2.3470670983 3.0172239971
H 0.8163394911 -1.5900493830 -3.4060020810
H -0.4728933228 -1.1845931866 -2.2436964784
H 0.4496376304 -2.6969966449 -2.0672418957
H 3.6513092525 -1.0057203473 -1.0042726880
H 3.2463305017 -1.4813456866 -2.6626575317
H 2.9051392525 -2.5884657264 -1.3142337047
