53
CONF820
C 0.1086692075 4.4771261082 -1.7413508482
C 0.1503389796 4.3526074452 -0.2317781631
O -0.1711277183 2.9956207441 0.1736721062
C 0.8403055506 2.0942418623 0.1777838089
O 2.0062059982 2.4026113622 -0.0498622227
C 0.3511896215 0.7570652128 0.4824885785
C 1.2278647149 -0.2842246392 0.5557475411
N 0.7773843435 -1.5335840978 0.8827006375
C -0.4933800292 -1.8019310937 1.3323480219
C -1.4368995962 -0.8162800957 1.2870481990
C -1.1504284896 0.5236635567 0.6136790370
C -1.8096278537 0.5928599971 -0.7652562471
C -1.4156402528 -0.3411916928 -1.7322134467
C -1.9449102636 -0.3495332950 -3.0154875540
C -2.9015520745 0.5984473532 -3.3707935841
C -3.3179831935 1.5398192178 -2.4374917659
C -2.7730512578 1.5268803100 -1.1547787849
Cl -3.3702558286 2.7630357881 -0.0430831167
C -2.7655956691 -1.0535713819 1.8412907321
O -3.1538876578 -2.0561916441 2.4292382579
O -3.5778426220 0.0143841076 1.6338095397
C -4.9175999712 -0.1062152663 2.1534434006
C -0.6739912229 -3.1956256106 1.8500035956
C 2.7177502693 -0.2010381574 0.3186495611
O 3.2764736288 -1.5015600325 0.4356613591
C 4.7008925872 -1.4947489292 0.2712626424
C 5.1959634155 -2.9127796442 0.4397847593
N 4.9525402046 -3.3910895821 1.8116797182
H 0.8740504764 3.8500740530 -2.2068029865
H 0.2926243561 5.5174883637 -2.0273333702
H -0.8732682727 4.1815415084 -2.1234614367
H -0.6230569005 4.9639396721 0.2389661846
H 1.1276539327 4.6282611838 0.1729347312
H 1.4751492889 -2.2646175740 0.9281289258
H -1.5752460809 1.3191822983 1.2262678630
H -0.6678599852 -1.0799634529 -1.4581250875
H -1.6122530320 -1.0904860738 -3.7350545982
H -3.3265500941 0.6102772916 -4.3692060495
H -4.0622041077 2.2840056425 -2.6987172937
H -5.4334152204 -0.9514442225 1.6901587187
H -4.8974378312 -0.2404716707 3.2382677394
H -5.4120289595 0.8299787835 1.8945434677
H -1.5705193766 -3.6547663436 1.4319936665
H 0.1966908467 -3.8077642930 1.6021723066
H -0.7982139046 -3.1876839059 2.9366202886
H 2.9114131564 0.2168696760 -0.6790358404
H 3.1697319671 0.4851698104 1.0495184832
H 4.9561060587 -1.1165606973 -0.7300461931
H 5.1531042429 -0.8332847441 1.0261505734
H 4.7291490914 -3.5424210017 -0.3360561093
H 6.2760501567 -2.9110819693 0.2517343696
H 5.3086794183 -4.3377537282 1.8980210404
H 3.9498458683 -3.4672849212 1.9553529542
