24
CONF4
C -4.5501772015 0.1013172754 -0.9541547322
C -3.4317780035 0.2624562184 0.0670884507
C -2.0611617351 0.2366755213 -0.6262132977
C -0.8438217732 0.4005355572 0.3408098789
C 0.5193254130 -0.0918684282 -0.2568470226
C 1.7705119748 0.4530989335 0.5124277300
C 3.0894082578 -0.3362224323 0.2245081321
F 4.1211454071 0.3459917489 0.7415887116
F 3.2777862745 -0.4689311684 -1.0963342980
F 3.0590337414 -1.5489064556 0.7872902078
F 1.9817884538 1.7383443676 0.1562353634
F 1.5463509587 0.3923056165 1.8459030730
F 0.6098087611 0.3147568561 -1.5440441966
F 0.5520404744 -1.4450719694 -0.2201217021
F -1.0933009408 -0.3178595406 1.4641372130
F -0.7099438011 1.7062273497 0.6730214886
F -1.9160946279 -0.9522156055 -1.2869314576
F -1.9938193231 1.2413115118 -1.5525150432
O -3.5612101507 1.4397693602 0.8456072417
H -4.4585847584 -0.8413409600 -1.4990127157
H -4.5399338092 0.9224752582 -1.6773020251
H -5.5051219697 0.1112586646 -0.4240927651
H -3.4454735778 -0.5695945087 0.7777936938
H -3.6010798707 2.1959889295 0.2459842095
