43
CONF39
C -0.9455172861 2.7104795137 -0.1999354614
C 0.2426417791 2.0947809908 0.5350381486
C 0.6652454513 2.9624383285 1.7205301504
C -0.0709790922 0.6667734782 1.0525427425
C -0.2703845130 -0.3322210228 -0.0492016596
C 0.8508137544 -0.9513907172 -0.6464838351
C 0.6384289646 -1.8176397623 -1.7182949164
N -0.5661098776 -2.1117130391 -2.2037000654
C -1.6236078593 -1.5567604555 -1.6350606875
C -1.5331858081 -0.6611131773 -0.5612049426
C -2.8038794895 -0.0658246096 -0.0278144617
O -3.5644215700 0.5871688916 -0.7119756848
O -2.9991171354 -0.3748354965 1.2537047923
C -4.2112987132 0.1664543183 1.8521193386
C -2.9812562372 -1.9488201734 -2.1991188440
F -3.7833988029 -2.3768977194 -1.1550487615
F -2.8625542607 -2.9947300755 -3.0635381803
C 1.7549010459 -2.5761452314 -2.4241318072
F 2.9574937635 -1.9796100458 -2.3149701645
F 1.8772935071 -3.8257277385 -1.9058305755
F 1.4983365180 -2.7163824473 -3.7386362238
C 2.1977023871 -0.7229367065 -0.0612935211
N 2.9317549547 0.2772107358 -0.3133993297
C 4.1903808714 0.2760981449 0.4282694378
C 4.3218758370 -0.9740441905 1.3491539416
S 2.7696760933 -1.9416338887 1.1198954360
H -1.2316785658 2.1266847629 -1.0806152182
H -1.8175331501 2.7806107480 0.4622264043
H -0.6968312188 3.7215120775 -0.5381664716
H 1.0857347978 2.0192037771 -0.1605384403
H -0.1449307726 3.0302482529 2.4564370428
H 0.9060753785 3.9769636632 1.3873553679
H 1.5468179221 2.5458710806 2.2193707778
H -0.9559853082 0.7156604351 1.6911102332
H 0.7636105730 0.3356436143 1.6792443082
H -4.1989870729 -0.1830249126 2.8827160787
H -4.1875697733 1.2573892092 1.8086505664
H -5.0858045725 -0.2139460165 1.3202622848
H -3.4978122524 -1.1286590012 -2.7079066354
H 5.0154614979 0.3094958809 -0.2921130374
H 4.2407165213 1.1972867884 1.0201734485
H 4.4097217258 -0.7007249464 2.4019451958
H 5.1681599878 -1.6031938259 1.0682335358
