47
CONF22
C -4.7966629104 -1.8578353224 -0.2661922118
C -3.6054985628 -0.9705751436 0.0236021211
C -2.2177456860 -1.5515987578 0.0254237666
C -2.6903125075 -0.7089555689 -1.1757602196
C -2.0650282125 0.5804190924 -1.5026143137
O -2.0934810447 1.0984875766 -2.6000575619
O -1.4234549498 1.1476530318 -0.4383295114
C -0.7548644483 2.4002882417 -0.7196978414
C -0.6773089818 3.0930504707 0.5678944650
N -0.5847470102 3.6701986257 1.5637078234
C 0.6228282854 2.1813731536 -1.3033592253
C 1.4996875960 1.3069923705 -0.6599805664
C 2.7748587402 1.1081304245 -1.1743095927
C 3.1397505291 1.7934908828 -2.3380281283
C 2.2751199984 2.6518594352 -2.9863765632
C 1.0008588131 2.8523991151 -2.4614347867
F 4.3776094955 1.5934945918 -2.8349512534
O 3.6996973885 0.2466591228 -0.6525319399
C 3.6251979250 -0.0850206907 0.6987561134
C 3.7140709751 -1.4323758459 1.0225539413
C 3.7140880210 -1.8041907203 2.3652486337
C 3.6218059212 -0.8373499962 3.3633024121
C 3.5425660974 0.5108446911 3.0166872638
C 3.5492434570 0.8984527207 1.6802092268
C -1.9437947362 -2.9757009393 -0.1785196849
C -0.8028216202 -3.5834614145 0.1499260310
Cl 0.5730218699 -2.7694333423 0.8449055128
Cl -0.5522102984 -5.2921228232 -0.0990350814
C -3.9077729140 0.1275443100 1.0188818361
H -5.6467152377 -1.2392843579 -0.5714841344
H -5.0825293866 -2.4056114679 0.6384965411
H -4.6047832574 -2.5782824022 -1.0639956949
H -1.5131657749 -1.0283487317 0.6629486589
H -2.9592689853 -1.2573282723 -2.0723579016
H -1.3623131511 3.0032639558 -1.4039384541
H 1.1926497234 0.7800900855 0.2374608916
H 2.6040764351 3.1554355586 -3.8887989943
H 0.3084898774 3.5237176599 -2.9577890760
H 3.7823241654 -2.1701359540 0.2302643022
H 3.7812504020 -2.8553929160 2.6272006823
H 3.6169878904 -1.1313945022 4.4075830515
H 3.4827383470 1.2701608017 3.7898705325
H 3.4956982790 1.9461864374 1.4027049765
H -2.7100013773 -3.5976351298 -0.6307856319
H -3.0225974907 0.7035413993 1.2895436259
H -4.3161186453 -0.3229049293 1.9297321419
H -4.6614227418 0.8112055950 0.6130539095
