39
CONF81
C 4.2721910636 0.1635981711 -0.4939328706
C 3.4608578909 1.4587909376 -0.5277315047
C 2.8563082198 1.7701739432 -1.8988174607
C 1.7980553426 0.7666016333 -2.3637829798
N 0.6366143248 0.7553696103 -1.4743861723
C 0.3662382699 -0.2484082116 -0.6312770006
O 0.9360077855 -1.3400186923 -0.6056849505
N -0.7024469737 0.0203733774 0.2803482646
C -1.1214424669 1.2476488424 0.8176085330
C -0.5700205450 2.5231906400 0.8082995931
C -1.2627105587 3.5130156815 1.5061654930
C -2.4463652267 3.2311388471 2.1992146064
C -2.9727770743 1.9429285772 2.2326580137
C -2.2951550202 0.9439101411 1.5385713314
N -2.5849878319 -0.4134210413 1.4679522882
C -1.6346025218 -0.9264854939 0.7328946740
N -1.4675593021 -2.2417549968 0.3784140786
C -2.4127697944 -3.2430773257 0.4956231877
O -3.5520343297 -3.1219626835 0.8920523734
O -1.8515000033 -4.3989799472 0.0820435884
C -2.7291438489 -5.5502179904 0.1261495919
H 5.0724498056 0.1873150309 -1.2421125473
H 3.6450966262 -0.7100135627 -0.6973814638
H 4.7323685223 0.0172127811 0.4882080613
H 4.1053301942 2.2976928508 -0.2394404715
H 2.6616864846 1.4180062931 0.2247500960
H 2.4077214328 2.7715628198 -1.8881112649
H 3.6495602883 1.7859387664 -2.6573272435
H 2.1977885603 -0.2490179393 -2.3985521789
H 1.4516723129 1.0256154043 -3.3696733675
H 0.0286368963 1.5613573041 -1.4901151068
H 0.3612628070 2.7585909198 0.3056851006
H -0.8654336297 4.5225885554 1.5141495553
H -2.9545122623 4.0301145125 2.7294712840
H -3.8761160008 1.7124316961 2.7879633847
H -0.5624405314 -2.4757891081 -0.0215569170
H -3.0535735829 -5.7379345511 1.1522798111
H -2.1274699641 -6.3794842186 -0.2429623687
H -3.5967835596 -5.3886030715 -0.5176566552
