38
CONF122
C 3.8314951647 -2.0975259198 -1.1052177392
C 3.3516440194 -0.8745497325 -1.8835482627
C 2.5861423890 0.1088423182 -1.0207414461
O 1.4165536415 -0.5484185377 -0.5203426640
C 0.6686397673 0.2854834782 0.3459852615
C -0.5101599637 -0.5050671411 0.8642926629
N -1.7359021105 -0.2447846369 0.6422837014
C -2.1328480045 0.8036109107 -0.1867262679
C -2.2590521675 0.5916679725 -1.5642271778
C -2.7410372713 1.5880556929 -2.4000983506
C -3.1092647932 2.8139329381 -1.8583165948
C -2.9965330395 3.0553661406 -0.4969272438
C -2.5108294750 2.0528536380 0.3381865184
C -2.3589804346 2.3140798656 1.8105728495
F -3.0907285969 1.4663064878 2.5634719825
F -1.0605547236 2.1736202480 2.2084502732
F -2.7307626343 3.5681094924 2.1459380443
Cl -3.7223265171 4.0749744749 -2.9064009687
N -0.2054349997 -1.5978823445 1.6831938355
C 1.0550103569 -2.0766040266 2.0367235237
C 0.8232541623 -3.1273512800 2.8709988656
N -0.5364231204 -3.3210113859 3.0575707886
C -1.1244974059 -2.4031504161 2.3423983396
H 2.9856115889 -2.6567144907 -0.6966857360
H 4.4036110662 -2.7718055705 -1.7484077723
H 4.4788734503 -1.8016163427 -0.2718615317
H 4.2051933861 -0.3400274732 -2.3179218099
H 2.7114718496 -1.1824456701 -2.7184721841
H 3.2079959803 0.4472387779 -0.1731848054
H 2.2905107981 0.9982144627 -1.6005200248
H 1.2773859764 0.6286636279 1.2010005166
H 0.2936142705 1.1744005484 -0.1802612538
H -1.9778596932 -0.3744462339 -1.9693148546
H -2.8315753907 1.4141208413 -3.4660832538
H -3.2793082915 4.0165633503 -0.0874117335
H 1.9604055584 -1.6576247700 1.6319637520
H 1.5532762664 -3.7639541563 3.3495053475
H -2.1866117679 -2.2311248417 2.2476699175
