27
CONF29
C 3.0975398224 -1.3226553670 -0.2055419427
C 4.5063035962 -0.8390512170 -0.5668761661
C 5.1746036398 0.0568678019 0.4612111725
O 4.5027885964 1.3241696708 0.4857861469
C 2.0353124983 -0.2196989516 -0.2687702402
C 0.6498400072 -0.7669802874 -0.0191614227
C -0.4650501202 0.3158815637 -0.1239800944
C -1.8780221346 -0.1162546761 0.3882220955
C -3.0463923842 0.8003493099 -0.1005370944
F -2.7602637249 2.0913576583 0.1235608212
F -4.1588339173 0.4830099656 0.5790884576
F -3.2840198321 0.6250898424 -1.4053248085
F -1.8787954067 -0.0838931200 1.7400411308
F -2.1596945102 -1.3741433774 -0.0207142027
F -0.5662773656 0.6903411444 -1.4277106495
F -0.0845626961 1.4010348665 0.5989332987
F 0.5622936375 -1.3219917862 1.2333396934
F 0.3485250234 -1.7549406918 -0.9183212269
H 2.8174390205 -2.1244495021 -0.8968457655
H 3.1095674022 -1.7610477587 0.7993526479
H 5.1487712143 -1.7189336526 -0.6939822436
H 4.4928332401 -0.3184644382 -1.5331551317
H 6.2327939484 0.1923603743 0.1898987131
H 5.1359605351 -0.4217303850 1.4534643758
H 2.0357490172 0.2559425048 -1.2560602728
H 2.2398129714 0.5604904782 0.4656983717
H 4.9441154762 1.8878281027 1.1294261711
