46
CONF11
C -2.9964880079 3.3545607936 0.0360192551
C -2.3154604955 1.9967569804 0.0152468869
C -2.5909832155 1.2520687163 -1.2957359529
O -2.2902660917 1.5938209099 -2.4150583964
N -3.2408169144 0.0924082727 -0.9191127528
C -3.4593176075 0.0322449544 0.4670444486
O -4.0131953250 -0.8521285897 1.0653871046
O -2.9601351477 1.1493823309 1.0268049344
N -3.6037577579 -0.9092756995 -1.7931980454
C -2.8386820823 -2.0991703777 -1.7413829011
C -1.5088431233 -2.0973534976 -1.3144572682
C -0.7764703926 -3.2814348062 -1.3452556659
C -1.3506895896 -4.4644876543 -1.8024512700
C -2.6779515048 -4.4552063122 -2.2304748272
C -3.4243789431 -3.2835914843 -2.1995552056
C -0.8197262649 2.0259726296 0.2663433115
C -0.2102077062 1.1181658155 1.1334706580
C 1.1682534227 1.1222269553 1.3184866027
C 1.9490350931 2.0353820535 0.6141740832
C 1.3571290537 2.9448187020 -0.2607839204
C -0.0197064694 2.9379351208 -0.4302053809
O 3.3123488401 2.1413859202 0.7738725149
C 4.0241435523 1.0378598796 1.2315907785
C 4.8516644872 1.2176878344 2.3327967438
C 5.6392565319 0.1531709169 2.7670429702
C 5.5896735116 -1.0735237076 2.1091718698
C 4.7535416105 -1.2342859308 1.0044443269
C 3.9679654752 -0.1774749427 0.5547206951
H -2.8083391184 3.8401059917 0.9963866947
H -2.6017880213 3.9812150964 -0.7655387248
H -4.0725962936 3.2332094005 -0.1128620565
H -4.6084121036 -1.0520583676 -1.7943799838
H -1.0392149822 -1.1848811615 -0.9613967667
H 0.2554504969 -3.2706386483 -1.0080638502
H -0.7735463169 -5.3827976983 -1.8237863205
H -3.1428571409 -5.3697613369 -2.5856022106
H -4.4600102346 -3.2812205261 -2.5278248694
H -0.8070509623 0.4030002543 1.6873052301
H 1.6250246890 0.4212851999 2.0078121195
H 1.9804203183 3.6504231936 -0.7996902555
H -0.4636816560 3.6446751975 -1.1219413855
H 4.8736443129 2.1793441957 2.8347994409
H 6.2892118491 0.2858686160 3.6262177157
H 6.2017642050 -1.9009411526 2.4527591269
H 4.7171228227 -2.1853411567 0.4824330951
H 3.3189210008 -0.2894026003 -0.3079722988
