28
CONF79
O -3.2001361174 2.1683737962 0.5003727678
C -2.5772933422 0.9951953094 1.0331279881
C -2.0863096485 0.1479333601 -0.1090014090
O -0.9928024743 0.8099676243 -0.7965281070
C -0.0510095695 -0.1450494025 -1.2486015945
C -0.5869139602 -1.5230453348 -0.8654102614
C -1.5098760654 -1.2076673897 0.3146180963
O -2.4916530842 -2.1899563904 0.5976411371
N 1.2732653075 0.1431541054 -0.6066833354
C 1.3904653243 0.8709882029 0.5424071128
C 2.5820033526 1.1116296669 1.1393448281
C 3.7939049418 0.5959965070 0.5638359679
O 4.9345389387 0.7453921018 1.0034070091
N 3.5857732524 -0.1375586732 -0.6132733362
C 2.3845081446 -0.4127589858 -1.2314442437
O 2.2977417175 -1.0937939777 -2.2471057455
H -3.5171470422 2.6960717431 1.2432442227
H -1.7368012041 1.2565226723 1.6926381514
H -3.2950649739 0.3908201645 1.6083413535
H -2.9063727138 -0.0135509836 -0.8271533338
H 0.1121441142 -0.0309274768 -2.3229121838
H 0.2055442064 -2.2345447077 -0.6295878217
H -1.1850743923 -1.9169635385 -1.6953304679
H -0.9302982889 -1.0896204054 1.2388217317
H -2.9957926100 -2.3559313083 -0.2112582819
H 0.4594129115 1.2578219699 0.9381512199
H 2.6385910963 1.6969108999 2.0468328286
H 4.4046527773 -0.5354089514 -1.0584942984
