48
CONF41
C 5.6318484735 0.7469403674 0.4324880814
C 4.5120787772 0.5110542405 -0.5770582045
C 3.4467809203 -0.4486330497 -0.0520252940
C 2.4444403785 -0.7740937948 -1.1621370749
O 2.6969687420 -1.6347504264 -2.0012788301
N 1.3176451935 -0.0176795634 -1.1593951813
C 0.2465017603 -0.2330743690 -2.0752698821
C -1.1466462299 -0.7022003677 -1.5412269479
N -1.7562075437 0.4258608998 -2.2769841492
C -0.5293392295 1.0237253470 -2.5376966001
O -0.2407938932 2.1360153395 -2.9076312877
C -2.8808963220 1.1052845309 -1.6563827809
C -3.1833020717 0.3716696592 -0.2924849201
S -1.5150893913 -0.3261485988 0.2137759060
C -3.6485958594 1.3483247166 0.7806729992
C -4.1817100704 -0.7745839211 -0.4623680922
C -4.1036837884 1.1178250353 -2.5618043101
O -4.2752758070 0.3987822384 -3.5187156762
O -4.9857919923 2.0402095014 -2.1393591998
O 2.8265039333 0.1841739850 1.0758071079
C 2.0205078702 -0.5733930669 1.8926907048
C 1.7207158395 -1.9201354654 1.6809443113
C 0.8760469894 -2.5762125749 2.5778316850
C 0.3291934072 -1.9081303300 3.6675265584
C 0.6348853978 -0.5603371740 3.8645260128
C 1.4761579265 0.1076222430 2.9851894500
H 6.1186505656 -0.1970176286 0.6991599343
H 6.3892641626 1.4129153592 0.0096315950
H 5.2491261360 1.2060021849 1.3478260477
H 4.0261353085 1.4560301337 -0.8484718908
H 4.9155055244 0.0758056355 -1.4976689830
H 3.9169222925 -1.3929868116 0.2514202137
H 1.1892715566 0.6440275574 -0.4047636787
H 0.5970883821 -0.8533205029 -2.9048474025
H -1.4882571289 -1.6951369617 -1.8405685467
H -2.5982658005 2.1444122499 -1.4475321827
H -3.7725992505 0.8268034087 1.7340921653
H -4.6190220586 1.7668110783 0.4978577960
H -2.9341708188 2.1654769342 0.9114618408
H -4.2876135529 -1.3087612218 0.4844633301
H -5.1665830828 -0.3794206089 -0.7382431482
H -3.8673395471 -1.4849241825 -1.2320181955
H -5.7742060222 2.0005155017 -2.7089489959
H 2.1226158129 -2.4683148630 0.8371397774
H 0.6445838518 -3.6233353445 2.4083235080
H -0.3291308846 -2.4277114590 4.3556947863
H 0.2153291918 -0.0236839544 4.7099495102
H 1.7197529622 1.1557969919 3.1264083397
