55
CONF50
C -7.6999079773 -1.8110495271 0.4726852620
C -6.3379871470 -1.4360647502 1.0047341085
O -5.4905395304 -1.1603648890 -0.1500569615
C -4.2173009122 -0.8078749181 0.1357380575
O -3.7631279351 -0.7030771712 1.2630587748
N -3.5356491511 -0.5937992327 -1.0343690266
C -2.1797651865 -0.2706364249 -1.1691647145
C -1.4410047537 0.3289602843 -0.1460721442
C -0.0862878643 0.5834463098 -0.3387394045
C 0.5114723402 0.3702774482 -1.5833177433
C -0.2431713790 -0.1815235104 -2.6182175890
C -1.5668480464 -0.5296260797 -2.4040480017
S 2.2140336398 0.8211254756 -1.8299999519
C 2.2386958380 2.2710191293 -0.7943933390
C 3.0110470121 3.3800423157 -1.1409405470
C 3.0131759900 4.4981473002 -0.3140185213
C 2.2225124791 4.5254171142 0.8344896325
C 1.4417222489 3.4253987396 1.1724956200
C 1.4697874339 2.2872365567 0.3717320527
N 0.7139645566 1.1208505321 0.7144996801
C 1.0312736570 0.4422808570 1.8860582543
O 1.8673666033 0.8971525998 2.6612075381
C 0.3485312204 -0.8750009793 2.1875132427
C 1.3743112246 -2.0125742084 2.1840058611
N 1.9379150502 -2.2507709687 0.8506819315
C 3.1400101869 -3.0912646154 0.9542485176
C 3.7207941165 -3.3492147765 -0.4246927455
O 2.7701774406 -4.0065969411 -1.2714188641
C 1.5959846961 -3.1956863253 -1.3884805284
C 0.9714378387 -2.9244244784 -0.0308105539
H -8.3644232225 -2.0260228313 1.3144050014
H -7.6418228810 -2.7026278204 -0.1578452424
H -8.1326551323 -0.9918425978 -0.1082443498
H -5.8863145176 -2.2493993183 1.5809483769
H -6.3758080815 -0.5390618713 1.6304814695
H 2.1957231752 -1.7473059312 2.8586990175
H 0.2098277491 -0.3509675799 -3.5895515585
H -2.1413453639 -0.9825677587 -3.2062021355
H 3.5988013374 3.3658617784 -2.0532643794
H 3.6179692887 5.3586614982 -0.5808468523
H 2.2101522083 5.4068416870 1.4669218972
H 0.8234725491 3.4332123106 2.0631985365
H -0.0614277693 -0.7851168398 3.1991959328
H -0.4797352954 -1.0994140440 1.5192809320
H 0.8941949101 -2.9232058809 2.5884565554
H 3.8870016668 -2.5744157481 1.5686390690
H 2.9108878963 -4.0613613691 1.4381631855
H 4.0267175725 -2.3958769959 -0.8864048380
H 4.5904606817 -4.0086566283 -0.3548165019
H 1.8562407584 -2.2433596978 -1.8778829769
H 0.8950909042 -3.7429651185 -2.0254193831
H 0.6330461670 -3.8815179086 0.4134390897
H 0.0888964350 -2.2907558652 -0.1760903173
H -1.9003015122 0.5709290664 0.8018773981
H -4.0326507905 -0.8269899598 -1.8829778084
