36
CONF36
C -0.8616916003 -1.9514902864 -0.7554988919
C -0.7266549586 -0.8482641074 0.2727654944
C -1.2864433234 -1.2228807997 1.6710313336
C -1.4740338394 0.1468604864 2.3858579274
C -0.9836669979 1.1492417476 1.3221864097
C -1.4666166526 0.5054184782 -0.0054166438
C -2.9902692036 0.3659254434 -0.1047769198
C -1.0073451322 1.2540045109 -1.2610477497
C 0.5475075942 0.9913135850 1.2376230817
C 0.7273415288 -0.4022443223 0.5639013810
O 1.5053811942 -0.3575044763 -0.6382837843
C 2.8912148597 -0.1593737697 -0.3748965462
C 3.6307658509 -0.0467608249 -1.6827762435
O 3.2578187371 1.1847133230 -2.3198547139
H -0.5000131513 -1.6352372235 -1.7378108307
H -0.2840400444 -2.8335865446 -0.4547334023
H -1.9095305351 -2.2551798681 -0.8541772712
H -2.2349296910 -1.7575858461 1.5664854856
H -0.5995006265 -1.8882714024 2.2040792353
H -2.5203422626 0.3201142958 2.6533674269
H -0.8851784717 0.2241887543 3.3051115617
H -1.3140155341 2.1795953405 1.4883074428
H -3.4517994004 1.3600018883 -0.1246739060
H -3.2629008885 -0.1399219983 -1.0377908662
H -3.4369503444 -0.1928316006 0.7190711487
H 0.0683703299 1.4204625533 -1.2982570341
H -1.2866088284 0.6911079738 -2.1591296554
H -1.5132926632 2.2253868736 -1.3116122904
H 1.0185680724 1.0477516234 2.2237194635
H 0.9990410534 1.7639172598 0.6083013480
H 1.2092139078 -1.1243120359 1.2423389991
H 3.2962886790 -1.0115661367 0.1962518468
H 3.0519752377 0.7540568056 0.2191961420
H 3.3825395523 -0.9068562137 -2.3212712142
H 4.7102808529 -0.0675395920 -1.4738909895
H 3.6995175035 1.2173463280 -3.1767734937
