53
CONF67
C 1.2979022382 3.5728556760 0.2011928364
C 1.9400574132 2.3240152770 -0.4317635113
C 3.3367252008 2.7002018440 -0.9397003675
C 1.0674986793 1.9057810377 -1.6245506993
O 1.6130825558 0.7216544635 -2.2068450497
C 0.9142428573 0.3054581961 -3.3726719350
C -0.4668770660 -0.2473264856 -3.0955403492
C -0.7427364260 -0.8955853621 -1.8914933790
C -2.0098871804 -1.4228066304 -1.6787439404
C -3.0096738279 -1.3397650220 -2.6394175816
C -2.7257897509 -0.6987699506 -3.8426888954
C -1.4675036825 -0.1461775890 -4.0646928796
O -2.2807199763 -2.1047471821 -0.4952286018
C -2.5572152911 -1.3611577615 0.6321892196
C -2.6941787878 0.0264041488 0.6236735706
C -2.9749442094 0.6857561116 1.8194937693
C -3.1249960553 -0.0227617516 3.0082425599
C -2.9979560368 -1.4122048181 2.9953953379
C -2.7145432846 -2.0856739618 1.8141884618
C 1.9681091452 1.1798548816 0.5818228916
C 0.7767003327 0.7586859241 1.1854506625
C 0.7385015601 -0.2917631698 2.0953809557
C 1.9284022412 -0.9423152439 2.3917219475
C 3.1303826282 -0.5543718204 1.8267559331
C 3.1430029256 0.5071687741 0.9262237245
O 2.0132078033 -1.9986423561 3.3227284257
C 1.1512903142 -3.0256040063 3.2780683415
F -0.0898596954 -2.7025748233 3.7128688494
F 1.6210113237 -3.9821716907 4.0903379557
Br 0.9344762200 -3.8133511072 1.4447499686
H 1.2763980947 4.3924914198 -0.5247503028
H 1.8840642693 3.8954668659 1.0670282094
H 0.2728745776 3.3835933686 0.5320432839
H 3.9766262325 3.0363120597 -0.1175532225
H 3.2472433887 3.5235511306 -1.6554392663
H 3.8257777015 1.8646351154 -1.4464410487
H 0.0314890550 1.7293342027 -1.2967347691
H 1.0562502561 2.7172035769 -2.3707371188
H 1.5355804078 -0.4776402478 -3.8240962989
H 0.8396713213 1.1326652732 -4.0955623962
H 0.0152266943 -0.9746884236 -1.1173767632
H -3.9875970511 -1.7637336361 -2.4371230918
H -3.4955044328 -0.6195246109 -4.6039200601
H -1.2587846478 0.3676118844 -4.9990943269
H -2.5782662288 0.5870819300 -0.2969833053
H -3.0752679393 1.7669704416 1.8133058992
H -3.3405716146 0.4995108456 3.9343269982
H -3.1120310663 -1.9784110684 3.9146226058
H -2.6019194358 -3.1644547740 1.7934989854
H -0.1597801657 1.2502016354 0.9455761309
H -0.2013162050 -0.5867691569 2.5479467112
H 4.0413313709 -1.0840989112 2.0834397413
H 4.0907929314 0.7928695686 0.4868758981
