42
CONF3
C -3.0134751493 -1.4797524056 1.7241586429
C -2.4503187029 -0.4860250477 0.7671566591
C -3.1411833331 0.4123792036 0.0103945608
C -2.2012357924 1.1688048330 -0.8134374273
C -0.8859362084 0.7467723662 -0.4985098162
C -1.0080149899 -0.3001737498 0.5341029149
C -0.0708589844 -1.0309337657 1.1860523608
C 1.3773267777 -0.8645726659 1.2107974322
C 2.2008774774 -2.0027501944 1.2578643802
C 3.5808820507 -1.8821993929 1.3242830644
C 4.1488578961 -0.6119222790 1.3550794246
C 3.3598680171 0.5307894605 1.3660102453
C 1.9798408396 0.4004449393 1.2904321384
S 5.9577506105 -0.4097780515 1.5064768751
O 6.2194677415 1.0667343757 1.7220368563
C 6.3211215767 -0.7389754345 -0.2768757632
C 0.1863058035 1.2442224301 -1.2266136524
C -0.0371358269 2.1961029874 -2.2245225178
C -1.3338152192 2.6141132791 -2.4755388779
C -2.4404756113 2.1146083565 -1.8005191104
F -1.5371834421 3.5398012832 -3.4407390601
C -4.6289371358 0.6015196684 -0.0278927937
C -5.2387272654 -0.3735037834 -1.0136482297
O -5.7201132323 -1.4431474791 -0.7304269346
O -5.1400898681 0.0852652027 -2.2876363625
H -2.7139622011 -2.4987497601 1.4519426791
H -2.6597751788 -1.2979896263 2.7459447735
H -4.1045520920 -1.4595463871 1.7241100388
H -0.4390683340 -1.8602909399 1.7887266841
H 1.7456650442 -2.9885993943 1.2363127494
H 4.2059527217 -2.7704657340 1.3638378410
H 3.8385141586 1.5019162475 1.4524700520
H 1.3505718484 1.2836540873 1.3243988796
H 6.0004502692 -1.7512760407 -0.5373160978
H 5.7895939065 0.0084202933 -0.8710488078
H 7.4015829230 -0.6348630360 -0.4005394836
H 1.1980365090 0.9040603813 -1.0423173408
H 0.7791434026 2.6084336900 -2.8058248227
H -3.4368322613 2.4397877946 -2.0770959290
H -4.8702222283 1.6258616857 -0.3266039917
H -5.0749608767 0.4011985747 0.9476363577
H -5.4949359263 -0.6093755065 -2.8650669036
