38
CONF25
C -3.1586719561 1.6014614591 3.9891162989
C -2.5115014997 1.2339651547 2.6949065315
N -1.3297331707 1.7784167113 2.4137082370
C -0.8216015528 1.4260042613 1.2159079533
N -1.3923200621 0.5958999903 0.3408024553
C -2.5742906579 0.1169688676 0.7443211676
N -3.1877781799 0.3901849038 1.8921943279
O -3.1407758875 -0.7150252641 -0.1295739050
C -4.4246097316 -1.2728607440 0.2289524686
N 0.3947837642 1.9910195357 0.9240351283
C 1.2447830854 1.8943503978 -0.1989606104
O 2.3370467097 2.4232075492 -0.1648103284
N 0.7310984390 1.2030356628 -1.2695435040
S 1.7129412503 0.7939713840 -2.6144705480
O 0.9062415880 -0.1702549037 -3.3570003912
O 2.1870546277 2.0262860580 -3.2319059186
C 3.1535381725 -0.0004485611 -1.8950895903
C 4.4150815553 0.6193377938 -2.0512952236
C 5.4258667743 -0.1460604460 -1.5386625312
S 4.8520777516 -1.6241251984 -0.8689473512
C 3.2080627020 -1.2292305232 -1.2600079101
C 2.1999094122 -2.2241529059 -0.8616376599
O 2.4792028509 -3.3541546880 -0.5193254604
O 0.9531064914 -1.7253595524 -0.8959193554
C -0.0948498123 -2.6782375539 -0.6082635844
H -3.6829333569 0.7411754723 4.4095605073
H -2.4222562971 1.9927084899 4.6908826518
H -3.9069144950 2.3804855114 3.8014598399
H -4.6935090034 -1.9111995358 -0.6121210287
H -4.3457395062 -1.8547842083 1.1501249462
H -5.1619927078 -0.4782219789 0.3630608709
H 0.7816606086 2.5684627511 1.6579503004
H -0.1010321111 0.6255645693 -1.1224371704
H 4.5421388398 1.5874103580 -2.5152862685
H 6.4816726861 0.0873912679 -1.5160295174
H -0.0279525904 -3.5239485730 -1.2966235095
H -0.0023153886 -3.0389550779 0.4196894174
H -1.0254894318 -2.1302894507 -0.7490922135
