41
CONF61
C 5.1425451114 0.3344481701 -2.7588300513
C 3.8778082924 0.7147356637 -2.0662236277
N 2.7428347577 0.1497892457 -2.5072007199
C 1.6394647509 0.5382704538 -1.8586602641
N 1.5947660571 1.4215308950 -0.8533470183
C 2.7825059266 1.9323823535 -0.5225206692
N 3.9565553334 1.6123980423 -1.0759790816
O 2.8551338600 2.8469208247 0.4371946804
C 1.6137095197 3.3189344609 1.0205996534
N 0.4671988180 -0.0377802098 -2.2979978322
C -0.8476520039 0.0669293787 -1.8348451856
O -1.7456587909 -0.5432757122 -2.3931239674
N -1.0305782487 0.8744514207 -0.7384485455
S -2.5001713866 0.9280283403 0.1189082811
O -3.5241266818 1.5023718882 -0.7555462738
O -2.1373202954 1.5998290841 1.3742253103
C -2.9668870991 -0.7726774905 0.4756898858
C -4.0090236848 -1.3080782352 -0.2748037137
C -4.5010824627 -2.5692430424 0.0412623276
C -3.9701253164 -3.2726899735 1.1174484641
C -2.9423567280 -2.7223534442 1.8747937153
C -2.4126364755 -1.4708881757 1.5557692460
C -1.2893321630 -0.9897397825 2.4191510506
O -1.3513604874 -0.9526035934 3.6291408694
O -0.1971607343 -0.6997926914 1.7013707959
C 0.9579161848 -0.2785925456 2.4750890843
H 5.2504872062 0.9558090036 -3.6563594767
H 5.1062974678 -0.7077722621 -3.0807008049
H 6.0046495992 0.5123979818 -2.1153717934
H 1.9169080003 4.0700928534 1.7481515182
H 1.0871218540 2.5004801668 1.5154796766
H 0.9800965368 3.7627967407 0.2488275389
H 0.5668386245 -0.6670044689 -3.0849186507
H -0.2006637654 1.2617305302 -0.2733131846
H -4.4331260652 -0.7364761062 -1.0906575247
H -5.3078786549 -2.9915056572 -0.5477472224
H -4.3597345929 -4.2519011097 1.3746657358
H -2.5295042626 -3.2641668217 2.7190962641
H 1.2736606449 -1.0878038817 3.1373098048
H 0.7098775220 0.6080246236 3.0630050316
H 1.7300033239 -0.0573666108 1.7394167475
