59
CONF463
C 6.1388078144 0.8291953576 4.3914775474
C 6.8381260788 2.1589527112 4.0962574821
C 5.6937381096 3.0144789280 3.5439948190
C 4.8328611418 2.0465766040 2.6876111532
C 5.2686669435 0.6165002224 3.1452490857
C 5.0815258494 2.2506879060 1.1938978182
C 4.2422100579 1.3516922432 0.3267070944
O 4.6145146809 0.9619137084 -0.7715153230
N 2.9829378578 0.9883453343 0.8148183499
C 2.4514854860 1.4492900564 2.0235965950
O 1.2989239470 1.1793353370 2.3341862413
C 3.3418294475 2.2816330796 2.9094428811
C 2.1234226684 0.1488975660 -0.0407540227
C 1.2999945740 0.9948834888 -1.0110815252
C 0.4388956314 0.1466203839 -1.9513788563
C -0.6322998461 -0.6526688899 -1.2089226644
N -1.5207844621 -1.4037037621 -2.1068852200
C -2.2569851267 -2.4269746116 -1.3515822975
C -3.1519981274 -3.2421975991 -2.2798022672
N -4.0848992574 -2.3580281765 -2.9792551175
C -3.3773006042 -1.3166959850 -3.7243319475
C -2.4764220493 -0.5180566508 -2.7862620348
C -5.3728123029 -2.1902252172 -2.5543041689
N -5.8605583930 -3.0890358686 -1.6635981617
C -7.1357521357 -2.9412181007 -1.3098675242
C -7.9510954809 -1.9283151231 -1.8016832658
C -7.3501037870 -1.0546531679 -2.7004947031
N -6.0794749489 -1.1614200352 -3.0845937626
H 5.5059947467 0.9389457438 5.2812378757
H 6.8287284364 -0.0009406666 4.5706136847
H 7.3168745472 2.6053845522 4.9731260667
H 7.6091035446 2.0115507453 3.3289976064
H 6.0312589472 3.8806155439 2.9660495708
H 5.0897930881 3.3893238866 4.3794497177
H 5.8693237145 0.1453889188 2.3578089584
H 4.4101691133 -0.0368416979 3.3333136040
H 4.8330282527 3.2844778263 0.9118544665
H 6.1271685632 2.0799070366 0.9230774780
H 3.0463934187 2.0717763583 3.9422085046
H 3.0929824675 3.3349787005 2.7123409866
H 1.4822480583 -0.4274742285 0.6267990905
H 2.7734338725 -0.5369456124 -0.5889318685
H 0.6609043316 1.6789548974 -0.4389443074
H 1.9849170924 1.6101074719 -1.6048888324
H 1.0746822378 -0.5453285935 -2.5186620535
H -0.0302861109 0.8174613524 -2.6785422515
H -1.2110312645 0.0280446300 -0.5517598307
H -0.1471820036 -1.3856910549 -0.5541793041
H -1.5354836066 -3.0969691637 -0.8696002145
H -2.8825337010 -1.9728128425 -0.5560910875
H -3.7026867333 -3.9939675044 -1.7166683801
H -2.5336532956 -3.7452634504 -3.0343115533
H -4.0938665952 -0.6592077408 -4.2142209505
H -1.9330882842 0.2273328026 -3.3752281294
H -3.1081583040 0.0238093492 -2.0527889585
H -7.5219598577 -3.6674387674 -0.5950707106
H -8.9852958326 -1.8229469923 -1.4992930574
H -7.9127095346 -0.2265820943 -3.1310059109
H -2.7642752512 -1.8071434077 -4.4913478956
