30
CONF21
C 4.2700339377 1.1114736005 -1.6575191402
C 3.3750690834 0.4279238661 -0.6250941209
C 1.9151280061 0.3470431564 -1.0700972711
C 1.0085570859 -0.3351219099 -0.0461174152
C -0.4493206301 -0.4109689268 -0.4994432852
C -1.3780488883 -1.1271916998 0.4899869052
C -2.8041823842 -1.2750373019 -0.0671320439
C -3.4541524709 0.1074329904 0.1534616167
C -2.7097139005 0.7235831280 1.3712667634
C -1.6352154718 -0.3133240344 1.7713621045
H 3.9302341733 2.1351722344 -1.8512379848
H 5.3098887189 1.1608560050 -1.3187851456
H 4.2519001059 0.5690421087 -2.6095743246
H 3.4310857011 0.9694969212 0.3287050267
H 3.7477017819 -0.5860624558 -0.4271556601
H 1.5403928618 1.3616906708 -1.2674751067
H 1.8576048709 -0.1942887002 -2.0253566976
H 1.0777220949 0.2060241897 0.9067032529
H 1.3796916359 -1.3519974489 0.1468005074
H -0.4914442956 -0.9386922209 -1.4626689010
H -0.8229551805 0.6054175694 -0.6882712049
H -0.9434829708 -2.1080749255 0.7243268068
H -3.3394934454 -2.0354548436 0.5144511218
H -2.8187970124 -1.5887081915 -1.1166127088
H -4.5313468323 0.0246927183 0.3256042541
H -3.3207779602 0.7358100194 -0.7328960825
H -3.3878296636 0.9349779830 2.2033285560
H -2.2434335980 1.6741184090 1.0933996857
H -0.7326988606 0.1530406571 2.1779941802
H -2.0321171806 -0.9828735735 2.5437046155
