47
CONF11
C 2.6769712746 -2.9060596096 -3.0273552384
C 3.2108354479 -1.7170530443 -2.3360783177
C 2.6937835903 -0.8349174510 -1.4212088493
C 3.7628611431 0.0822567379 -1.1804095516
N 4.8303238190 -0.2205601127 -1.8828982135
O 4.4738687894 -1.3561131723 -2.6288836181
C 3.8045768453 1.2403153958 -0.2723346591
C 3.9443653914 2.5356791455 -0.7743206324
C 3.9717755813 3.6626182366 0.0266033442
C 3.8557517085 3.4941063744 1.4015761489
C 3.7169404473 2.2260910590 1.9589028783
C 3.6941990514 1.1211543982 1.1199101649
Cl 3.5409240426 -0.4736924099 1.8264762957
F 4.0327350625 2.6914565287 -2.1110496512
C 1.3456567434 -0.9119337324 -0.8330841166
O 0.7415873283 -1.9824448357 -0.7254617418
N 0.8092353043 0.2620869431 -0.4036356554
C -0.4452156089 0.3081601729 0.2776029122
C -1.7812594438 -0.1133548557 -0.4305023620
N -1.9849873959 -1.0942051853 0.6415074672
C -0.8025635666 -0.7944592592 1.3041255539
O -0.3210950516 -1.2192908847 2.3284877892
C -3.3138889244 -1.2520022737 1.1840559977
C -3.9675731079 0.1803127064 1.1542236916
S -3.2553640672 0.9895188383 -0.3856661773
C -3.5319456593 0.9470885227 2.4031237755
C -5.4876081171 0.1588322398 1.0400270817
C -4.1374885467 -2.2966349374 0.4463877255
O -4.9884540643 -2.9697527006 0.9856431445
O -3.8312544611 -2.3709601952 -0.8573936687
H 3.0441801238 -2.9407930056 -4.0560727991
H 3.0061325101 -3.8164555229 -2.5136573556
H 1.5874536241 -2.8830231568 -3.0160461157
H 4.0771542792 4.6422189528 -0.4250803478
H 3.8742896833 4.3620033994 2.0517261793
H 3.6325148354 2.0959059787 3.0310109317
H 1.2911721596 1.1316873811 -0.5774926871
H -0.5590885657 1.2871973785 0.7518384930
H -1.6597491833 -0.5387370894 -1.4291396829
H -3.2457934395 -1.5852154708 2.2241861525
H -3.9768758542 0.4832992422 3.2909921252
H -3.8726321826 1.9837075415 2.3418513518
H -2.4447627533 0.9525175678 2.5216194492
H -5.8729875894 1.1820014181 1.0235218448
H -5.8253695734 -0.3519467751 0.1345491119
H -5.9108864570 -0.3490579116 1.9127422988
H -4.4024456651 -3.0415530543 -1.2721212608
