51
CONF16
C 1.1136036811 -0.4580113972 -3.3766463956
C 0.4269753579 0.7571762163 -2.7847811245
C -0.0401285747 1.7501603548 -3.8278941125
O 1.3831267264 1.5001144385 -1.9404932100
C 1.5220202515 1.1386570776 -0.6642091699
N 2.2843801227 1.9626728451 0.0607814748
C 2.3691027919 1.6449577987 1.3582881196
C 1.7233483431 0.5855754676 1.9549428441
C 0.9709068291 -0.2058779610 1.0703694733
N 0.9050027527 0.0357014357 -0.2282459600
O 0.2884558010 -1.2281630540 1.5932101027
C -0.5015846046 -2.0527376326 0.6948404534
C -1.5803026481 -1.3526096033 -0.0974202091
C -1.9327416518 -1.9618799571 -1.3050487766
C -2.9251334449 -1.4348345238 -2.1227461385
C -3.5791728104 -0.2666138121 -1.7411444890
C -3.2368113505 0.3470339415 -0.5428897750
C -2.2497163889 -0.1818988546 0.3002245872
C -1.9241407826 0.5628191707 1.5400989449
C -1.4667735958 1.8371850688 1.5079454222
O -1.2205980693 2.4722709003 0.3594691219
C -0.7790343404 3.8457544005 0.4884690589
C -2.0606200529 -0.0403381301 2.8698472329
O -1.7157859492 0.4657178729 3.9284919052
O -2.6332737235 -1.2644391602 2.7975595445
C -2.7576363355 -1.9698290177 4.0532946026
C 3.2496504871 2.5783885232 2.1639121520
F 4.5236560626 2.5625799730 1.7074708266
F 3.2839689136 2.2444049237 3.4694797362
F 2.8157555211 3.8575427920 2.0846013167
H 1.9674851661 -0.1524578633 -3.9898064359
H 0.4044926938 -0.9966040742 -4.0130314559
H 1.4570304335 -1.1376926358 -2.5928595015
H -0.4071271395 0.4527599201 -2.1449397439
H 0.7987498631 2.0923477216 -4.4420692647
H -0.7717935660 1.2642417438 -4.4798642254
H -0.5152735033 2.6151094549 -3.3567714703
H 1.7797607650 0.3635527571 3.0113254193
H 0.1802215871 -2.5629196862 0.0074268170
H -0.9427891039 -2.7921638383 1.3685991445
H -3.1755641498 -1.9272931139 -3.0570834663
H -4.3505319785 0.1648711292 -2.3711916370
H -1.2552460235 2.3769981345 2.4300259023
H -1.6002293912 4.4658245128 0.8594106280
H 0.0797852936 3.9040694704 1.1633225445
H -0.4897583148 4.1617675031 -0.5134118351
H -1.7730522765 -2.1138740294 4.5056557726
H -3.4013296371 -1.4147637529 4.7401632578
H -3.2068042845 -2.9300231633 3.8014322691
H -3.7429103026 1.2574199044 -0.2367557981
H -1.4033960629 -2.8589406443 -1.6159027562
