51
CONF18
C 1.1220126427 -0.5681590613 -3.3497738490
C 0.4597867066 0.6714789336 -2.7814404938
C 0.0187565380 1.6568112068 -3.8429565622
O 1.4289484692 1.4068364037 -1.9454215350
C 1.5488492907 1.0692737360 -0.6607212051
N 2.3273230731 1.8883518279 0.0525576016
C 2.3934130873 1.5970382107 1.3572726287
C 1.7144125181 0.5689945765 1.9715111559
C 0.9479318469 -0.2214831069 1.0980787370
N 0.8992436876 -0.0071536511 -0.2060710684
O 0.2342191339 -1.2135119783 1.6370241383
C -0.5698008444 -2.0369575756 0.7498381130
C -1.6208969275 -1.3263435282 -0.0698377305
C -1.9756780944 -1.9515481463 -1.2685549638
C -2.9448119461 -1.4161458510 -2.1084663495
C -3.5718048270 -0.2232770578 -1.7591243682
C -3.2266589960 0.4064338953 -0.5699697608
C -2.2637213662 -0.1306067472 0.2954873322
C -1.9338552203 0.6301460173 1.5245101591
C -1.4371064743 1.8890328601 1.4734129153
O -1.1526986878 2.4913737081 0.3162394687
C -0.6796737521 3.8561614543 0.4228595811
C -2.1103981390 0.0595177931 2.8638075634
O -1.7721464820 0.5791582185 3.9180033881
O -2.7137375677 -1.1505370523 2.8062307979
C -2.8815932854 -1.8247830534 4.0738279066
C 3.2923708546 2.5242929205 2.1495728083
F 2.8836001335 3.8107011251 2.0512015095
F 4.5657242917 2.4767919051 1.6943646786
F 3.3193587091 2.2091464650 3.4599760516
H 1.9833290350 -0.2919052487 -3.9665010251
H 0.4031011497 -1.1034642869 -3.9779060232
H 1.4503495783 -1.2407789876 -2.5533867590
H -0.3830417245 0.3958913762 -2.1402991619
H 0.8677053486 1.9719121518 -4.4578023386
H -0.7192505809 1.1755047802 -4.4912099959
H -0.4411282388 2.5386825056 -3.3883033593
H 1.7567479261 0.3687348838 3.0329141696
H 0.1042040077 -2.5814784441 0.0814216865
H -1.0381316003 -2.7474850107 1.4362601704
H -3.1977532061 -1.9214953127 -3.0352104634
H -4.3243341155 0.2148662208 -2.4070966696
H -1.2235490533 2.4416138054 2.3874455824
H 0.1562140109 3.9121479470 1.1260698869
H -0.3472769354 4.1362279413 -0.5763487050
H -1.4968317952 4.5070245664 0.7470231766
H -3.5258628985 -1.2394869972 4.7346049444
H -3.3488086506 -2.7792194095 3.8331867394
H -1.9106768479 -1.9824725381 4.5505133875
H -3.7117427512 1.3360812538 -0.2886727781
H -1.4664116283 -2.8682261025 -1.5546893841
