44
CONF5
C -0.8443033571 -2.3512362289 -2.2946359634
C -1.0712682616 -2.9276220464 -0.9056338611
N -1.5885366439 -1.8971807735 0.0403254487
C -2.9019722033 -1.9384843225 0.3198204300
C -3.5775441347 -0.9780360532 1.0326468313
C -2.8802281280 0.1821656484 1.5022699173
O -3.4539546289 1.1105326678 2.1375619767
C -1.4573432938 0.2251667935 1.2133522826
C -0.7133639420 1.3255923275 1.6654638451
C 0.6210067303 1.3985365213 1.3988427825
C 1.3343035866 0.3843053391 0.7147541571
C 0.5720594302 -0.7242686830 0.3232287909
C -0.8210749540 -0.8181899101 0.4934062524
F 1.2602803929 -1.7650329543 -0.1988517488
N 2.6764372282 0.5318523657 0.4470266411
C 3.6263715987 0.7386467341 1.5505205901
C 4.7778365818 1.6186689487 1.0743611774
N 5.4323254829 1.1023939562 -0.1365130582
C 4.4534461807 0.8473031395 -1.2063176882
C 3.2950892079 -0.0523572714 -0.7444549218
C 5.1508224654 0.2283873701 -2.4093744279
F 1.3051894980 2.5042149879 1.7639106937
C -5.0278862789 -1.1685478883 1.2709450128
O -5.6513527314 -2.1474805485 0.8908324670
O -5.6232282556 -0.1784592990 1.9419788169
H -0.4801643499 -3.1461431850 -2.9515651623
H -1.7806131986 -1.9625004892 -2.7055568820
H -0.1023094562 -1.5492585858 -2.2904542161
H -0.1711338999 -3.3774941784 -0.4920886972
H -1.8365397958 -3.7046836126 -0.9420076814
H -3.4442851972 -2.7956915467 -0.0639597157
H -1.2183458985 2.1298112050 2.1871662734
H 4.0195251906 -0.2414863390 1.8729707997
H 3.1163013486 1.1916786240 2.4027242877
H 5.5226983752 1.7075216141 1.8728628508
H 4.3937938507 2.6242644085 0.8569957623
H 5.8844857926 0.2184632044 0.0935831793
H 4.0264020267 1.8211984262 -1.4878255645
H 2.5465517754 -0.1198415845 -1.5394127848
H 4.4410979413 0.0595404747 -3.2249372125
H 5.5961538018 -0.7368938625 -2.1409098585
H 5.9464247295 0.8861207190 -2.7697832626
H -4.9046151327 0.5123971766 2.1471766922
H 3.6870924261 -1.0638481416 -0.5435203963
