41
CONF114
C -4.0837048601 1.0730487612 2.8495004885
C -3.8524804438 -0.3777540693 2.4279195848
N -3.5141534364 -0.5146410740 1.0083110036
C -4.6398807255 -0.6735586306 0.0899013800
C -4.8140010097 -2.1173734004 -0.3837059118
O -5.0368122195 -3.0072959386 0.7070634337
C -2.2445279798 -0.2765143750 0.5453071585
C -1.9371370103 -0.3389845473 -0.8358195643
C -0.6550922806 -0.1032045672 -1.2850359495
C 0.3870087368 0.2028157929 -0.3981912450
C 0.0945685746 0.2650287509 0.9774569260
C -1.1805747026 0.0340373244 1.4363801161
N 1.6338654166 0.4255871425 -0.9698099291
N 2.5631735181 0.7106051116 -0.1573806865
C 3.8114475442 0.9351028984 -0.7661655971
C 4.0576365953 0.8701848034 -2.1493502767
C 5.3270480302 1.1140143918 -2.6362442161
C 6.3513575904 1.4232473298 -1.7408781696
C 6.1335637577 1.4935221384 -0.3689251277
C 4.8590449944 1.2479251094 0.1120814557
N 7.7007891239 1.6832377251 -2.2631674245
O 7.8651582174 1.6127291561 -3.4773583549
O 8.5826812461 1.9546164165 -1.4538828470
H -3.1935358935 1.6826269096 2.6724250136
H -4.3335438232 1.1241445726 3.9136365038
H -4.9117846110 1.5118565344 2.2845105088
H -4.7562533616 -0.9699715942 2.5998564158
H -3.0667590502 -0.8396010267 3.0350918260
H -4.5371229697 -0.0000083959 -0.7708174613
H -5.5485401537 -0.3726155655 0.6215188990
H -5.7028962007 -2.1782581435 -1.0211023469
H -3.9475439790 -2.4386800753 -0.9789986722
H -4.1939228564 -3.1290831550 1.1588203101
H -2.7015666602 -0.5820085268 -1.5614891815
H -0.4275609677 -0.1527640463 -2.3450761624
H 0.8897149040 0.5062305511 1.6732054973
H -1.3643331203 0.1088994342 2.5003071656
H 3.2425623873 0.6289692425 -2.8202473389
H 5.5444285350 1.0713132090 -3.6962312342
H 6.9553365183 1.7368715798 0.2923650324
H 4.6443436255 1.2928607394 1.1742184644
