36
CONF110
C 1.6637663227 1.4837617982 3.3159478331
C 0.2360557191 1.1877140378 2.9075589157
O 0.1248884895 1.0898675227 1.4585782221
C 0.4638003130 -0.0958159430 0.9221821889
O 0.8116736945 -1.0683455499 1.5492401014
C 0.4066275574 0.0100851728 -0.5976547263
S -0.3107211561 -1.5224130493 -1.3772860666
P -2.3212559030 -1.3810892587 -0.7470024276
S -3.3562870440 -2.8113050902 -1.5315263645
O -2.7676451389 0.1466505957 -1.0312125255
C -3.0197724603 0.5336057686 -2.3997024071
O -2.2942310102 -1.2285283827 0.8577967094
C -2.0497676225 -2.4196464051 1.6471987773
C 1.7947102604 0.2132201387 -1.1575893026
C 2.0502327326 1.3043313599 -1.9890866784
C 3.3226999998 1.5050187981 -2.5135983676
C 4.3488064934 0.6150097521 -2.2126724355
C 4.0971832452 -0.4764484700 -1.3851898405
C 2.8274983697 -0.6796598124 -0.8581467306
H 1.7139757676 1.6210235301 4.4006477198
H 2.3233485355 0.6564731836 3.0432241984
H 2.0210576258 2.3984663143 2.8350525786
H -0.4403591280 2.0041816542 3.1697626955
H -0.1258112715 0.2547454809 3.3486923875
H -2.1137218542 0.4152342857 -3.0048528201
H -3.3114630018 1.5836847956 -2.3602029897
H -3.8279975703 -0.0704636585 -2.8219924533
H -2.8393020637 -3.1542682026 1.4662598225
H -2.0655558697 -2.0879498478 2.6855466888
H -1.0675992607 -2.8371119831 1.4081643024
H 1.2492259601 1.9989206821 -2.2251090601
H 3.5114324310 2.3574596968 -3.1580999460
H 5.3414272064 0.7701710970 -2.6227189083
H 4.8939315611 -1.1742572137 -1.1487566707
H 2.6296021704 -1.5276684538 -0.2106055342
H -0.2273661414 0.8563855031 -0.8685754567
