49
CONF10
C 2.6245053518 -1.2560714896 -3.5691290722
C 1.8063012755 -1.3418072679 -2.2852059217
C 0.3571020716 -1.7719416253 -2.5826735905
C -0.4506709755 -1.9516876807 -1.3236701084
C -1.3111574258 -0.9591487378 -0.8534508547
C -1.9898084081 -1.0831623872 0.3608589721
C -1.8124622563 -2.2366945469 1.1262647227
C -0.9616795200 -3.2502421946 0.6669452241
C -0.2924110342 -3.1013550844 -0.5369858685
O -2.4227252726 -2.4730034891 2.3236817654
C -3.2880578645 -1.4500113427 2.8324712465
N 1.7750509817 -0.0406526415 -1.5978526309
C 2.9444928311 0.2359052498 -0.7616468196
C 2.8083725813 1.6618502634 -0.2083698755
C 1.5898268296 1.7658204561 0.6956446450
C 0.4185699643 2.3751121014 0.2682296696
C -0.7258293421 2.4129195195 1.0724518885
C -0.6971323894 1.8345514195 2.3539404485
C 0.4815940684 1.2086894936 2.7726145603
C 1.6072262423 1.1785439211 1.9651529957
O -1.7265696080 1.9002070337 3.2358394555
N -1.8490373226 3.1097538905 0.5477311203
C -3.1617341606 2.8716536792 0.7274563977
O -3.6461845935 2.0180850651 1.4847876845
O 2.7670271313 2.5924995785 -1.2901332750
H 2.6810889429 -2.2373799137 -4.0510130314
H 3.6461787796 -0.9196477367 -3.3693596248
H 2.1602310135 -0.5497075067 -4.2659154857
H 2.2523510041 -2.1136171964 -1.6293868380
H -0.1065982467 -1.0137782756 -3.2260687700
H 0.3913525835 -2.7102844598 -3.1474449176
H -1.4591760723 -0.0569134774 -1.4429908555
H -2.6357251232 -0.2789094920 0.6929453489
H -0.8391433270 -4.1458065934 1.2681837960
H 0.3688294896 -3.8942836097 -0.8776793636
H -4.1216094029 -1.2606527493 2.1454340170
H -2.7346660577 -0.5199975036 3.0062649418
H -3.6726901669 -1.8312281487 3.7790085737
H 0.9655331444 -0.0352872983 -0.9801260588
H 3.8549324231 0.1851767554 -1.3700687948
H 3.0575994483 -0.4758040683 0.0747492698
H 3.7039981897 1.8976146356 0.3792555059
H 0.3818898524 2.8410503923 -0.7121349052
H 0.4938985133 0.7660862398 3.7637366394
H 2.5111057663 0.6953506930 2.3265568791
H -2.5740392478 1.9223166690 2.7156198800
H -1.6325908166 3.8059887098 -0.1542554273
H -3.7987016973 3.5318938560 0.1198710401
H 2.2613416244 2.1480061912 -1.9904738033
