46
CONF115
C -1.5385001443 0.3275883338 2.9151829188
C -0.9576056461 -0.6771786085 1.9464385320
O -0.8810840310 -0.0828124135 0.6190819515
P -1.8919759040 -0.4955853703 -0.5870605427
S -3.6716111421 -0.9992013109 -0.0115308669
N -1.7721651702 0.6975344024 -1.7178222782
C -2.5944929198 1.9190343017 -1.6951319298
C -2.7040069500 2.4593156766 -3.1179393604
C -2.0375515004 2.9672072760 -0.7305081294
O -1.0426750757 -1.6539530045 -1.3936330844
C -0.1792099709 -2.5086426742 -0.7503139893
C -0.6125143495 -3.8060317872 -0.5002735036
C 0.2400323804 -4.7108518860 0.1195522815
C 1.5189084569 -4.3169186730 0.5056240239
C 1.9398890570 -3.0152703632 0.2712032433
C 1.1053619626 -2.0924636108 -0.3692597772
C 1.5768719693 -0.7076186204 -0.6432073217
O 1.2621454148 -0.0328566309 -1.6022282098
O 2.4348872053 -0.3001054443 0.3160823827
C 2.9648883506 1.0596442615 0.1892061755
C 1.9475983352 2.0356459037 0.7528842391
C 4.2798494251 1.0585836480 0.9423116477
H -1.5387427795 -0.0898566045 3.9273775508
H -0.9457619716 1.2472465205 2.9188958194
H -2.5681737530 0.5673559520 2.6367175955
H 0.0729153864 -0.9473737337 2.2012098434
H -1.5655475747 -1.5874940757 1.9104018966
H -0.8311437476 0.8055803905 -2.0892316245
H -3.5896720839 1.6106934468 -1.3533531221
H -3.1274259043 1.7056200494 -3.7863936303
H -3.3409272826 3.3485057348 -3.1394915968
H -1.7164349384 2.7446273287 -3.4994760365
H -2.6810615733 3.8527436012 -0.7087798289
H -1.9675613862 2.5644313315 0.2842149706
H -1.0356408872 3.2827980114 -1.0447163893
H -1.6193631855 -4.0784543379 -0.7961553727
H -0.0990962293 -5.7246477588 0.3061914033
H 2.1854547686 -5.0220521618 0.9902168076
H 2.9308427691 -2.6973483515 0.5737417796
H 3.1240706131 1.2530247973 -0.8765813492
H 1.7668350127 1.8232207973 1.8117088716
H 2.3266623560 3.0585509471 0.6638146586
H 1.0001282698 1.9640701438 0.2145131307
H 4.1187128549 0.8174401034 1.9974954245
H 4.9730124803 0.3276013862 0.5176862818
H 4.7408789327 2.0486534890 0.8813345243
