38
CONF648
F -1.4151033256 0.0914570449 -2.7448674520
C -1.7715689486 0.1392833255 -1.4501994772
F -2.1590402829 1.4029892623 -1.1454036813
C -0.5524606236 -0.2539578965 -0.5649838784
F -0.9957103216 -0.5411472520 0.6860303018
F 0.0283959714 -1.3517603295 -1.0904819274
C 0.5239768297 0.8832688336 -0.4429542080
F 0.6944249229 1.4557741501 -1.6546529504
F 0.0677591148 1.8149982515 0.4273313422
C 1.9165784898 0.3667316119 0.0621217188
F 1.7205888590 -0.5272659429 1.0584629604
F 2.5477006377 -0.2483316116 -0.9628223802
C 2.8390813419 1.5101611390 0.6059827412
F 2.7588365676 2.5842257950 -0.2130107217
F 2.4202963405 1.8609621867 1.8407186293
C 4.3479186284 1.1129535553 0.7138150081
F 4.4789142245 -0.0513929366 1.3650697963
F 4.9038421173 1.0040043056 -0.4968434906
F 4.9951626534 2.0670482695 1.3965353531
S -3.3152346524 -0.9927992500 -1.2598070338
O -2.7991065105 -2.3628211584 -1.2530753457
O -4.1838352565 -0.4628288624 -2.3102599432
N -3.9552454294 -0.6673000862 0.2204616708
C -3.8022219247 -1.6573724559 1.2982714312
C -4.8735117110 -2.7327357788 1.2969106584
O -6.1283721262 -2.1207089109 1.6085180751
C -4.8312780847 0.5097206483 0.4208562913
C -4.2652980797 1.4972725853 1.4342335506
H -2.8247813110 -2.1382586639 1.2212496324
H -3.8296842953 -1.1116185778 2.2475233600
H -4.8974887276 -3.2233383318 0.3145637860
H -4.6024592478 -3.4836571724 2.0568191705
H -4.9609141217 0.9917121124 -0.5507942518
H -5.8116144474 0.1430550030 0.7397351400
H -4.9384647719 2.3567451781 1.5087434436
H -4.1859025340 1.0595927194 2.4331324090
H -3.2789708252 1.8584705955 1.1333281308
H -6.8255966781 -2.7701483272 1.4728830139
