49
CONF43
C -1.4978719158 -0.7926348960 5.7568119639
C -1.4954261249 -1.8694584800 4.8724265481
C -0.9485486724 -1.7368725329 3.6008016688
C -0.4128675158 -0.5068576770 3.2173102479
C -0.4252126249 0.5838886792 4.0853658251
C -0.9579065350 0.4288620839 5.3611089754
N 0.1585399893 -0.3387886199 1.9255964580
C 1.4796251722 0.0073839283 1.6953790397
O 2.2059760046 0.5703308220 2.4944062836
C 1.8396252892 -0.4935802092 0.3133046360
C 0.5770240999 -1.1682556853 -0.1803078896
O 0.3597227791 -1.6117041240 -1.2930642349
N -0.3525847098 -1.1130818968 0.8477630367
C -1.7594492325 -1.0965991202 0.6150446645
C -2.3549490458 -2.2345852556 0.0759452908
C -3.7205987498 -2.2235934332 -0.1904792524
C -4.4868322573 -1.0983217441 0.1038526348
C -3.8806553517 0.0274322285 0.6582278989
C -2.5131329521 0.0391785206 0.9112308586
C 2.3182617177 0.6012077909 -0.6520247104
C 1.2643202552 1.6809086529 -0.8361856536
S 1.8103636868 3.0087927527 -2.0140355610
O 3.2250573982 3.4110256889 -1.5966469042
C 1.9816869591 1.9410831233 -3.4830552177
C 0.8417309803 1.4242471030 -4.0936741125
C 0.9897428418 0.6314142834 -5.2276596289
C 2.2601023073 0.3788741723 -5.7455048283
C 3.3869014114 0.9192012890 -5.1309241844
C 3.2527261274 1.7099789858 -3.9907213624
H -1.9243034064 -0.9040582156 6.7482564920
H -1.9155073934 -2.8237717252 5.1733805250
H -0.9365725370 -2.5776805851 2.9160883161
H -0.0262854656 1.5371838819 3.7598610911
H -0.9638835116 1.2741623355 6.0416109137
H 2.6361743967 -1.2398004007 0.4296915669
H -1.7534865207 -3.1131302047 -0.1264793977
H -4.1876811824 -3.1058190495 -0.6160260118
H -5.5538243898 -1.0995028455 -0.0932034397
H -4.4719424568 0.9074396426 0.8899020463
H -2.0377935317 0.9186554445 1.3319071287
H 3.2386391450 1.0365613774 -0.2535473410
H 2.5524493888 0.1251901986 -1.6089348926
H 0.3215622886 1.2954299927 -1.2425021092
H 1.0516343446 2.2159809530 0.0967919393
H -0.1473299294 1.6306486454 -3.6939369919
H 0.1111897135 0.2148467119 -5.7097864607
H 2.3694313974 -0.2364276823 -6.6327569629
H 4.3748923853 0.7259041647 -5.5368188685
H 4.1172649175 2.1387120516 -3.4941289265
