41
CONF671
C -5.0098018517 -0.8041910913 1.4794217678
C -3.7695971476 -0.5578453645 0.6259036222
C -3.2253395431 -1.8732788763 0.0722953819
N -2.7540738013 0.1215032240 1.4547030827
C -1.6493327148 0.6804806696 0.6734611544
C -0.7187970645 1.4904325331 1.5554080414
O -1.4585756056 2.6229653082 2.0368070294
C 0.4966078728 1.9937342389 0.7833794704
O 1.2535055550 0.8427046373 0.3888962609
C 2.3952652089 1.0329008722 -0.3361380332
C 2.8950556878 2.2887406939 -0.6855043231
C 4.0736842789 2.3782413021 -1.4266108561
C 4.7511232054 1.2292778659 -1.8174522255
C 4.2392513769 -0.0192770020 -1.4625002306
C 3.0663394169 -0.1425102679 -0.7232825826
C 2.5003520978 -1.4994218850 -0.3723988983
C 1.3619555360 -1.8751805504 -1.2819330275
C 1.3347882964 -2.9665319462 -2.0446479785
H -4.7686725259 -1.4639813879 2.3206389688
H -5.4066493470 0.1353536924 1.8798618909
H -5.7954540023 -1.2781895899 0.8836923762
H -4.0586021349 0.0823508625 -0.2304647392
H -2.3617070635 -1.7204639977 -0.5818765152
H -3.9981439298 -2.3812235224 -0.5131452807
H -2.9231374650 -2.5321518998 0.8945666643
H -3.2115605836 0.9001732427 1.9218589956
H -1.0648077242 -0.1314566587 0.2295132112
H -1.9964384704 1.3287256270 -0.1556921827
H -0.3821667307 0.8687464614 2.3984711086
H -0.9595150557 3.0230865507 2.7600552881
H 1.1018460302 2.6457767619 1.4283392193
H 0.1737991891 2.5620990004 -0.1002394940
H 2.3807560760 3.1945658974 -0.3876851593
H 4.4563556578 3.3583813333 -1.6943848581
H 5.6694522720 1.2994016699 -2.3911847509
H 4.7601328343 -0.9244374811 -1.7643854820
H 3.2906236893 -2.2529372266 -0.4445134484
H 2.1416135362 -1.4850338537 0.6646481784
H 0.5232320987 -1.1799566821 -1.3041954179
H 2.1598070563 -3.6757011489 -2.0465880051
H 0.4868262864 -3.1852315943 -2.6870982080
