54
CONF12
C -3.7750055390 -1.7303379689 3.9241544212
C -4.4066929717 -1.1707910177 2.6502506812
C -3.9790526919 -1.9919188373 1.3863904790
N -2.6505341316 -1.5073318338 1.0340492999
C -2.4684528331 -0.0474595432 1.1043320274
S -3.7410982450 0.5540868632 2.2888265552
C -0.9976379716 -0.3060133769 1.5891489492
C -1.3936848670 -1.7890620607 1.5376117723
O -0.8627454818 -2.8458108831 1.8236880834
N 0.0915715471 0.1145811527 0.7693186735
C 0.9788702963 1.0559961293 1.1979896790
O 0.9231396172 1.6028642460 2.2852388226
C 2.0576134959 1.4867890509 0.1845800821
C 1.5177333235 2.6907338950 -0.5860345557
C 1.7678324501 3.9705803073 -0.0897710138
C 1.2478738834 5.0860982696 -0.7366504362
C 0.4768210253 4.9332698665 -1.8849606198
C 0.2243831998 3.6581236745 -2.3809145973
C 0.7380546085 2.5386240818 -1.7336320980
C 2.5354164523 0.4271478704 -0.7814282983
O 1.8516659752 -0.4210119953 -1.3109663962
O 3.8594886692 0.5897680316 -1.0221677525
C 4.4605550449 -0.2553523869 -1.9746560149
C 4.6402574685 -1.6016509512 -1.6997486310
C 5.2982018082 -2.3876374557 -2.6399633511
C 5.7649282870 -1.8255246343 -3.8253886812
C 5.5741481107 -0.4700164128 -4.0757200031
C 4.9150656751 0.3283800135 -3.1453462696
C -4.1686871081 -3.5035126093 1.6020270686
O -5.2966793634 -3.9354585268 1.6137392674
O -3.1162524163 -4.2951570138 1.7936993165
C -5.9224548774 -1.0825320872 2.7839430145
H -4.1955504780 -2.7178257811 4.1483231765
H -3.9855905283 -1.0678099269 4.7670231266
H -2.6885755964 -1.8270177040 3.8426961284
H -4.6578292222 -1.7298896988 0.5671100180
H -2.5537360017 0.4746948482 0.1464892921
H -0.8384332942 0.0432728800 2.6143326827
H 0.2776940218 -0.3359266293 -0.1206483750
H 2.9059234844 1.8190302476 0.7852589836
H 2.3597516228 4.0884774826 0.8121542111
H 1.4473099970 6.0769008857 -0.3415589270
H 0.0743403109 5.8044976026 -2.3911623461
H -0.3744237323 3.5309337464 -3.2770217150
H 0.5374941622 1.5481621351 -2.1297989754
H 4.2692710157 -2.0230727553 -0.7725117859
H 5.4459191281 -3.4441060584 -2.4425858935
H 6.2785768295 -2.4445206228 -4.5530894377
H 5.9385030532 -0.0282863361 -4.9971892499
H 4.7537729000 1.3872669346 -3.3148137361
H -2.2399125662 -3.8289524931 1.7858552886
H -6.1912945428 -0.4330879951 3.6221352363
H -6.3294213632 -2.0799953121 2.9709127886
H -6.3784323339 -0.6832102967 1.8747345286
