37
CONF235
C -0.5862669217 -1.1334997133 -3.5946478226
C -1.7818169834 -1.8383816041 -2.9933159691
O -1.5439362319 -2.2264873434 -1.5990856567
P -1.5418808236 -1.1092136142 -0.4730482830
O -2.3590976553 0.1054371374 -0.6991603297
O -1.8675407921 -2.0180198695 0.7847222043
C -1.9811098120 -1.3965154632 2.1140569489
C -0.8496984851 -1.8776432287 2.9901781813
O 0.0519117230 -0.7576877917 -0.3256775103
P 0.6513344112 0.6913866937 0.1356388613
O 0.1170739023 1.1428916924 1.4416285542
O 2.2108005768 0.4086914916 0.0108651330
C 2.8491321441 -0.5599396686 0.9068234160
C 3.2280964349 0.0786981915 2.2243120022
O 0.4393523242 1.6475748892 -1.1109778241
C -0.4567315112 2.8079345235 -1.0062338505
C 0.3183427305 4.0243045021 -0.5581294124
H 0.3156657281 -1.7438646436 -3.4959159514
H -0.4109911956 -0.1643150028 -3.1185050277
H -0.7751607662 -0.9607164364 -4.6590867001
H -2.6814335338 -1.2161580322 -3.0298355975
H -1.9826994004 -2.7876939864 -3.4939823333
H -2.9552526033 -1.7139786477 2.4944050492
H -1.9752165094 -0.3071100905 2.0126688409
H -0.8442102698 -2.9690292270 3.0570874270
H 0.1131935885 -1.5346309925 2.6028116118
H -0.9768821279 -1.4661447081 3.9966184513
H 3.7292471171 -0.8949260822 0.3532162016
H 2.1810649445 -1.4180453428 1.0430811168
H 3.7658538180 -0.6537268953 2.8352622645
H 3.8817267310 0.9396323982 2.0597438643
H 2.3405170414 0.4072004057 2.7703566916
H -0.8594705505 2.9248681972 -2.0147430182
H -1.2762423051 2.5645837544 -0.3261911043
H 1.1473837325 4.2317541673 -1.2403589359
H -0.3483495993 4.8927675840 -0.5460924369
H 0.7132919234 3.8800024384 0.4515113348
