45
CONF1071
O -1.2464044569 0.7811470772 -2.3896955647
C -1.9208480114 -0.4537774344 -2.6648114448
C -2.5656238733 -1.0675795344 -1.4330386193
O -1.5779808142 -1.5377712956 -0.4834391791
C -1.5129377768 -0.6998332312 0.6647802133
C -1.8150278660 -1.5711605213 1.8884287806
O -1.6284621952 -0.8621291217 3.1058943547
O -0.2289960176 -0.1008471307 0.8036196322
C 0.8965017825 -0.9412370443 0.6312738515
O 1.5129155059 -0.7189746232 -0.6237468765
C 1.9509067462 0.6382563247 -0.8258365040
C 2.4882445584 0.7176228571 -2.2345854448
O 1.4052731708 0.4525698142 -3.1452877771
C 3.0073384076 0.9950979983 0.2214030764
O 3.3772261899 2.3605337494 0.0226968784
C 2.4180482691 0.7817124774 1.6161540593
O 3.4132532113 0.9626619154 2.6337519052
C 1.9021206676 -0.6428812244 1.7431180181
O 1.2658617089 -0.8731835974 3.0009816144
C -2.5572520829 0.4403392956 0.4608704885
O -2.0058666834 1.6838068259 0.0857709775
C -3.4809834530 -0.1475822405 -0.6278856252
O -4.5077940578 -0.9745554818 -0.0678439291
H -0.3028865571 0.6842095868 -2.6327382141
H -2.7143547266 -0.2736681918 -3.4035928046
H -1.2188834807 -1.1814880288 -3.0883454711
H -3.1334899399 -1.9438858271 -1.7695538619
H -1.1909406537 -2.4772611338 1.8460732897
H -2.8631561420 -1.8814996124 1.8385763236
H -0.6744848363 -0.6742635560 3.1674258688
H 0.6170315715 -1.9990619018 0.6356909270
H 1.0957409472 1.3232453497 -0.7214515250
H 3.2854580547 -0.0265700233 -2.3694976602
H 2.8973911511 1.7193124329 -2.4008465426
H 1.6595579130 0.7607876761 -4.0234984246
H 3.8793140844 0.3334600946 0.0961042797
H 4.1435835685 2.5395647655 0.5827386021
H 1.5897652539 1.4877684419 1.7658851377
H 3.3869112571 1.8818691036 2.9252690452
H 2.7464471221 -1.3378820474 1.6178123675
H 1.8611110192 -0.5394081621 3.6874234811
H -3.1128510084 0.6040996664 1.3890391297
H -1.5673225547 1.5359106183 -0.7784487712
H -3.9102125271 0.6580548514 -1.2378216803
H -5.0632414511 -0.4155298566 0.4911838029
