49
CONF69
C -3.1096952470 -1.5581263823 -1.3952820495
C -3.2116251026 -1.3690706607 0.1040549033
C -2.4359767102 -0.2324032997 0.7982495609
C -2.0573344300 -1.7212210390 0.9946177822
C -2.3019104030 -2.2732587850 2.3856523091
C -0.7684656309 -2.2510883462 0.4027556605
C -1.5631667589 0.6964050451 0.0840712818
O -0.9169408090 0.5144973128 -0.9277646910
O -1.5424078063 1.9078880495 0.7507385021
C -0.6206385539 2.8874065169 0.2018833395
C -1.1916485428 4.1934228302 0.5239406396
N -1.6205395165 5.2366163222 0.7707425344
C 0.7633023646 2.7022227877 0.7835211541
C 1.7329525673 2.0777475401 0.0038046003
C 2.9828910343 1.8184829887 0.5600886827
C 3.2798417028 2.2022386863 1.8647094144
C 2.3053669027 2.8421849615 2.6246701124
C 1.0426104036 3.0871176326 2.0957056569
O 3.9980227406 1.2346841544 -0.1684006053
C 3.6754319599 0.2609293054 -1.1041126072
C 2.7704734515 -0.7581568726 -0.8144412989
C 2.5407019606 -1.7451618459 -1.7679115133
C 3.2117978191 -1.7210796726 -2.9897329186
C 4.1211129380 -0.7000580919 -3.2567611742
C 4.3554094877 0.2998424377 -2.3161059533
C -4.6345535162 -1.5667495349 0.5923008333
H -3.4131774065 -2.5812117097 -1.6454183977
H -2.1111907007 -1.3842887919 -1.7896070685
H -3.7972161090 -0.8727794196 -1.9029075485
H -2.9414995139 0.2176208783 1.6462055885
H -1.4229817043 -2.0938971436 3.0138192748
H -3.1648833734 -1.8257190731 2.8800027435
H -2.4604795511 -3.3567263102 2.3311723960
H -0.5203065329 -1.8102912856 -0.5604686623
H -0.8498617327 -3.3372280398 0.2793129018
H 0.0634480523 -2.0539170800 1.0882171729
H -0.5886535417 2.7860814101 -0.8890641667
H 1.5113309312 1.7820725417 -1.0152149079
H 4.2650810683 1.9959907816 2.2691725321
H 2.5334246875 3.1428905606 3.6419590721
H 0.2810821289 3.5730835496 2.6977420069
H 2.2552908133 -0.7770624112 0.1403684928
H 1.8376592004 -2.5424045916 -1.5471965782
H 3.0283239570 -2.4954270540 -3.7271859931
H 4.6490614314 -0.6740674213 -4.2048411312
H 5.0565138995 1.1049712803 -2.5093788386
H -5.3141527344 -0.9318992891 0.0139745945
H -4.9377434989 -2.6093015803 0.4409839620
H -4.7640810813 -1.3218008415 1.6470278770
