41
CONF43
C -3.4172043661 1.8819156283 -0.1780375598
C -2.0545356321 2.5827695620 -0.1560940408
C -1.5968324041 2.9309665898 -1.5694785471
N -0.9970941023 1.7906073875 0.4906669572
C -1.2257685067 1.4566902228 1.8975213559
C 0.1154283245 1.1014525098 2.5703750227
O 1.1273455989 1.9995500038 2.1305370290
C 0.5381853775 -0.3477602732 2.3739218613
O 0.5159218277 -0.6570290428 0.9731822778
C 1.0370272749 -1.8524569443 0.5625012830
C 1.5228118048 -2.8289350384 1.4331791095
C 2.0420819121 -4.0159596553 0.9174401745
C 2.0759301742 -4.2338973269 -0.4535192251
C 1.5785775473 -3.2538827570 -1.3117765138
C 1.0518406457 -2.0601343609 -0.8293334419
C 0.5190577247 -1.0059791813 -1.7716380699
C 1.4205757550 0.1946643368 -1.8723426600
C 1.9402747728 0.6432948616 -3.0122668981
H -4.1687473473 2.5109004418 -0.6666512797
H -3.3486736957 0.9391988733 -0.7350781639
H -3.7729419646 1.6583383572 0.8323593319
H -2.1477176064 3.5129401259 0.4233372303
H -2.3341888554 3.5654208475 -2.0701257608
H -1.4748925000 2.0194727428 -2.1679214662
H -0.6365339789 3.4542805330 -1.5495965582
H -0.8432932949 0.9369454981 -0.0372535407
H -1.6270724947 2.3522097499 2.3879148247
H -1.9445089644 0.6373938192 2.0624492675
H 0.0017345425 1.2297389900 3.6562705975
H 0.8237267363 2.2698265972 1.2410897710
H -0.1486745803 -1.0176165378 2.9127925969
H 1.5535584329 -0.4773572629 2.7698560591
H 1.4994493362 -2.6799412540 2.5054363175
H 2.4192953020 -4.7692891135 1.6019325075
H 2.4802944777 -5.1568597675 -0.8552682071
H 1.5968406523 -3.4162003694 -2.3862280250
H 0.3854002598 -1.4460740582 -2.7647962121
H -0.4752383841 -0.6890674691 -1.4252244064
H 1.6470240760 0.7022379106 -0.9359502778
H 1.7335557766 0.1539058842 -3.9613727406
H 2.5879808484 1.5143593525 -3.0328099744
