56
CONF5
C -3.1980441643 -4.3311362640 0.8435612430
C -3.6692738558 -2.8767274400 0.8376968189
C -5.1612351241 -2.7968116179 0.5062814812
C -2.8542495947 -2.0569759445 -0.1805995714
C -1.3475615538 -2.1083887006 0.0219669777
C -0.7716360072 -1.7051802337 1.2305143116
C 0.6052490942 -1.7165846248 1.3969874060
C 1.4213374865 -2.1270145310 0.3471551067
C 0.8768974710 -2.5346911734 -0.8654634443
C -0.5089492052 -2.5151880782 -1.0132407861
O 2.7860773533 -2.0918615450 0.6436953156
C 3.7316151139 -2.2530920159 -0.3247654274
F 3.5491334177 -1.3797134672 -1.3668089230
F 3.6852361035 -3.5128376611 -0.8761625586
C -3.2044598888 -0.5847970432 -0.1348206906
O -3.5439798439 0.0475136988 0.8376936989
O -3.0035148336 -0.0106387672 -1.3571780181
C -2.9881365934 1.4398191188 -1.3829468100
C -4.3027532389 1.9794638951 -1.0272735119
N -5.3467054882 2.4229477467 -0.8115796219
C -1.8421143535 2.0105814064 -0.5676903598
C -2.0092167876 3.0821785747 0.3060612726
C -0.9078294350 3.5692454590 1.0052350436
C 0.3503808683 2.9984803068 0.8499124441
C 0.5001415089 1.9300433463 -0.0341518121
C -0.5858841085 1.4364030995 -0.7503941563
O 1.6916948728 1.2635702133 -0.2089587673
C 2.8823541685 1.9342180933 0.0444663287
C 3.1935371674 3.1123806602 -0.6283102428
C 4.4302804230 3.7089865529 -0.4017876052
C 5.3444801367 3.1294570673 0.4776538284
C 5.0171185359 1.9463891187 1.1362634723
C 3.7788510135 1.3431468032 0.9259979742
H -3.7974017172 -4.9182673036 1.5460114235
H -3.3114324008 -4.7758861477 -0.1525532235
H -2.1473864182 -4.4161929659 1.1360296015
H -3.5026831552 -2.4446454855 1.8322339513
H -5.5254820274 -1.7649243317 0.5077372247
H -5.7451520357 -3.3616555200 1.2393436034
H -5.3531726654 -3.2275693645 -0.4835989176
H -3.0717238441 -2.4243923955 -1.1899024501
H -1.3990785359 -1.3683712928 2.0499688792
H 1.0594010012 -1.3967201390 2.3288782084
H 1.4957795145 -2.8602109783 -1.6906862817
H -0.9382582130 -2.8257351805 -1.9613058153
H 4.7157484416 -2.0915541596 0.1205110953
H -2.8335983835 1.6660938447 -2.4445242846
H -2.9864564105 3.5293052865 0.4529272535
H -1.0340302468 4.3968103738 1.6957657383
H 1.2000041540 3.3726597444 1.4098404201
H -0.4393540897 0.6010100701 -1.4274559775
H 2.4776977980 3.5503755124 -1.3166190574
H 4.6827585015 4.6270451173 -0.9231157126
H 6.3083999016 3.5981238039 0.6464980962
H 5.7238016242 1.4899762915 1.8222372526
H 3.5017772091 0.4242296267 1.4317687836
