39
CONF3
C -3.5298769059 -3.5624352636 2.4563305927
C -2.3952060909 -2.5954381736 2.3007259059
C -2.6011477011 -1.2109794864 2.3408946996
C -1.5514149804 -0.2885525104 2.1742875442
C -0.2535774964 -0.8100061155 2.0523590473
C -0.0128104017 -2.1743798358 2.0466975153
C -1.0857873179 -3.0494104524 2.1439127898
Cl 1.1152741376 0.2813033167 1.9425020632
N -1.8167747143 1.0979837743 2.1801545954
S -2.3382713363 1.8282379046 0.6949008241
O -3.3100676681 0.9272172503 0.0907529137
O -2.6022014694 3.2198746493 1.0276588667
C -0.8484501105 1.7646465801 -0.3153985391
N -0.5998664813 0.6570871898 -1.0095778417
N 0.6384813570 0.9393247003 -1.4916291655
C 1.4369439095 0.1629565413 -2.2914253272
C 2.6334428393 0.7156486653 -2.6729428837
C 2.9623477308 2.0176092882 -2.2237997979
N 2.2090314645 2.7606538845 -1.4346586572
C 1.0476111703 2.2202520114 -1.0656633236
N 0.0833509317 2.7346272215 -0.3004492623
O 4.1464730849 2.4817963483 -2.6448781857
C 4.5238131154 3.7998688267 -2.1938301337
O 1.0680077648 -1.0357873777 -2.7244190102
C 0.2657240406 -1.9152950678 -1.8833519588
Cl -4.2034987091 -0.6208086131 2.6734999373
H -4.0165957029 -3.4430324629 3.4296663571
H -4.2984502648 -3.3929091526 1.6958067414
H -3.1705423454 -4.5898167449 2.3705430248
H 1.0027811849 -2.5436689529 1.9665172861
H -0.9003080748 -4.1187075552 2.1242833362
H -1.0553275273 1.6590965260 2.5562117694
H 3.3130602616 0.1510155681 -3.2954112280
H 3.7967831964 4.5428593302 -2.5309499405
H 5.4998505100 3.9805389929 -2.6433116889
H 4.5868085522 3.8280874000 -1.1030461045
H 0.5907757624 -1.8484148165 -0.8420137551
H 0.4597402248 -2.9125419083 -2.2784976429
H -0.7901251416 -1.6585007817 -1.9581903561
