65
CONF490
C 0.9194322853 3.0714529865 -0.3420961912
C -0.3178828542 3.0319075072 0.5524399738
C -0.0146193642 2.8217781970 2.0571146223
C 0.8415384799 3.9342753190 2.6541239194
C 0.6351985140 1.4667341034 2.2462639124
O 1.8210090135 1.2741846737 2.4382171039
O -0.2750177688 0.4813415003 2.1314290898
C 0.2080616625 -0.9010156761 2.1855915952
C 0.3427996024 -1.3653409228 3.6272887338
C -0.9818894028 -1.3650254411 4.4070212276
C -2.1282452560 -1.7793756249 3.5377823530
C -2.0735321422 -1.9475801758 2.2029824085
C -0.7981551611 -1.7449855372 1.4075003810
C -1.1144176967 -1.1945799044 -0.0016446409
C -2.0796081708 -2.1445018175 -0.7480579519
C -3.2550154845 -2.4914975261 0.1183069381
C -3.2446029206 -2.3733562034 1.4552851129
C -1.4199556469 -3.4260264429 -1.2894617016
C 0.1532260411 -0.8843891611 -0.8033805729
C -0.1301702250 -0.2547073264 -2.1673865694
C 1.1268695740 0.1700452672 -2.9030162541
C 0.8455069684 0.9614296330 -4.1630742964
C 2.1243638835 1.1751814341 -4.9511359403
C 2.6896350175 -0.1840413653 -5.3396929178
C 2.7030057816 -1.2132536722 -4.2344311935
O 3.3881711064 -2.2167052457 -4.2935927719
O 1.8785340887 -1.0695873422 -3.1827470141
O 3.0309921096 1.8940118900 -4.0989392111
C -1.2821934720 -0.0249311423 5.1049336532
H 0.6257149348 3.1571024165 -1.3930469886
H 1.5636147301 3.9233719573 -0.1058611154
H 1.5177291284 2.1600916573 -0.2372375206
H -0.8726141863 3.9731648236 0.4601337722
H -0.9902424841 2.2329411471 0.2193825427
H -0.9809211482 2.7845376262 2.5747040053
H 1.8396371271 3.9502330213 2.2105321408
H 0.3658293981 4.9034336248 2.4756068974
H 0.9569483666 3.7997506961 3.7334964756
H 1.1886159012 -0.9284132756 1.7040288919
H 0.7368312474 -2.3880848621 3.5814383108
H 1.0914612146 -0.7558423778 4.1430858602
H -0.8882942439 -2.1132545720 5.2082876996
H -3.0821372177 -1.9417745710 4.0407468496
H -0.3190051187 -2.7284466913 1.2804107796
H -1.6602554499 -0.2510450139 0.1391737605
H -2.4733358637 -1.5973840192 -1.6159470776
H -4.1473760142 -2.8611890034 -0.3836577010
H -4.1354530318 -2.6190244654 2.0309952630
H -2.1753487712 -4.0652888249 -1.7576128826
H -0.6585927719 -3.2006323251 -2.0425283139
H -0.9514324198 -4.0015878198 -0.4845734378
H 0.7727939810 -0.1748466788 -0.2426856745
H 0.7537288306 -1.7942992987 -0.9214717391
H -0.6961773485 -0.9313768717 -2.8185477885
H -0.7455581557 0.6445304879 -2.0280203092
H 1.7740951235 0.7515131637 -2.2374237486
H 0.1169486985 0.4343169185 -4.7903114531
H 0.4108298798 1.9232600056 -3.8723329625
H 1.9201244883 1.7589128450 -5.8589605858
H 2.0744441731 -0.6161597364 -6.1407857549
H 3.7063692384 -0.1053006145 -5.7358160740
H 3.8441740731 2.0517657732 -4.5947927397
H -1.4098882737 0.7792275964 4.3755526816
H -0.4643584348 0.2443057492 5.7818968663
H -2.2019374698 -0.0999497686 5.6945175689
