54
CONF989
C 4.3745694500 1.0949803849 2.7775050363
C 5.0451000923 0.4050827353 1.5802249323
C 4.3891147981 -0.9119762788 1.2907262024
C 3.2660527569 -1.0439282539 0.4930613373
C 2.6753119088 -2.3172154361 0.3264869512
N 3.2197925651 -3.3827286782 0.9372007238
C 4.3024399886 -3.1558421973 1.6791880676
N 4.9153927750 -1.9984496309 1.8990843193
N 1.5877294250 -2.5071912127 -0.4602224120
C 0.8170272704 -3.7387911232 -0.4295542333
C 0.1369971641 -4.0128743504 0.9282418598
O -0.2558527507 -2.8233133676 1.6126350477
C -1.0582576760 -1.9230360698 0.9559971839
C -0.9175677293 -0.5771147423 1.3299913719
C -1.7273022044 0.3934432130 0.7145075371
C -2.6649962352 0.0192285349 -0.2673151192
C -2.7763104862 -1.3282874890 -0.6077574717
C -1.9886393607 -2.3013022091 -0.0082856628
C -3.5222060607 1.0227757770 -0.9976443797
C -2.7444540196 1.7183248849 -2.1085323206
O -3.5938020788 2.6774781571 -2.7188262947
C -2.9543775266 3.3642136240 -3.7890655673
C -3.9322093006 4.3684896549 -4.3609989877
C -1.5522594922 1.8307222020 1.1324629707
C 0.0795698067 -0.1960945112 2.3889371034
Cl 2.5442428362 0.3453842981 -0.3146913419
H 3.3217357731 1.3062929919 2.5674635965
H 4.8749740802 2.0405092215 3.0047665400
H 4.4265979329 0.4546732440 3.6625521847
H 6.0948091880 0.2037373842 1.8093898520
H 5.0006479718 1.0556230233 0.7020577956
H 4.7338715170 -4.0303685923 2.1669084884
H 1.0831712549 -1.6737210937 -0.7236535048
H 1.4699124533 -4.5889667820 -0.6535321237
H 0.0784524596 -3.6618742144 -1.2308342898
H 0.8454868719 -4.4863044863 1.6096979227
H -0.7136235576 -4.6943523976 0.7813250901
H -3.5069629233 -1.6257858319 -1.3550363856
H -2.1209645182 -3.3439128655 -0.2737139558
H -3.9274849356 1.7827612013 -0.3218922905
H -4.3820144534 0.5138208432 -1.4449404015
H -1.8421840819 2.2068598006 -1.7003773648
H -2.4056473043 0.9717952782 -2.8482616360
H -2.6386141221 2.6428817907 -4.5623766501
H -2.0457634930 3.8705774788 -3.4199063232
H -3.4732157949 4.9153054104 -5.1899806965
H -4.8276388399 3.8616391050 -4.7309572554
H -4.2342822257 5.0870756095 -3.5942464845
H -1.6159743866 1.9332549006 2.2207483065
H -2.2995996207 2.4880052452 0.6891939621
H -0.5650276663 2.2071071017 0.8376390080
H 0.8045727824 -0.9944012312 2.5499611765
H 0.6194634734 0.7146832346 2.1172206335
H -0.4198045502 -0.0057428812 3.3474278355
