61
CONF338
C -1.3098843335 4.0788661605 2.2624535730
C -2.1579324002 2.8090559105 2.2694282500
C -1.6243172485 1.7770854028 3.2613544736
C -2.4539332547 0.4786741273 3.3183635704
C -2.6369067591 -0.1724715885 1.9678202192
O -3.7014230806 0.0428309086 1.3353584972
N -1.6676607370 -0.9541725218 1.4440381716
C -0.3434473507 -1.1409977942 2.0586083980
C 0.7667935304 -0.6457729021 1.1587055757
C 1.8988446439 -1.4299052707 0.9414334587
C 2.9226854335 -0.9837439472 0.1096557409
C 2.8268877962 0.2517453135 -0.5346305023
C 1.7044277028 1.0520441187 -0.2864149282
C 0.6869102562 0.6067881145 0.5431514798
C 3.8747857145 0.6941884985 -1.4834003544
C 5.2091620700 0.7444912781 -1.0681726395
C 6.2096228678 1.2143509663 -1.9124932122
C 5.8904037748 1.6481451435 -3.1968716828
C 4.5739777334 1.5860367318 -3.6370889850
C 3.5643370988 1.1018138168 -2.7988177091
C 2.2018370553 0.9979737555 -3.3267981919
N 1.3800894482 -0.0304759702 -3.0924024172
N 0.2886812471 0.3459603202 -3.7314516493
N 0.3839075323 1.5178086855 -4.3358577406
N 1.6027225091 1.9481832318 -4.0979511083
C -1.8980942549 -1.7892260694 0.2364073904
C -3.0515984454 -2.8094401493 0.4167582753
C -3.1623195242 -3.6941444610 -0.8272681420
C -2.8059549493 -3.6600010302 1.6641480970
C -2.0553398182 -0.9864243054 -1.0634346284
O -1.3982069778 -1.2587557612 -2.0558784793
O -2.9711510899 -0.0324539926 -1.0793705115
H -0.2757144180 3.8521420478 1.9787858911
H -1.2910065286 4.5421573684 3.2549817131
H -1.7006508135 4.8142756888 1.5527990011
H -2.1809110288 2.3802462123 1.2587478505
H -3.1983315608 3.0500261998 2.5225945331
H -1.6235388467 2.2080085546 4.2696420037
H -0.5774150614 1.5514314409 3.0239605855
H -2.0188759290 -0.2186486686 4.0401047444
H -3.4648296200 0.7200578910 3.6577946299
H -0.3142554782 -0.6121144431 3.0115247097
H -0.1994586795 -2.2059153918 2.2732392230
H 1.9731317552 -2.4074429891 1.4101378713
H 3.7829328241 -1.6199212495 -0.0763097124
H 1.6218689016 2.0240105892 -0.7639442092
H -0.1854228161 1.2350089361 0.6965620765
H 5.4537051130 0.4354064440 -0.0563983523
H 7.2363627027 1.2521074196 -1.5626527906
H 6.6650872556 2.0213257559 -3.8585749622
H 4.3202505740 1.8896477239 -4.6476291430
H -0.5809566915 -0.1849500871 -3.6568060558
H -0.9767025394 -2.3624427007 0.0997246007
H -3.9902163751 -2.2599257595 0.5396793038
H -2.2163081664 -4.2129684102 -1.0206578236
H -3.4274970901 -3.1208026894 -1.7206446039
H -3.9387178277 -4.4485926236 -0.6711109714
H -1.8696730787 -4.2221065075 1.5678033780
H -2.7525016207 -3.0524017405 2.5725372507
H -3.6223880578 -4.3776208339 1.7875591402
H -3.3958727498 0.0219451489 -0.1476694416
