47
CONF79
C -7.7985712683 1.0355631269 0.2378509732
O -6.8739346173 0.2915530677 -0.5866508556
P -5.7405144724 -0.6086050913 0.1060936818
S -6.2646393660 -1.7004791596 1.6098832970
O -5.1099409372 -1.3483421321 -1.1694921821
C -5.6797842080 -2.5942145438 -1.6316751338
O -4.6087952313 0.5246157906 0.3740911121
C -3.4233051534 0.2009503440 1.0395178816
C -3.3494464079 0.3624684583 2.4144417537
C -2.1443271917 0.1106312647 3.0606597236
C -1.0346355568 -0.3235681717 2.3332380592
C -1.1319545462 -0.4946342219 0.9496988855
C -2.3261038001 -0.2198939800 0.2978383864
S 0.4560441423 -0.7278062867 3.2322468125
C 1.7386865666 -0.0933426379 2.1633083059
C 2.8901290762 -0.8625204019 1.9858862160
C 3.9435941643 -0.3780850499 1.2173155640
C 3.8221226229 0.8655134869 0.6165375000
C 2.6813100249 1.6426238940 0.7768218353
C 1.6434659423 1.1660745743 1.5644503128
O 4.8900205452 1.3745842347 -0.1279450920
P 4.9818823622 1.1002488140 -1.7279711276
S 3.4727948662 1.5393936579 -2.8322522432
O 5.4385736403 -0.4524166783 -1.6906169335
C 5.3958929616 -1.2333974509 -2.9058240008
O 6.3015139349 1.9353711917 -2.0834355533
C 7.5155059596 1.7462556421 -1.3153131464
H -8.2981830947 0.3679432959 0.9460246674
H -8.5234038992 1.4732735463 -0.4492532920
H -7.2703737054 1.8285459916 0.7767399699
H -6.6833962432 -2.4244958439 -2.0336133049
H -5.0167850154 -2.9475460769 -2.4220089563
H -5.7198666731 -3.3191602066 -0.8138280302
H -4.2242598564 0.6889286835 2.9644466194
H -2.0648987348 0.2548982928 4.1329444772
H -0.2723782774 -0.8346934483 0.3823839203
H -2.4197870392 -0.3388053282 -0.7756205278
H 2.9586291625 -1.8445147097 2.4418728332
H 4.8431858355 -0.9628116414 1.0642593189
H 2.6208825787 2.6091868184 0.2902784118
H 0.7527668439 1.7680244069 1.7079993185
H 4.3837982474 -1.2330942423 -3.3196336882
H 6.0975300728 -0.8340394430 -3.6454975924
H 5.6911510060 -2.2439286582 -2.6202212796
H 8.2936792373 2.2877604350 -1.8541419557
H 7.3936192884 2.1616058070 -0.3116111294
H 7.7725051122 0.6843808122 -1.2531778003
