28
CONF44
C -2.7229640203 -0.9551951657 -1.1681821980
O -1.7337620360 -0.5971990653 -0.1558394088
P -1.4166378715 0.9492087944 0.0748532025
O -1.0243874602 1.7477230541 -1.1075114794
O -2.6573195841 1.5844751632 0.8370237689
C -3.1985090694 0.9535203476 2.0368047939
O -0.2894635843 0.8258035144 1.2413496862
C 1.0494143414 1.0477901931 0.9475361186
C 1.7127395775 2.0159460219 1.5810954503
Cl 0.9352212204 3.1277037693 2.6612705261
C 1.6725159046 0.0838560187 0.0251938807
C 1.3988383487 -1.2740760576 0.2276037671
C 1.9220355745 -2.2491203456 -0.6049054429
C 2.7428172244 -1.8790113540 -1.6738810351
C 3.0221873771 -0.5376026296 -1.9018560404
C 2.4872669040 0.4306436491 -1.0619139685
Cl 2.8337332051 2.0995600835 -1.4529501933
Cl 3.4193739599 -3.0689327909 -2.7448758113
Cl 1.5443080281 -3.9197493016 -0.2934282237
H -2.4026861188 -0.5915535669 -2.1474881906
H -3.6994643152 -0.5393869195 -0.9042970862
H -2.7660250639 -2.0434688232 -1.1647185596
H -3.4617320206 -0.0868844975 1.8307882245
H -2.4670283382 1.0123494714 2.8462170534
H -4.0904037944 1.5241432501 2.2922350336
H 2.7790791312 2.1577987945 1.4633237259
H 0.7672938506 -1.5672483579 1.0580144342
H 3.6435588305 -0.2510934564 -2.7414621234
