40
CONF7
C 1.6776535481 3.9660885809 -1.5163821158
C 0.5219474467 3.0228946718 -1.2792615803
O 0.8695594591 1.6552712073 -1.6770154132
P 1.6808998212 0.6623683435 -0.7351066662
S 1.8947569686 1.0848674034 1.1471729802
O 3.0162438675 0.4584214404 -1.5851399827
C 4.2263814392 -0.1492867554 -1.0194634096
C 4.0859557213 -1.6447216621 -0.8522294642
O 0.9551291024 -0.7816138505 -1.0723008358
C -0.3129135943 -1.0992780545 -0.6658789372
N -1.0951261544 -0.1483003816 -0.1940769730
C -2.3319255219 -0.5254769566 0.1791743176
N -2.8166693503 -1.7650931523 0.0990606482
C -1.9986178202 -2.7219028107 -0.3921428402
C -2.5569782633 -4.1061131245 -0.4772629919
C -0.7030909165 -2.4283760891 -0.7939344533
C -3.2264589876 0.5606641086 0.7233395650
C -3.5184084901 1.6054945389 -0.3621029779
C -2.5951225724 1.2149503370 1.9584601129
H 1.9931147879 3.9392045864 -2.5630267672
H 2.5300157981 3.7114346450 -0.8793537958
H 1.3611383513 4.9857473334 -1.2744930878
H 0.2075803923 3.0103733337 -0.2311113445
H -0.3379884617 3.2659853766 -1.9066783514
H 4.4476840351 0.3490466815 -0.0704318401
H 5.0010119728 0.1037372609 -1.7459421900
H 3.3409546949 -1.8940456404 -0.0913067562
H 5.0501486142 -2.0533574903 -0.5334150051
H 3.8027827019 -2.1182755834 -1.7963791992
H -3.4376844772 -4.1101023147 -1.1279819299
H -2.8872485681 -4.4349962592 0.5131888646
H -1.8217576907 -4.8127233412 -0.8656023398
H -0.0288558944 -3.1806907105 -1.1842631496
H -4.2040550313 2.3644443048 0.0273236961
H -2.5931125236 2.1026795287 -0.6705502523
H -3.9759163020 1.1465156426 -1.2442467005
H -1.6583808208 1.7142074187 1.6909596310
H -3.2789254811 1.9619041054 2.3734579913
H -4.1646020554 0.0769960575 1.0135175747
H -2.3805168079 0.4739108416 2.7350465621
