65
CONF484
C -3.3997041836 -0.9041472683 -2.0135054637
C -4.1318546134 0.3998084585 -1.7071969988
C -3.4423585164 1.6318667919 -2.3103232190
C -4.2269992321 2.9190085169 -2.0163968486
C -2.0178225646 1.7881090061 -1.8184757476
O -1.0430628810 1.8984583573 -2.5403156726
O -1.9629744186 1.8220004374 -0.4746623663
C -0.6670285822 2.0842922907 0.1522336058
C -0.4944175971 3.5845529600 0.3192793102
C 0.8495170147 3.9075762830 0.9885663676
C 1.0827162380 3.0135593919 2.1707083600
C 0.4054395515 1.8748550699 2.4089434861
C -0.6876343288 1.3676603704 1.4917010661
C -0.5933057242 -0.1674994621 1.3654428602
C -0.8540130914 -0.7711992765 2.7612960683
C 0.0703354377 -0.1416487266 3.7710041789
C 0.6609669071 1.0512242595 3.5811960017
C -0.7675283796 -2.2999650248 2.7928192480
C 0.7610573801 -0.6198410920 0.7711020668
C 0.5955123105 -1.6139782182 -0.3780076604
C 1.9214158033 -2.0451538362 -0.9798641563
C 2.7960188816 -2.8581989266 -0.0481096128
C 3.9954052210 -3.3833994403 -0.8071059341
C 3.5029448358 -4.3028639976 -1.9170671583
C 2.3388876981 -3.7709072955 -2.7188284955
O 2.0300162061 -4.2334954652 -3.8010867158
O 1.5668969756 -2.8001025670 -2.2007129487
O 4.8360271743 -4.0877139158 0.1132408438
C 2.0294686589 3.8350922118 0.0028332520
H -3.3027801645 -1.0548146387 -3.0941542599
H -2.3918875390 -0.9023114041 -1.5835386758
H -3.9351232421 -1.7627679049 -1.5974814516
H -5.1494954924 0.3611056766 -2.1139736613
H -4.2274311242 0.5365589997 -0.6238120679
H -3.3626472884 1.4993225442 -3.3949640273
H -3.7241602917 3.7968692263 -2.4339634543
H -5.2234565561 2.8498690098 -2.4627730176
H -4.3399403917 3.0631997828 -0.9378536824
H 0.1081477131 1.6766706395 -0.5022322890
H -0.5605181855 4.0792837466 -0.6559272868
H -1.3168022343 3.9566066642 0.9428995000
H 0.8004042359 4.9429242293 1.3538801662
H 1.8639512002 3.3140671403 2.8690059344
H -1.6535453294 1.5972671246 1.9691848444
H -1.4003484925 -0.4951805071 0.6970205773
H -1.8880432545 -0.5052893158 3.0356575832
H 0.2746071560 -0.7034632507 4.6810092511
H 1.3537948276 1.4423708415 4.3240731272
H -1.4588407738 -2.7404320224 2.0669454936
H 0.2429048005 -2.6532067139 2.5621435184
H -1.0312728601 -2.6741699255 3.7873511799
H 1.3255132016 0.2466006314 0.4034240891
H 1.3775913621 -1.0528215964 1.5650164670
H 0.0506636437 -2.5048232174 -0.0411677655
H -0.0022494342 -1.1470543730 -1.1704545024
H 2.4740491192 -1.1649193147 -1.3350092134
H 2.2244616425 -3.6936628507 0.3778380151
H 3.1273479383 -2.2137378740 0.7715998152
H 4.5470434247 -2.5357255223 -1.2425679093
H 3.1433645385 -5.2354450083 -1.4591232363
H 4.2964568710 -4.5719823514 -2.6201085561
H 5.6215658815 -4.3812498012 -0.3663899462
H 1.8888856966 4.5487760840 -0.8157156366
H 2.1232913093 2.8309172249 -0.4234678088
H 2.9705749954 4.0726971447 0.5089209683
