14
CONF21
C 0.5539585850 -0.9399042466 0.1083030146
C -0.4842889537 -0.4408408947 -0.8792845080
C -1.4784199056 0.4942505701 -0.2447890606
O -1.6548948967 0.6283068999 0.9488462869
O -2.1916589141 1.1648868747 -1.1728931849
C 1.4245534634 0.1713618282 0.6305231589
O 1.4316123756 1.3121317742 0.2150078117
O 2.2298280902 -0.2543680319 1.6251946243
H 0.0907133457 -1.4483213291 0.9593131470
H 1.2102770078 -1.6754611467 -0.3713363888
H -1.0529908998 -1.2872635208 -1.2835401505
H -0.0210774598 0.0592256217 -1.7342603422
H -2.8413971158 1.7238068124 -0.7128241730
H 2.7837852618 0.4921887992 1.9117394471
