29
CONF5
C -3.1937265090 -1.3544248691 -0.2543190602
C -2.1543270965 -0.5274239216 0.4524467257
O -2.5689122665 0.8782131602 0.4462101323
C -1.4737985485 1.6010326222 0.0590718828
C -1.3179375343 2.9720329733 0.0448084948
C -0.0979382848 3.4632674409 -0.4453220873
C 0.9061222832 2.6082831698 -0.8909423893
C 0.7138595936 1.2237599011 -0.8697188604
C -0.4856598646 0.7345429860 -0.3939063068
O -0.9061760246 -0.5584519743 -0.3254713845
O 1.6836465109 0.3760889142 -1.3864905712
C 2.2880780749 -0.4887579651 -0.4801310259
O 2.1139481319 -0.4275095396 0.7249302631
N 3.0849557193 -1.3496320690 -1.1281143681
C 3.8505758371 -2.3570414623 -0.4059250702
C -1.8505078299 -0.9469405329 1.8727911586
H -4.1357265182 -1.3030242566 0.2973065344
H -2.8662970788 -2.3963146785 -0.2919066118
H -3.3444429754 -0.9813593292 -1.2698281488
H -2.1018100258 3.6344226184 0.3935407201
H 0.0683842485 4.5347503321 -0.4702736370
H 1.8495242353 2.9963421736 -1.2598696307
H 3.1092439771 -1.3279915470 -2.1353043766
H 4.5131039854 -2.8555514776 -1.1145906103
H 4.4550913609 -1.8910531823 0.3777359866
H 3.1940715312 -3.1038455440 0.0542325467
H -2.7595138732 -0.8844717452 2.4764394734
H -1.0865935818 -0.2912655878 2.3003746730
H -1.4872381707 -1.9776769116 1.8805251442
