78
CONF578
C -0.6241248220 -0.4014821471 -0.8162676117
C 0.5291926872 -0.4539805840 -1.8081142174
O 0.1584580186 -1.5572909612 -2.7064492542
C -0.7029866025 -2.4045110802 -2.0842801249
O -1.0769014333 -3.4249818422 -2.6131853244
C -0.9993412679 -1.8702785796 -0.7042040501
C -2.3901729822 -2.0513228484 -0.0927393808
C -3.5235860899 -1.6167702924 -1.0161439181
C -4.0261837005 -0.3143725730 -0.9779965780
C -5.0387596968 0.0596908109 -1.8583502396
O -5.6142213696 1.3007595549 -1.9200404201
C -5.1264602181 2.2983625287 -1.0144689408
C -5.5643923780 -0.8538244415 -2.7778533620
O -6.5625812285 -0.5016410525 -3.6414828170
C -5.0664661514 -2.1619358172 -2.8046546163
O -5.6444695346 -2.9852143117 -3.7256696352
C -5.1401159312 -4.3235619138 -3.8114435589
C -4.0519723577 -2.5383695849 -1.9222878751
C -2.4107101334 -1.2846825923 1.2228204102
C -3.4049028844 -1.6493320507 2.1549619569
C -3.4740154213 -0.9441970977 3.3295127837
C -2.6088548002 0.1123213954 3.6024365858
O -2.9301775815 0.6745160698 4.8126075534
C -3.8700199297 -0.2399546500 5.4139065493
O -4.3684892157 -1.0890783690 4.3576020976
C -1.6430197359 0.4982277806 2.7100703762
C -1.5398245110 -0.2204398667 1.4970931345
C -0.4132837746 0.1902249991 0.5644267720
O 0.8389762715 -0.2947454296 1.1330254793
C 1.7805508019 0.6895012772 1.3982797858
O 2.3384116365 1.1276198373 0.1472990945
C 3.3038250631 2.1548514713 0.3492742171
C 3.8077474318 2.6443629447 -0.9961810177
O 4.8450193738 3.6164831450 -0.7624955477
C 5.9105763970 3.1395578625 0.0404393134
O 5.4662881500 2.6298553621 1.2958302238
C 4.4903132306 1.5925943033 1.1289124303
C 4.0187327359 1.0994295932 2.4808422469
O 5.0534541558 0.5215378137 3.2766760351
C 2.8790397803 0.0895472241 2.2730793911
O 2.2994294836 -0.2702877442 3.5206480428
C 6.7667004654 2.1412401522 -0.6988845133
C 6.9315300071 1.9931644380 -2.0498348326
C 7.9045838235 1.0137002394 -2.3901472933
C 8.4808560880 0.4331206255 -1.2943149669
S 7.8344972188 1.0797684373 0.1784476188
H -1.4608675049 0.1359357798 -1.2813605267
H 1.4777397910 -0.7127287688 -1.3325035529
H 0.6437322516 0.4385690561 -2.4241263565
H -0.2697838911 -2.3688504802 -0.0441714927
H -2.5359404577 -3.1149526440 0.1279185868
H -3.6424437191 0.3911046419 -0.2516117898
H -5.2905840269 1.9946941454 0.0259938187
H -5.6995623809 3.2002255701 -1.2302245269
H -4.0596037160 2.4873666086 -1.1813484766
H -6.7754606856 0.4290312120 -3.4767379946
H -4.0729074674 -4.3262372211 -4.0630858268
H -5.2994623040 -4.8661782146 -2.8720604644
H -5.7077312132 -4.8007915318 -4.6108200785
H -3.6573908722 -3.5455927931 -1.9393653431
H -4.0941690190 -2.4589586094 1.9380227157
H -4.6987881840 0.3232645759 5.8470560790
H -3.3487428931 -0.8582634725 6.1571830434
H -0.9777250671 1.3281285460 2.9240000528
H -0.3638239738 1.2844058109 0.5078135580
H 1.3264636275 1.5605976773 1.9068575319
H 2.8653804715 2.9963049771 0.9110290480
H 3.0280183754 3.1614465351 -1.5598551419
H 4.1837008087 1.7951290205 -1.5831944962
H 6.4939820273 4.0309946369 0.2944679970
H 4.9194217496 0.7520270683 0.5575678146
H 3.6387133351 1.9478221155 3.0647028764
H 5.4736364092 -0.1817731652 2.7606218762
H 3.2769878747 -0.7976597615 1.7508289113
H 3.0325634602 -0.4758961293 4.1180463190
H 6.3697863048 2.5705186043 -2.7746793927
H 8.1646673355 0.7485696980 -3.4082613694
H 9.2380446654 -0.3389635314 -1.2594055122
