45
CONF346
C 6.8232714264 -1.4787624856 -0.8279265687
C 6.0879541576 -0.6607705200 0.2320984019
C 4.8839914084 0.0924168873 -0.3333456254
C 4.1368951878 0.9012752269 0.7279259269
C 3.0096490818 1.7773262270 0.1740368519
C 1.8784470267 0.9911033573 -0.4890398030
C 0.7237297244 1.8879738777 -0.9290748562
C -0.4506841978 1.1218494705 -1.5622881468
C -1.1109177831 0.1272803890 -0.6363222676
C -0.8074421702 -1.2368572593 -0.7580803353
N -1.4511504708 -2.0749958656 0.1033398708
C -2.3615322176 -1.6262115514 1.0493724081
N -2.8214755536 -2.6926360255 1.7282587163
C -2.1635277212 -3.7258964271 1.1578238487
N -1.3173343359 -3.4306774175 0.1675827232
N -2.6595032932 -0.3397600195 1.1895755879
C -2.0343970914 0.5145116486 0.3625675610
C -2.3840212269 1.9608948868 0.6066886836
C -1.8320232547 2.4533630031 1.9525277335
N 0.0150425293 -1.8100531111 -1.6577195873
H 7.1939598599 -0.8329577815 -1.6319237919
H 6.1568817455 -2.2224844761 -1.2791401196
H 7.6804124702 -2.0104199951 -0.4025057686
H 6.7800237889 0.0582910662 0.6902177829
H 5.7508369600 -1.3228370607 1.0409997899
H 4.2043608003 -0.6299635419 -0.8043255834
H 5.2213384290 0.7677437414 -1.1334072138
H 4.8575687238 1.5426512621 1.2530535559
H 3.7252294475 0.2162446532 1.4827117707
H 3.4263468789 2.4928894810 -0.5488817669
H 2.5868969036 2.3747628875 0.9931466564
H 1.5093715118 0.2326339676 0.2166449724
H 2.2649532562 0.4485230482 -1.3621292129
H 0.3610814665 2.4577136682 -0.0648552124
H 1.0886225773 2.6233607036 -1.6576529522
H -1.2010756528 1.8368514933 -1.9127569026
H -0.0986061809 0.6162205007 -2.4681708074
H -2.2991565768 -4.7543497194 1.4716888297
H -3.4768673344 2.0424103391 0.6176542449
H -2.2469435903 1.8665025204 2.7760310228
H -2.0950928126 3.5037069167 2.1077690753
H 0.6653058084 -1.2381518822 -2.1686123009
H 0.2579730223 -2.7810190556 -1.5295340310
H -2.0172894906 2.5992162115 -0.1980877035
H -0.7413849254 2.3642674225 1.9864587078
