21
CONF36
C 1.3587901263 -1.3080594519 1.4474097763
C 1.0215943687 -0.3217616369 0.3249623649
C -0.4634977673 -0.1322789503 0.1683391202
C -0.9325194223 0.7316147137 -1.0408298051
C -0.3694642132 2.1793898839 -1.1346071856
F -0.5820654316 2.8533994424 0.0039489328
F -0.9816690102 2.8281111905 -2.1372781362
F 0.9481699098 2.1601456285 -1.3881740428
F -2.2863884811 0.8320696548 -1.0017130144
F -0.5842809258 0.0930533930 -2.1883241147
F -1.0143227788 0.4254493950 1.2959410424
F -1.0936217392 -1.3429470064 -0.0093447561
C 2.8584289414 -1.4484882670 1.6304600454
O 3.4113817291 -1.9924543234 0.4212801162
H 0.9301577070 -0.9606813550 2.3935105641
H 0.9297754218 -2.2915407370 1.2289737716
H 1.4241818095 -0.6706396809 -0.6305581988
H 1.4690367096 0.6541667821 0.5409301965
H 3.0590599415 -2.1160774555 2.4801086939
H 3.3058382085 -0.4676786296 1.8498802784
H 4.3692352699 -2.0323317404 0.5272402771
