57
CONF71
C -4.2634985262 2.4066616079 -2.6017952519
C -3.3702371859 1.2216285763 -2.2635064563
C -2.1580032185 1.6454736165 -1.4387479650
O -2.0189075314 2.8107299037 -1.0808829499
N -1.2458369798 0.6573706782 -1.1326958111
C -1.4673289818 -0.6780755899 -1.6057933520
C -0.8964815877 -1.1045670353 -2.8039835410
C -1.1245507066 -2.3996710482 -3.2574657671
C -1.9198148372 -3.2722566155 -2.5192481860
C -2.4859040272 -2.8473047719 -1.3205751952
C -2.2586134630 -1.5536490606 -0.8631427547
C 0.0176312806 0.9837735416 -0.3815503958
C -0.3413346704 1.5528532446 1.0069275240
C 0.8585462653 1.6659667816 1.9427976141
N 1.5479323369 0.3867615626 2.0876672488
C 2.0073017771 -0.0911428802 0.7871033319
C 0.8311852364 -0.3030701633 -0.1600281647
C 2.6264403932 0.4856110349 3.0618246366
C 3.2436341078 -0.8743717208 3.4272667946
C 2.2295901175 -1.9158001674 3.7731902143
C 1.9824186069 -3.1050774579 3.1424984680
C 0.9148249559 -3.8470980261 3.7176036760
C 0.3491741953 -3.2174084878 4.7886182282
S 1.1228641774 -1.6981258945 5.1027494515
C 0.8317538168 2.0007697044 -1.1903591435
O 1.2028407749 1.4196493157 -2.4370818241
C 1.9011804985 2.3432920383 -3.2540745248
H -5.1244693342 2.0735195895 -3.1885256905
H -3.7160100022 3.1564202082 -3.1777217812
H -4.6243521262 2.8958180743 -1.6943285861
H -3.9295285773 0.4584097163 -1.7092301502
H -3.0235410187 0.7162411703 -3.1727749763
H -0.2716065562 -0.4109985548 -3.3569594655
H -0.6794447784 -2.7284071231 -4.1913390713
H -2.0965761136 -4.2817263018 -2.8761813897
H -3.1020578815 -3.5246448876 -0.7379736325
H -2.6900732128 -1.2108502049 0.0725687951
H -1.0699431452 0.8692882449 1.4585345881
H -0.8195820914 2.5282607877 0.8993780780
H 0.4987108463 1.9775817769 2.9312889364
H 1.5488406905 2.4633679421 1.5949245876
H 2.5001568382 -1.0596682680 0.9189710295
H 2.7604155411 0.5924749432 0.3409592686
H 1.1995092039 -0.6908554940 -1.1131161300
H 0.1831866624 -1.0646560052 0.2855633928
H 3.4386891928 1.1612060562 2.7192812925
H 2.2060528125 0.9328423453 3.9721799265
H 3.8536815881 -1.2588068681 2.6031536851
H 3.9349929088 -0.7091364767 4.2632556575
H 2.5548049607 -3.4383065333 2.2839115759
H 0.5816757080 -4.8108143960 3.3519937074
H -0.4683275856 -3.5509549923 5.4121226977
H 0.2351567987 2.9071453224 -1.3492660634
H 1.7367453689 2.2773595974 -0.6276675345
H 2.8345112317 2.6788741238 -2.7745208870
H 2.1466314397 1.8312951501 -4.1879187522
H 1.2849430121 3.2276763572 -3.4778796003
