47
CONF99
C -0.0797074280 2.6093634188 2.3245090977
C -1.5166410516 2.6689936634 1.8110526693
C -2.2712689640 1.3664948552 2.0755779427
C -3.6837152709 1.3540009798 1.5215374586
O -3.6670258809 1.4736919967 0.0595097598
C -3.4379487891 0.3510876139 -0.6304490181
O -3.2905313673 -0.7524427472 -0.1503636152
C -3.4347414062 0.6359286956 -2.1343675715
C -4.8245641733 0.3995860259 -2.7030302301
O -2.5511273123 -0.2725447071 -2.7964537195
C -1.2179892030 -0.2072421368 -2.4842763182
C -0.6397439572 0.7951812783 -1.7015499219
C 0.7296752901 0.7641807580 -1.4448097939
C 1.4999925094 -0.2592823484 -1.9677874596
C 0.9390247412 -1.2542443121 -2.7577865255
C -0.4242512209 -1.2281623016 -3.0153719720
O 2.8880782635 -0.2532343475 -1.7642106667
C 3.3757575578 -0.8375858701 -0.6379012701
C 4.7682367161 -0.7936269097 -0.4753183726
C 5.2961133560 -1.3811727172 0.6521877626
C 4.4288103317 -1.9853231037 1.5728115250
C 3.0667883191 -1.9715848703 1.3150516773
N 2.5412024490 -1.4035849804 0.2205006224
C 4.9911757795 -2.6372477640 2.7909319701
F 5.7583714087 -1.7806422714 3.5185445802
F 5.7996537936 -3.6875073736 2.4760939699
F 4.0358186071 -3.1127450799 3.6197977007
H 0.4530749518 3.5451544639 2.1296353550
H -0.0568065514 2.4251792372 3.4043661193
H 0.4728960035 1.7986700921 1.8355761248
H -2.0523689152 3.4995211541 2.2886353793
H -1.5129405530 2.8777243919 0.7346626624
H -1.7130280598 0.5181282277 1.6604508438
H -2.3461275902 1.1949838071 3.1575808370
H -4.2527611658 2.2266896840 1.8505546481
H -4.2196510448 0.4404082260 1.7898921763
H -3.1240225378 1.6724667796 -2.3119202252
H -4.8155417235 0.5908760378 -3.7787897320
H -5.5383571747 1.0791270435 -2.2306468431
H -5.1372064802 -0.6322862698 -2.5212210301
H -1.2262032705 1.6079401351 -1.2910957276
H 1.1903704929 1.5351743187 -0.8358525120
H 1.5647106474 -2.0442505744 -3.1599203522
H -0.8881890539 -1.9963703362 -3.6250474739
H 5.3915853113 -0.3123171573 -1.2193726933
H 6.3679943953 -1.3747055397 0.8232853959
H 2.3631282310 -2.4296492662 2.0047960781
