24
CONF2
C -1.6403890868 0.4581081003 -1.8281671352
N -1.7322225111 0.1230156554 -0.4100095984
C -0.6762920207 0.0981643212 0.4886732186
C -1.1915976460 -0.2986442148 1.7133623547
C -2.5763195174 -0.5200227588 1.5647233592
C -2.8727506823 -0.2446964133 0.2415156081
Cl -4.3908345976 -0.3158680067 -0.5517564627
Br -3.7958456187 -1.0610753676 2.8808961945
Br -0.1903355445 -0.4737765996 3.2927446205
C 0.6744711810 0.4711411245 0.1358094324
C 1.2005681608 1.7236645088 -0.1432885722
C 2.5810150279 1.5824162184 -0.3931270051
C 2.8655541297 0.2347913133 -0.2544025614
N 1.7199582797 -0.4366883620 0.0594759175
C 1.6069065293 -1.8798401509 0.2504228549
Br 4.5134591101 -0.6314821834 -0.4340818665
Br 3.8028680137 2.9395365786 -0.8158886209
Br 0.2169292774 3.3241145128 -0.1467173689
H -2.1767657802 1.3884111166 -2.0336878134
H -0.5867256503 0.5833517947 -2.0789047797
H -2.0623198759 -0.3516373604 -2.4279710900
H 0.5511591606 -2.1243606084 0.3701468580
H 2.1560221006 -2.1877204588 1.1443241604
H 2.0034868674 -2.4009031834 -0.6240914081
