41
CONF26
C 0.2937618964 -1.9024313868 -2.9107831301
C -0.1890042058 -1.2577044985 -1.6640494492
C -1.2993347748 -1.5594290257 -0.9265566706
C -1.3480336607 -0.6654993469 0.1976114596
C -0.2048381927 0.1632959597 0.1295466263
N 0.5211874455 -0.2262562883 -1.0173996083
C 1.6757719482 0.3814775455 -1.5404515337
O 1.8782847706 0.4440551954 -2.7396142301
C 2.6752214410 0.8845073197 -0.5604113331
C 3.4521930797 1.9890428791 -0.9171954795
C 4.4537056434 2.4484393312 -0.0745727357
C 4.6921019256 1.7698799079 1.1172927963
C 3.9510689828 0.6493924645 1.4797264974
C 2.9354990430 0.2158816244 0.6388395003
Cl 5.9597516942 2.3347584137 2.1821321347
C -0.0203377399 1.2006588441 1.0307977200
C -0.9568363323 1.3719898804 2.0492576355
C -2.0732022071 0.5273232264 2.1466571215
C -2.2807359837 -0.4878853363 1.2154501609
O -3.0293569567 0.6367443251 3.1189848713
C -2.8796226214 1.6749635963 4.0795776710
C -2.3168646055 -2.6005971144 -1.2392634987
C -3.2252894408 -2.2395593539 -2.3997101419
O -3.0044067172 -1.4134281919 -3.2479354142
O -4.3413587067 -3.0187294266 -2.3941022951
H 1.3620091330 -2.1324894717 -2.8644242654
H 0.1385690423 -1.2533791193 -3.7763306150
H -0.2610539872 -2.8290659726 -3.0744348064
H 3.2610213560 2.4818372828 -1.8643373173
H 5.0495562542 3.3146982971 -0.3364822739
H 4.1674230527 0.1285915273 2.4048790393
H 2.3445807063 -0.6509298512 0.9150168892
H 0.8213242850 1.8781259904 0.9665125050
H -0.8067626619 2.1783618189 2.7550007732
H -3.1734810068 -1.0989568799 1.2940587902
H -2.8940077582 2.6655486049 3.6058246202
H -1.9519096913 1.5582231355 4.6554903509
H -3.7344878583 1.5845864091 4.7512872507
H -2.9372935031 -2.8208063574 -0.3659026372
H -1.8485295160 -3.5566863082 -1.5118974106
H -4.8562838575 -2.7685491521 -3.1774490701
