40
CONF16
C 3.2414119490 2.4443516771 -1.5599368799
N 2.4473896968 2.4311693980 -0.3281235213
C 1.3656322626 3.4140117143 -0.4435555947
C 1.9087991427 1.0815919798 -0.1096718410
C 1.3170239830 0.8933891778 1.2840977085
C 0.7686477920 -0.5201025698 1.4909800900
N -0.2614022285 -0.8687952118 0.5028676386
C -0.3183637143 -2.1812145717 -0.0036335542
C 0.1971688206 -3.2750553553 0.7019356291
C 0.1609508431 -4.5524669325 0.1480268465
C -0.4246757595 -4.7705033109 -1.0949594849
C -0.9820110104 -3.6979081817 -1.7879100275
C -0.9122707921 -2.4149507531 -1.2549087891
S -1.5046719017 -1.0187228475 -2.1899000160
C -2.1167066550 -0.0483089160 -0.8315130527
C -1.4016126619 -0.0633338155 0.3786828821
C -1.8587237531 0.7326468733 1.4366883790
C -2.9642949607 1.5498111013 1.2430033355
C -3.6706740164 1.5815987406 0.0490724589
C -3.2464701861 0.7475606988 -0.9825271494
Cl -3.4926507165 2.5714928569 2.5780578712
H 4.0697030883 1.7332613402 -1.4755752377
H 3.6583343821 3.4440209957 -1.7202377180
H 2.6422434499 2.1740499383 -2.4513557077
H 1.7907907940 4.3995884161 -0.6580587260
H 0.6561124722 3.1572510024 -1.2550947729
H 0.8033800443 3.4888740391 0.4912524710
H 2.7307705000 0.3651986352 -0.2385988308
H 1.1473633197 0.8377448548 -0.8774061820
H 2.0975291114 1.0537118560 2.0368672315
H 0.5377838644 1.6354085702 1.4751823068
H 0.4093460307 -0.6476552216 2.5229657681
H 1.5874612932 -1.2301017778 1.3464068053
H 0.6261122909 -3.1322290311 1.6870175439
H 0.5812088351 -5.3828684239 0.7063086353
H -0.4596266365 -5.7668372486 -1.5224130039
H -1.4522441777 -3.8499594767 -2.7545491267
H -1.3603430835 0.7178575067 2.3973484850
H -4.5307887546 2.2278329079 -0.0768495771
H -3.7876334553 0.7385895765 -1.9232781726
