70
CONF226
C -2.4331585778 -0.1752943784 -0.2478092547
C -3.8242747978 0.5005765702 -0.2874974872
C -4.8678467556 -0.5322463631 -0.5626823355
C -6.1113610985 -0.5223512847 -1.1462435344
N -6.6242275148 -1.8167102329 -1.1512331495
C -5.7107403230 -2.6760317923 -0.5837723464
C -5.6924843714 -4.0544078465 -0.3553907239
C -4.5443125782 -4.5725040188 0.2389196724
C -3.4393681481 -3.7697525026 0.6047078945
C -3.4609299665 -2.3964669066 0.3879467781
C -4.6093381768 -1.8806608571 -0.2094805414
C -2.3944844883 -1.3789816829 0.7410321533
C -0.9993089925 -1.9978350975 0.8088438930
C 0.0310892185 -0.9361173477 1.1644084573
C -0.0581305260 0.2023096263 0.1429300411
N -1.3973074021 0.7999562129 0.1469490121
C -1.4028911313 2.0407764147 -0.6579528545
C -1.2652073401 1.8537563622 -2.1458819557
C -2.1015566249 2.3713033199 -3.0436843864
C 1.4418693668 -1.5147516709 1.1825226091
O 1.6714804784 -2.6657266286 0.8129334769
N 2.4839865418 -0.6822019469 1.5395462625
C 3.8569227313 -1.2324098960 1.4319486916
C 4.3969125006 -1.3840695834 0.0040098899
C 5.0749508285 -0.1516703925 -0.5901750448
N 4.1983068429 1.0186151697 -0.7560008468
C 3.1505880282 0.7885050260 -1.7543639122
C 4.9921460705 2.1960547957 -1.1247801454
C 2.2779303106 0.5662578859 2.2419861009
O 1.4861438508 0.6550720039 3.1796438064
N 3.0583054065 1.5547059620 1.7838706098
C 2.9794673682 2.8985447168 2.3443795764
C 1.8500978185 3.7167578468 1.7211458724
H -2.2245475102 -0.5787966182 -1.2609934924
H -3.9945882925 0.9917574622 0.6817812619
H -3.8470557734 1.2780172907 -1.0547824799
H -6.6889234947 0.2897140000 -1.5662212164
H -7.5195243751 -2.0763658643 -1.5312661065
H -6.5227398380 -4.6979082282 -0.6284245819
H -4.4924829830 -5.6408199572 0.4273800927
H -2.5781044754 -4.2499526055 1.0577548457
H -2.6361860488 -0.9677956617 1.7353323885
H -0.9778336227 -2.8014357894 1.5509307772
H -0.7528599157 -2.4461876816 -0.1617272328
H -0.1937416594 -0.5236734534 2.1520176295
H 0.6606295200 0.9949816470 0.3787760421
H 0.2156259068 -0.2091367866 -0.8482835547
H -2.3098470734 2.6150802888 -0.4421960310
H -0.5596051882 2.6449271464 -0.2954560778
H -0.4126288801 1.2681994124 -2.4897111031
H -2.9617961540 2.9632893709 -2.7361428240
H -1.9532894584 2.2298696667 -4.1103705847
H 3.8398598645 -2.2171955861 1.9090047533
H 4.5140469338 -0.5864130420 2.0207856686
H 5.1612690743 -2.1699137538 0.0330413914
H 3.6070635620 -1.7648339296 -0.6496344134
H 5.5312129668 -0.4283466938 -1.5600229720
H 5.8950661017 0.1513675777 0.0740557381
H 3.5723729841 0.5971492565 -2.7573174114
H 2.5034421774 1.6703759206 -1.8106458046
H 2.5312734603 -0.0654443477 -1.4698841498
H 5.5213270328 2.0555670404 -2.0840708057
H 4.3350682273 3.0670763552 -1.2179878281
H 5.7347617980 2.4001822707 -0.3464052676
H 3.5062938433 1.4122021630 0.8497934532
H 2.8375257970 2.8158410333 3.4263418186
H 3.9439792012 3.3873674002 2.1690992771
H 0.8829460715 3.2390122180 1.9059873169
H 1.9912086059 3.8056845092 0.6387724125
H 1.8275115630 4.7235561788 2.1499134900
