49
CONF54
C -1.6323783520 -1.1251492419 6.0950735447
C -1.3699815592 -2.1258831878 5.1615043691
C -0.9891938117 -1.7986829781 3.8646365905
C -0.8858172708 -0.4540877932 3.5069903699
C -1.1620469564 0.5570744817 4.4256371128
C -1.5220559171 0.2131399662 5.7246875219
N -0.4928777203 -0.0835238455 2.1900186632
C 0.6598791388 0.6272869867 1.9013488985
O 1.2508459312 1.3501802483 2.6822554160
C 1.0538413597 0.2918101352 0.4775036861
C 0.0075436545 -0.7066765985 0.0287239094
O -0.1456289754 -1.1853874627 -1.0811937312
N -0.8258704010 -0.9455799268 1.1107756481
C -2.1765334684 -1.3786961023 0.9793970650
C -2.4197026915 -2.6305695120 0.4178735390
C -3.7338918603 -3.0583909386 0.2574961770
C -4.7924944369 -2.2571917770 0.6791206119
C -4.5341873927 -1.0145170272 1.2543394088
C -3.2268788399 -0.5638502515 1.4022328030
C 1.1234735159 1.5424901860 -0.4166664015
C 1.7391508604 1.2370632498 -1.7732710413
S 1.8788860793 2.8109503516 -2.7443204325
O 2.9030727819 3.6743177693 -2.0055774243
C 2.7314951668 2.0675752652 -4.1713257436
C 4.0982622412 2.2662259352 -4.3114820549
C 4.7442155345 1.7202872645 -5.4193262880
C 4.0227125759 0.9945094040 -6.3645909903
C 2.6482165217 0.8139116551 -6.2113832155
C 1.9898533509 1.3594805079 -5.1129753985
H -1.9266719534 -1.3879722621 7.1057978699
H -1.4544406146 -3.1705206025 5.4431548781
H -0.7741175488 -2.5769741562 3.1407314536
H -1.0982676280 1.5948602316 4.1206356703
H -1.7323899027 0.9978007422 6.4442164729
H 2.0398922921 -0.1905668409 0.5129072038
H -1.5884330398 -3.2569950722 0.1163389565
H -3.9272707301 -4.0303316134 -0.1847289471
H -5.8150778811 -2.6015025961 0.5649095278
H -5.3541689068 -0.3854142549 1.5853437031
H -3.0251330445 0.4076582915 1.8398398193
H 0.1166984063 1.9600410438 -0.5347471860
H 1.7342640450 2.2821332902 0.1116259521
H 2.7554251203 0.8359321795 -1.6838234029
H 1.1227627784 0.5565772444 -2.3678320045
H 4.6392934652 2.8408740450 -3.5664005789
H 5.8128239525 1.8652955110 -5.5432063310
H 4.5302295163 0.5734592631 -7.2265400439
H 2.0854160623 0.2548393561 -6.9520872149
H 0.9172555574 1.2326905474 -4.9939773255
