38
CONF44
C 1.4454485952 -3.2004803061 1.0904840138
C 1.6665495691 -2.1413027210 0.0016795845
C 1.4977062002 -0.7340046415 0.5203492231
C 0.4410180301 0.1045907447 0.1232667790
C 0.2799459336 1.3984016310 0.6524618001
C 1.2189029632 1.8431820019 1.5861636485
C 2.2803334293 1.0379429072 1.9778881734
C 2.4161746821 -0.2380885691 1.4477504545
C -0.8521742064 2.3173567253 0.2549993883
C -0.3786602625 3.6107638106 -0.4212561933
N -0.5151569917 -0.3930100177 -0.8299376655
C -1.5907570649 -1.2267172283 -0.3432921369
O -2.6564976016 -0.4027503442 0.1140891781
C -3.7569279368 -1.1944937595 0.5527393416
C -0.5049233269 -0.0585811878 -2.1626927643
O -1.3865067085 -0.3927949206 -2.9415778543
C 0.6987342134 0.7309887523 -2.6564413719
Cl 1.9871579717 -0.4480679799 -3.1800721601
H 2.1599082004 -3.0798876323 1.9101954262
H 0.4392345537 -3.1287189827 1.5152384258
H 1.5701659693 -4.2057809950 0.6769441151
H 0.9889258520 -2.3209966186 -0.8362515692
H 2.6827704194 -2.2439635744 -0.3965806504
H 1.1084249077 2.8355584070 2.0138691249
H 3.0023698019 1.4052599115 2.7005701536
H 3.2496093049 -0.8651498636 1.7520287725
H -1.5558272145 1.7942379364 -0.3936683847
H -1.4112443411 2.5754385424 1.1630197322
H -1.2350500875 4.2497768559 -0.6561031710
H 0.2986966569 4.1779173441 0.2237455228
H 0.1496224894 3.4027359471 -1.3568800354
H -1.2094848955 -1.8371973277 0.4889968322
H -1.9330322055 -1.8751669167 -1.1613979827
H -4.5298059502 -0.5034478301 0.8937906237
H -4.1555612891 -1.8090387395 -0.2677790552
H -3.4681171281 -1.8537760362 1.3852665883
H 0.4039993661 1.2976531755 -3.5387660667
H 1.1540289000 1.3716111713 -1.9028396396
