43
CONF149
C -3.8406909357 -1.1372814934 -1.6066759410
C -3.3835086354 -1.5838652692 -0.2064824423
C -2.7432699668 -2.9771456619 -0.3249297863
C -4.6375486688 -1.6896602122 0.6785007831
C -2.3673861401 -0.5274020950 0.3831763832
C -1.0029219287 -0.6030260529 -0.3459408357
C -0.1995429827 0.7090325380 -0.4105152309
C 1.1355596232 0.4668730277 -1.0640414093
C 1.2444249103 0.3907631895 -2.4559085916
C 2.4619569748 0.1215301247 -3.0734811171
C 3.5838219160 -0.0746276382 -2.2771494539
C 3.5150358140 -0.0053224241 -0.8919826910
C 2.2854119380 0.2648860161 -0.2965608414
Cl 5.1352726879 -0.4118285844 -3.0466054791
C -2.2098624809 -0.7785193724 1.8979120825
N -1.1012790110 -0.0755030671 2.5306709049
C 0.1389990697 -0.5368569742 2.7878164684
N 0.8796271095 0.4128587838 3.3485710025
C 0.0134828995 1.4622111318 3.4146663281
N -1.1999409554 1.2146439473 2.9348319718
O -2.9340251481 0.7895938799 0.2971267562
H -3.0020886589 -0.9463999260 -2.2842342041
H -4.4650616447 -0.2393599572 -1.5598086876
H -1.9389488948 -2.9983487061 -1.0653873807
H -3.5072919810 -3.6931987743 -0.6452007782
H -2.3406390366 -3.3339472056 0.6282571391
H -4.4322526169 -2.1914410130 1.6291033513
H -5.0590861445 -0.7013354523 0.8861656130
H -5.3975077569 -2.2803406472 0.1566853119
H -1.1550892829 -0.9373389633 -1.3764409630
H -0.3904414396 -1.3784510359 0.1292544414
H -0.0496402544 1.1366751546 0.5832961099
H -0.7581848233 1.4481924541 -0.9940756131
H 0.3638687348 0.5493989917 -3.0730763009
H 2.5370419671 0.0700578889 -4.1539388894
H 4.4025390604 -0.1550326121 -0.2873673581
H -2.0435056893 -1.8422592028 2.0784997619
H -3.1218893167 -0.4714917236 2.4126675195
H 0.4472787187 -1.5494340793 2.5609284523
H 0.2741685977 2.4271385356 3.8311062630
H -2.9734131724 1.0424029509 -0.6335918453
H 2.2240281285 0.3248149252 0.7867682269
H -4.4471724434 -1.9317448344 -2.0527719944
