73
CONF2059
C -2.8400683773 2.5208824689 -3.4176822269
C -3.0284792048 2.4654171024 -1.9174430059
O -4.0954904523 1.5198060747 -1.6682573858
C -4.3891288778 1.3057159270 -0.3039080531
O -3.2969345239 0.7378087775 0.4064154022
C -3.0723128867 -0.6514401428 0.1526075339
C -3.6263280373 -1.4869629597 1.3012440873
O -5.0458239674 -1.3522910713 1.2915926323
C -3.2043450726 -2.9503048339 1.1793763949
O -3.6928348910 -3.7053148975 2.2893422713
C -1.6834417040 -3.0440100397 1.0436740890
C -1.1750585490 -4.4527525221 0.7968153842
O -1.7580795718 -5.0557663631 -0.3585922110
O -1.2818224204 -2.2579313763 -0.0960449420
C -1.5662482022 -0.8801252045 0.0595291073
O -1.1054584184 -0.2276899392 -1.1027012547
C 0.2289956339 0.0345361678 -1.2236024338
C 0.5630778273 0.8312502580 -2.3210317066
C 1.8912232253 1.1660882938 -2.5269255248
O 2.2111162136 1.9607127525 -3.5611866211
C 2.9071735606 0.7008378761 -1.6442136504
C 4.2683092752 1.1475373553 -1.7742199759
O 4.6434519964 1.9058160278 -2.6906832923
C 5.2197604778 0.6869758343 -0.7024781531
C 4.8090043790 -0.6791504421 -0.1702822721
O 3.4261481369 -0.6250915086 0.3102846654
C 2.5197010253 -0.1263491593 -0.5634471439
C 1.1915627696 -0.4632801968 -0.3409124813
C 5.6609804777 -1.1664408110 0.9624961955
C 5.6710400407 -0.4992818978 2.1905349544
C 6.4776534333 -0.9382700070 3.2322302667
C 7.2994958806 -2.0542446027 3.0475657627
O 8.1178424935 -2.5297867726 4.0301807437
C 7.3024237355 -2.7281169506 1.8260173378
C 6.4798029996 -2.2845455884 0.7975125191
C -4.7444532480 2.6069447011 0.4263316701
O -5.9685464842 3.1428543983 -0.0870940812
C -3.6643512633 3.6543896792 0.1853128035
O -4.0022068728 4.9083310367 0.7849707054
C -3.4049420579 3.8159088490 -1.3101722656
O -2.3150255411 4.7140994418 -1.5343197417
H -2.6075526358 1.5247147482 -3.8056102319
H -3.7514337376 2.8848636594 -3.9034869893
H -2.0156373649 3.1927205842 -3.6680551953
H -2.1104355226 2.1069659194 -1.4311478603
H -5.2476492922 0.6241265810 -0.3016782372
H -3.5301627912 -0.9551456374 -0.7987275109
H -3.2134616021 -1.0837112548 2.2437222587
H -5.3863871647 -1.9146401978 2.0011542628
H -3.6692363592 -3.3892450098 0.2894891179
H -3.2812197260 -3.3596538329 3.0948958354
H -1.2014740598 -2.6514116359 1.9566888715
H -1.4435594058 -5.0789066281 1.6518293675
H -0.0792868774 -4.4214995893 0.7166432678
H -1.4927799479 -4.5301948719 -1.1245238964
H -1.0628388232 -0.4746636138 0.9535256255
H -0.2067242335 1.1948358142 -2.9907286074
H 3.1941777475 2.1159636502 -3.4950713658
H 6.2364581673 0.6469874273 -1.1026174559
H 5.2051388531 1.4284686107 0.1087249330
H 4.8305597943 -1.4091385979 -0.9911976450
H 0.9486314240 -1.1346742943 0.4713709493
H 5.0359563454 0.3686626335 2.3417000152
H 6.4760412997 -0.4199435512 4.1874322071
H 8.0207912596 -1.9861068115 4.8239279921
H 7.9410164838 -3.5957919356 1.6962301780
H 6.4775453757 -2.8168086679 -0.1496798044
H -4.8322362545 2.3994733353 1.5005880475
H -6.7013976167 2.6810779863 0.3386400505
H -2.7353951554 3.3246538229 0.6649065463
H -4.9156468548 5.0990424678 0.5238810586
H -4.3168174307 4.1890802592 -1.8039668306
H -2.4923657036 5.4993062118 -0.9976939575
