35
CONF451
C -0.6573493730 2.8788756536 -0.1597337533
C -2.0276971583 2.5980043022 0.4319501453
C -2.8070307704 3.8503957432 0.7506325391
Br -1.9215578708 4.8565694701 2.2177408125
Br -3.1271127432 1.5985828252 -0.8995101478
O 0.0052762466 1.6979420296 -0.6451126822
P 0.5950241092 0.6110875129 0.3776753539
O -0.2114917463 0.3649981444 1.5968619150
O 2.0933084336 1.1053181883 0.6372021533
C 2.7230749590 0.9772807017 1.9286828459
C 3.9375757249 0.0795275112 1.8397505514
C 3.6840441325 -1.3134510545 1.3158000728
Br 2.5634084064 -2.3077740295 2.6183680303
Br 5.2912262950 0.8894450303 0.6179906855
O 0.8415799407 -0.6209218045 -0.6083644513
C -0.2595223452 -1.1803566025 -1.3821625887
C -1.2544477194 -1.8929563841 -0.4804121487
C -0.6664672410 -2.9179147174 0.4535062139
Br 0.4507782229 -4.2712527938 -0.4448163295
Br -2.6176508051 -2.6700215194 -1.6890079526
H -0.0425002905 3.3706622135 0.6045398966
H -0.7413902941 3.5403868061 -1.0264890033
H -1.9559517191 1.9275337736 1.2884751584
H -2.8644497042 4.5337621888 -0.0971385455
H -3.8036868367 3.6180925106 1.1191815969
H 2.0154685665 0.5568928721 2.6536793175
H 3.0177691660 1.9802709006 2.2470484588
H 4.4286237090 0.0527292593 2.8149199079
H 3.1381224946 -1.3131850701 0.3725776541
H 4.6045313783 -1.8860661120 1.2289627297
H -0.7544574027 -0.3844295143 -1.9447954416
H 0.2105937888 -1.8886286620 -2.0658680243
H -1.4429014764 -3.4677907224 0.9826152068
H -0.0062530712 -2.4171678809 1.1653909338
H -1.8102686529 -1.1732796417 0.1290938080
