25
CONF2
C -3.3664383461 -0.4905685803 -1.2907953046
N -2.3193171880 -0.3033702078 -0.2916206245
C -0.9967160479 -0.5816315636 -0.6904463110
O -0.7677008434 -1.4675471194 -1.4974198737
N -0.0495118891 0.1725955533 -0.0357503421
C 1.3410744688 0.0692678545 -0.1370499110
C 2.1062073296 1.0691955045 0.4783348678
C 3.4884135498 1.0213378664 0.4364805064
C 4.1395203132 -0.0189212498 -0.2197525983
C 3.3777249183 -1.0139187086 -0.8322154849
C 1.9870700921 -0.9795259443 -0.7959027015
Cl 4.1358594686 -2.3416966576 -1.6662443326
Br 6.0394754583 -0.0363330685 -0.2518347286
O -2.4786159435 0.9465179095 0.3776785873
C -3.0096870984 0.7068382427 1.6902044251
H -3.1936667311 -1.4484709175 -1.7817746482
H -3.3593634185 0.3131147088 -2.0386520305
H -4.3349911498 -0.5131578457 -0.7854070218
H -0.4110566963 0.9578865158 0.4852492917
H 1.6170720937 1.8913446167 0.9922415853
H 4.0738647431 1.7981796195 0.9135899449
H 1.4145511406 -1.7558336281 -1.2815556659
H -3.9890287888 0.2178482971 1.6337579618
H -3.1201988823 1.6956639672 2.1423551116
H -2.3245403527 0.0911855354 2.2846663973
