49
CONF58
C -2.1676971454 3.0100003390 -0.9574910615
C -1.7849188903 1.7198229902 -1.3120869496
C -1.2579870073 0.8531396726 -0.3620511894
C -1.1212760716 1.2886951863 0.9565904125
C -1.5162729183 2.5730901305 1.3282134613
C -2.0286785271 3.4310177212 0.3617581551
N -0.5431404332 0.4405777052 1.9500296678
C 0.6544822090 0.8097071543 2.5853088285
O 0.9761525427 1.9478966509 2.8392561559
C 1.4919900088 -0.4427248282 2.7318547802
C 0.5980917761 -1.5579196578 2.2312550532
O 0.8029852666 -2.7498857885 2.2882983175
N -0.5451470488 -0.9574317651 1.6998473532
C -1.7988492108 -1.6133516917 1.5647090019
C -1.8384195846 -2.8551964043 0.9282729059
C -3.0554687806 -3.5132817415 0.8010923918
C -4.2284951548 -2.9360843974 1.2782467456
C -4.1785518064 -1.6895195083 1.8938134387
C -2.9686520440 -1.0223426301 2.0439256808
C 2.7727142359 -0.2930872189 1.8797102805
C 2.4225614551 -0.0044438817 0.4266113580
S 3.9631755996 0.2467909121 -0.5833543677
O 4.6727171460 -1.0922592752 -0.6181117754
C 3.0431801278 0.4160240293 -2.1558514315
C 3.0987725580 -0.6383029118 -3.0554325285
C 2.4051532902 -0.5289092632 -4.2585247730
C 1.6743513674 0.6208909081 -4.5451149828
C 1.6390403253 1.6746111846 -3.6334798899
C 2.3340941383 1.5807570535 -2.4322320382
H -2.5793472558 3.6812548135 -1.7036227759
H -1.8882085411 1.3799031080 -2.3373519535
H -0.9553059391 -0.1486656050 -0.6433166646
H -1.4080981032 2.8919829038 2.3568540547
H -2.3296482594 4.4331574793 0.6486114684
H 1.7646710508 -0.6368901498 3.7736504400
H -0.9253720649 -3.2990432967 0.5541087065
H -3.0838744101 -4.4828874536 0.3150245532
H -5.1761248264 -3.4516968640 1.1660816861
H -5.0871708978 -1.2280323805 2.2662935350
H -2.9348974930 -0.0530304047 2.5267366633
H 3.3658604868 0.5243528777 2.3030463279
H 3.3484167831 -1.2208665224 1.9506281391
H 1.8888725531 -0.8389524146 -0.0432021818
H 1.8341713550 0.9145579943 0.3157936520
H 3.6802885726 -1.5199651570 -2.8026439541
H 2.4380503153 -1.3445286171 -4.9739122250
H 1.1375322328 0.7013050620 -5.4847889044
H 1.0755364997 2.5743398747 -3.8587858954
H 2.3187395017 2.4054251784 -1.7246065861
