52
CONF276
C -0.4135697251 -2.8902591606 0.2848443421
C -0.8900097081 -1.7136861864 1.0844916924
C -1.7010219222 -0.7424115975 0.6291446768
C -2.2924211335 -0.6743261347 -0.7164223991
C -2.1429426886 0.5702788118 -1.6442647263
C -3.4935228674 0.1604869184 -1.0565633602
C -4.1911891562 0.9960832016 -0.0075383974
C -4.4550155703 -0.4242046750 -2.0723387607
C -1.3453410442 1.7577438406 -1.3046166929
O -0.6628660397 2.3531575029 -2.1228886036
O -1.4177222527 2.1343406516 -0.0062321650
C -0.5966237272 3.2628759912 0.3742386312
C 0.8618440811 2.9011628098 0.4737201650
C 1.2526925812 1.6138364424 0.8404110718
C 2.6060439935 1.3229561438 0.9510233582
C 3.5834888005 2.2823387743 0.7222642697
C 3.1842125114 3.5690110802 0.3689356818
C 1.8332102453 3.8758276926 0.2370907310
O 3.0052752920 0.0545134712 1.3625695501
C 3.0052944399 -0.9664448274 0.4357017281
C 3.4118717289 -2.2137944515 0.9127901261
C 3.4641605381 -3.2947457140 0.0415682818
C 3.1086935221 -3.1432057736 -1.2991344608
C 2.7015119753 -1.8944818558 -1.7588872082
C 2.6466383245 -0.7966542368 -0.9009484567
C -0.3681649136 -1.6743443236 2.4933302384
H -0.7535293928 -2.8841663502 -0.7516351662
H 0.6829509292 -2.9145625907 0.2809292350
H -0.7445681473 -3.8261688174 0.7532826719
H -1.9506841306 0.0594928343 1.3172592709
H -2.2110392710 -1.5879932790 -1.2972101933
H -2.0127759176 0.3233442886 -2.6928866914
H -4.9358659579 0.3753136617 0.5032612950
H -4.7199852621 1.8277163131 -0.4862192343
H -3.5171413059 1.4101596953 0.7395389778
H -3.9321594518 -1.0328943096 -2.8155602920
H -5.1920049753 -1.0581026401 -1.5664690158
H -4.9937194862 0.3741434650 -2.5949855392
H -0.7435607924 4.0861878523 -0.3298601091
H -0.9887603962 3.5547420444 1.3531722229
H 0.5179990087 0.8329531430 1.0168958423
H 4.6313042495 2.0176598354 0.8167991418
H 3.9333790891 4.3317393208 0.1819189665
H 1.5301280901 4.8763759857 -0.0575045718
H 3.6855714407 -2.3174239659 1.9577635208
H 3.7820891022 -4.2631882903 0.4154481635
H 3.1479092047 -3.9903961149 -1.9755727098
H 2.4215263036 -1.7621268768 -2.7995366795
H 2.3321201839 0.1725913328 -1.2708034173
H -0.6539595269 -2.5822468189 3.0398085325
H -0.7396627064 -0.8049915497 3.0425147573
H 0.7299137073 -1.6442118129 2.4926261917
