30
CONF2
C 3.7300219294 -0.1901566573 -0.1857272345
C 2.2617632511 -0.3161583658 0.2129862870
C 1.4662825403 -1.1215692225 -0.8152872909
C -0.0129142547 -1.2400864250 -0.4432963601
C -0.6838774499 0.1274810399 -0.2425571150
C 0.1287537396 0.9476041889 0.7702786363
C 1.6067836550 1.0547134271 0.3904456867
C -2.1664284625 -0.0069338942 0.1698946152
C -2.8316706071 1.3586472645 0.3784286290
C -2.9770621317 -0.8107441183 -0.8531998729
H 3.8232727448 0.3366417015 -1.1428589345
H 4.2988188578 0.3723213050 0.5622982415
H 4.1977787980 -1.1740224526 -0.2981154601
H 2.2043001233 -0.8459428974 1.1770349203
H 1.9038012554 -2.1212190072 -0.9315836995
H 1.5548079100 -0.6240419700 -1.7929592179
H -0.1098910263 -1.8172029326 0.4889987270
H -0.5304520423 -1.8091267417 -1.2218034904
H -0.6585797108 0.6616808536 -1.2080451611
H -0.2871623982 1.9551196751 0.8675468371
H 0.0405114217 0.4708928533 1.7585988347
H 2.1463137649 1.6349134807 1.1497990110
H 1.6996525249 1.6110182105 -0.5545429913
H -2.1924079758 -0.5490648403 1.1280839471
H -2.3979793688 1.9115188014 1.2150159150
H -2.7344694169 1.9756234559 -0.5235318361
H -3.8999346623 1.2377542878 0.5844336324
H -4.0370769351 -0.8203004267 -0.5802645843
H -2.8942376609 -0.3590116956 -1.8495770003
H -2.6487180159 -1.8503489987 -0.9248352830
