44
CONF80
C -3.9469034421 -2.8043063378 -0.5580812862
C -2.6099559706 -2.3172977140 -0.0348846040
C -1.4646955347 -2.4638408713 -1.0425529226
O -1.5101567621 -1.2224373623 -1.7490990063
C -1.7759729687 -0.2584250890 -0.7560504133
O -2.6563087897 -0.8818763778 0.1755772780
C -2.5076822776 0.9442482730 -1.3748748186
N -3.7603529049 0.5735574840 -1.9939394330
C -4.9705205397 0.4039042700 -1.4121244223
N -5.8592782718 0.0027431497 -2.3044073948
C -5.1160976242 -0.0655106312 -3.4460974170
N -3.8396251531 0.2684173221 -3.3117899352
C -0.4960889744 0.1973270333 -0.0429825182
C -0.4489056144 0.1936783681 1.3545915589
C 0.6794398225 0.5783764881 2.0610931766
C 1.8065726315 0.9938739106 1.3602443515
C 1.7987743573 1.0331574996 -0.0306052440
C 0.6527816111 0.6370236007 -0.7115252092
Cl 0.7311666093 0.7267509950 -2.4635076903
O 2.8794161410 1.4158257192 2.1086432633
C 4.1517426130 1.3560641228 1.5661485251
C 4.6483306373 0.1817506681 1.0072573204
C 5.9576383162 0.1444936405 0.5450165843
C 6.7538976040 1.2797796665 0.6588052066
C 6.2640375476 2.4499140647 1.2259566286
C 4.9497664359 2.4871893436 1.6787720067
Cl 8.4065941865 1.2303724589 0.0789158270
H -4.7570062384 -2.4983068746 0.1089699843
H -3.9481144387 -3.8976098991 -0.6224269456
H -4.1412461936 -2.3900788353 -1.5520976379
H -2.3641810424 -2.7860812444 0.9260989947
H -0.4935215206 -2.5876203613 -0.5411958191
H -1.6189659197 -3.2674799118 -1.7652141864
H -2.7056830180 1.6599074512 -0.5711440280
H -1.8754045181 1.4157651328 -2.1282599835
H -5.1408792300 0.5793650875 -0.3587808404
H -5.5246623534 -0.3598820227 -4.4038032120
H -1.3306510400 -0.1391557080 1.8890933869
H 0.7011085320 0.5619589291 3.1446297235
H 2.6670364915 1.3721045631 -0.5820164031
H 4.0152837919 -0.6960413839 0.9354076667
H 6.3608575713 -0.7616071962 0.1084003415
H 6.8994316881 3.3237631634 1.3080983713
H 4.5389827525 3.3862456162 2.1242187733
