47
CONF163
C -3.8337278721 -3.1030607293 -0.1333342095
C -2.9094883858 -2.4788159375 -1.1842766512
C -2.3501408871 -3.5813996232 -2.0927083710
C -1.7495033265 -1.6271800964 -0.6313559979
C -0.9111185382 -2.2504950924 0.5066441959
C -0.2293371970 -1.0574111988 1.2282047137
C -0.7026570575 0.2111796753 0.4887870971
C -0.7321356741 1.4713792190 1.3588994169
C 0.6418906053 1.8212400275 1.8670799043
C 1.5910007415 2.3892740756 1.0105219622
C 2.8790044465 2.6812330597 1.4475203629
C 3.2158035557 2.3962517899 2.7656080601
Cl 4.8465677714 2.7625055388 3.3347220372
C 2.3012976496 1.8354996917 3.6463136394
C 1.0171292886 1.5532658936 3.1855569362
C -2.0646869400 -0.2074691719 -0.1072949391
O -3.0972324932 -0.1955222842 0.8941168471
C -2.6326863782 0.7570170007 -1.1583175279
N -1.7645823301 0.9717347376 -2.3051527246
C -1.7330312927 0.3014281337 -3.4741736446
N -0.7723574124 0.7808999960 -4.2565567427
C -0.2333631629 1.7715540809 -3.4919535186
N -0.8010982903 1.9268739856 -2.3027771072
H -3.3069745432 -3.8575500468 0.4607266678
H -4.2518021795 -2.3575813374 0.5459942963
H -1.7504934022 -3.1616044487 -2.9078163060
H -1.7124435776 -4.2655776935 -1.5207007252
H -3.1614914192 -4.1703822724 -2.5332146805
H -1.0631930070 -1.4580528180 -1.4742244453
H -1.5529818824 -2.7962119138 1.2050048886
H -0.1851853122 -2.9686999223 0.1174339634
H 0.8608962096 -1.1334532156 1.2265149406
H -0.5389378999 -1.0122812814 2.2796781895
H -0.0276699023 0.3927877890 -0.3566715038
H -1.1262160597 2.3113526180 0.7744194573
H 1.3212771230 2.6102960961 -0.0188461328
H 3.6055683354 3.1247635945 0.7758224193
H 2.5803773252 1.6238409407 4.6725289347
H 0.2959961721 1.1152449171 3.8698134689
H -2.8246403849 1.7288484240 -0.6961049704
H -3.5843151871 0.3664716740 -1.5299026887
H -2.4208726012 -0.5008636352 -3.7093427371
H 0.5884669641 2.3976120503 -3.8163669002
H -4.6656632657 -3.6082089020 -0.6358794484
H -3.5270441927 -1.8207502613 -1.8122198142
H -1.4076042265 1.3100679168 2.2051591596
H -2.8351657996 -0.7902343811 1.6090646580
