33
CONF75
C 5.1565777315 0.6612316087 -0.0028176229
C 5.3581843523 2.1658133802 0.2221394866
O 6.6958334747 2.5360250450 -0.1221356662
C 3.9135837993 0.0436968564 0.5994442144
C 2.5690336138 0.4387276152 -0.0815917537
C 1.2703633640 -0.0199975200 0.6727115408
C -0.0086221769 -0.0124276960 -0.2389581882
C -1.3505573003 -0.0258286638 0.5777363708
C -2.5884406927 -0.4669160097 -0.2823994740
C -3.9592017015 -0.0565663047 0.3573490092
C -5.1875380308 -0.8344466386 -0.2207271050
F -6.3113791562 -0.2473176290 0.2113507130
F -5.1695499255 -0.8038489236 -1.5607102341
F -5.1855302214 -2.1066722695 0.1902583546
F -4.1666080614 1.2590573771 0.1378020411
F -3.9209567524 -0.2844816592 1.6905486148
F -2.5030461643 0.1050279798 -1.5051241383
F -2.5598724664 -1.8113193556 -0.4228965834
F -1.5769543432 1.2182858419 1.0566369380
F -1.2258511910 -0.8839509130 1.6148855111
F 0.0077815356 1.0976655508 -1.0109491037
F 0.0226478880 -1.1063886464 -1.0345749557
F 1.0604850744 0.8229254679 1.7124589495
F 1.4387036570 -1.2713988740 1.1531336371
F 2.5212795475 1.7910804461 -0.1863434842
F 2.5605154494 -0.0897970082 -1.3327154050
F 4.0157696691 -1.3226612402 0.5191888207
F 3.8016261425 0.3589545847 1.9312707546
H 5.1785154898 0.4219971579 -1.0707373564
H 5.9847367880 0.1224952795 0.4741514749
H 5.1327475369 2.4315082139 1.2628144400
H 4.7123593296 2.7529815947 -0.4321671214
H 7.2897651254 2.1607966235 0.5406547434
