29
CONF3
C -3.5364976370 -1.7642051210 -1.7577203786
C -4.1553192632 -0.8036236037 -0.7700842832
O -3.2917553620 -0.5928631752 0.4016790367
P -1.9721321642 0.2967757896 0.3518604844
S -1.9803988145 1.8231369626 -0.8448169416
O -1.6484287150 0.5111355964 1.8908877593
C -2.1197332255 1.6996020537 2.6246389311
C -0.9489001406 2.6077200055 2.9092010805
O -0.8771459010 -0.8892756500 -0.0033802130
C 0.4491791222 -0.6692638453 -0.1964673680
N 1.0132007162 0.4169985998 0.2964182004
C 2.3043520642 0.6246428620 0.1288239570
Cl 2.9520610051 2.0973223810 0.8086658814
C 3.1261373625 -0.2749441322 -0.5500309342
Cl 4.8269157987 0.0005172803 -0.7596455615
C 2.5435960859 -1.4266627404 -1.0711649755
C 1.1849579568 -1.6309391185 -0.8995631514
Cl 0.4145347341 -3.0488317349 -1.5406590179
H -4.2636324456 -1.9660317232 -2.5506595423
H -2.6382154180 -1.3426950654 -2.2182545271
H -3.2784479408 -2.7103572881 -1.2738777933
H -4.3628536886 0.1719045455 -1.2200371177
H -2.8951899434 2.2035659142 2.0398084954
H -2.5657647466 1.3022582683 3.5390255138
H -0.5215617398 2.9948168074 1.9802215501
H -1.2924043406 3.4525081198 3.5145819795
H -0.1719946700 2.0752843265 3.4649491867
H 3.1455076700 -2.1506204890 -1.6080060622
H -5.0745298460 -1.2031209257 -0.3379391853
