49
CONF67
C -5.4638112014 -0.1005611391 -2.0511325338
C -4.1484111600 -0.8111932691 -1.7187683975
C -3.1859795330 -0.7368324926 -2.9084017960
C -3.5061763562 -0.1927686879 -0.4766693349
C -4.2736265442 -0.3210262153 0.8729490589
C -4.2084180993 -1.8583450833 1.1236983399
C -2.7992106714 -2.2418304638 0.5876493715
C -2.2254796795 -0.8851690731 0.0731290075
C -1.9944390817 -0.0473417412 1.3026075579
C -3.2607912522 0.2854817686 1.8124573083
C -3.3990411452 0.9561056517 3.0170142928
C -2.2388044034 1.3217219954 3.7099887488
C -0.9788063090 1.0209531941 3.2007338648
C -0.8486405223 0.3275485063 1.9887736346
N 0.4468025997 0.0177324769 1.4940955966
C 0.8983045487 0.3953181236 0.2582307791
O 0.1948621532 0.9698282040 -0.5712509442
C 2.3087403700 0.0559605141 -0.0196890181
C 3.3618607077 -0.0867539268 0.8752040010
N 4.4646355989 -0.3641471751 0.1485092885
N 4.2100405526 -0.4282218286 -1.1671037822
C 2.9071044940 -0.1626027569 -1.2845223743
C 2.3265372781 -0.1935869911 -2.6543295318
F 1.1926600973 -0.9787000620 -2.6891459933
F 1.9430155692 1.0648444879 -3.0717596602
C 5.8193499847 -0.5798893849 0.6400234913
H -6.1895939116 -0.1895022799 -1.2367589799
H -5.9165627141 -0.5243033640 -2.9536925755
H -5.2861651174 0.9666536743 -2.2320154819
H -4.3718949368 -1.8681867575 -1.5278248201
H -2.9041056388 0.3042361635 -3.1081273391
H -2.2690774793 -1.3049712277 -2.7242147739
H -3.6560170186 -1.1388397959 -3.8121318468
H -3.2940213331 0.8648030115 -0.6882484730
H -5.2762140818 0.1061734993 0.9266472927
H -5.0015413022 -2.3690848470 0.5690877756
H -4.3376343451 -2.0925406493 2.1836699519
H -2.8644194941 -2.9599999332 -0.2353601274
H -4.3796974818 1.1966117497 3.4174491066
H -2.3163164027 1.8615865006 4.6487809010
H 3.4101371361 0.0142448339 1.9505964582
H 3.0406020925 -0.5866500565 -3.3852281465
H 6.4902760294 0.1684237746 0.2113064929
H 6.1574098217 -1.5800905666 0.3582407586
H 5.8105886798 -0.4872833098 1.7263361666
H -2.1567853374 -2.6755882666 1.3586219696
H -1.3798209412 -0.9757788568 -0.6051577145
H 1.1117766762 -0.3657403772 2.1495716503
H -0.0843486569 1.3331299590 3.7320912367
