48
CONF39
C -6.0871726973 1.8440591233 1.0966570257
O -4.6788476166 1.5591819440 1.1920659049
N -4.4871005088 0.1917738643 1.1706835585
C -3.2428568140 -0.1438605691 1.2302696045
C -2.9455616267 -1.5782249807 1.3672938347
C -3.7129494593 -2.4005189123 2.2035002038
C -3.4192961486 -3.7511564291 2.3323494364
C -2.3533275870 -4.3067047746 1.6254374246
C -1.5857247127 -3.5130206550 0.7798775024
C -1.8899703026 -2.1658513175 0.6673590867
O -1.2382486960 -1.3713125107 -0.2822117220
C 0.0949048420 -1.1786984534 -0.1903035555
C 0.7168939660 -0.5886076232 -1.2846864661
C 2.0830789256 -0.3527986447 -1.1870284065
N 2.7695338750 -0.6687829945 -0.0947115636
C 2.0753438729 -1.2264289865 0.8992262212
N 0.7710421923 -1.5004542585 0.9080167172
O 2.6908526548 0.2012367769 -2.2605523377
C 4.0432798978 0.5219941390 -2.1446392436
C 4.9824348914 -0.3217579516 -2.7167768756
C 6.3287064530 0.0271108993 -2.6817118835
C 6.7247854102 1.2164914874 -2.0757240679
C 5.7812065662 2.0657601770 -1.5049861520
C 4.4369365504 1.7154143774 -1.5442158722
Cl 3.2332404155 2.7696849235 -0.8397110924
F 0.0271472894 -0.2565438538 -2.3852288334
C -2.1339855716 0.8503381441 1.2593191121
N -1.3998457185 0.8371323136 2.3166819164
O -0.3503186756 1.7685243886 2.3997167100
C 0.0239852147 2.3635411255 1.1424589185
C -1.2074291660 2.8146861267 0.4019341705
O -2.0586376414 1.6594849197 0.1842983263
H -6.1610769741 2.9312013741 1.1512767380
H -6.4866179233 1.4867641374 0.1425128232
H -6.6271577924 1.3857906414 1.9309460270
H -4.5274791044 -1.9552865931 2.7640455643
H -4.0161959284 -4.3715594156 2.9923267646
H -2.1213377312 -5.3619107190 1.7244063228
H -0.7696925254 -3.9319763284 0.2013306804
H 2.6329492902 -1.4826252340 1.7977319255
H 4.6445217640 -1.2421377425 -3.1811490982
H 7.0654294209 -0.6318510472 -3.1279659025
H 7.7732041871 1.4930912896 -2.0460597974
H 6.0804491036 2.9955064299 -1.0343876599
H 0.5844663390 1.6335939418 0.5445466371
H 0.6726178337 3.2060143348 1.3942947220
H -1.7702786837 3.5572463310 0.9774534920
H -0.9659004295 3.2064459806 -0.5872408365
