46
CONF9
C -4.2861029174 -2.6891075707 -0.1193200258
N -4.6167722836 -1.4892556739 -0.8813483221
C -5.4118232771 -1.7130108489 -2.0849765757
C -4.0589960308 -0.2835523283 -0.6662680647
O -4.2608223608 0.7202998900 -1.3592779479
C -3.2081193626 -0.1127235199 0.5681623017
C -1.8471712879 -0.3860936425 0.6672709806
N -1.0798227132 -0.1230436913 1.7136825458
C -1.6528398040 0.4548458210 2.7723370250
C -3.0078024726 0.7789308009 2.7984632839
C -3.7862333946 0.4972771307 1.6872951726
S -0.9345442662 -1.2282783987 -0.6700682743
O -1.7257802099 -1.1770978100 -1.9022779984
O -0.4427659290 -2.5219979255 -0.1750633912
N 0.4688514675 -0.2940969467 -0.8387297329
C 0.3802930877 1.0835250363 -0.9533725510
O -0.6470300001 1.6721123949 -1.2616747999
N 1.5576526494 1.7763081690 -0.7180688585
C 2.7894704222 1.3484306500 -0.2289661989
N 2.9447046556 0.0565939588 0.0649680984
C 4.1447678871 -0.2982258228 0.5450625256
C 5.1773826091 0.6123023557 0.7252204032
C 4.8840210612 1.9294446132 0.3768595357
N 3.6966309222 2.3174329753 -0.1011256667
O 5.8560705450 2.8339222539 0.5389758413
C 5.5665498120 4.2081204072 0.1865998266
O 4.3698069548 -1.5754358317 0.8676406309
C 3.2834507171 -2.5169819154 0.6925648490
H -3.8051840613 -2.4312717505 0.8246886317
H -3.6164757491 -3.3383241073 -0.6981189556
H -5.2060619606 -3.2399919992 0.0994688114
H -6.3043017747 -2.2904514736 -1.8257172942
H -5.7052623950 -0.7552251822 -2.5131538366
H -4.8278683731 -2.2776575877 -2.8230332071
H -1.0084229019 0.6656228060 3.6217047339
H -3.4397983599 1.2482393338 3.6751022237
H -4.8428996242 0.7455174200 1.6713119260
H 1.3282806350 -0.6525851957 -0.3859556839
H 1.4817489049 2.7734314656 -0.8744086804
H 6.1440627295 0.3187919098 1.1114428869
H 4.7444207635 4.5937493254 0.7941093892
H 5.3153743844 4.2865871320 -0.8738305138
H 6.4867050412 4.7501386823 0.4016620273
H 2.9869846425 -2.5693548869 -0.3586109509
H 2.4281301536 -2.2336785973 1.3122458548
H 3.6875409350 -3.4741809259 1.0194707218
