40
CONF79
C 1.2970616569 1.7090217025 2.4364091991
C 1.3136933492 0.2990636051 1.9014807447
O 1.8380360455 0.3668519706 0.5322633040
P 1.8563398395 -0.8853663480 -0.4569553643
S 1.4172029337 -2.6270511418 0.2817751028
O 3.2520291640 -0.7473118655 -1.2199924069
C 4.4625517461 -1.4033832330 -0.7128061491
C 4.9739034818 -0.7599323121 0.5561869180
O 0.9839795622 -0.3787734972 -1.7580804011
C -0.3573862065 -0.1205218202 -1.7215480534
C -0.9657911708 0.1898035185 -2.9332303287
C -2.3268698226 0.4521412863 -2.8791318218
N -3.0074191130 0.3901120059 -1.7134967266
C -2.3204387408 0.0786699771 -0.6138028563
N -0.9972702911 -0.1730685318 -0.5682270445
C -3.0729847942 0.0222846335 0.6930615211
C -2.8167239940 -1.2925618272 1.4360573625
C -2.7060360733 1.2340085609 1.5618991870
C -3.1112884365 0.8049524280 -4.1014069070
H 2.3049696535 2.1326995809 2.4546525629
H 0.9068827864 1.6947359054 3.4585961261
H 0.6518160933 2.3488346844 1.8276716351
H 0.3125183613 -0.1368957308 1.8654072259
H 1.9728855280 -0.3516591527 2.4837364956
H 4.2417410637 -2.4661648225 -0.5716223648
H 5.1734395753 -1.2922010575 -1.5335899853
H 4.2885777339 -0.9193258332 1.3942588683
H 5.1239566382 0.3142794841 0.4170777984
H 5.9355647197 -1.2146865078 0.8142741510
H -0.4020595867 0.2224832278 -3.8573123697
H -4.1356570938 0.0869694460 0.4380132354
H -1.7658493102 -1.3759190245 1.7283990022
H -3.0690030273 -2.1560148371 0.8122822402
H -3.4296364790 -1.3304538586 2.3418533794
H -3.2938643918 1.2218543695 2.4850298217
H -1.6454712072 1.2058156848 1.8301033152
H -2.9048720224 2.1737706459 1.0371794155
H -3.6157111635 1.7653501695 -3.9545721499
H -2.4726356390 0.8635933856 -4.9841788296
H -3.8901825748 0.0539951398 -4.2710098597
