33
CONF107
C 4.7324337097 0.6403781898 -1.4297424075
C 5.8797984666 1.6445257181 -1.4586072716
O 6.9295469298 1.0206860074 -2.2051883558
C 3.5705179552 1.1391443982 -0.6085564068
C 2.3345521173 0.1868586025 -0.6567342107
C 1.2263446630 0.4862814838 0.4196232453
C -0.1712100976 -0.1357017463 0.0629557979
C -1.2505551109 -0.0528904546 1.2012004591
C -2.5511909093 -0.8827105150 0.8808946969
C -3.7846105345 -0.4373458766 1.7393915823
C -4.9516483902 -1.4790782104 1.7681053461
F -4.6162916369 -2.5554867738 2.4865740542
F -6.0229980462 -0.9055065844 2.3322412151
F -5.2690609375 -1.8610408782 0.5235093850
F -4.2760111261 0.7124675684 1.2293382660
F -3.3959849022 -0.2258497167 3.0178898380
F -2.8781237334 -0.7505176104 -0.4227554863
F -2.2926957127 -2.1866047532 1.1329531504
F -1.5844307509 1.2480188109 1.3693320915
F -0.7448491783 -0.5299215347 2.3576098634
F -0.6571656909 0.5309861505 -1.0081892954
F 0.0050072326 -1.4402519835 -0.2600948541
F 1.0574440511 1.8233942828 0.5457892833
F 1.6613948782 -0.0100216257 1.5987583612
F 1.8006593048 0.2626221306 -1.9017456589
F 2.7619015852 -1.0857842032 -0.4567427315
F 3.9272398979 1.2889522741 0.7092042829
F 3.1550421074 2.3688593368 -1.0501599117
H 4.3809651137 0.4448610513 -2.4482547619
H 5.0796686513 -0.3033390598 -0.9996571013
H 6.2094982975 1.8731330861 -0.4360250698
H 5.5583479412 2.5767972124 -1.9401765915
H 7.6580524054 1.6500642496 -2.2677754130
