39
CONF14
N 2.4275556205 0.3123061693 0.9520533345
C 2.5576906768 -0.9547001431 0.4482964280
N 3.2125664059 -1.8422594309 1.2017849280
C 3.3743737627 -3.0682260635 0.6790286433
N 4.1082847054 -3.9558475258 1.4226707650
N 2.9166351662 -3.5080115094 -0.5042437690
C 2.2682891084 -2.5890683237 -1.2280737275
C 2.0548427408 -1.2802022715 -0.8343478761
C 1.3485060117 -0.2723702169 -1.6946025692
C 0.0740304868 0.2882042106 -1.0865504592
C -0.8039780650 -0.5612664333 -0.4158665615
C -1.9839416601 -0.0516819585 0.1295678594
O -2.9004597610 -0.7905776150 0.8108026060
C -2.6326093285 -2.1821614567 0.9635470356
C -0.2130088989 1.6480872142 -1.2027163249
C -1.3966225913 2.1597031214 -0.6587607464
O -1.7674068481 3.4686858273 -0.7088290782
C -0.9068898382 4.3668025052 -1.4019105764
C -2.2952011960 1.3101476354 -0.0009666200
O -3.4807524233 1.7978667758 0.4792524650
C -3.4028434210 2.2391888794 1.8415103445
H 2.6423520939 0.4002504198 1.9332774027
H 1.6441853684 0.8587195323 0.6238048395
H 4.0167425489 -4.9254088439 1.1706766161
H 4.2263700327 -3.7368389929 2.3971225115
H 1.8917087757 -2.9216670592 -2.1971331364
H 1.1082850909 -0.7446117905 -2.6562866306
H 2.0237810954 0.5631344218 -1.9241831768
H -0.5447182783 -1.6083482341 -0.3169681800
H -3.4764254800 -2.5848560890 1.5252086762
H -2.5686525143 -2.6844753637 -0.0099677139
H -1.7041868322 -2.3514447315 1.5242078367
H 0.4849113871 2.2934138395 -1.7233129363
H -0.7970395307 4.0805041975 -2.4557666296
H 0.0835030182 4.4179026826 -0.9305088744
H -1.3880426143 5.3437743035 -1.3402609240
H -2.6828638675 3.0614434996 1.9418121949
H -3.1182952483 1.4107713143 2.5023716809
H -4.4006772762 2.5931175989 2.1085211385
