51
CONF58
C 3.6918143697 -0.2278018428 -2.8785494482
C 2.5810182974 0.2030851398 -1.9237356473
C 2.4714663018 -0.6603715849 -0.6298914990
C 2.1456936847 -2.1234876827 -0.9617004364
C 3.7542160983 -0.5744178806 0.2056795831
C 1.3567043238 -0.0106930958 0.1607430462
O 1.4591051769 0.8385071576 1.0037423452
O 0.1013930719 -0.5005049101 -0.2328788890
C -1.0125533348 0.0980950968 0.2539528830
C -1.4160498612 1.3697574937 0.1137738229
C -2.6963937049 1.4798019709 0.8275841841
O -3.4095721173 2.4494227610 0.9746471019
O -3.0294183176 0.2595897907 1.3421429903
C -1.9874587709 -0.7198488160 1.0380381338
C -1.3823005745 -1.2197221566 2.3544645075
C -2.3855024842 -2.0506043703 3.1559364386
C -2.9421685529 -3.2036574129 2.3198060898
C -3.5899637978 -2.6810985329 1.0365999602
C -2.5996860017 -1.8561112339 0.2129728117
C -0.7692391122 2.4815534923 -0.5828518896
C -0.3530375312 3.6088024571 0.1349588737
C 0.2919964412 4.6701790762 -0.4826972820
C 0.5203413490 4.6009687515 -1.8522443144
C 0.1075086583 3.5158151352 -2.6132282669
C -0.5413022878 2.4718162618 -1.9637759743
Cl -1.1158537980 1.1338696488 -2.9418568402
Cl 1.3458590073 5.9247714816 -2.6542894888
H 3.6857707027 0.4239512198 -3.7574208589
H 3.5524882315 -1.2551033769 -3.2267991793
H 4.6795033663 -0.1511999895 -2.4157502333
H 1.6183956000 0.1593774168 -2.4455967620
H 2.7407830122 1.2470700827 -1.6253434799
H 3.0191360734 -2.5927519001 -1.4206588855
H 1.3050375912 -2.2035082386 -1.6550305428
H 1.9035587683 -2.6815254951 -0.0520035941
H 4.5719375696 -1.0644911184 -0.3273446648
H 4.0338190283 0.4645056679 0.3981163741
H 3.6214494631 -1.0832909173 1.1652071582
H -1.0253982191 -0.3572799833 2.9279657034
H -0.5097430757 -1.8344987634 2.0987842718
H -1.8907494696 -2.4308281140 4.0561443221
H -3.2094647598 -1.4075442876 3.4895873724
H -3.6720291056 -3.7744115180 2.9043054076
H -2.1257957471 -3.8919083906 2.0598347578
H -4.4609172319 -2.0633181104 1.2887376957
H -3.9544642008 -3.5122039596 0.4232234844
H -3.0742725517 -1.4278720702 -0.6767175632
H -1.7719957824 -2.4927550448 -0.1238201375
H -0.5255797980 3.6373438668 1.2057945456
H 0.6162936507 5.5304235266 0.0905804434
H 0.2756213299 3.4841015769 -3.6825923449
