48
CONF29
C 1.8880813611 -1.0017566320 -1.0224304464
C 0.6768061483 -0.2646903804 -1.5731820031
N -0.5435794328 -1.0495501433 -1.3807670450
C -0.7039872116 -1.4585980385 0.0269454481
C 0.5386863783 -2.1683036498 0.5344559594
N 1.7103704160 -1.3036561738 0.3960609019
C 2.9177809982 -1.9194831237 0.9653690599
C 2.9512695418 -1.8596407280 2.4934767653
C 3.3300165841 -0.4880106012 3.0635331308
N 2.5352331033 0.6023764176 2.5140561289
C 1.1872442934 0.7264611466 2.6983335659
O 0.4379571315 0.1431289054 3.4817378513
N 0.8427100978 1.7208530314 1.7678141938
C -0.3951759330 2.2446166920 1.4952771015
C -0.4991573576 3.1657856439 0.5024232372
C 0.6624691641 3.5690145158 -0.2266709182
C 1.8929679824 3.0389400514 0.0440039428
C 1.9980478390 2.0659863408 1.0664691700
N 3.0413554870 1.3880759908 1.5012549448
C -1.7013536781 -0.5892690193 -2.0196096489
C -1.7087194187 0.6022741740 -2.7687366655
C -2.8697580080 0.9844814778 -3.4283703389
C -4.0471750669 0.2563403710 -3.3767065277
C -4.0337298387 -0.9169778629 -2.6196784049
C -2.8934477262 -1.3393861887 -1.9557208436
Cl -2.8376885102 2.4884247166 -4.3591445965
H 2.7660384514 -0.3572425333 -1.1451193252
H 2.0567728609 -1.9233683393 -1.6165402644
H 0.5991440349 0.7228116390 -1.0841698951
H 0.8306709662 -0.1015306719 -2.6448256010
H -0.8955932225 -0.5696811166 0.6541034453
H -1.5573187330 -2.1311390896 0.1244202598
H 0.6755228883 -3.1197214761 -0.0190180333
H 0.3791250838 -2.4138220599 1.5892458021
H 3.7876308397 -1.3806339312 0.5684744338
H 3.0155547492 -2.9717412024 0.6356431156
H 3.6997772608 -2.5709775205 2.8606356950
H 1.9912318756 -2.1784010558 2.9106663468
H 4.3717761881 -0.2486657208 2.8347704130
H 3.2087123855 -0.4873219978 4.1520215581
H -1.2151219075 1.8795035104 2.1026792971
H -1.4676421119 3.5909247875 0.2706673179
H 0.5572762599 4.3073223963 -1.0141729723
H 2.7833775825 3.3260257644 -0.5030462405
H -0.8355934819 1.2375308457 -2.8304520934
H -4.9357779209 0.5814973356 -3.9037783489
H -4.9348897699 -1.5198560414 -2.5633369843
H -2.9187648065 -2.2739846908 -1.4078799527
