49
CONF26
C -5.2284670909 -1.3734406589 2.1512676460
C -4.3244611646 -1.0655255073 0.9933345538
C -4.4391522263 0.0729882772 0.2970259580
C -3.6104483698 0.4377329287 -0.8802097836
C -2.1397872663 0.8214349765 -0.6937831093
C -3.1848037264 1.8432203864 -1.1604916474
C -3.5147042414 2.9171476453 -0.1472505444
C -3.1695629452 2.3325639643 -2.5898731694
C -1.1497030579 0.2470574791 -1.6169019031
O -1.3554200130 -0.1767261629 -2.7363709852
O 0.0842389075 0.2193585988 -1.0374752167
C 1.1137850446 -0.3829035428 -1.8633518570
N 2.3020769500 -0.4586335958 -1.0836531914
C 2.5835485962 -1.4860352480 -0.1640604261
O 1.9209300063 -2.4859239074 -0.0032263697
C 3.8426637717 -1.0831966261 0.5254206742
C 4.2362681692 0.1095484883 0.0514265752
C 3.2590305032 0.5677916140 -0.9780401362
O 3.2597834320 1.5975501938 -1.6136543418
C 5.4429195625 0.8504303697 0.5004657860
C 5.9703377298 0.2288285575 1.8028746462
C 5.9822933756 -1.3045226053 1.7343995815
C 4.5667990964 -1.8738989375 1.5536731624
C -3.3013789782 -2.1173223354 0.6806584182
H -5.9431126479 -0.5676576147 2.3365837175
H -5.7903183533 -2.2983742475 1.9700704981
H -4.6448825447 -1.5373332190 3.0659494817
H -5.2162173129 0.7802963479 0.5846392893
H -3.7546550064 -0.1655081301 -1.7768941428
H -1.7953311458 0.9426328206 0.3275630267
H -2.7986976950 3.7421129955 -0.2231253700
H -4.5156316885 3.3220598502 -0.3373192271
H -3.4922953405 2.5347374305 0.8765483797
H -2.4336719697 3.1346842744 -2.7161956592
H -2.9300511618 1.5320340801 -3.2908502619
H -4.1552197839 2.7377502791 -2.8450691985
H 0.7980970046 -1.3868163180 -2.1586287567
H 1.2901350653 0.2443520972 -2.7411893217
H 5.2036555281 1.9126762440 0.6264230993
H 6.2068356497 0.8104234987 -0.2889716691
H 6.9756477915 0.6061518317 2.0141522504
H 5.3286596940 0.5461382067 2.6350320864
H 6.4381349308 -1.7200502447 2.6383918833
H 6.6051566782 -1.6209489534 0.8877406510
H 4.5891287922 -2.9312662799 1.2658675449
H 4.0068759207 -1.8357647967 2.4988652264
H -3.7935288336 -3.0699182638 0.4481124622
H -2.6647597408 -1.8468082854 -0.1630460403
H -2.6607397733 -2.3031282783 1.5518233315
