22
CONF4
C 4.1183454098 1.2218002747 -0.2584667008
C 3.2612763685 1.6547788820 -1.2648386258
C 1.9276413795 1.2669002832 -1.2452253889
C 1.4175724694 0.4446167335 -0.2389197806
C 2.2821192614 0.0200237046 0.7745453590
C 3.6125216576 0.4108507232 0.7489109781
Br 4.7795401050 -0.1859786677 2.1434440224
C -0.0024151386 0.0205615691 -0.1952563960
C -0.9019297547 0.7265794312 0.6031408727
C -2.2379067203 0.3507732852 0.6833545266
C -2.6925410789 -0.7516315235 -0.0406575538
C -1.8105013435 -1.4749310237 -0.8378501049
C -0.4813832927 -1.0831225645 -0.9035875446
Br 0.7061522587 -2.1059439347 -1.9934678073
Br -4.5033794866 -1.3261683255 0.0227003178
Br -3.3918381634 1.3737311927 1.7956280931
Br 0.7740657363 1.8906652120 -2.6377823077
H 5.1598268040 1.5208225013 -0.2681155259
H 1.9006713944 -0.6170296487 1.5642961215
H -0.5484933897 1.5850174820 1.1631749811
H -2.1616193798 -2.3348210161 -1.3942831505
H 3.6371528872 2.2933115274 -2.0556760351
