57
CONF74
C -0.7469150400 -2.6204942396 1.1017353275
C -0.8670917923 -1.5212058544 0.0501457752
C -0.8844622189 -2.1356085866 -1.3680190635
C -0.8951433138 -1.1389709313 -2.4959938315
C 0.2933390649 -0.8038634326 -3.1508588913
C 0.2966030965 0.1116004491 -4.2003783445
C -0.8914858097 0.7139874725 -4.6064649275
C -2.0838536984 0.3853035190 -3.9633795237
C -2.0852404565 -0.5369550380 -2.9202199649
C -2.0894361286 -0.6514194973 0.3044945014
C -3.3495045766 -1.2581424388 0.3590696520
C -4.4961857125 -0.4980223574 0.5620947752
C -4.4047240157 0.8841222760 0.7152535960
C -3.1555331540 1.4936086375 0.6643518418
C -2.0052574793 0.7325949625 0.4598763285
O 0.2883286153 -0.6043460811 0.1496782828
P 1.8058781101 -1.0118361013 0.3592104853
O 2.3503464481 -2.1218455570 -0.4530685388
O 2.0430190818 -1.3002197862 1.9233043474
C 1.4080987952 -0.6683127723 2.9976100586
C 1.2676209233 -1.4451037394 4.1423999054
C 0.6621467994 -0.8915645213 5.2656758531
C 0.1984537748 0.4225811797 5.2397752699
C 0.3516829770 1.1837467824 4.0843950227
C 0.9626676890 0.6477971640 2.9516769221
O 2.5413452613 0.4110434457 0.2113216590
C 2.5904909568 1.1009435617 -1.0124220245
C 1.7440792843 2.1866979301 -1.1849499056
C 1.8440811264 2.9298998172 -2.3581939502
C 2.7769987844 2.5825445478 -3.3329124506
C 3.6141595883 1.4863242776 -3.1368582156
C 3.5283107457 0.7340988460 -1.9675345966
H -0.7246705564 -2.1899043713 2.1062165967
H 0.1527972142 -3.2209848785 0.9354681671
H -1.6080459989 -3.2886029956 1.0325674851
H -1.7737845599 -2.7726196785 -1.4200815348
H -0.0092618592 -2.7869349189 -1.4539996859
H 1.2233465892 -1.2693106349 -2.8362484150
H 1.2301900040 0.3582792192 -4.6956226691
H -0.8905618462 1.4288154676 -5.4237945564
H -3.0170600563 0.8414504551 -4.2804150560
H -3.0201426979 -0.7981045848 -2.4328005174
H -3.4467079849 -2.3317475795 0.2307711193
H -5.4639702676 -0.9886114158 0.5986723311
H -5.2995211410 1.4779191358 0.8731150671
H -3.0685086223 2.5695515980 0.7819400748
H -1.0415291139 1.2242034732 0.4205244058
H 1.6266893389 -2.4687473608 4.1392437660
H 0.5495592245 -1.4942941075 6.1612029806
H -0.2776429415 0.8507610032 6.1155513167
H -0.0023295347 2.2094204362 4.0555712753
H 1.0843113500 1.2500744611 2.0598601194
H 1.0300921257 2.4417584692 -0.4091284157
H 1.1895009741 3.7826093725 -2.5078436531
H 2.8501445715 3.1642869212 -4.2460244636
H 4.3423349744 1.2131801100 -3.8939504331
H 4.1780054915 -0.1161358247 -1.7908445083
