52
CONF633
C -0.8311219746 -5.0212706565 -3.3490315197
C -1.0423482929 -4.6536891446 -1.8808205784
C -0.9549730749 -3.1492747853 -1.6072924869
C 0.4209919213 -2.5548614137 -1.9310445952
C 0.6818895313 -1.1639057548 -1.3336162183
C 2.1196889569 -0.6891975636 -1.5858237190
C 3.1751765233 -1.4836835515 -0.8191616348
C -0.3232819359 -0.1689269377 -1.8943543853
O -0.1596602629 1.1553609751 -1.2941660054
P -0.8710023796 1.4822754459 0.0899989842
O -1.6374776266 0.3814093861 0.7114966648
O 0.2976766368 2.1443558695 0.9934510034
C 1.2970850880 1.3663263900 1.5811664408
C 2.6113408789 1.7355154779 1.3222102728
C 3.6436985124 1.0354791529 1.9366388871
C 3.3606259517 -0.0245085081 2.7938800855
C 2.0375150136 -0.3817885741 3.0363088353
C 0.9909602161 0.3129498501 2.4353121856
O -1.6769144063 2.8169005042 -0.3011575753
C -2.3589617216 3.5445307560 0.6841564672
C -1.9485848940 4.8505213513 0.9106014895
C -2.6418811130 5.6200637156 1.8388559360
C -3.7243988213 5.0817226641 2.5293843897
C -4.1167997427 3.7684254924 2.2872573592
C -3.4380026553 2.9865439695 1.3568901655
H -1.5401162979 -4.4859437673 -3.9909017643
H 0.1789533930 -4.7705837963 -3.6874938145
H -0.9759451185 -6.0933888467 -3.5128806631
H -0.3010046413 -5.1751341278 -1.2605890829
H -2.0252459772 -5.0156661238 -1.5555538434
H -1.1848951629 -2.9586731185 -0.5507909533
H -1.7373395270 -2.6436984036 -2.1882116454
H 1.1881993707 -3.2395049584 -1.5496731682
H 0.5706981276 -2.5053848790 -3.0187857763
H 0.5153821108 -1.2203936043 -0.2466746312
H 2.1958885479 0.3643323309 -1.2955943153
H 2.3236834235 -0.7324611427 -2.6654321319
H 3.2364916398 -2.5236059376 -1.1537745461
H 4.1661607072 -1.0384265015 -0.9502161096
H 2.9533008763 -1.4827581885 0.2534771205
H -1.3511137855 -0.5013826067 -1.7299766004
H -0.1592826095 -0.0056646252 -2.9648794808
H 2.8057828298 2.5646698721 0.6509313432
H 4.6726259215 1.3192982678 1.7407200437
H 4.1682982252 -0.5699465643 3.2702073908
H 1.8104763440 -1.2052308133 3.7057839274
H -0.0444455960 0.0506806876 2.6170696118
H -1.0994273859 5.2433976253 0.3630228120
H -2.3311030151 6.6432029880 2.0235781965
H -4.2612172967 5.6849471797 3.2537281979
H -4.9607353596 3.3450206183 2.8220591783
H -3.7253090672 1.9610241086 1.1566067598
