45
CONF86
C 0.0808864344 -3.0181850966 -0.7865974741
C -1.1249124036 -2.3735677261 -1.3891345212
C -1.7129665330 -1.2754627097 -0.9083512765
C -2.9052692090 -0.6618210108 -1.5165021358
C -2.9792775914 0.8346308886 -1.9243132199
C -3.8250972588 0.2739886872 -0.7839224129
C -3.5596824237 0.6551807598 0.6548037886
C -5.3027357428 0.1601921659 -1.0987608918
C -1.8433757350 1.7690686290 -1.8239595040
O -1.6348945967 2.6616283474 -2.6165943049
O -1.0202026330 1.5119477767 -0.7686949785
C 0.2060509875 2.2797117664 -0.7155950796
C 1.1976463258 1.4192986450 0.0032800247
C 1.8272854700 0.3658633325 -0.6567985346
C 2.7046442796 -0.4802185663 0.0031688643
C 2.9896442947 -0.3238004289 1.3576537070
C 2.3588057976 0.7265898945 2.0140919697
C 1.4786386788 1.5763016384 1.3552503468
F 0.8903430844 2.5640959281 2.0498025891
F 2.5945997194 0.9367378006 3.3218451107
C 3.9893340101 -1.2270492048 2.0430273584
O 5.3304187348 -0.8811250408 1.7267623483
C 5.7310370721 0.3595236521 2.2970366947
F 3.2828947330 -1.4780420109 -0.6810201942
F 1.5718175651 0.1584924295 -1.9555755940
H 0.9219656779 -3.0138810692 -1.4908396810
H -0.1118962390 -4.0670983688 -0.5313441627
H 0.3955254256 -2.4967990632 0.1228471086
H -1.5269739600 -2.8385299646 -2.2901547615
H -1.2992429707 -0.8119822037 -0.0181957879
H -3.3871522371 -1.2975488490 -2.2570020460
H -3.5269140844 1.0266055738 -2.8410519464
H -4.0669201293 1.5976187688 0.8882444142
H -2.5025387923 0.7809866188 0.8810229222
H -3.9670146834 -0.1179234775 1.3157493715
H -5.4722108054 -0.1350846156 -2.1381412317
H -5.8095918332 1.1164847305 -0.9285124457
H -5.7683783316 -0.5917531490 -0.4519668124
H 0.5338716004 2.5053137481 -1.7330810439
H 0.0268980072 3.2156759428 -0.1814104687
H 3.8545482574 -2.2520257849 1.6889725581
H 3.8234086711 -1.2002861188 3.1290180396
H 6.7850621492 0.4918828140 2.0456267256
H 5.1578369724 1.2031925450 1.8849740981
H 5.6140850653 0.3511710583 3.3910095590
