46
CONF39
C -3.9658033945 -1.5910565789 1.0736672070
C -2.9460164521 -1.7232995596 2.1809122864
C -1.4964025036 -1.9537732163 1.8658966538
C -1.9460835969 -0.5974306255 2.4538946607
C -1.9021299173 0.6863973183 1.7302453611
O -1.8911399286 1.7639233356 2.2990787070
O -1.8650032220 0.5620788029 0.3854485967
C -1.7724505913 1.8024012997 -0.3651844092
C -0.3905794898 2.3957357706 -0.2979401500
C 0.7291337523 1.5712078202 -0.4026512242
C 1.9986593869 2.1384144238 -0.3686425291
C 2.1751356297 3.5108220146 -0.2305432815
C 1.0518711617 4.3256668899 -0.1227707989
C -0.2257693737 3.7744284492 -0.1553296541
O 3.1371622959 1.3479608296 -0.3903202531
C 3.3066462744 0.4310447763 -1.4112093262
C 4.1625482819 -0.6349758765 -1.1411996978
C 4.4305856215 -1.5633771721 -2.1406785740
C 3.8462003494 -1.4365857928 -3.3998452631
C 2.9970485980 -0.3625802300 -3.6552698321
C 2.7239795689 0.5811451558 -2.6680409831
C -1.0085908769 -2.1029354194 0.4872933885
C 0.2694814627 -2.2933860446 0.1628526194
Cl 0.7962440506 -2.5393614082 -1.4803220039
Cl 1.5662090482 -2.2878473223 1.3266946593
C -3.4892483142 -2.4058126655 3.4184455315
H -4.8434267013 -1.0536931268 1.4480441858
H -3.5907310316 -1.0562767035 0.2015723697
H -4.2911018701 -2.5885352675 0.7582466478
H -0.9436717266 -2.5361597430 2.5989933497
H -1.7012657559 -0.4551920410 3.5014006295
H -2.5207951544 2.5111898492 -0.0025463742
H -2.0192710244 1.5041865120 -1.3879245916
H 0.6164675586 0.4959036182 -0.5027452328
H 3.1788147336 3.9213379213 -0.2026281149
H 1.1767914424 5.3974826990 -0.0063038464
H -1.0981963864 4.4134359531 -0.0579879351
H 4.6050055526 -0.7237294596 -0.1544957551
H 5.0947363455 -2.3956396515 -1.9288507762
H 4.0529453808 -2.1666921800 -4.1753317490
H 2.5432387312 -0.2481469840 -4.6349834315
H 2.0687563139 1.4203873332 -2.8737630465
H -1.7184488750 -2.0920927034 -0.3327148013
H -3.8467502538 -3.4094445002 3.1630069731
H -4.3310302494 -1.8373924078 3.8280053670
H -2.7237535069 -2.4997341191 4.1935480323
