50
CONF67
C 1.4164991109 -0.2089888395 -0.3566132901
S 1.1826357669 0.7392265201 1.1867795106
C 0.4089947229 -0.6304891956 2.1806353995
C 1.1854183017 -1.9101900461 2.1124816107
C 1.7581289010 -2.4596160581 3.3702066220
S 2.9997153496 -1.2525006368 4.0692272138
C 4.1030294703 -1.1643910149 2.7157308650
N 4.4151031464 -2.1166309040 1.8405243226
N 5.2976225056 -1.5456714411 0.9864672312
N 5.5406486006 -0.3155970888 1.3102327225
N 4.7888319672 -0.0448790224 2.3951733494
C 4.7771414471 1.2630601889 3.0343451792
C 1.4006578180 -2.4478465164 0.8859177263
N 1.0622779058 -1.6305790449 -0.2003628474
C 0.1015513060 -1.6498565375 -1.1925947909
O -0.6045098737 -2.5294951703 -1.6215771633
C 0.3946811160 -0.1673265520 -1.5585712504
N -0.7080622886 0.7438699260 -1.5827864422
C -1.8034726918 0.6092352167 -0.8024894268
O -1.9440462737 -0.2677723435 0.0456578442
C -2.9196021518 1.5955344958 -1.0879666265
N -2.9708043713 2.7657236393 -0.5479440667
O -1.8540949813 3.0003356249 0.2526315934
C -1.9515968291 4.3116849459 0.8316850250
C -3.9893021785 1.1466398705 -1.9618259696
C -3.9951950694 -0.0880574572 -2.5582562878
S -5.4166230542 -0.2700836380 -3.5366699750
C -5.9012637217 1.3730366543 -3.0495067288
N -7.0244902696 1.9427491843 -3.5608483456
N -5.0666244869 1.9658909668 -2.2419895029
C 2.0414156823 -3.7560998981 0.6105929667
O 2.5172098842 -3.8154649549 -0.6486482599
O 2.1035981561 -4.6819354793 1.3951710905
H 2.4526640844 -0.0672376894 -0.6805965147
H 0.3514479945 -0.2477289372 3.2015082700
H -0.5994074475 -0.7833076761 1.7845777106
H 1.0043891061 -2.5193812040 4.1621945903
H 2.2359568970 -3.4271742653 3.2405528894
H 5.3142022434 1.9560553994 2.3871572693
H 5.2661053283 1.2079330714 4.0103727456
H 3.7403470059 1.5881957864 3.1542589586
H 0.9276162870 -0.0907096173 -2.5103446247
H -0.6935062278 1.4882799840 -2.2656205325
H -1.0536378953 4.4204658565 1.4424691578
H -2.8452810851 4.3904028898 1.4590740212
H -1.9695709249 5.0778224849 0.0497713839
H -3.2714516610 -0.8873136719 -2.4725187434
H -7.3608397707 2.7568145834 -3.0661310536
H -7.7454852016 1.3328736318 -3.9148403051
H 2.9009778581 -4.6995058615 -0.7780708036
