71
CONF120
C 3.9949236971 -2.2726943476 4.0152548566
C 5.2369364393 -1.7328735037 3.3675948676
C 5.2649410673 -1.3691222703 2.0118026296
C 6.4083429522 -0.8062890469 1.4192412857
C 7.5454504006 -0.6293274933 2.2076261279
C 7.5477846984 -1.0072908928 3.5469671786
C 6.4026906997 -1.5505302316 4.1176157865
C 6.4013147177 -0.4123208520 -0.0310796841
N 4.1085930440 -1.5295557251 1.2042597777
C 3.5249443738 -2.7137530319 0.8952819588
O 3.8984970643 -3.8100379865 1.3111610125
C 2.3599815418 -2.6039992978 -0.0861118902
N 1.8408326823 -1.2514042772 -0.2411126117
C 0.9206615846 -0.9029380208 0.8498298063
C 0.4602861944 0.5385215605 0.7119889767
N -0.2124015296 0.7342208947 -0.5737929533
C 0.7050320275 0.3869741556 -1.6608615513
C 1.1682726044 -1.0553504137 -1.5304549459
C -0.7121356972 2.1033912671 -0.7314654683
C -1.8619938604 2.4449031537 0.2195181695
C -2.9667357147 1.3864845572 0.2565166300
C -3.5204481862 1.0075012477 -1.1310996274
C -4.4848338108 -0.1605853633 -0.9946781898
C -3.9780073450 -1.4639769116 -1.0312418633
C -4.8060930313 -2.5692149089 -0.8569084740
C -6.1552589965 -2.3448128640 -0.6426707897
C -6.7014321884 -1.0743147417 -0.5975596663
C -5.8528605494 0.0163647668 -0.7760929004
F -6.9777507829 -3.4160182325 -0.4767283244
C -4.1127739767 2.1707626221 -1.9007459310
C -3.9732800927 2.2075668233 -3.2920081964
C -4.5256048605 3.2336121898 -4.0530504240
C -5.2230116739 4.2306012407 -3.3928595802
C -5.3837836866 4.2420395171 -2.0188590853
C -4.8210122027 3.2037144520 -1.2797052311
F -5.7669411212 5.2410861036 -4.1228264871
H 4.0627149950 -2.1835490082 5.1018944992
H 3.1054838399 -1.7344664700 3.6718917746
H 3.8463383676 -3.3269549540 3.7603841376
H 8.4373737550 -0.1995599948 1.7606108640
H 8.4410230311 -0.8695337753 4.1484935517
H 6.3984364663 -1.8266143286 5.1683385822
H 7.3935169238 -0.0795817767 -0.3427716449
H 5.6956303488 0.4053046134 -0.2217029421
H 6.0972483427 -1.2509364021 -0.6670207945
H 3.7508129847 -0.7382008184 0.6754605281
H 2.7488723245 -2.9550456082 -1.0511017913
H 1.5941591634 -3.3329603283 0.2317990335
H 0.0383171087 -1.5720619709 0.8474586565
H 1.4362138862 -1.0313448383 1.8086979419
H 1.3335736472 1.2148416973 0.8155865875
H -0.2345988689 0.7641428575 1.5274712626
H 0.1818629286 0.5109307441 -2.6167890270
H 1.5922808035 1.0524764116 -1.6727628273
H 1.8732210965 -1.2863087361 -2.3369840564
H 0.2954928320 -1.7291152589 -1.6332617540
H -1.0603678248 2.2051560939 -1.7677736782
H 0.1001113535 2.8457354267 -0.6003084677
H -1.4860631761 2.5977704724 1.2379096012
H -2.2727953779 3.4100081466 -0.1003590402
H -2.5767393980 0.4684017024 0.7097666333
H -3.7853640156 1.7255051535 0.9032563179
H -2.6746706298 0.6338032804 -1.7194725480
H -2.9151838829 -1.6177173501 -1.2007165526
H -4.4191438990 -3.5820250470 -0.8907405503
H -7.7654940281 -0.9440086082 -0.4317484462
H -6.2727081587 1.0170233648 -0.7510478881
H -3.4212471798 1.4161167273 -3.7920840751
H -4.4164423721 3.2654296335 -5.1317600751
H -5.9330987436 5.0458226108 -1.5405871300
H -4.9418933643 3.2101823891 -0.2013133574
