38
CONF1
C -1.9730709585 0.8450726993 2.4032176607
N -1.5673489119 0.4172701261 1.0577997845
C -2.4313618868 -0.1385402305 0.1313890536
N -2.0328853775 -0.9023059218 -0.8428046957
C -0.6937689960 -1.1609368670 -1.0120796283
O -0.2703465762 -1.9972647995 -1.7866285342
N 0.2173709692 -0.3323012842 -0.2786547087
C -0.1744468145 0.3749366618 0.8350721389
O 0.5822908849 0.9214369805 1.6201145150
C 1.6603409275 -0.4347195044 -0.6093915329
C 2.3082165827 0.9300696588 -0.8542863401
C 3.7523408839 0.7272088159 -1.3256337358
C 4.5521964227 -0.0931794805 -0.3108201501
C 3.8825522405 -1.4445820795 -0.0505251730
C 2.4350906816 -1.2646704260 0.4173892224
N -3.7749538848 0.0999630940 0.2976633481
C -4.2503369967 1.4711285080 0.5083761063
C -4.6876387644 -0.7049816949 -0.5144870135
H -1.9430634505 1.9335473005 2.5095768989
H -2.9796673734 0.4757284956 2.5990037973
H -1.2729806241 0.4214966139 3.1257196761
H 1.6641239296 -0.9889513487 -1.5532734268
H 2.3015820933 1.5194170580 0.0673298627
H 1.7315687544 1.4785514421 -1.6088713899
H 3.7530884041 0.2056539908 -2.2931918932
H 4.2267987100 1.7011822767 -1.4899964760
H 5.5781849362 -0.2410021364 -0.6672949935
H 4.6182730276 0.4665284251 0.6324911666
H 3.8944953966 -2.0379360775 -0.9754822580
H 4.4456975440 -2.0136908764 0.6975944789
H 2.4178557846 -0.7558348363 1.3872239005
H 1.9460196180 -2.2386794479 0.5344811108
H -3.4439964420 2.1252807572 0.8371147384
H -5.0503433957 1.4913234616 1.2569733142
H -4.6445414626 1.8754051035 -0.4345972580
H -5.6929149488 -0.5969538841 -0.0957467290
H -4.6959382809 -0.3821051772 -1.5643206889
H -4.3884824449 -1.7525653914 -0.4829090399
