21
CONF37
C 1.0146628814 -1.1990535920 0.4830933030
C 0.1818940270 0.0311153696 0.0749396564
C 1.1425570435 1.1580089797 -0.3369159855
O 0.4841847369 2.3668284118 -0.7411237125
C -0.7431532751 -0.3591208337 -1.0882715513
O -1.6761491253 0.6789701632 -1.4450811568
C -0.6334151489 0.4957427029 1.2963852864
O -1.8093914912 -0.2864478201 1.5451993078
O 1.7698523650 -1.7794683650 -0.5878058788
H 0.3579180940 -1.9573834674 0.9346036056
H 1.7442887186 -0.8934848204 1.2418560376
H 1.7833195361 1.4208640583 0.5149911276
H 1.7909415717 0.7877617927 -1.1444847840
H -0.3168098403 2.1007618852 -1.2221445858
H -0.1450270199 -0.5379544000 -1.9874461901
H -1.2844565350 -1.2828886314 -0.8437197633
H -2.3300995319 0.7322168720 -0.7345987388
H 0.0201759310 0.5148889815 2.1815524706
H -0.9908748968 1.5152745660 1.1281535917
H -1.5399709414 -1.1664369329 1.8357478187
H 1.1795532127 -2.3401946345 -1.1049298585
