41
CONF7
C -5.1557039286 3.9153462581 2.5373653067
C -3.6604689274 3.7031578134 2.4522422403
O -3.3439762384 2.2714522549 2.4348063118
C -3.4366914211 1.6461944520 1.2558363607
O -3.6918292598 2.1748115914 0.1955244433
C -3.2250832779 0.1437946975 1.4454796140
C -4.5358272495 -0.4993204292 1.8765720268
O -2.8514211138 -0.4651242932 0.2097271096
C -1.6151817606 -0.1900669381 -0.3049924174
C -0.6681869481 0.6388471540 0.3020532529
C 0.5652901828 0.8391192175 -0.3161774249
C 0.8249273463 0.2116968251 -1.5184063644
C -0.1023241283 -0.6110342831 -2.1391935122
C -1.3293414778 -0.8115554435 -1.5259448931
O 2.0542032861 0.4722742142 -2.1731780407
C 3.0401858930 -0.3690527608 -1.9142275677
N 3.0731625725 -1.4077560956 -1.1426721678
C 4.3852012259 -1.8715459330 -1.2914106882
C 5.0468909442 -2.9539666181 -0.7254260066
C 6.3808274835 -3.1554778938 -1.0800014536
C 7.0152704966 -2.2900197535 -1.9742377609
C 6.3812723290 -1.1939750733 -2.5609458655
C 5.0672658362 -1.0355615156 -2.1818143053
O 4.1857140854 -0.0523200255 -2.5894360066
Cl 8.7001711130 -2.5917997668 -2.3862842298
H -5.3611154858 4.9877950789 2.6102834199
H -5.5659197240 3.4245706160 3.4243699651
H -5.6601459635 3.5279958207 1.6482591753
H -3.1473106964 4.0727696377 3.3415809731
H -3.2275809111 4.1643885214 1.5612663952
H -2.4536493935 -0.0262544402 2.2068027994
H -4.8639518693 -0.0706232783 2.8262006611
H -5.3074673602 -0.3296532373 1.1203839957
H -4.3878117112 -1.5739847468 2.0060414750
H -0.8614520249 1.1359844826 1.2450004249
H 1.3129706923 1.4798265654 0.1389341324
H 0.1336038464 -1.0854336324 -3.0858057308
H -2.0795774566 -1.4477543181 -1.9829871064
H 4.5502126718 -3.6228771619 -0.0314799637
H 6.9325843628 -3.9886521674 -0.6606443731
H 6.8822642777 -0.5290561769 -3.2534639926
