47
CONF143
C -1.5688957164 -0.7924512211 -0.6521734476
C -1.6793825590 -0.4145611684 -2.1107480817
C -1.2783885521 -1.5248602234 -3.0562922127
C -2.7606685302 0.5221181465 -2.5902464425
C -3.7681637274 1.0719572755 -1.6794126232
C -4.9605419734 1.5396079511 -2.0475082417
Br -6.2218119301 2.1720412556 -0.7655838831
Br -5.5594680453 1.6455955413 -3.8517095131
C -1.2994944387 0.9974845659 -2.5696526074
C -0.8238807589 1.9819625459 -1.5915534083
O -1.3687658076 2.3586317872 -0.5770351682
O 0.4200865176 2.4300623030 -1.9660326785
C 1.0712960148 3.2554846888 -0.9762159628
C 2.2311761612 3.8365707023 -1.6535432593
N 3.1650618506 4.3047251441 -2.1451885439
C 1.5017324376 2.4565188595 0.2419389706
C 1.4964763376 3.0589480025 1.4967323743
C 1.8781094914 2.3175486322 2.6125065691
C 2.2469091075 0.9832596157 2.4858688478
C 2.2336627227 0.3961197690 1.2215885726
O 2.6409949227 -0.9081486910 1.0205874221
C 2.1675434181 -1.8956673450 1.8701193068
C 3.0235193808 -2.9636296629 2.1214599735
C 2.5757820508 -4.0221003282 2.9065666063
C 1.2886735131 -4.0108993289 3.4407589978
C 0.4445146696 -2.9337184693 3.1777657555
C 0.8745054520 -1.8702868509 2.3888469005
C 1.8793374997 1.1244560545 0.0931926834
H -2.2789547072 -1.5960493366 -0.4293850093
H -1.7594818906 0.0375042365 0.0291209810
H -0.5599129662 -1.1681018889 -0.4506617317
H -1.3795312764 -1.2204400301 -4.1014251730
H -1.9134128056 -2.4013343414 -2.8873333650
H -0.2382357486 -1.8172319654 -2.8767805288
H -3.1126420014 0.3408119955 -3.6012998036
H -3.5516017836 1.0918727548 -0.6175522415
H -0.8083479783 1.0537387761 -3.5351453250
H 0.4061002034 4.0714172038 -0.6687625084
H 1.1877915111 4.0940737617 1.6042119798
H 1.8812721979 2.7818495782 3.5932043772
H 2.5362950653 0.4000791866 3.3535155135
H 4.0235845098 -2.9555040824 1.7008751208
H 3.2414146036 -4.8563166214 3.1049294204
H 0.9450046703 -4.8359796910 4.0556751744
H -0.5626991837 -2.9192398437 3.5825042204
H 0.2146405285 -1.0356940717 2.1770635816
H 1.8787972358 0.6405741142 -0.8777924571
