38
CONF23
O -0.2860190398 2.2267158203 1.2502174233
P -0.2610613409 1.0957285893 0.3024012477
O -0.0675541136 -0.2864635085 1.1063028452
C 0.3697066403 -1.4889145582 0.5256478273
C -0.2120813134 -2.0050313197 -0.6245888972
C 0.2787848777 -3.2056452880 -1.1348023777
C 1.3208838865 -3.8738232161 -0.4980340499
C 1.8756371583 -3.3433156491 0.6655754706
C 1.4018338504 -2.1433108496 1.1849794770
O 0.8305840226 1.0872379385 -0.8744885455
C 2.1705153792 0.7333902086 -0.6455046319
C 2.7612000401 -0.0776314302 -1.6048014723
C 4.0871916880 -0.4599279822 -1.4312107185
C 4.8016715309 -0.0365903910 -0.3114784513
C 4.1900128120 0.7861394087 0.6304855880
C 2.8649200795 1.1867525894 0.4678968581
O -1.5515057786 0.9507927677 -0.6439888183
C -2.8285284895 1.1820106414 -0.0928134913
C -3.3865954419 2.4452904913 -0.2187881581
C -4.6698651503 2.6570525825 0.2785199049
C -5.3689550531 1.6172227412 0.8885365461
C -4.7856828792 0.3573230259 1.0017975455
C -3.5029292426 0.1289744086 0.5083240396
H -1.0234573595 -1.4830336976 -1.1183049152
H -0.1629742332 -3.6168282458 -2.0368316343
H 1.6972998761 -4.8067344742 -0.9043414928
H 2.6862638186 -3.8595428965 1.1697291222
H 1.8296738428 -1.7033046553 2.0792958917
H 2.1800837564 -0.4104155773 -2.4578672640
H 4.5587364786 -1.0982933915 -2.1714023218
H 5.8335222908 -0.3434346512 -0.1767905906
H 4.7430641043 1.1270135684 1.4997348845
H 2.3847433955 1.8339492637 1.1942599330
H -2.8224221821 3.2400190621 -0.6946115817
H -5.1215946098 3.6396007988 0.1882855470
H -6.3685286951 1.7887638136 1.2740969129
H -5.3276036408 -0.4554941967 1.4742574079
H -3.0335835067 -0.8462892565 0.5839216838
