63
CONF120
C 2.1037384506 1.7984448012 -0.6049557317
C 0.8248983986 1.1271665475 -0.1093817784
N 1.0501842799 -0.3062121372 0.0682991379
C 2.0580141056 -0.5523998352 1.0961699293
C 3.3995490678 0.0327337378 0.6595987938
C 3.2421743822 1.5295661487 0.3819607404
N 4.4955204970 2.1454232636 -0.0397275545
C 5.2536112953 1.8836370302 -1.1766042660
C 5.0862522036 1.0028306932 -2.2366290218
C 6.0598574953 0.9932468100 -3.2390236278
C 7.1671511234 1.8368731443 -3.1857232140
C 7.3417426312 2.7252757770 -2.1221858925
C 6.3780727498 2.7349433172 -1.1297072271
N 6.2623230113 3.4799891268 0.0301878918
C 5.1088778473 3.1405958694 0.7305030857
O 4.7175788749 3.6082775499 1.7853862863
C -0.1821430734 -1.0727847861 0.2455614896
C -1.0182184843 -0.7699434279 1.4981418876
C -2.2220726716 -1.7050233639 1.6421892855
C -3.1876532043 -1.7122860628 0.4348573028
C -4.3204325159 -2.6961701894 0.6942180287
C -5.5593415529 -2.3023505236 1.2013185242
C -6.5528867729 -3.2363158251 1.4819210555
C -6.2898236839 -4.5736743246 1.2450753276
C -5.0765703296 -5.0077413310 0.7377747011
C -4.0989244309 -4.0576192522 0.4664610108
F -7.2526999619 -5.4878536992 1.5055772596
C -3.6737270321 -0.3335161716 0.0398778571
C -3.9975050704 0.6448677395 0.9841756824
C -4.4678264991 1.8964988194 0.5982208119
C -4.6073379334 2.1607751242 -0.7534794087
C -4.2957169191 1.2236675832 -1.7236566090
C -3.8293271356 -0.0202737650 -1.3126103208
F -5.0572413672 3.3759428399 -1.1394301972
H 1.9508442833 2.8793284509 -0.6992203969
H 2.3526873830 1.4063496490 -1.5962632879
H 0.0195218450 1.2688758044 -0.8404012384
H 0.5023586798 1.6201604252 0.8303366963
H 1.7800157156 -0.1111550422 2.0754370074
H 2.1540500255 -1.6349739753 1.2435167152
H 3.7432341086 -0.4914459408 -0.2379549703
H 4.1495286781 -0.1155526675 1.4446409600
H 3.0001518417 2.0300490086 1.3288389952
H 4.2331477431 0.3390685613 -2.2965127463
H 5.9457862821 0.3116321197 -4.0749392501
H 7.9059714066 1.8063051800 -3.9789396263
H 8.2021666829 3.3843692858 -2.0755522476
H 6.8976780489 4.1821397004 0.3656845529
H 0.0851196371 -2.1402273588 0.2420038981
H -0.7950564392 -0.8970532698 -0.6484700475
H -0.3949995755 -0.8750452695 2.3941495696
H -1.3596274592 0.2709162852 1.4683354763
H -1.8717267673 -2.7352725668 1.7868106848
H -2.7854701976 -1.4567361976 2.5501539935
H -2.6338091045 -2.1080070855 -0.4254396365
H -5.7645661731 -1.2498065304 1.3657719998
H -7.5204552344 -2.9374251692 1.8691774211
H -4.9132848208 -6.0640559300 0.5562445470
H -3.1429340223 -4.3829497061 0.0639225481
H -3.8813886815 0.4358914636 2.0430236438
H -4.7185190447 2.6600857013 1.3259116174
H -4.4158950569 1.4709246586 -2.7723532047
H -3.5846241677 -0.7679432822 -2.0622740358
