48
CONF227
C -2.8399863992 1.5154336434 -2.8871195386
C -1.3228929024 1.4969786024 -3.0515672527
C -0.5916298100 1.4769174143 -1.7083439704
C 0.9256366629 1.5850694722 -1.8775171140
O 1.4676416489 1.9434808005 -2.9022729975
O 1.5658018897 1.3221818248 -0.7343268419
C 3.0250850757 1.3607159326 -0.7872395144
C 3.5369946150 0.8170013452 0.5273472210
C 3.1690453393 -0.6487806185 0.7335244904
C 3.6300094048 -1.2586524283 2.0214985538
C 4.3032649515 -0.6468135061 2.9959345511
N -0.9833655176 0.3219770343 -0.8841498632
C -1.7112827047 0.6103752946 0.3753323965
C -0.8407934779 1.2447952571 1.3929250133
C -0.7036970652 2.5184953673 1.8544475343
C 0.3384809955 2.4887099984 2.8331423604
C 0.7637483461 1.1993295848 2.8999879975
O 0.0524935488 0.4211811458 2.0297901728
C -0.4652180413 -0.8744015833 -1.2352157022
O 0.3912505742 -1.0302067021 -2.0982651423
N -0.9815453887 -2.0235802891 -0.5446882187
C -2.3027831876 -2.4128462862 -0.3783787435
C -2.2441341233 -3.6337218560 0.2332691222
N -0.9296378460 -4.0078627816 0.4519557966
C -0.1991314115 -3.0321524782 -0.0392630891
H -3.1977046543 0.6176955914 -2.3725106736
H -3.1642606159 2.3899043407 -2.3123011821
H -3.3267968807 1.5544697452 -3.8655189821
H -1.0094577200 0.6311663725 -3.6441235806
H -0.9899860006 2.3887497379 -3.5903932226
H -0.8812154092 2.3686199536 -1.1356205369
H 3.3366141722 2.3969080373 -0.9516334686
H 3.3540076393 0.7514258332 -1.6358824538
H 4.6271087710 0.9389969747 0.5297011898
H 3.1432323442 1.4301325394 1.3468138370
H 3.5658699183 -1.2476654370 -0.1000437028
H 2.0779782598 -0.7627417206 0.6723418813
H 3.3687235850 -2.3099426249 2.1483099772
H 4.5869039128 -1.1817231563 3.8974240574
H 4.5919671802 0.3987861113 2.9335276020
H -2.5411008128 1.2835088439 0.1433517013
H -2.1317208746 -0.3143850561 0.7712533160
H -1.2795907916 3.3738505369 1.5318355321
H 0.7189669948 3.3180158876 3.4109523848
H 1.5189832233 0.6885977691 3.4778433063
H -3.1258510799 -1.8124498704 -0.7350644540
H -3.0718227513 -4.2677020894 0.5192993092
H 0.8813191531 -2.9716789613 -0.0512018819
