54
CONF120
C 3.1081834725 -0.7812115987 1.7422240024
C 2.8773841298 0.7222539210 1.8787683778
C 2.5109175383 1.3249418621 0.5476703308
C 2.0619261547 0.5113607805 -0.5014119093
C 1.7521136382 1.0526705975 -1.7508739495
C 1.8677416670 2.4189924268 -1.9716214247
C 2.2932080637 3.2139313106 -0.9205138708
C 2.6196560953 2.6991218258 0.3182847697
F 2.3941521256 4.5614741398 -1.1169370322
O 1.9228040689 -0.8482285439 -0.3822397519
C 1.9588638232 -1.3887093392 0.9594146022
C 2.0523941881 -2.9154304167 0.8134065989
C 1.0547700971 -3.4830326778 -0.1913764081
N -0.3112399651 -3.1660969195 0.2337923795
C -1.3087752300 -3.5670906108 -0.7622978720
C -2.6715465837 -2.9005091341 -0.5677884419
C -2.6704945974 -1.3711608757 -0.6010440060
C -1.9727820139 -0.7868226077 -1.8188607468
C -2.1051571592 0.7335741068 -1.7941377497
C -1.6928770011 1.2664522577 -0.4480884906
C -1.6809290605 0.4248454381 0.6712346540
O -2.0485550764 -0.8960303545 0.6217003830
C -1.2537105362 0.8901183361 1.9176516757
C -0.8305277342 2.2045991664 2.0678581907
C -0.8529273793 3.0267004469 0.9537708806
C -1.2731336922 2.5888635966 -0.2860641522
F -0.4265708680 4.3170559200 1.0819208082
O -3.3163708425 -3.2902843207 0.6518209989
O 1.8708120490 -3.5071234616 2.1057453889
H 3.1688107675 -1.2571757672 2.7242699481
H 4.0445489828 -0.9831714777 1.2065943073
H 2.0647370550 0.9060036091 2.5948937317
H 3.7668982553 1.2213123200 2.2766509318
H 1.4110075390 0.3921393906 -2.5416857391
H 1.6228026181 2.8589976678 -2.9321312513
H 2.9607786193 3.3606271424 1.1092502419
H 1.0116461953 -1.1263617392 1.4603305811
H 3.0677026303 -3.1744590944 0.4882550842
H 1.2885828134 -3.0950786435 -1.1968921594
H 1.1782107042 -4.5737045743 -0.2226873747
H -1.4510882496 -4.6567064501 -0.7196319250
H -0.9766929334 -3.3411454962 -1.7927607623
H -3.2881753244 -3.2034262397 -1.4297901336
H -0.9119918418 -1.0661712921 -1.8021998516
H -2.4172539206 -1.2037496936 -2.7278225815
H -1.4843907776 1.1885030372 -2.5729477868
H -3.1437915555 1.0188744976 -2.0068615341
H -1.2491401193 0.2083117465 2.7619753565
H -0.4848783522 2.5807926360 3.0244772252
H -1.2493705871 3.2633391543 -1.1365469163
H 0.9115954196 -3.5570299419 2.2394581766
H -3.7184008314 -1.0354347346 -0.5810151975
H -3.4014769320 -4.2519626352 0.6400681872
H -0.3876009164 -2.1604227139 0.3448050428
