41
CONF78
C -4.1595875235 2.3692421731 -1.7183451435
C -4.3259249136 0.8707800482 -1.4683537028
N -3.7271902525 0.4113102582 -0.2064089769
C -4.6108930188 0.2996613542 0.9529340156
C -4.6000191725 1.5553588610 1.8369994535
O -5.4224945684 1.3692938534 2.9887974232
C -2.3860663129 0.2119299851 -0.0894432628
C -1.5177680693 0.3605380423 -1.2137160304
C -0.1695973892 0.1310591641 -1.1111145343
C 0.4087362160 -0.2544431351 0.1201607945
C -0.4400119887 -0.3950536742 1.2361682641
C -1.7927171254 -0.1679457895 1.1463790063
N 1.7463762246 -0.5031842832 0.3391024696
N 2.5161815621 -0.3728288586 -0.6712368370
C 3.8651326151 -0.6333480396 -0.4030690872
C 4.3864138860 -1.0146457819 0.8507184001
C 5.7393279752 -1.2421366177 0.9979279587
C 6.5827170758 -1.0911434394 -0.1069988065
C 6.0924723681 -0.7166710234 -1.3579364989
C 4.7363205547 -0.4903333707 -1.4979483058
N 8.0088986746 -1.3303676689 0.0530489458
O 8.7382745546 -1.1947215158 -0.9317968751
O 8.4252293729 -1.6554237203 1.1672595055
H -3.1052783509 2.6597665280 -1.7220740180
H -4.6751644436 2.9548019938 -0.9527410794
H -4.5895119571 2.6253414865 -2.6915239447
H -3.9017350588 0.2928112819 -2.2955555020
H -5.3882053384 0.6180984153 -1.4270366038
H -4.3328401352 -0.5746553486 1.5531084416
H -5.6277299734 0.1256153847 0.5913258138
H -3.5693015884 1.8154146407 2.1164185135
H -5.0256062434 2.4008489803 1.2897941062
H -4.9924294040 0.7211174299 3.5609513135
H -1.9161959042 0.6616311090 -2.1735024478
H 0.4623698399 0.2503527566 -1.9834700731
H -0.0003110818 -0.6855290855 2.1855661040
H -2.3947687790 -0.2789698539 2.0382506424
H 3.7202602862 -1.1275960820 1.6968008238
H 6.1525372837 -1.5349613699 1.9551092342
H 6.7670984360 -0.6068005086 -2.1973285426
H 4.3230026624 -0.1970560965 -2.4572214705
