47
CONF152
C -6.9902820140 -1.5633308843 2.4161268398
O -6.3864858080 -0.3698196824 1.8377233202
P -5.6958965793 -0.4388977119 0.3993167611
S -4.4726981609 -1.9086635751 0.0541994388
O -6.9587007717 -0.2878083721 -0.5671595898
C -6.7962845843 -0.4091514042 -2.0094230786
O -5.0565311734 1.0501416638 0.3004394255
C -3.7565388378 1.3260787369 0.7293564984
C -3.4182993146 1.2324582811 2.0719516365
C -2.1174292767 1.5400706164 2.4610409111
C -1.1841798556 1.9629515786 1.5137326911
C -1.5518041964 2.0777465801 0.1695833378
C -2.8385367246 1.7415916357 -0.2281303822
S 0.4488591198 2.4344857111 2.0698969333
C 1.5260059591 1.4965748522 0.9928762255
C 2.7789993323 2.0427788465 0.7012236914
C 3.6877555737 1.3316817463 -0.0755262768
C 3.3211073628 0.0874857062 -0.5690555815
C 2.0758859944 -0.4654757939 -0.2990830290
C 1.1788940449 0.2375735185 0.4958954702
O 4.1944387462 -0.6045784038 -1.4188455236
P 5.3497620985 -1.5759033771 -0.8287740904
S 4.8012213666 -2.9837486619 0.3872824378
O 6.3657990540 -0.4759875030 -0.2533254316
C 7.5388263811 -0.8946784535 0.5014330598
O 5.9807386432 -2.1565466377 -2.1736305816
C 6.5171413368 -1.2497629702 -3.1881806535
H -7.3650731013 -1.2555331619 3.3915783364
H -6.2358472279 -2.3459559822 2.5275747405
H -7.8138161800 -1.9104526366 1.7867596963
H -7.7956094412 -0.2903208383 -2.4265240214
H -6.1353222854 0.3792603283 -2.3795067668
H -6.3937495985 -1.3941928565 -2.2575080440
H -4.1523592212 0.9098336708 2.8021919264
H -1.8324856787 1.4476346112 3.5037212522
H -0.8316315325 2.4176802445 -0.5672699780
H -3.1390929053 1.8097931894 -1.2681741759
H 3.0457752750 3.0271458237 1.0724965110
H 4.6596947986 1.7480433752 -0.3145321198
H 1.8182011604 -1.4391683820 -0.7010352328
H 0.2109763748 -0.1963058125 0.7221249515
H 8.1792838325 -1.5291297865 -0.1175048304
H 8.0607859222 0.0252014969 0.7631788045
H 7.2296281084 -1.4283897471 1.4034325236
H 6.9517609267 -1.8945133864 -3.9510271865
H 5.7106783664 -0.6484834770 -3.6133912722
H 7.2864335953 -0.6094125249 -2.7504835621
