32
CONF10
C -3.6876138093 -0.6709368532 0.2192321651
C -3.6957954518 0.6496322834 -0.1283659270
C -2.4973869789 1.3723800457 -0.3272860196
C -1.2650667900 0.6902455951 -0.1598189695
C -1.2567964386 -0.6987292721 0.1864367469
C -2.4805505083 -1.3874106795 0.3859891174
N -2.5594975671 -2.6957622923 0.7710197322
C 0.0077633433 -1.4197752589 0.2958426383
O 0.0143267553 -2.6554899058 0.5523630831
C 1.2644652159 -0.7018699029 0.1054167942
C 2.4960110136 -1.3988415373 0.2021425279
C 3.6950914581 -0.6624137818 0.0677812911
C 3.6883630136 0.6859580553 -0.1482527957
C 2.4818036410 1.4138124726 -0.2611247665
C 1.2572147995 0.7086117027 -0.1390947878
C -0.0078961833 1.4181902278 -0.3022506989
O -0.0146029847 2.6532630778 -0.5624621173
N 2.5626897170 2.7648940324 -0.4425905140
N 2.5895878841 -2.7501179805 0.3784036704
N -2.5930076361 2.6801571119 -0.7096558848
H -4.6283462319 -1.1923168050 0.3756748352
H -4.6430867059 1.1661108535 -0.2594497594
H -1.6942048416 -3.2211393170 0.7251284733
H -3.4415409916 -3.1636637032 0.6543631701
H 4.6417374287 -1.1918713645 0.1374063728
H 4.6298596460 1.2219233835 -0.2355831210
H 3.4413736468 3.1434064919 -0.7506774650
H 1.6942087959 3.2323123771 -0.6748113042
H 3.4753155838 -3.1212932311 0.6754333538
H 1.7286245920 -3.2220924444 0.6293156443
H -3.4741567111 3.1436703658 -0.5711965834
H -1.7288867045 3.2091562585 -0.6893290922
