50
CONF191
C -1.0981364605 -0.0221736784 -2.2169512185
C -1.7857953407 -1.3607448218 -2.0852779196
C -1.0727161249 -2.6414486531 -2.4593454352
C -1.3820385726 -2.3347778728 -0.9801907579
C -0.3172727448 -2.0004772437 -0.0245706938
O 0.7801486270 -1.5399111969 -0.2560014342
O -0.7490026301 -2.2710707331 1.2481561505
C 0.1692204529 -1.8543787095 2.2949832283
C -0.1901609307 -2.6524284813 3.4661951745
N -0.4518140117 -3.2632099281 4.4103602291
C 0.0467939027 -0.3714495725 2.5709511545
C 1.1536615796 0.4497515909 2.3840349825
C 1.0245585170 1.8194468180 2.5960915408
C -0.1918936747 2.3715516931 2.9921566938
C -1.2896002077 1.5344539768 3.1714848442
C -1.1799845764 0.1635937854 2.9660872582
O 2.1697646081 2.5737087042 2.4556680204
C 2.0645394762 3.8666261833 1.9607613913
C 2.8199824198 4.8494311692 2.5897904633
C 2.8067742749 6.1446366016 2.0777449568
C 2.0409920494 6.4515612536 0.9553683739
C 1.2912651474 5.4520895816 0.3365275077
C 1.3010422337 4.1514406295 0.8312384960
C 0.2979962613 -2.6284986221 -2.9717691238
C 0.8192805899 -3.5362026411 -3.8034249968
C 0.0655928868 -4.7467338257 -4.3045726934
F 0.8174765057 -5.5729055039 -5.0495423938
F -1.0021925203 -4.3852242021 -5.0658164451
F -0.4290678374 -5.4786703447 -3.2727819755
Cl 2.4532426026 -3.3643843714 -4.4048046745
C -3.2670980676 -1.3140296795 -2.3880253641
H -1.6123422434 0.7112450663 -1.5870749730
H -0.0493670603 -0.0421788498 -1.9230131670
H -1.1648395072 0.3177180615 -3.2556987513
H -1.7225899729 -3.4182144637 -2.8463119190
H -2.1907351075 -2.9191950832 -0.5553246875
H 1.1963318134 -2.1051915714 2.0068119641
H 2.1070542116 0.0433009425 2.0635080652
H -0.2776695085 3.4395402732 3.1603232682
H -2.2370126004 1.9601004018 3.4855988343
H -2.0394370385 -0.4840536646 3.1081123808
H 3.4073955107 4.5931154923 3.4651720091
H 3.3947075771 6.9163278459 2.5646244208
H 2.0299492608 7.4627380113 0.5623349832
H 0.6999319274 5.6811070232 -0.5444949146
H 0.7276402430 3.3667972426 0.3483308518
H 0.9402894575 -1.8091932462 -2.6719767718
H -3.4241882684 -0.9518386373 -3.4097631393
H -3.7299639213 -2.3001610362 -2.2954394241
H -3.7707133031 -0.6265353249 -1.7002443535
