51
CONF6
C 3.5902568030 -2.4179142332 2.8450710261
C 3.2140421475 -2.2419930281 1.3665350865
C 2.8043712551 -0.8317366393 1.0373045280
N 3.6806878608 0.1133270044 0.8824534715
O 5.0063225977 -0.2987259625 0.9982081723
C 5.8717617725 0.8583844266 0.9280502567
C 5.8095654156 1.6975471969 2.1881727223
C 1.4099481460 -0.4477621989 0.7606258430
C 1.1224459756 0.7016637218 0.0329919731
C -0.2450879484 1.0524285113 -0.4526296926
C -1.1547859488 -0.1788546721 -0.4904395364
C -1.1146987526 -0.8541123084 0.8798243639
C 0.2962655102 -1.2220085635 1.3057622979
O 0.4518863688 -2.1087281507 2.1499150172
C -2.5241826918 0.1090174117 -1.0839379052
C -3.5499164746 0.7883709445 -0.3922315345
C -4.7750228529 1.0154518906 -1.0284841741
C -5.0274356240 0.6010953823 -2.3327014508
C -4.0025440934 -0.0537610094 -3.0110498405
C -2.7634676114 -0.2992835652 -2.4167026887
C -1.7134943690 -1.0007531139 -3.2452146688
C -6.3451705580 0.8864995472 -2.9998881212
C -3.4267063269 1.2844055652 1.0290952031
O 2.0479509145 1.5788599570 -0.3089250727
H 4.4119766278 -1.7525194959 3.1218981860
H 2.7307063670 -2.2035310553 3.4838916966
H 3.9068933841 -3.4491310222 3.0271487080
H 4.0811538991 -2.4828625697 0.7417198561
H 2.4044547547 -2.9223836816 1.1063089835
H 6.8660171850 0.4250841936 0.7871432684
H 5.6123006743 1.4439405047 0.0369491755
H 6.5265449626 2.5213903549 2.1143983086
H 4.8115008059 2.1224744274 2.3270198881
H 6.0631797597 1.0947064054 3.0652808562
H -0.6541333241 1.8355633907 0.1994504259
H -0.1406966396 1.5009669305 -1.4470850020
H -0.6609487280 -0.8842440890 -1.1642042157
H -1.7143313534 -1.7694652432 0.8987667446
H -1.5010132998 -0.2015391424 1.6697514455
H -5.5557650096 1.5373066484 -0.4793387560
H -4.1685338675 -0.3820243322 -4.0345557765
H -2.0840614667 -1.1612084209 -4.2601316120
H -0.7891410254 -0.4170889553 -3.3144826373
H -1.4501468130 -1.9797447340 -2.8285712958
H -6.3183732691 1.8562739706 -3.5113408028
H -6.5811382036 0.1267919326 -3.7501723534
H -7.1587853181 0.9231747978 -2.2702224783
H -3.5621173930 0.4686263080 1.7480378929
H -4.2040125448 2.0258249342 1.2296756074
H -2.4621881829 1.7499883869 1.2395910471
H 2.9276645981 1.2422109654 0.1036166358
