55
CONF279
C -7.0847463638 -2.3767437382 0.5141676935
C -6.0949622792 -2.1122314357 -0.5944158193
O -4.9691084447 -1.4014955183 0.0005705380
C -3.9763713983 -1.0678998637 -0.8554082272
O -3.9786626567 -1.3200342547 -2.0486939500
N -2.9923756419 -0.4110263768 -0.1639489336
C -1.7805796896 0.0878698639 -0.6555368954
C -0.8835070381 0.6072358301 0.2866458629
C 0.3614950521 1.0716758439 -0.1137743050
C 0.6869771482 1.1268519842 -1.4733620692
C -0.2202688902 0.6442584742 -2.4118668113
C -1.4365668247 0.1032014657 -2.0141000893
S 2.2458407818 1.8266416271 -1.9665132311
C 2.3543783630 3.0977217015 -0.7207659880
C 2.9241640592 4.3362573776 -1.0161564609
C 3.0029364658 5.3076011572 -0.0236012313
C 2.4855086090 5.0594282870 1.2474142183
C 1.9030603286 3.8301477382 1.5379068345
C 1.8601498578 2.8395471973 0.5610069688
N 1.3170158039 1.5451352271 0.8362231552
C 1.9679636877 0.7240952114 1.7579904484
O 2.8690763876 1.1688561776 2.4633143140
C 1.5892908173 -0.7315212671 1.7765928831
C 2.3129404694 -1.4666402764 0.6069496399
N 1.8179747825 -2.8010857067 0.2974449655
C 0.4590753368 -2.8038542754 -0.2496155842
C 0.0970560490 -4.2118416490 -0.6936255084
O 0.1851010654 -5.1333184972 0.4008986926
C 1.5127822045 -5.1288497298 0.9418326839
C 1.9046539380 -3.7392770476 1.4197569714
H -6.6380564251 -2.9932522088 1.2992405732
H -7.9457376543 -2.9115852335 0.1031916336
H -7.4380179271 -1.4403982752 0.9550273278
H -6.5227166449 -1.4871223490 -1.3842551819
H -5.7237844171 -3.0396694569 -1.0414637752
H 2.2254678978 -0.8656232468 -0.3059245929
H 0.0225582642 0.6871680655 -3.4688121261
H -2.1217535603 -0.2806689191 -2.7550973550
H 3.2977816884 4.5352901694 -2.0155340507
H 3.4518487367 6.2688534281 -0.2515606291
H 2.5313063373 5.8260143597 2.0137212770
H 1.4963035278 3.6229573468 2.5212354542
H 1.9165740870 -1.1336330513 2.7370960551
H 0.5122487356 -0.8725507215 1.6903761084
H 3.3793463248 -1.5363566559 0.8538231792
H -0.2939868847 -2.4683178053 0.4892756536
H 0.4132357159 -2.1220634125 -1.1083518118
H -0.9368473816 -4.2456311216 -1.0495442046
H 0.7691692085 -4.5361490743 -1.5044630932
H 1.5126296533 -5.8358932683 1.7762494572
H 2.2243421414 -5.4747026959 0.1748135009
H 2.9352975405 -3.7594802330 1.7955837511
H 1.2400005882 -3.4498282681 2.2556602138
H -1.1461325841 0.6275275359 1.3400698335
H -3.1467465516 -0.3217109997 0.8308800564
