45
CONF2375
O -0.7414562682 -0.5207631606 -2.8283093746
C -1.9260218558 -1.2899969601 -2.6521467944
C -2.5360418977 -1.1433467105 -1.2750831700
O -1.6386901160 -1.7506977024 -0.2911660511
C -1.5035323793 -0.9195971351 0.8389379502
C -1.5391422492 -1.7941780387 2.0876815375
O -1.2869258126 -1.0327088045 3.2725572807
O -0.3007802289 -0.1347019460 0.7953618087
C 0.9150732443 -0.8009292736 0.4748204039
O 1.3709718622 -0.4035092572 -0.8065514823
C 1.6553637102 1.0152494834 -0.9171894840
C 2.1159516500 1.2379701932 -2.3480345779
O 3.3268535435 0.5428802514 -2.6535104216
C 2.7030335500 1.4411453871 0.1208628490
O 2.8485637091 2.8632894051 0.0889378623
C 2.2743066597 1.0383502591 1.5291288464
O 3.2645464196 1.3723899215 2.5008093148
C 1.9483008199 -0.4584654594 1.5522374744
O 1.5227694303 -0.9142162240 2.8249981972
C -2.6502815742 0.1042846377 0.7378353543
O -2.4667820123 1.2794531701 1.5025290750
C -2.7607436741 0.2873281878 -0.7788487069
O -3.9696721776 0.8720038859 -1.2310749818
H -0.1115938571 -0.7498049622 -2.1224556272
H -2.6533193487 -0.9351611239 -3.3908179032
H -1.7402409464 -2.3575817523 -2.8433815446
H -3.4903974473 -1.6911747026 -1.2494628459
H -0.7609382384 -2.5623762181 2.0337490385
H -2.5166881707 -2.2917921725 2.1312896044
H -1.8790025994 -0.2658182162 3.2739310239
H 0.7646427380 -1.8829252521 0.4126313302
H 0.7330134147 1.5911609454 -0.7493967581
H 2.3156973874 2.3034050801 -2.4947287133
H 1.3100812733 0.9470506545 -3.0343937280
H 3.1477923435 -0.4019098578 -2.5603870877
H 3.6581703836 0.9468219427 -0.1108991772
H 3.5250856486 3.0867203831 -0.5614046326
H 1.3818194094 1.6123698078 1.8103187326
H 4.0606387239 0.8584236152 2.3053862649
H 2.8640451240 -1.0171563752 1.3140631845
H 0.6001766940 -0.6293712840 2.9719006676
H -3.5717180911 -0.3663057061 1.1056898952
H -1.6023272341 1.6466654757 1.2648490446
H -1.9535591681 0.9416400373 -1.1276047258
H -4.7070413970 0.3258856821 -0.9236587569
