46
CONF145
C -1.6791710155 0.5039001618 2.9058855943
C -1.0768609133 -0.5558568848 2.0115604225
O -0.9836786566 -0.0437897310 0.6510343131
P -1.9542040756 -0.5649630550 -0.5467869552
S -3.7337259652 -1.0769388212 0.0202217522
N -1.8386887127 0.5510627207 -1.7541408543
C -2.6901584468 1.7504627592 -1.8286765390
C -2.7513769222 2.2127881532 -3.2814439052
C -2.1997193573 2.8610858786 -0.8983285328
O -1.0552671918 -1.7523053816 -1.2527376149
C -0.1731037146 -2.5292333678 -0.5400625288
C -0.5540613632 -3.8289325288 -0.2256760591
C 0.3210191710 -4.6557251942 0.4678694321
C 1.5686585210 -4.1806398244 0.8644315860
C 1.9365960200 -2.8758666773 0.5656434592
C 1.0801280687 -2.0335709811 -0.1510386855
C 1.4968057663 -0.6477252129 -0.4972208580
O 1.2118468422 -0.0635304595 -1.5227380308
O 2.2573929105 -0.1212065064 0.4852014139
C 2.7271576051 1.2512101926 0.2844791303
C 2.9451014939 1.8125396632 1.6747531814
C 3.9845373591 1.2296772635 -0.5654920183
H -1.6927573546 0.1515588786 3.9424058314
H -1.0923182002 1.4262330195 2.8607190971
H -2.7057251469 0.7191387224 2.5973048556
H -0.0492400840 -0.8027802077 2.2994732989
H -1.6792052559 -1.4704720965 2.0229142009
H -0.8899119659 0.6640739817 -2.1038668992
H -3.6914142883 1.4345595610 -1.5125046329
H -3.4080958857 3.0825405873 -3.3761970713
H -1.7558534872 2.5043989937 -3.6367676464
H -3.1278469175 1.4148754656 -3.9263811562
H -1.1858910334 3.1728090703 -1.1753230544
H -2.8552353176 3.7356267748 -0.9629012719
H -2.1797803932 2.5183013256 0.1401659425
H -1.5390158640 -4.1649159677 -0.5298509365
H 0.0231265594 -5.6719200537 0.7047561939
H 2.2517962107 -4.8245405021 1.4075806098
H 2.9025154941 -2.4934843223 0.8750277912
H 1.9291446594 1.7937371674 -0.2333529975
H 3.2760094259 2.8528181241 1.6053416994
H 2.0184433127 1.7807221704 2.2540260530
H 3.7114441309 1.2408267465 2.2071778890
H 4.7682167542 0.6476206020 -0.0700761064
H 3.7801201456 0.7955405314 -1.5466937171
H 4.3522469676 2.2502896573 -0.7097156707
