52
CONF73
C -2.3853003865 -4.9949326862 1.7654382100
C -2.9219916321 -3.6074224049 1.5610252687
C -2.2083630764 -2.5512559972 1.1415570301
C -0.7747800095 -2.5498328878 0.8128412516
C 0.0953383666 -1.2816319355 0.9705970384
C -0.2083959501 -1.8676164889 -0.4052916684
C -1.1245707479 -1.1438011651 -1.3626467656
C 0.9714127642 -2.5337481217 -1.0796630839
C -0.4714932316 0.0017803648 1.4168715679
O -1.5693399903 0.4572876017 1.1788175731
O 0.4513367617 0.6641407885 2.1811899248
C 0.0550082455 1.9835758857 2.6063696781
C 0.2037321936 3.0067990963 1.5098497938
C 1.2197890317 2.8834433490 0.5653754031
C 1.3762816614 3.8702942179 -0.4027281336
C 0.5471643031 4.9852419127 -0.4380678811
C -0.4625868548 5.1009587375 0.5111047314
C -0.6428263425 4.1151857941 1.4750097958
O 2.4184475485 3.8260641396 -1.3112375167
C 2.6647307806 2.6524089776 -1.9936259466
C 1.6401475330 1.8124320334 -2.4265016754
C 1.9627320470 0.6946696377 -3.1892286631
C 3.2866710585 0.4095102575 -3.5126700971
C 4.2977359669 1.2585684980 -3.0708296742
C 3.9928711709 2.3814109115 -2.3101449227
C -4.3872527995 -3.4647162459 1.8657294567
H -1.3229515223 -5.0937820451 1.5389658100
H -2.5451329665 -5.3171825290 2.8021740904
H -2.9297097143 -5.7070887063 1.1324324379
H -2.7244606131 -1.6020882487 1.0377292980
H -0.2285805385 -3.4390891412 1.1133095241
H 1.1000775976 -1.4563315081 1.3397629615
H -1.5213976525 -1.8579959322 -2.0926325068
H -0.5635126119 -0.3765953866 -1.9068566120
H -1.9585062737 -0.6540421094 -0.8631581342
H 1.5979484938 -1.7879762261 -1.5825416186
H 1.5953323762 -3.0722189177 -0.3599703841
H 0.6227857957 -3.2515284791 -1.8310508262
H -0.9755714703 1.9642493346 2.9727355138
H 0.7306583601 2.2110955092 3.4371555592
H 1.8848547880 2.0262973273 0.5789853147
H 0.7002879977 5.7374172907 -1.2037663773
H -1.1248378257 5.9603076167 0.4857519948
H -1.4486527637 4.2007392957 2.1975441788
H 0.6093287888 2.0406492853 -2.1765957229
H 1.1678131464 0.0471963308 -3.5460919207
H 3.5268204108 -0.4638726620 -4.1093238487
H 5.3332535736 1.0471582007 -3.3177275109
H 4.7652176647 3.0576167316 -1.9604818161
H -4.7365165887 -2.4420263195 1.7053115220
H -4.5963002441 -3.7419298195 2.9070565439
H -4.9847447094 -4.1377923794 1.2374063445
