27
CONF282
C 3.0376296012 -0.0003501534 0.0501285220
C 4.2096448107 -0.4061077682 0.9437602366
C 5.5521224803 0.1074182202 0.4404750837
O 5.6624029141 1.5408309954 0.4828962526
C 1.7227704186 -0.5768997024 0.5817377479
C 0.5529518979 -0.2417582096 -0.3081424467
C -0.8143304074 -0.7332210182 0.2412231583
C -2.0665910480 -0.6814027323 -0.7019121906
C -2.4202417564 0.6724385949 -1.3904798182
F -2.4444848494 1.6717061004 -0.4989077107
F -3.6372377635 0.5636958545 -1.9459468865
F -1.5420166460 0.9613160308 -2.3575529757
F -3.1339682305 -1.0259794239 0.0637848045
F -1.9249015374 -1.6081473760 -1.6767861501
F -1.1059340721 -0.0177832938 1.3572551096
F -0.6907906653 -2.0408239289 0.5970424276
F 0.7141189959 -0.7870708945 -1.5588294988
F 0.4399766457 1.1174600780 -0.4801982946
H 2.9590092053 1.0915145034 0.0031192158
H 3.2157052834 -0.3622236213 -0.9695951171
H 4.0447483536 -0.0440341567 1.9667171423
H 4.2661152651 -1.5018196329 0.9949399710
H 5.7383522151 -0.2579168635 -0.5805057742
H 6.3542973295 -0.2681716878 1.0834361934
H 5.0979073466 1.9039482345 -0.2097337551
H 1.5092094277 -0.1881698254 1.5835620754
H 1.7852150045 -1.6672117622 0.6541206009
