82
CONF71
C -2.8067889829 3.1051457945 -0.5054161687
C -2.0828097000 2.3450277117 0.5718027171
C -1.0542980822 2.8947625228 1.2303916868
C -2.5949093770 0.9730728961 0.9421892356
C -3.9108745802 1.0492438815 1.7451872983
C -4.3658838745 -0.4064858554 1.7895245884
C -4.0042917317 -1.0005092618 0.4031348446
C -2.9754382800 0.0081770072 -0.2144387731
C -1.8832247241 -0.6934317901 -1.0560063275
C -0.9715377945 0.3103800391 -1.7659197827
C 0.2348006124 -0.3934074977 -2.3699061376
C 1.1823945209 -0.9643539261 -1.2910260533
C 2.3891736987 0.0534037320 -1.0182531132
C 2.0012019211 1.5526742742 -1.0425030517
C 3.2012316971 2.4751291740 -0.8005893343
C 3.9011461354 2.2219909280 0.5338884062
C 4.2421867106 0.7295065060 0.7473283483
C 3.0449839390 -0.2150425252 0.3657730169
C 1.9788162708 -0.2091593483 1.4972557822
C 0.5332485846 -0.4971429482 1.0809430748
C 0.4159785639 -1.5338917096 -0.0357073989
C -1.0939911351 -1.8855895374 -0.3849065447
C -1.9001943442 -2.3486995128 0.8542027646
C -3.3978993496 -2.4089548948 0.5527874959
C -1.0997789505 -3.0897403594 -1.3693670416
C 1.1222673313 -2.8215039846 0.4422586118
C 5.5113590954 0.4243485018 -0.0788445922
C 4.6565327166 0.4864153212 2.2113060481
O 3.0817615370 2.7017206099 1.6250066711
C 3.3458698403 -0.2425626339 -2.1975623334
C -5.2383974777 -1.1336404417 -0.4844374566
O -5.9518166240 0.1125653980 -0.5408142504
H -3.8893730116 3.1067575594 -0.3347146461
H -2.6460718341 2.6467763322 -1.4874070849
H -2.4605938566 4.1407208702 -0.5514438574
H -0.5270314381 2.3513719306 2.0108266571
H -0.7118482379 3.9019877369 1.0067145819
H -1.8553408851 0.4991979283 1.5942655141
H -3.7550307259 1.4886084266 2.7360764538
H -4.6427480350 1.6613863935 1.2079538945
H -3.8012697295 -0.9354453470 2.5674524443
H -5.4302956528 -0.5223943719 2.0188725982
H -3.5348220000 0.6223488180 -0.9325949442
H -2.4618769354 -1.1725549657 -1.8587836111
H -1.5457774040 0.8214151115 -2.5492424556
H -0.6403726169 1.0863260983 -1.0720018116
H 0.7814527473 0.2889938157 -3.0265047919
H -0.1222884928 -1.1953213117 -3.0256028333
H 1.6809932316 -1.8339610585 -1.7370204930
H 1.2540010829 1.7651513609 -0.2708828871
H 1.5498740125 1.8245998139 -2.0017276487
H 3.9325642760 2.3890217059 -1.6110801383
H 2.8652307624 3.5205545183 -0.8205790341
H 4.8527111720 2.7799893601 0.5519698356
H 3.4850066345 -1.2205838927 0.3153465684
H 2.2872436321 -0.9366591641 2.2558270603
H 1.9823016232 0.7627358603 1.9920527286
H 0.0569863808 0.4293919969 0.7583625319
H -0.0055273506 -0.8249327827 1.9763759165
H -1.5511695260 -3.3347423354 1.1780698724
H -1.7537889903 -1.6735721772 1.7029542815
H -3.5697700017 -2.9936573696 -0.3597189443
H -3.9264287140 -2.9352622611 1.3573507859
H -2.0738969569 -3.1950144030 -1.8544899665
H -0.8948275999 -4.0270705476 -0.8441783651
H -0.3538622457 -2.9877279284 -2.1602706839
H 0.6224079284 -3.2436363219 1.3207930648
H 2.1570629506 -2.6223952482 0.7229208437
H 1.1459561536 -3.5846217712 -0.3388493961
H 5.6833067624 -0.6559632428 -0.1231036014
H 6.3801360692 0.8846490993 0.4040165295
H 5.4727647692 0.8005732723 -1.0999535990
H 5.5124621128 1.1233939871 2.4616231322
H 4.9655554804 -0.5582408304 2.3382951434
H 3.8638651919 0.7007535722 2.9268472201
H 2.8982456854 3.6327682229 1.4473808307
H 2.7697943808 -0.3669849548 -3.1202656397
H 3.8920811882 -1.1755355084 -2.0206971876
H 4.0755987223 0.5416531942 -2.3918356529
H -4.9237558269 -1.4382589399 -1.4957821098
H -5.8904553520 -1.9234923275 -0.0777921240
H -6.7101995075 -0.0125456616 -1.1231064298
