38
CONF10
C 1.4184141672 0.4358343753 -3.7622617479
S 3.0023041816 -0.1524821371 -3.1587193277
O 2.7774877755 -1.2263842833 -2.1867118717
O 3.9123906114 -0.3461555314 -4.2923294345
N 3.6502432838 1.2095443378 -2.3231823876
C 3.5778417103 1.5290058780 -0.9833650670
O 4.2123142423 2.4643681926 -0.5279565676
C 2.5537248134 0.8106106346 -0.1475326312
C 2.8317867188 -0.2775792451 0.6858197550
C 1.8473897091 -0.8442148761 1.4880045107
C 0.5604343376 -0.3354312093 1.4654433567
C 0.2805674188 0.7495828975 0.6355271587
C 1.2708138227 1.3315154292 -0.1575394892
O -0.9539478380 1.3332660078 0.5557998992
C -2.0491886250 0.6292144320 1.0181007159
C -2.5609122025 -0.4516897774 0.2940392692
C -3.7043268366 -1.1039264211 0.7303722502
C -4.3381473686 -0.6573515803 1.8880593878
C -3.8386151915 0.4239314915 2.6091480256
C -2.6894293251 1.0672896221 2.1683525399
C -5.5516043312 -1.3962048925 2.3745832593
F -6.3316088047 -0.6317868680 3.1700771959
F -6.3248689645 -1.8332185297 1.3525905859
F -5.2102307160 -2.4958481872 3.0994739052
Cl -1.7701950803 -0.9698120904 -1.1706756614
N 4.1613292476 -0.8667030292 0.6854972500
O 4.9992277740 -0.3850052580 -0.0774597972
O 4.3839225912 -1.8096754003 1.4396623938
H 0.7849297130 0.6655806896 -2.9029818606
H 1.5951273323 1.3167781012 -4.3823577144
H 0.9944830345 -0.3835494020 -4.3495180998
H 4.3188530419 1.7455773451 -2.8711852708
H 2.0925690461 -1.6877363051 2.1208563595
H -0.2113864877 -0.7762316393 2.0856950704
H 1.0192043674 2.1803919091 -0.7848051250
H -4.0974455140 -1.9403290684 0.1640928182
H -4.3377029821 0.7662248543 3.5077551941
H -2.2757494663 1.9125995228 2.7071664614
