22
CONF2
C 3.5320327156 -0.1279608504 -0.3263090938
C 2.9096480737 -0.5830872990 0.8326643829
C 1.5258569737 -0.5326772375 0.9502733925
C 0.7355430142 -0.0252247002 -0.0888949509
C 1.3744719566 0.4300934119 -1.2492486007
C 2.7582501406 0.3787665981 -1.3666224336
C -0.7354029125 0.0274798558 0.0353788267
C -1.4434825635 -1.0261972097 0.6272182218
C -2.8274390820 -0.9772210007 0.7431351569
C -3.5321693373 0.1261894440 0.2702856434
C -2.8406027182 1.1803781808 -0.3196822717
C -1.4566771528 1.1316578337 -0.4363885146
H 4.6125227258 -0.1678778481 -0.4181731918
H 3.5055099072 -0.9707881779 1.6530016637
H 1.0494112767 -0.8633437280 1.8680391099
H 0.7757069057 0.8000489149 -2.0758311902
H 3.2341443216 0.7269673672 -2.2779947060
H -0.9031364780 -1.9022561910 0.9724179483
H -3.3591210341 -1.8082242486 1.1959327665
H -4.6128161017 0.1643308658 0.3610943431
H -3.3808242899 2.0492243910 -0.6824394954
H -0.9214265266 1.9697215328 -0.8719757041
