47
CONF9
C 5.5027221665 -2.2204502132 0.4383477592
C 4.8790740300 -1.0351828296 -0.1812542087
C 3.5846074690 -0.5912615520 -0.2941643814
C 3.7057420749 0.6419346748 -1.0053807693
N 4.9542931315 0.9219491218 -1.2923874667
O 5.7000091391 -0.1544602729 -0.7795820624
C 2.6405953666 1.5853958642 -1.3951037134
C 2.1712036493 1.6706469593 -2.7128568969
C 1.1316202774 2.5201145553 -3.0708289656
C 0.5356313087 3.3053733459 -2.0915090131
C 0.9676394892 3.2522090753 -0.7707128908
C 2.0102135778 2.3979804778 -0.4421000907
Cl 2.5435654599 2.3184805628 1.2230981298
Cl 2.8778180454 0.6457746043 -3.9429258327
C 2.4050722727 -1.2497218720 0.2925094109
O 2.5074556557 -2.0676500081 1.2071033536
N 1.2028438236 -0.8857695615 -0.2446686162
C -0.0458669398 -1.2431211062 0.3476441453
C -0.8970670101 -0.1094221322 1.0220406915
N -1.9266753836 -0.3440532443 0.0028023128
C -1.2549622748 -1.3961058331 -0.6057904200
O -1.5537322825 -2.1228007198 -1.5235304121
C -3.3090947863 -0.2589343709 0.4107467538
C -3.3683848200 -0.8744739677 1.8592019217
S -1.7295336948 -0.3844837087 2.6402625872
C -3.4670725258 -2.3961544321 1.7495728021
C -4.5020167309 -0.3251595354 2.7189031483
C -3.7723119596 1.1890081232 0.3656785695
O -3.0512287852 2.1466722778 0.5328525605
O -5.0923003059 1.2668740364 0.1290935549
H 5.6512074684 -2.0458516699 1.5097031478
H 4.8472581666 -3.0860724186 0.3323486344
H 6.4720187924 -2.4204908726 -0.0228160701
H 0.7911560599 2.5575377804 -4.0985708108
H -0.2803539160 3.9674651611 -2.3603303919
H 0.5020645983 3.8626396918 -0.0062104401
H 1.1861634397 -0.2128024247 -0.9980874268
H 0.0770359398 -2.1172714935 0.9923714873
H -0.4401989449 0.8832950909 0.9984892398
H -3.9308283247 -0.8599442674 -0.2600834513
H -3.3932675809 -2.8466625860 2.7426689026
H -2.6711346012 -2.8149629058 1.1277799806
H -4.4333821886 -2.6706522789 1.3109681345
H -5.4643066396 -0.5808626226 2.2639507519
H -4.4660649077 -0.7819768658 3.7117492516
H -4.4411057235 0.7597691077 2.8376308758
H -5.3561209861 2.2036361646 0.1541744359
