30
CONF5
N 5.4602778804 -0.6446449992 0.9034695953
C 4.1467986010 -0.3468539583 0.7143356517
N 3.6937241691 0.7291341025 1.4095872017
C 2.4014232340 1.0204536143 1.2852979157
N 1.8998717126 2.0804930971 1.9395291482
C 1.5456918034 0.2233885443 0.4536113467
N 0.2323945081 0.4958556278 0.3541332746
C -0.5165013129 -0.2723725807 -0.4129032726
C 0.1029373016 -1.3413409053 -1.1693066378
N -0.6295616521 -2.0939956270 -2.0288744012
N 1.3978932214 -1.6260565421 -1.0596854160
C 2.1443149920 -0.8618012857 -0.2311490410
N 3.4560884903 -1.1547956704 -0.1006267184
C -1.9600881391 0.0375164049 -0.4930739747
C -2.3682619290 1.3712382172 -0.6331861599
C -3.7188630727 1.6962463632 -0.6756414273
C -4.6847295366 0.6961855603 -0.5727037823
C -4.2895797719 -0.6308860425 -0.4216108000
C -2.9381147817 -0.9609881846 -0.3845704567
H 5.8908946759 -1.3010199345 0.2730491835
H 6.0472660988 0.0501254802 1.3348727444
H 2.4821421795 2.5991316522 2.5759935211
H 0.9113382086 2.2662220072 1.8981396033
H -0.1216357063 -2.6863544110 -2.6681522327
H -1.5341336893 -1.7669780881 -2.3274449130
H -1.6145235500 2.1476532298 -0.7154028763
H -4.0197019048 2.7327059738 -0.7937058441
H -5.7393474269 0.9506024356 -0.6068194627
H -5.0353772519 -1.4135232284 -0.3232918783
H -2.6426369652 -1.9953407412 -0.2382113971
