49
CONF8
C -1.5949988176 -1.7858304296 4.8105971935
C -0.3259871702 -1.8214193873 4.2371161406
C -0.1595329219 -1.5795076130 2.8770242688
C -1.2816845989 -1.3286532883 2.0875851872
C -2.5591525886 -1.2912239902 2.6495896448
C -2.7062354657 -1.5150972295 4.0141484608
N -1.0999985064 -1.1096652196 0.6966998819
C -0.5359199336 -2.0267070045 -0.1719356316
O 0.2255824434 -2.9239160236 0.1495524422
C -1.1433167724 -1.7709144825 -1.5315179735
C -1.8927507824 -0.4686812168 -1.3565134827
O -2.3614458256 0.2454547878 -2.2237559735
N -1.9951830309 -0.2456385305 0.0101426492
C -2.2360951207 1.0471225722 0.5585512755
C -3.4746978584 1.6390086495 0.3173509816
C -3.7332681032 2.9096494226 0.8223140985
C -2.7750572981 3.5704333764 1.5876081793
C -1.5474465911 2.9593247343 1.8375975093
C -1.2664577362 1.6995827938 1.3196290847
C -0.2462084013 -1.9102269413 -2.7637695282
C 1.1541685395 -1.3197111838 -2.6632991643
S 1.1351033446 0.5189900113 -2.4876737457
O 0.5927234391 0.7740380433 -1.0743013689
C 2.9400993167 0.7273551051 -2.4015260307
C 3.5450019504 0.8308369303 -1.1557869942
C 4.9254360996 1.0096905209 -1.0950109733
C 5.6746797005 1.0861288555 -2.2675369316
C 5.0480521106 0.9891477247 -3.5095101655
C 3.6684687818 0.8169104687 -3.5842764672
H -1.7176434754 -1.9614660985 5.8743224770
H 0.5454374365 -2.0211881978 4.8524069363
H 0.8267690848 -1.5757978632 2.4289572141
H -3.4247036213 -1.0904849242 2.0277467874
H -3.6981145429 -1.4840228422 4.4536051945
H -1.9347391562 -2.5356274874 -1.6135342299
H -4.2239488512 1.1040014416 -0.2551081264
H -4.6948852710 3.3745454123 0.6299701567
H -2.9853753049 4.5550089925 1.9925642662
H -0.7963435530 3.4688205597 2.4329190583
H -0.3052774980 1.2323491724 1.4971876529
H -0.1188018011 -2.9781242636 -2.9661395185
H -0.7813172607 -1.4881715196 -3.6213514976
H 1.7084568601 -1.6973438430 -1.7968565661
H 1.7189631113 -1.5336591004 -3.5769204057
H 2.9415856609 0.7759789043 -0.2551209302
H 5.4146619962 1.0913978823 -0.1294854022
H 6.7492853070 1.2285584889 -2.2144450262
H 5.6313768086 1.0571321564 -4.4222036371
H 3.1707348727 0.7516127585 -4.5479458844
