47
CONF103
C -2.8218556222 3.5095085723 -0.1076156534
C -2.2880914000 2.3958944407 0.7648386166
C -2.4298246472 2.4744251330 2.2673925663
C -1.0710516922 2.7495175144 1.6238649070
C 0.0070518291 1.7702313029 1.8219121263
O -0.0957541763 0.6360093699 2.2362382254
O 1.2049264744 2.3130994772 1.4379088102
C 2.3188229195 1.3823430722 1.4606073573
C 3.5206897902 2.2153940159 1.4849184983
N 4.4921558237 2.8394187498 1.4870019955
C 2.3033959686 0.4738797839 0.2491470608
C 2.3013253764 -0.9046028226 0.4295931639
C 2.2587994622 -1.7347031846 -0.6877539720
C 2.2175291658 -1.2009049046 -1.9743816014
C 2.2149754060 0.1820676284 -2.1344610881
C 2.2611988728 1.0269712569 -1.0313908339
O 2.3217882299 -3.0892713424 -0.4443450787
C 1.6877035305 -3.9601246551 -1.3213110346
C 2.4001228755 -5.0801426577 -1.7324410797
C 1.7725754256 -6.0194448222 -2.5475866010
C 0.4520630042 -5.8334186831 -2.9498381132
C -0.2474160216 -4.7043538047 -2.5253135923
C 0.3634402870 -3.7617775266 -1.7039342656
C -3.1241546967 3.5771226406 2.9354890842
C -3.8776115136 3.4615449215 4.0295730578
Cl -4.6737951434 4.8321926671 4.7595884285
Cl -4.1679325412 1.9596267826 4.8634235778
C -2.3900004085 1.0275501601 0.1311492467
H -3.8970449639 3.3732454861 -0.2679200783
H -2.3268419601 3.4795233741 -1.0836972637
H -2.6582341170 4.4995573481 0.3222957567
H -2.4859989171 1.5076101228 2.7579703921
H -0.7475566708 3.7827394446 1.5575696954
H 2.2884232511 0.7895284580 2.3818315842
H 2.3194697765 -1.3420176618 1.4223823180
H 2.1904968892 -1.8563116994 -2.8378694641
H 2.1878287299 0.6004301670 -3.1352836768
H 2.2607142231 2.1043426144 -1.1623566595
H 3.4289978144 -5.2063239395 -1.4120847577
H 2.3232900934 -6.8967314812 -2.8720265411
H -0.0318592549 -6.5653304855 -3.5880129109
H -1.2800151737 -4.5579853443 -2.8264109377
H -0.1769409508 -2.8852481515 -1.3612079283
H -3.0269182286 4.5765598648 2.5226267188
H -2.0377709275 0.2363111128 0.7945356603
H -1.8049084099 0.9952987011 -0.7950658686
H -3.4362062999 0.8267496819 -0.1225031736
