33
CONF61
C -0.5287655812 -2.2604521315 2.1707459895
C -1.3196172408 -2.3743072733 0.8722309413
C -2.3403070339 -1.2656079914 0.6578353215
S -1.6216313088 0.4537484816 0.6544561872
P -0.7868046937 0.4787641034 -1.2766687260
O -0.9994665443 -0.7607769300 -2.0522205396
O -1.2706425087 1.7966300802 -2.0276282475
C -1.1148834571 3.1199796987 -1.4306641942
C -1.8348567233 4.1019317384 -2.3233992500
O 0.7882751089 0.8941670297 -1.0207354223
C 1.5757620967 0.0996131068 -0.2179908041
C 1.8918588459 -1.2034990040 -0.5877029546
C 2.7025315131 -1.9879819947 0.2232963151
C 3.1981389084 -1.4473080532 1.4027027889
C 2.9102397533 -0.1445291353 1.7874978706
C 2.0914493635 0.6250716913 0.9689744309
Cl 1.7020112471 2.2565489396 1.4367408701
Br 4.3002036925 -2.5178335551 2.5357017438
H 0.0788717118 -1.3505136220 2.1812711766
H -1.1942744083 -2.2328106387 3.0408394038
H 0.1462737162 -3.1127607338 2.2899488490
H -0.6444452426 -2.4053795074 0.0114740135
H -1.8816060037 -3.3185140935 0.8592315933
H -3.0613807893 -1.2258855298 1.4823133801
H -2.8847285870 -1.3969028865 -0.2792876657
H -1.5474099883 3.1065499261 -0.4224338398
H -0.0452189663 3.3404185194 -1.3558063963
H -1.7290974745 5.1110287095 -1.9139861339
H -1.4114868595 4.0887107426 -3.3308682237
H -2.8987035881 3.8600438588 -2.3861214388
H 1.4840557820 -1.5928459342 -1.5142991782
H 2.9438470188 -3.0044358944 -0.0619147314
H 3.3018062303 0.2691384836 2.7078942513
