54
CONF8
C 1.7972311855 0.1590508480 3.0749721976
C 1.5762198555 -1.2554602939 2.5511243257
C 0.7241816762 -1.3911679126 1.3111005998
O 0.2661935754 -2.4487390879 0.9244493989
O 0.5610823551 -0.2109728191 0.6877920750
C -0.2684869250 -0.0957127033 -0.5206856452
C -1.7362874417 -0.4331787237 -0.1352115848
C -2.2159558290 0.2319945351 1.1304723032
C -2.7693837251 1.5174612924 1.1142399124
C -3.1842357917 2.1338747832 2.2922778162
C -3.0601368866 1.4712563592 3.5112655216
C -2.5344479565 0.1816846426 3.5392442341
C -2.1208012180 -0.4308430980 2.3592170738
C 0.2681295703 -0.9988826519 -1.6221709684
C 1.6317387919 -1.3031007855 -1.6966508437
C 2.1353589326 -2.0777193115 -2.7360025117
C 1.2863411593 -2.5601253269 -3.7296503275
C -0.0704792653 -2.2599681114 -3.6687443674
C -0.5747646575 -1.4869164041 -2.6247157033
C -0.1130620569 1.4068287658 -0.8952886668
C -0.9123604238 1.8008866647 -2.1379545845
C 1.3545697724 1.8290275780 -1.0824760347
N 1.5177290216 3.2876294313 -0.9730367760
C 2.7739181209 3.6992047655 -1.6027806411
C 1.5213227759 3.7066324728 0.4308859882
H 2.3377574488 0.7728635625 2.3502669380
H 2.3821562406 0.1244164364 3.9983692294
H 1.1096496565 -1.8936445096 3.3091489365
H 2.5344089630 -1.7338495135 2.3073760623
H -2.3808232293 -0.1350579164 -0.9643946328
H -1.8165278519 -1.5173663826 -0.0337407712
H -2.8887161898 2.0402844245 0.1695550645
H -3.6108081655 3.1317628622 2.2557769582
H -3.3834644197 1.9509084720 4.4298921389
H -2.4503293162 -0.3522233566 4.4811195871
H -1.7294440853 -1.4434420783 2.3895727618
H 2.3097676973 -0.9449554844 -0.9295179054
H 3.1961923243 -2.3070635008 -2.7666280463
H 1.6788418991 -3.1657758032 -4.5403980523
H -0.7463066605 -2.6291361606 -4.4340698593
H -1.6363175138 -1.2687331094 -2.6039555266
H -0.5128365174 1.9526021041 -0.0330563172
H -0.5754515931 1.2356115489 -3.0131633581
H 1.6791630832 1.5249560183 -2.0852451538
H 2.0112312387 1.3168382319 -0.3585150591
H 2.8912849236 4.7846489354 -1.5160017032
H 2.7624826966 3.4369674069 -2.6658244519
H 3.6583766120 3.2217301099 -1.1372576500
H 2.3642486651 3.2616924263 0.9955758237
H 1.6053568887 4.7967917836 0.4899110956
H 0.5908009656 3.4137306437 0.9265585142
H 0.8436403415 0.6498896112 3.2913128113
H -1.9884749264 1.6475473809 -2.0250992755
H -0.7461466067 2.8626532677 -2.3371559000
