41
CONF98
O 8.5886217395 0.0741705391 -1.6312339076
N 8.1295450999 -0.5811672064 -0.7003003798
O 8.7981226743 -1.2692928723 0.0651245268
C 6.6765317079 -0.5357817115 -0.4851893798
C 6.1257863316 -1.2685418801 0.5611708290
C 4.7561184325 -1.2202249452 0.7539340729
C 3.9419640994 -0.4478528615 -0.0872841818
C 4.5234497089 0.2843077491 -1.1383036793
C 5.8895705940 0.2399535361 -1.3369252237
N 2.5676373020 -0.4815135412 0.2086241310
N 1.8554871482 0.2381517585 -0.5534896577
C 0.4921702635 0.2224716468 -0.2896887421
C -0.1354121917 -0.5198940121 0.7290405426
C -1.4978853726 -0.4645616872 0.8999587455
C -2.3190217819 0.3398767410 0.0626137300
C -1.6764568289 1.0847182915 -0.9562224576
C -0.3095715295 1.0184253078 -1.1210646484
N -3.6769897613 0.3854833842 0.2353312879
C -4.3359075019 -0.2588507330 1.3636513525
C -4.7084268967 -1.7156919288 1.0615146436
O -5.4381768809 -2.2992289304 2.1357873754
C -4.5428006741 1.1482606261 -0.6625240226
C -4.6730526229 2.6172227103 -0.2614931720
H 6.7710210664 -1.8581148008 1.1997903946
H 4.2849715473 -1.7767684094 1.5567887866
H 3.8874837010 0.8770841664 -1.7838648132
H 6.3629899765 0.7933738430 -2.1383957569
H 0.4720853703 -1.1444094653 1.3735372464
H -1.9429794211 -1.0680831481 1.6808734047
H -2.2468157098 1.7300150236 -1.6111492180
H 0.1770673286 1.5952203199 -1.9010913317
H -3.7058612206 -0.2009335121 2.2594165575
H -5.2527569259 0.2940138111 1.5970431566
H -3.8078005633 -2.2954961049 0.8114695808
H -5.3696498597 -1.7484934153 0.1890533337
H -4.8287191775 -2.4779127994 2.8599685929
H -4.1746414903 1.0530351308 -1.6890838806
H -5.5290323161 0.6706185428 -0.6495082244
H -5.0936230430 2.7078211443 0.7445498974
H -5.3353530926 3.1435646007 -0.9556420297
H -3.6996889493 3.1150243141 -0.2661475028
