55
CONF175
C 1.1793431213 1.3217728275 0.8068468999
C 1.6813043907 1.4174688451 -0.6247814835
N 3.1062230706 1.0813140030 -0.7048006539
C 3.2984720736 -0.2739606209 -0.1774966805
C 2.8029877865 -0.3654110439 1.2569999808
N 1.3768780441 -0.0331569528 1.3339819440
C 0.8946603206 -0.1639049892 2.7114985255
C -0.6402861295 -0.1144102358 2.8181428322
C -1.2597054375 -1.2570202920 2.0829922470
C -1.9134907910 -1.2360747839 0.9056800230
C -2.2805158778 -2.4956334764 0.2278379184
C -2.8681445777 -3.5659868737 0.9121539795
C -3.1350022312 -4.7683694584 0.2673913965
C -2.8353872943 -4.9151509009 -1.0863422407
C -2.2810881981 -3.8552272100 -1.7958144210
C -2.0092171630 -2.6534332965 -1.1403501766
S -1.2329425118 -1.3443865438 -2.0681210744
C -1.8716365198 0.0728762257 -1.2148517901
C -2.1976078561 -0.0017814329 0.1487532296
C -2.7825190886 1.1173235958 0.7508033783
C -2.9306394475 2.3024790591 0.0421179561
C -2.5240897904 2.3901886476 -1.2919983060
C -2.0158683853 1.2683509782 -1.9252036864
C -3.5386956511 3.5103447068 0.6821978755
F -2.6999519027 4.5820500098 0.6434402051
F -3.8641140865 3.3137805291 1.9787956955
F -4.6766481569 3.9036739566 0.0451020284
C 3.5763464894 1.1966800967 -2.0879380956
C 5.0913580720 1.1933726384 -2.2367567537
O 5.7343129114 2.2814883840 -1.5596255066
H 0.1126364141 1.5689954112 0.8133711955
H 1.7054142663 2.0715085083 1.4322358593
H 1.0746407537 0.7448037707 -1.2654059680
H 1.5361013412 2.4421398334 -0.9871808407
H 2.7588443450 -1.0184818178 -0.7983284217
H 4.3626239306 -0.5305599305 -0.1969357743
H 2.9484047876 -1.3890264090 1.6216410666
H 3.4093106680 0.3097426791 1.8942129050
H 1.2447923834 -1.1297560419 3.0974799793
H 1.3197582804 0.6229117613 3.3648144423
H -1.0067923257 0.8533812110 2.4738057229
H -0.8922733204 -0.1848506795 3.8838818522
H -1.0466300106 -2.2393094230 2.5052768336
H -3.1122679806 -3.4427876098 1.9629691054
H -3.5847183969 -5.5879466954 0.8184055755
H -3.0481140711 -5.8484209799 -1.5975752035
H -2.0616913781 -3.9581989433 -2.8540742604
H -3.1130704622 1.0488629122 1.7802401303
H -2.6341750327 3.3191375573 -1.8419838083
H -1.7394955827 1.3142331356 -2.9736353858
H 3.1943723420 2.1425697281 -2.4962526300
H 3.1668360906 0.3860948156 -2.7258709032
H 5.5333902513 0.2830313152 -1.8212545713
H 5.3258049845 1.2109065905 -3.3116522388
H 5.3619620995 3.1017629085 -1.9075450938
