43
CONF3
C -3.3455208558 3.8801139462 0.6481459579
N -3.2371888824 2.6915315380 -0.2017630782
C -2.7015377172 1.4755658688 0.0567207424
C -2.8523157150 0.6865485929 -1.0910569901
C -3.5024749924 1.5609478366 -1.9839034665
N -3.7224714077 2.7587027475 -1.4519468881
Cl -3.9638041282 1.2831404588 -3.6185561766
C -2.3466357837 -0.6779179663 -1.2966214354
O -1.4019287523 -1.1501793722 -0.6927972360
O -3.0458187601 -1.3285124116 -2.2339222307
C -2.5788689482 -2.6684826523 -2.5393441640
S -2.0720679505 0.9750825112 1.6553856924
O -2.2971103356 2.0729341997 2.5922019193
O -2.5783381641 -0.3642521275 1.9533248600
N -0.4150293633 0.7706735730 1.4224895566
C 0.3413808711 1.7669101897 0.8287619668
O -0.0711219745 2.9026765820 0.6368837125
N 1.6273683599 1.4018651216 0.4670730869
C 2.2762583717 0.1695490286 0.5017467856
N 3.5302889418 0.1989559561 0.0486320609
C 4.1708075747 -0.9749253033 0.0642471444
C 3.5901719667 -2.1588204396 0.5146199241
C 2.2786646017 -2.0509430639 0.9593659585
N 1.6097995594 -0.8894854946 0.9611217712
O 1.6737086711 -3.1565774940 1.4023390162
C 0.3064214252 -3.0384175765 1.8668238509
O 5.4346357184 -1.0399854048 -0.3702329047
C 6.0485269792 0.1835387523 -0.8402877311
H -3.7247011739 4.6786193064 0.0121128442
H -4.0366545618 3.6909485683 1.4711033124
H -2.3614934456 4.1355016217 1.0413286947
H -3.2416055985 -3.0279776492 -3.3247554494
H -1.5446198229 -2.6332119106 -2.8887645546
H -2.6515785041 -3.2997182350 -1.6508433139
H -0.0602892979 -0.1964056514 1.3317387411
H 2.1682314982 2.1597532650 0.0710274289
H 4.1247550387 -3.0989518952 0.5194543942
H 0.0294291349 -4.0457043227 2.1754472015
H 0.2489645004 -2.3528540311 2.7169318431
H -0.3441220101 -2.6936972909 1.0588940454
H 5.4993136934 0.5828126375 -1.6962660885
H 6.0819817533 0.9268148330 -0.0402465757
H 7.0565904017 -0.1061664927 -1.1348096490
