44
CONF165
C 4.4824432810 1.8194691696 -2.6722633642
C 3.5833357727 1.2847532761 -1.5627254545
C 2.8719964864 -0.0727622336 -1.9243457511
N 1.6466935330 -0.0970343785 -1.1566870686
C 0.9428062374 1.1748210838 -0.9341236643
S 2.1756243203 2.4973286233 -1.2833625317
C 0.6622120971 0.7036929191 0.5350690407
C 1.4533540740 -0.5630176997 0.1398090613
O 1.8081831728 -1.5766608382 0.6929722322
N -0.6801821458 0.5425358648 0.9892675463
C -1.1943892291 1.2553731759 2.0272477817
O -0.5465378129 2.0895649207 2.6537623898
C -2.6835475203 1.0014360490 2.3256326799
C -3.1416516410 -0.3966581202 1.9796797037
C -4.0031790032 -0.6245843709 0.9069531347
C -4.4081968549 -1.9137529235 0.5684837220
C -3.9465352693 -2.9968285769 1.3153055506
C -3.0827911217 -2.7863871814 2.3946430962
C -2.6894297811 -1.4970611058 2.7182335279
O -4.3031211799 -4.2862447731 1.0422313676
N -2.9180682824 1.3008243271 3.7418616527
C 2.6436072593 -0.2444823277 -3.4178102338
O 1.4786007786 0.2818611150 -3.8284581919
O 3.4440176514 -0.7806209323 -4.1512944109
C 4.3786074042 1.0974786088 -0.2702478747
H 4.9455084957 2.7572263020 -2.3531683818
H 3.9304562257 2.0048657296 -3.5973286519
H 5.2804520276 1.0974297785 -2.8734585091
H 3.5139674592 -0.9011714459 -1.6094425035
H 0.0522632922 1.3219701191 -1.5502155099
H -1.2687266533 -0.1492556835 0.5453484471
H -4.3677637651 0.2166705322 0.3231695369
H -5.0837118118 -2.0767354744 -0.2671867468
H -2.7293585067 -3.6389677209 2.9656905352
H -2.0183848448 -1.3363738280 3.5567073184
H -4.8966599946 -4.3034920020 0.2794348950
H -2.5015201154 2.2028293795 3.9540144597
H -3.9175233346 1.3947564334 3.8903221212
H 5.2139605244 0.4106516635 -0.4491266882
H 4.7802092751 2.0579971923 0.0621681454
H 3.7606124709 0.6915222510 0.5354884229
H 1.4073474428 0.1555949109 -4.7911743018
H -3.2060991262 1.6997244978 1.6438981004
H 1.2235922082 1.2984729043 1.2623362632
