53
CONF135
C -1.6399051289 4.2343000009 -1.5131490853
C -0.8281563618 4.2009160269 -0.2339761210
O -0.6338029525 2.8315152140 0.2117922074
C 0.3610598697 2.1274189541 -0.3762215434
O 1.1559387013 2.6284566451 -1.1638538222
C 0.3309571469 0.7273944643 0.0392145878
C 1.3690902959 -0.0931493835 -0.2732425950
N 1.3284900448 -1.4153374351 0.0804522742
C 0.3820592912 -1.9637742009 0.9116959602
C -0.6881160451 -1.2064024858 1.2923606587
C -0.9262085914 0.1870826003 0.7146338987
C -2.0788798626 0.1653305555 -0.2903923950
C -1.9439943914 -0.6401684446 -1.4282151714
C -2.9278675219 -0.7158709776 -2.4044608040
C -4.0956263266 0.0297768869 -2.2622641062
C -4.2644968986 0.8394340286 -1.1457662854
C -3.2627967107 0.8986364207 -0.1788086275
Cl -3.5702214848 1.9576689397 1.2000699683
C -1.6639055200 -1.7497946453 2.2317006268
O -1.6546958792 -2.8598822529 2.7491318071
O -2.6423147357 -0.8451921785 2.4947332115
C -3.6674088558 -1.2823942177 3.4089781548
C 0.6730899401 -3.3749306732 1.3219590222
C 2.6390708104 0.2914009047 -1.0161311465
O 3.6645269296 -0.6785163109 -0.8354861137
C 4.3850285191 -0.4924413696 0.3976222305
C 5.3914990411 -1.6217821113 0.5288276050
N 6.4199172190 -1.6741556893 -0.5193245201
H -1.8259315888 5.2742036092 -1.7995194601
H -2.6029773653 3.7362825677 -1.3680548577
H -1.1045804800 3.7415690347 -2.3291566611
H -1.3653508860 4.6750897900 0.5904710724
H 0.1459985161 4.6815672739 -0.3566109869
H 2.1487392232 -1.9597322322 -0.1570598194
H -1.2045737108 0.8603337794 1.5265858918
H -1.0326729316 -1.2214639014 -1.5394131040
H -2.7846913239 -1.3520008030 -3.2718025640
H -4.8766687815 -0.0144506719 -3.0142657309
H -5.1678941077 1.4259299773 -1.0206257441
H -4.1815416126 -2.1627143033 3.0141035279
H -3.2355806513 -1.5199010837 4.3849147013
H -4.3573110991 -0.4425188144 3.4907824426
H 1.5634590709 -3.7451831954 0.8077135961
H 0.8349129250 -3.4369707278 2.4009675830
H -0.1715859654 -4.0277657457 1.0946076894
H 2.4243243266 0.3379248172 -2.0898318505
H 2.9745078098 1.2838482736 -0.7021423590
H 4.8910475932 0.4850813300 0.3739284218
H 3.6884819331 -0.5023868882 1.2515599594
H 5.8811807783 -1.5240227357 1.5052983519
H 4.8506580669 -2.5772104710 0.5374550925
H 6.9340201610 -0.7975374191 -0.5223153672
H 5.9616994573 -1.7235091013 -1.4242815598
