94
CONF410
C 9.5471982222 -1.0859220157 -3.1206730226
C 8.4994934912 -1.1749528780 -2.0277801797
C 7.7034022180 -2.4838182668 -2.0776181967
C 6.6681666069 -2.5582716576 -1.0032353590
C 5.3663567807 -2.2762094226 -1.2059489226
C 4.3692867029 -2.2358114418 -0.1740387523
C 3.0942287207 -1.8114436201 -0.3786534309
C 2.0999397466 -1.7373079427 0.6461553599
C 0.8512442601 -1.2357315456 0.4570006003
C -0.1492916712 -1.1650984402 1.4848771181
C -1.3566483222 -0.5941612360 1.3129690627
C -2.3721992348 -0.4727746672 2.4001291526
C -2.5716978216 0.9623263094 2.8936130318
C -2.9127104900 1.9351442148 1.7667971785
C -3.8564027374 3.0700737531 2.2143748593
C -4.0479452447 4.0618999346 1.0476878532
C -2.6911437945 4.5372874185 0.5571670749
C -1.7941195055 3.3605338215 0.1776136279
O -1.6734783118 2.4810551623 1.3076131256
C -0.3642467739 3.7994272382 -0.1412338326
C 0.5788156923 2.6488894822 -0.4958154225
C 2.0105235862 3.1507369706 -0.6742520734
C 2.9348384631 2.0834889407 -1.1902060208
C 4.1761243465 2.4571868194 -1.9005602110
O 3.0197611720 1.9448224257 -2.6182814301
C 5.3381742707 1.5677232281 -1.8944604083
C 6.6024858687 2.0028605274 -1.8052828602
C 7.7621145803 1.0994530339 -1.7159503872
O 8.8349419511 1.4313145059 -1.2352216415
O 7.5003563235 -0.1208291073 -2.2134348508
O 0.1251061167 1.9408172978 -1.6769397967
O -2.4017680623 2.6998142314 -0.9177043591
O -4.7820043386 5.2201789328 1.4647680448
C -5.1880161554 2.4812721424 2.6024018789
O -5.8422525476 1.7365817352 1.8951412803
O -5.5955226737 2.8748372148 3.8238402381
O -3.7004510617 -0.8625540046 1.9602968903
C -3.8763492294 -2.1717495615 1.5183991116
C -5.3656237850 -2.4910840076 1.6869566633
C -5.6779348897 -3.8445734073 1.0423484645
C -5.1407499631 -3.9013119364 -0.3898601381
C -3.6536953475 -3.5529861354 -0.4094730761
O -3.4901923530 -2.2357503078 0.1453039050
C -3.0638039041 -3.5281668815 -1.8031657332
O -5.3055284602 -5.2186420754 -0.9205296118
N -7.0973666552 -4.2161570922 1.0311315537
O -6.1766399663 -1.4908314501 1.0684011463
H 9.0793740802 -1.1981043513 -4.1038278152
H 10.2796550898 -1.8882613176 -2.9902709305
H 10.0703693115 -0.1278538172 -3.0800703301
H 8.9511524834 -1.0359002538 -1.0397311965
H 8.4270535299 -3.3020352181 -1.9810054722
H 7.2366588710 -2.5620181251 -3.0666618994
H 7.0120428029 -2.7862691490 0.0062058281
H 5.0361470467 -2.0282911287 -2.2161902097
H 4.6719661827 -2.5361709586 0.8297405643
H 2.8033501069 -1.4912559270 -1.3805943260
H 2.3762979965 -2.0992133995 1.6373843163
H 0.5807680507 -0.8530118090 -0.5280986051
H 0.1030862194 -1.5941439783 2.4558476397
H -1.6153652093 -0.1574311693 0.3505310977
H -2.0826174528 -1.1074255524 3.2504872475
H -3.3771628769 0.9390338594 3.6365161055
H -1.6668509693 1.3080446746 3.4027872457
H -3.4052338590 1.4007244504 0.9450725014
H -3.4190957779 3.6044465137 3.0650594766
H -4.5818790291 3.5488652986 0.2367394539
H -2.2021161155 5.1087781919 1.3540681755
H -2.8213915572 5.1908540880 -0.3104730780
H -0.3971675297 4.5139671824 -0.9728885970
H 0.0370400400 4.3245912272 0.7323921520
H 0.5532239907 1.8921510312 0.2958815652
H 2.3783962499 3.5047643819 0.2967460483
H 2.0287611455 4.0032493971 -1.3656659349
H 2.9261999600 1.1296669998 -0.6570330324
H 4.3650916645 3.5204984838 -2.0511418685
H 5.1241190200 0.5021565319 -1.9445044840
H 6.8316016958 3.0611099950 -1.7131792946
H 0.3028155347 2.5016732242 -2.4464726881
H -1.6973933781 2.1777273014 -1.3486210202
H -5.7240891383 5.0091489473 1.4487210105
H -6.4622273755 2.4684194643 4.0030087950
H -3.2668309156 -2.8848576285 2.1054993157
H -5.5798259795 -2.5445809430 2.7667764197
H -5.1354448147 -4.6078714422 1.6190179080
H -5.6772926511 -3.1677682016 -1.0148417380
H -3.1148135884 -4.2836934328 0.2192950576
H -3.5955821860 -2.8009992949 -2.4257867664
H -2.0065309529 -3.2508488180 -1.7603659680
H -3.1480366513 -4.5141734948 -2.2660798418
H -6.1807242295 -5.5046919945 -0.6134445186
H -7.4108529008 -4.4097423268 1.9768203897
H -7.6428261819 -3.4226737113 0.7059476258
H -5.8985957791 -0.6321710031 1.4217359593
