32
CONF27
C 3.1524940074 0.6983404381 -2.9153121614
C 2.1511609835 0.6921928305 -1.7940853773
C 2.1160758827 -0.3672497848 -0.8812686890
C 1.1957918520 -0.3864195164 0.1575465543
C 0.2915752337 0.6651929704 0.3035436743
C 0.3217525103 1.7376701943 -0.5843087543
C 1.2436977718 1.7403166045 -1.6250816676
N -0.6656606216 0.5926686030 1.3769432664
S -0.3745305598 1.5227267480 2.7838644296
C 0.3194830520 0.2422544559 3.9012832662
F 1.5009436963 -0.2382998332 3.4398022990
Cl -0.7492861797 -1.1693166110 4.1733021267
Cl 0.6173807146 1.1302723327 5.4369269672
S -2.3588718507 0.4478162838 0.8783590117
O -2.6993958923 1.5802331136 0.0167374538
O -3.0874041055 0.1748888272 2.1090179067
N -2.3798594935 -0.9208350696 -0.0715092869
C -2.0445663718 -2.1834353093 0.5881265131
C -2.0002121194 -0.8242452319 -1.4849675115
H 3.0482650005 -0.1953222260 -3.5394357507
H 4.1756672005 0.7029811921 -2.5246475814
H 3.0300417805 1.5756068937 -3.5541354418
H 2.8212680092 -1.1873564401 -0.9856340416
H 1.1769587298 -1.2040658574 0.8700221615
H -0.3823558908 2.5532524176 -0.4653114711
H 1.2605189618 2.5771698674 -2.3172426479
H -0.9620676881 -2.3730586479 0.5870439117
H -2.4102242282 -2.1727747328 1.6157117033
H -2.5471161269 -2.9907328363 0.0453265790
H -2.5867700559 -1.5662860692 -2.0377911058
H -2.2441936700 0.1677270758 -1.8653307484
H -0.9305602360 -1.0219122750 -1.6374957889
