53
CONF159
C -3.8176695178 -2.7278803150 -2.2125070811
O -3.3897010260 -1.7431628507 -1.2295092426
C -3.4537618807 -0.4692488067 -1.6206539316
O -3.8013338292 -0.0858611355 -2.7131825623
C -3.0792758027 0.4730387889 -0.4599100674
C -4.2821446675 0.5563234422 0.5136034429
C -3.8827112946 -0.3682933708 1.6377383471
C -2.5162622557 -0.6825700519 1.5805519694
C -1.9555284946 -0.0472927532 0.4063716600
N -0.7147399262 0.2233201168 0.2086749685
N -0.4377543150 0.9818477929 -0.8925226207
C -1.4940070701 1.6719575396 -1.6882853626
O -2.6987438124 1.7504040109 -0.9568113847
C 0.8483424656 1.0800577047 -1.3520921410
O 1.1639001415 1.8706677031 -2.2291373523
N 1.7970441433 0.2277607070 -0.7147042359
C 3.0294270717 0.8085950825 -0.2982399162
C 3.0093903265 2.0244641750 0.3844022956
C 4.2024188549 2.6176815144 0.7782704472
C 5.3931216321 1.9683489912 0.4935000200
C 5.4326770250 0.7507326270 -0.1686687735
C 4.2382927429 0.1735242110 -0.5802916178
O 6.6041301554 2.5300417918 0.9604759570
C 7.2354781808 3.3696075508 0.1104089797
F 7.5819112685 2.7761136661 -1.0554260311
F 8.3518252836 3.7971241296 0.7110365097
F 6.4883385466 4.4499315276 -0.2146634830
C 1.5610155805 -1.1344111815 -0.5096563542
O 2.1406026010 -1.8107602219 0.3129423440
O 0.6532017017 -1.5896363971 -1.3886979210
C 0.1626005502 -2.9266875002 -1.1223288725
C -1.9143600977 -1.4721764256 2.5577579295
C -2.6994573913 -1.9653274716 3.5924407343
C -4.0594262724 -1.6518153188 3.6265638851
C -4.6757414528 -0.8534752786 2.6650162049
Cl -5.0355874066 -2.2926928844 4.9384346712
H -3.6882810823 -3.6919116217 -1.7238922492
H -4.8648888078 -2.5587673744 -2.4716769069
H -3.1919523826 -2.6545774139 -3.1041893521
H -4.3568155155 1.5902139613 0.8705785121
H -5.2332124919 0.2884991800 0.0463579843
H -1.1685337127 2.6955176661 -1.8772285783
H -1.6290473914 1.1348233836 -2.6371751069
H 2.0639414251 2.5061026816 0.6127897449
H 4.2079971265 3.5602542447 1.3136846222
H 6.3830036476 0.2692540858 -0.3692124777
H 4.2483692100 -0.7682796531 -1.1169718142
H -0.2954990281 -2.9627726473 -0.1302799084
H 0.9793821415 -3.6483450079 -1.1881017108
H -0.5819818293 -3.1150555898 -1.8945602154
H -0.8567782901 -1.7102794644 2.5086155255
H -2.2681836034 -2.5936625848 4.3629884550
H -5.7330325498 -0.6212647755 2.7273717598
