43
CONF12
C -3.7459687215 3.7476626705 0.7847911218
N -3.5331646166 2.5966537270 -0.0963277225
C -2.8729895466 1.4354099823 0.1230699953
C -2.9619954721 0.6637173903 -1.0428285159
C -3.7116681428 1.4892040339 -1.9037365285
N -4.0430273824 2.6449889530 -1.3375320407
Cl -4.1700721436 1.2054834084 -3.5380607791
C -2.3237624374 -0.6363372652 -1.2910395748
O -1.3284993643 -1.0261765119 -0.7098534415
O -2.9628982826 -1.3278164053 -2.2419428247
C -2.3647186793 -2.6031166813 -2.5911159277
S -2.1702523402 0.9641120067 1.7002115470
O -2.4951244448 2.0102363752 2.6664785615
O -2.5284233208 -0.4277342993 1.9714028178
N -0.5043025450 0.9395914249 1.4416432511
C 0.1339294136 2.0222177288 0.8585599172
O -0.3963379222 3.1148922122 0.7093837567
N 1.4393129215 1.7992993120 0.4549926969
C 2.2080024695 0.6368062586 0.4267464320
N 3.4292137877 0.7972336837 -0.0674373502
C 4.1867441402 -0.3103251714 -0.1147054533
C 3.7378333785 -1.5538770083 0.3179593854
C 2.4340624677 -1.5810488938 0.8155092209
N 1.6595639752 -0.4965706369 0.8797952717
O 1.9630291828 -2.7541810500 1.2427794785
C 0.6128665292 -2.7873101996 1.7696769159
O 5.4066561927 -0.0818094511 -0.6191865220
C 6.3141437536 -1.1982338932 -0.7172610734
H -4.2098138765 4.5203683189 0.1733748886
H -4.4046772426 3.4716311778 1.6098135194
H -2.7864869466 4.0887896725 1.1734842660
H -2.9958757895 -3.0060589163 -3.3814451317
H -1.3434968308 -2.4517930603 -2.9479187903
H -2.3620029005 -3.2640422955 -1.7214115533
H -0.0569577529 0.0161494355 1.3139432489
H 1.8896423405 2.6184002778 0.0673347146
H 4.3293831103 -2.4571183996 0.2898767190
H -0.1035690445 -2.4782020316 1.0043106452
H 0.4487265022 -3.8271104732 2.0493976847
H 0.5311316828 -2.1404170777 2.6475239639
H 7.2285386659 -0.7885433524 -1.1440655023
H 6.5178938658 -1.6159763395 0.2737539905
H 5.9054122557 -1.9690482394 -1.3781406887
