29
CONF315
C -2.7901499258 -0.8649923377 -1.9195197594
N -2.7652723564 -0.3775955578 -0.5285090263
C -2.8330569877 -1.3978266711 0.5374670711
C -4.2610882422 -1.9086825576 0.6979578474
O -5.1550282309 -0.8825528237 1.1281400227
S -2.2171045540 1.1366175935 -0.2146967752
O -2.7062089861 2.0424658112 -1.2599539771
O -2.3964994445 1.4320489238 1.2095618883
C -0.3110714517 1.2038784489 -0.5316484571
C 0.5582112183 0.5838924363 0.5988743810
C 2.0378645636 0.2974278422 0.1679888446
C 3.0224031657 0.0813917923 1.3635897484
F 3.2585343869 1.2318431428 2.0025045682
F 2.5151602210 -0.8074453270 2.2294623800
F 4.1831247805 -0.3899849041 0.8886807172
F 2.5019628480 1.3371908730 -0.5634991718
F 2.0598161532 -0.8195046774 -0.5907209980
F -0.0003070361 -0.5910552913 0.9782985397
F 0.5639884368 1.4285923477 1.6537531982
F 0.0114307236 2.5019522420 -0.6835106413
F -0.0770428350 0.5526945756 -1.6937253459
H -2.7832764968 -0.0244196079 -2.6132047346
H -1.9310830870 -1.5165226565 -2.1124728357
H -3.7146347213 -1.4275323177 -2.0713556545
H -2.5089103986 -0.9558853909 1.4807698301
H -2.1598801658 -2.2273267906 0.2843831215
H -4.6183199004 -2.3799965050 -0.2277592128
H -4.2544150727 -2.6723957419 1.4817887317
H -5.2317061792 -0.2414256665 0.4091704383
