47
CONF64
C 5.1598855110 -1.1778297471 -1.6407425344
C 3.8896816224 -0.7465540264 -0.9713279514
C 2.9597643860 -1.7133083662 -0.4876151990
C 3.2471397075 -3.1726642675 -0.6578357394
C 1.7833328222 -1.3171387243 0.1305152482
C 1.4776635092 0.0380063101 0.3041970726
N 0.3267948018 0.4864974107 0.9349856473
C -0.6304762031 -0.4746940822 1.5348274435
C -1.7438599525 -0.9493439527 0.5927535614
O -1.1212739108 -1.4549677804 -0.5799150875
C -2.7918032536 0.1306228508 0.2586572385
O -3.2971647658 0.7112055630 1.4640612382
C -4.0580578794 -0.3697599735 -0.4586073010
O -4.7678035006 -1.3150928322 0.3500446102
C -3.9131673349 -1.0090423241 -1.8313661132
O -3.3461932674 -2.3323752848 -1.7888640355
C 0.1011559176 1.8310770741 1.0935563399
N -0.9909681943 2.2308954537 1.7232400622
C -1.2308482974 3.5673988934 1.8888490270
O -2.2351891260 3.9903267763 2.4551103843
N -0.2915253608 4.4850095231 1.3911762137
C 0.8738272637 4.1863889465 0.7266459398
O 1.6384221622 5.0477496964 0.3171044737
C 1.0977483205 2.7266535550 0.5642625058
N 2.1883256474 2.3378092367 -0.0383379492
C 2.4039471404 1.0088048191 -0.1762474138
C 3.5914832728 0.5859059325 -0.8089020218
H 4.9510768666 -1.7844998210 -2.5289787641
H 5.7683049926 -1.7949301642 -0.9702980974
H 5.7504153485 -0.3117242699 -1.9448807015
H 2.4481281508 -3.7858617395 -0.2381735802
H 4.1904163384 -3.4423084604 -0.1691980181
H 3.3614021809 -3.4240613873 -1.7186056242
H 1.0897984594 -2.0824351421 0.4461743435
H -0.0551308483 -1.3385604415 1.8663013484
H -1.0594829748 -0.0065738442 2.4204028310
H -2.2572805319 -1.7503900183 1.1508429921
H -1.8142792060 -1.9379261590 -1.0805009202
H -2.3243387672 0.8939962724 -0.3853820931
H -2.5941437055 1.3214690490 1.7797771843
H -4.6710096015 0.5348230732 -0.6055687820
H -4.8210374069 -0.9402403897 1.2401399144
H -3.2594760511 -0.4037671094 -2.4653040865
H -4.9060427468 -1.0575674865 -2.2957048432
H -3.8814097261 -2.8453340848 -1.1656672709
H -0.5045021439 5.4655817041 1.5349770065
H 4.2677509274 1.3587301517 -1.1605778003
