44
CONF13
C 3.2663881555 -0.6659230040 -1.3279158920
C 2.5229015098 0.6155085056 -1.4911313632
N 1.6545598216 0.9384503421 -0.5287317567
C 0.9697033361 2.0816106833 -0.7043884175
N 1.1336689413 2.9061247812 -1.7418282045
C 2.0481455299 2.4967797865 -2.6244277485
N 2.7642697556 1.3672671017 -2.5709191798
O 2.2161916559 3.3322965542 -3.6452481192
C 3.1836194264 2.9697474068 -4.6629715402
N 0.0161609757 2.4574249031 0.2331166552
C -0.6632713274 3.7496683910 0.0219525722
C -0.4731859537 1.6661205179 1.3027226972
O -1.4605360821 2.0050219864 1.9354306753
N 0.2443144610 0.5237192673 1.5814295339
S -0.3471224552 -0.6593718977 2.6432348681
O 0.5891106955 -1.7790605966 2.4677621116
O -0.5323933977 -0.0640778413 3.9684800371
C -1.9591850017 -1.1575022842 2.0210042882
C -3.0829177614 -0.7028371665 2.7005663661
C -4.3411438399 -1.1547878205 2.3145118760
C -4.4626312780 -2.0706968137 1.2751997935
C -3.3306190576 -2.5341366603 0.6109163324
C -2.0632278158 -2.0719680792 0.9655660515
C -0.8920235536 -2.5067987155 0.1421682605
O -0.1883080115 -1.7430270728 -0.4863217916
O -0.7724445470 -3.8375319627 0.1343855484
C 0.3079657343 -4.3592906993 -0.6866414905
H 3.9189002358 -0.5984852593 -0.4505723516
H 2.5573241080 -1.4780663031 -1.1405986491
H 3.8663330995 -0.8825741788 -2.2111404868
H 2.9010686446 2.0266184529 -5.1353102637
H 4.1807486193 2.8862171367 -4.2257258979
H 3.1460891601 3.7868743827 -5.3820544110
H -1.3246921003 3.6992509231 -0.8471917582
H 0.0844273843 4.5257727695 -0.1419444497
H -1.2453086913 3.9720503184 0.9122722590
H 0.9464049167 0.2359600898 0.8640428909
H -2.9691224780 -0.0123260662 3.5271391782
H -5.2215800064 -0.7971644780 2.8372021880
H -5.4416751977 -2.4331533960 0.9802173552
H -3.4251075523 -3.2489227476 -0.1995685430
H 1.2632504165 -3.9644777682 -0.3333848041
H 0.2646941752 -5.4398675521 -0.5620153082
H 0.1502552492 -4.0804353228 -1.7308119207
