46
CONF4
C -1.2480137396 0.1090871118 0.9671780624
C -2.0644510850 -0.5089691406 2.1132667323
C -3.5405052850 -0.3267408833 1.6772357402
C -3.5072700113 0.2937256180 0.2489582242
O -4.6169604409 -0.2273923557 -0.4949703244
C -3.6193684474 1.7513043625 0.3158745256
C -3.7523306950 2.9489230510 0.3540482515
C -2.1020894555 -0.1522253282 -0.2878277785
C -2.1918618280 -1.6387095437 -0.6599924183
C -1.5253154505 0.6483462976 -1.4547510368
C -0.0386812475 0.3244313295 -1.6758792989
C 0.7982194693 0.5027839051 -0.3963661323
C 2.2787351092 0.1995811349 -0.5815485202
C 3.0526984653 -0.3199480994 0.4722060098
C 2.4488561893 -0.6616383343 1.8159572799
C 1.0620009220 -0.0640672339 2.0239327400
C 0.2056800559 -0.2972202391 0.7829576064
C 4.4150835023 -0.5558944741 0.2894704885
C 5.0326642126 -0.2823614085 -0.9237981351
O 6.3745922959 -0.5408290948 -1.0252639915
C 4.2829307689 0.2389009257 -1.9750718826
C 2.9263253630 0.4722555539 -1.7905172916
H -1.2540963796 1.2012140856 1.1172651340
H -1.8195067830 -1.5705593061 2.2320619242
H -1.8582618786 -0.0229301212 3.0703594817
H -4.0712885434 -1.2794922291 1.6048144194
H -4.1083787195 0.3119445970 2.3559913813
H -4.7562891837 0.3511089857 -1.2542575413
H -3.8641323868 4.0056218940 0.3934620148
H -2.5948695935 -2.2495305251 0.1509062448
H -2.8557501113 -1.7627966074 -1.5189712213
H -1.2132151493 -2.0424969863 -0.9252109366
H -1.6259560429 1.7189942244 -1.2370366897
H -2.0866351672 0.4527845148 -2.3782029670
H 0.3340821755 0.9867004040 -2.4632567988
H 0.0894946153 -0.6988901291 -2.0497882056
H 0.7124415259 1.5661099010 -0.1098120708
H 2.3812423257 -1.7563183870 1.8946877729
H 3.1329830497 -0.3435542542 2.6110827508
H 1.1343082225 1.0164733177 2.2117810239
H 0.5954555720 -0.5128766195 2.9080093001
H 0.2552318860 -1.3703777472 0.5395539720
H 5.0141219751 -0.9583233310 1.1014036539
H 6.6713959134 -0.3023929426 -1.9104334965
H 4.7515232226 0.4629626735 -2.9303976275
H 2.3651598877 0.8832813225 -2.6220876720
