49
CONF37
C -5.4955414004 1.9875519255 -2.9986326247
C -5.0615873111 1.1909298781 -1.8031672805
C -3.8044030816 1.2378194051 -1.3452043485
C -3.3152996165 0.5021306074 -0.1496763421
C -1.8597935885 0.0834427188 -0.0795310353
C -2.9785542755 -0.9653553631 -0.1725552080
C -3.0575347086 -1.7061716586 -1.4872858671
C -3.3174691105 -1.8103917745 1.0326751436
C -1.1192075264 0.2791350146 1.1788081406
O -1.5946796021 0.4540393125 2.2815970948
O 0.2236733253 0.2311553087 0.9563404151
C 1.0292856097 0.3999020168 2.1521595798
N 2.3945695339 0.2635218383 1.7747986595
C 3.0679972114 -0.9667861207 1.6580443780
O 2.6210523953 -2.0455602878 1.9759073465
C 4.4105625471 -0.6452966839 1.0944111446
C 4.4846934948 0.6766668610 0.8728535851
C 3.1954909983 1.3082460773 1.2769499281
O 2.8723798536 2.4726000089 1.2121727420
C 5.6601360186 1.3806074273 0.2993421573
C 6.6194047691 0.3523279928 -0.3195894660
C 6.8197376888 -0.8604735690 0.5998196029
C 5.5034612249 -1.6174435787 0.8356718939
C -6.1316038471 0.3574783014 -1.1606076873
H -4.6725704807 2.5719880672 -3.4170393771
H -5.8883118043 1.3288089378 -3.7834427403
H -6.3077715845 2.6757940735 -2.7328034279
H -3.0853837733 1.8722614332 -1.8624295888
H -3.6906129757 0.8456610285 0.8144920012
H -1.2657030113 0.1965316705 -0.9809494513
H -2.3811168765 -2.5676488670 -1.4814019168
H -4.0765678219 -2.0772544576 -1.6480944506
H -2.8020930230 -1.0631664523 -2.3325565289
H -2.6235434792 -2.6540909949 1.1222352998
H -3.2803045634 -1.2351873414 1.9589557360
H -4.3271273827 -2.2212205677 0.9168540677
H 0.8579838588 1.3970408766 2.5663121505
H 0.7664399573 -0.3745560385 2.8771352013
H 6.1608602772 1.9551635285 1.0915379360
H 5.3294075265 2.1207794929 -0.4383794203
H 6.2063379449 0.0117808118 -1.2778527645
H 7.5820394469 0.8252110206 -0.5371332859
H 7.2122990789 -0.5173403172 1.5657787899
H 7.5670639984 -1.5377085237 0.1749797399
H 5.2415347368 -2.2307848024 -0.0381574189
H 5.5853632589 -2.3191305523 1.6737807570
H -6.9473331132 0.9941465696 -0.7950749809
H -6.5765143213 -0.3289007216 -1.8918645585
H -5.7511463971 -0.2282538179 -0.3215060933
