66
CONF33
C -4.0712565848 4.1338903060 -0.3379886259
C -2.5608879905 4.0523507506 -0.4443936601
O -2.0611486657 2.8351244318 0.1552894098
C -2.0817120720 1.7246465340 -0.6373580271
O -2.5011284404 1.7469436620 -1.7829646584
C -1.5509081832 0.5648088778 0.0783978757
C -1.5763726734 -0.6613833965 -0.5125566870
N -1.1908466872 -1.7661390618 0.2127238475
C -0.8272605151 -1.7437394540 1.5412243969
C -0.7467701609 -0.5485869845 2.1900828641
C -0.9280752106 0.7738916444 1.4520848538
C 0.3659123499 1.5960553223 1.3507888604
C 0.4404834662 2.8068016181 2.0395222146
C 1.5421774598 3.6446337754 1.9303790889
C 2.6050442575 3.2871381222 1.1043212551
C 2.5492570809 2.0943412973 0.4021149448
C 1.4438414801 1.2352531238 0.5125402157
C 1.4318478700 -0.0170770377 -0.2342736710
C 1.8934978132 -0.2059311193 -1.4801877394
C 1.7641814028 -1.5286472424 -2.1142507658
O 1.2227818329 -2.5015596546 -1.6130560805
O 2.3122309221 -1.5003274155 -3.3489627161
C 2.2925374509 -2.6929384675 -4.2215261813
C 2.9940778926 -2.1925525330 -5.4792827286
C 3.0844729952 -3.8254730472 -3.5761549526
C 0.8528313924 -3.0908928372 -4.5327599538
C -0.4851846560 -0.5271140968 3.6296998996
O -0.2409714941 -1.4875916403 4.3413022547
O -0.5492449269 0.7450385376 4.1178637956
C -0.3052954355 0.8928576215 5.5361883782
C -1.5626232790 0.6216118779 6.3389773215
C -0.5657608675 -3.0978616386 2.1278542928
C -2.0030294573 -0.9646981174 -1.9159186147
H -4.5388492950 3.3336483075 -0.9162287653
H -4.4187767603 5.0942300404 -0.7324551869
H -4.3894238137 4.0538536670 0.7054978142
H -2.0755479224 4.8504135470 0.1245466698
H -2.2338312598 4.0970061907 -1.4872432283
H -1.0063505838 -2.6120645127 -0.3037653934
H -1.6115691097 1.3903132222 2.0423559091
H -0.3978853195 3.0958978158 2.6651394685
H 1.5709653606 4.5772755328 2.4852950536
H 3.4743026739 3.9306232932 1.0152675941
H 3.3843125513 1.7903901140 -0.2214902895
H 1.0146678116 -0.8851854235 0.2625071914
H 2.3105522868 0.5977778582 -2.0782932823
H 2.4460096643 -1.3534334619 -5.9164922495
H 4.0097857776 -1.8620190840 -5.2456722392
H 3.0490480064 -2.9973808885 -6.2175025506
H 4.0857287748 -3.4784722181 -3.3036376279
H 3.1911156037 -4.6422636660 -4.2969889159
H 2.5831499067 -4.2040722491 -2.6851720497
H 0.3499916435 -3.4862048846 -3.6498465221
H 0.2946098492 -2.2281351095 -4.9092535952
H 0.8564487276 -3.8606295937 -5.3108033993
H 0.0232650132 1.9303876853 5.6448460623
H 0.5061195042 0.2209652692 5.8305656428
H -1.8715804374 -0.4198301020 6.2244765539
H -1.3718963848 0.8113473717 7.4002095141
H -2.3773388576 1.2745036692 6.0126173362
H 0.4167743136 -3.1341847631 2.6006660074
H -0.6261089609 -3.8685902526 1.3540910446
H -1.2898816301 -3.3251108653 2.9142998176
H -3.0561428385 -0.7148981734 -2.0661103477
H -1.4410238682 -0.3559550414 -2.6268664614
H -1.8473400955 -2.0230751748 -2.1442793250
