111
CONF102
C 2.9319840241 -1.0179133935 1.5611413118
N 2.0374483129 -1.9531932827 2.2626566644
C 2.5335628582 -3.2224761323 2.7567759070
C 0.7800112895 -1.8442964566 1.6876352810
C -0.2853002760 -2.7392321127 1.7464636997
C -1.4665738436 -2.3907886881 1.0774221798
O -2.5595981116 -3.2114707825 1.0454395475
C -2.4678970479 -4.4964606068 1.6680998355
C -1.5964866412 -1.1854317709 0.3611663025
C -0.4997377070 -0.3129769585 0.3452945273
C 0.6714185314 -0.6362361603 0.9920441198
C 1.9562542034 0.1342306595 1.1846314520
C 1.8308451058 1.1304095412 2.3977628292
C 2.2058444308 2.4942510186 1.8176271937
N 3.0985934034 2.1501762352 0.7107358497
C 3.3618544641 3.2676842016 -0.1835867736
C 4.0045219008 2.7922646907 -1.4478191531
C 3.9736821467 1.5194859858 -1.8377223647
C 3.2080833628 0.4318691583 -1.1163355160
C 2.1948689226 -0.1773751658 -2.1353571017
C 2.7766803004 -0.9379998607 -3.3244769013
C 4.2262666347 -0.6125018748 -0.6091611089
O 5.2700018631 0.0943090962 0.1045103710
C 6.5582569944 -0.2017460666 -0.1842415329
C 7.4834956602 0.6182629119 0.6598381785
O 6.8963774461 -1.0265411965 -1.0093771227
C 3.6393236518 -1.6870981940 0.3526202740
O 2.7032893435 -2.4920632895 -0.3415466724
C 4.8349373705 -2.5301230920 0.8428512353
O 5.5413306765 -2.2553931014 1.7892245979
O 5.0323018578 -3.5842044993 0.0386005372
C 6.1914988824 -4.4020599693 0.3443101229
C 2.3934418997 1.0569749043 0.0297052664
C -2.9089043428 -0.8621479245 -0.3571534116
C -4.0593685208 -0.5921380337 0.6409137134
C -3.8062797593 0.4357524272 1.7727124261
C -3.0763409698 1.7375891028 1.4124318398
N -3.8967496805 2.7059089732 0.6799023172
C -5.0179934326 3.1192667032 1.5344115940
C -5.7070985155 1.9892395346 2.2743294235
C -7.0450737790 2.3064718269 2.8847165571
C -6.9844197094 3.4198226381 3.9408023790
C -5.1365260978 0.7833754639 2.3872887356
C -4.3994509907 2.1736094750 -0.6112559811
C -3.3332096244 1.5336767939 -1.4449445546
C -2.7403661082 0.2825033684 -1.3428110431
N -1.8097003838 0.1473477737 -2.3593480491
C -1.7464952495 1.2964323641 -3.1006340725
C -0.9448707268 1.6233057784 -4.1940715975
C -1.1034787050 2.8894374251 -4.7420774960
C -2.0395926761 3.8000836929 -4.2155988698
C -2.8369015463 3.4663762734 -3.1296734204
C -2.6970929427 2.1960301643 -2.5510283319
C -3.3564716448 -2.0584378600 -1.2370527027
O -4.5064499591 -2.3978396119 -1.4100820377
O -2.3126161525 -2.6330432571 -1.8613841179
C -2.6451555741 -3.7160537674 -2.7646810695
H 3.7214192131 -0.6626339270 2.2276708299
H 3.4558167912 -3.0575473116 3.3195219765
H 2.7307532876 -3.9485913456 1.9504506954
H 1.7980588253 -3.6606129243 3.4382284606
H -0.1935272829 -3.6851144050 2.2633505940
H -2.2942914302 -4.4005201810 2.7462631245
H -3.4317017474 -4.9764230286 1.4944491672
H -1.6692429785 -5.0965408668 1.2163282938
H -0.5660404060 0.6175929903 -0.2079490078
H 2.5218241153 0.8425869697 3.1946221999
H 0.8184977700 1.1255980451 2.8079049570
H 2.7042136711 3.1521968030 2.5378483809
H 1.3013801651 3.0156231460 1.4445291177
H 4.0173866583 3.9898383784 0.3213679551
H 2.4269797412 3.8173896080 -0.4316404970
H 4.5123898254 3.5374413834 -2.0553602861
H 4.4847995353 1.2234549392 -2.7510488181
H 1.6117487008 0.6731465441 -2.5114069333
H 1.4974867803 -0.8218533340 -1.5959118297
H 3.2961517261 -1.8522783946 -3.0240526278
H 1.9640474846 -1.2339880533 -3.9956242092
H 3.4747811288 -0.3302184889 -3.9076954610
H 4.6782891798 -1.1298422448 -1.4609472848
H 8.5082301086 0.4994333910 0.3102329669
H 7.1869663626 1.6699811341 0.6367816862
H 7.4074016070 0.2757974310 1.6971110793
H 3.1908236373 -3.0720539512 -0.9429867627
H 6.0927940773 -4.8248497578 1.3464887699
H 7.0969061573 -3.7944169705 0.2801958285
H 6.1957911196 -5.1874625720 -0.4095626520
H 1.4668606888 1.4645823575 -0.4294371199
H -4.9466129340 -0.3243909033 0.0664856831
H -4.2961448441 -1.5447034381 1.1212090304
H -3.1879244367 -0.0729137158 2.5272744017
H -2.1640656926 1.5398113624 0.8503767249
H -2.7732529941 2.2215998295 2.3504046457
H -4.6467085037 3.8530591046 2.2667894946
H -5.7552674272 3.6535066912 0.9183014398
H -7.7375865715 2.6149263292 2.0881589785
H -7.4583960322 1.3965367237 3.3348188390
H -6.2860118876 3.1544240688 4.7415106126
H -6.6567942343 4.3691356976 3.5063906603
H -7.9708930694 3.5803535269 4.3864186568
H -5.6712488330 -0.0134564312 2.9060831695
H -4.7992688142 3.0261938108 -1.1735980605
H -5.2468562127 1.4879601979 -0.4617393873
H -1.2212173680 -0.6620859857 -2.4824165445
H -0.2249843726 0.9171355866 -4.5965702050
H -0.4947303207 3.1824165797 -5.5917500446
H -2.1355723731 4.7817142938 -4.6692335788
H -3.5522102720 4.1814688026 -2.7341172243
H -3.3068793921 -3.3573312424 -3.5567032946
H -1.6937626919 -4.0491180571 -3.1775813724
H -3.1305820436 -4.5248639455 -2.2131617192
