20
CONF89
C 0.1175399104 -0.5381244605 -0.2195240163
O 0.8563078118 0.1922998060 -1.2299045626
C 2.1029760333 0.4913153755 -0.7438914662
O 2.9185831118 1.1197154510 -1.3922527828
C 2.2430226277 -0.0629932137 0.5860938222
O 3.3676065586 0.0607741583 1.3323253991
C 1.0927132300 -0.6834780254 0.9100551614
O 0.8276409447 -1.3067524999 2.0650916014
C -1.1553511746 0.2177912940 0.1504978729
O -0.7718105430 1.4819354083 0.6804382332
C -2.0818988696 0.3920933899 -1.0577243024
O -2.4841225316 -0.8604178060 -1.6105888873
H -0.1660142194 -1.5099495524 -0.6433873622
H 4.0249768677 0.5406745216 0.8048691554
H -0.0498059513 -1.7163284354 2.0432718290
H -1.6776079524 -0.3901018929 0.9096892604
H -1.5687374218 1.9267580445 0.9967599706
H -1.5543199127 0.9352937810 -1.8469497804
H -2.9493051792 0.9909819078 -0.7452608915
H -3.0923931500 -1.2814873575 -0.9896085605
