37
CONF39
C -2.9205961039 -1.8625675317 -1.2233723036
C -4.2984728985 -1.8329640102 -1.4037365943
C -5.0544177414 -0.8262140208 -0.8114991416
C -4.4384152898 0.1444409681 -0.0241032209
C -3.0494534652 0.1160408377 0.1707670532
C -2.3018096620 -0.8895114930 -0.4445723329
C -2.3345033979 1.0637948592 1.0969956529
O -2.6353004200 1.1408940518 2.2906717673
N -1.3360279408 1.7649834659 0.5234386055
C -0.4176797914 2.5883912396 1.2996031415
C 0.7019359087 1.7697970936 1.9376818976
C 1.6255579409 1.1109177286 0.9523762322
C 2.6526115672 0.2478404873 1.3693228100
C 3.4983793115 -0.3472073736 0.4516409726
C 3.2987075415 -0.0568955426 -0.8947595017
C 2.2689698665 0.8049639572 -1.2511226799
N 1.4611336510 1.3690433749 -0.3506107829
C 4.1641529194 -0.7020685341 -1.9347720171
F 4.1781568891 -0.0017647133 -3.0900839165
F 5.4470234550 -0.8227705576 -1.5187513651
F 3.7352537470 -1.9560114983 -2.2388243861
Cl 2.8871461538 -0.0799329699 3.0722303044
C -5.2916981536 1.2236576319 0.5871961783
F -4.6730143786 2.4301256896 0.5922413198
F -6.4531861889 1.3908837609 -0.0928763075
F -5.6399503329 0.9490010736 1.8697183821
H -2.3244112229 -2.6423786072 -1.6857598758
H -4.7891947989 -2.5859779319 -2.0109371394
H -6.1259167463 -0.7916228976 -0.9708241772
H -0.9858692872 3.0823707458 2.0920993830
H -0.0094335218 3.3561465394 0.6384720337
H 0.2686507700 1.0027312441 2.5911765985
H 4.2917011742 -1.0114358410 0.7758274071
H 2.0869912364 1.0549233836 -2.2930303971
H -1.2266425080 -0.9179016927 -0.2930822797
H 1.2941963962 2.4197921345 2.5958034230
H -1.1102989133 1.5933410582 -0.4449120551
