38
CONF16
C -2.1558808430 -1.3488323348 -1.1014342565
C -1.3057272422 -0.0813474964 -1.2235431534
C -2.0185828524 1.0785121415 -0.5625802069
C -1.8795373777 2.4905594615 -1.0679415134
C -3.1611261038 1.7312185356 -1.2945650242
C 0.1453247929 -0.3098112649 -0.6979991384
C 0.9682934567 0.9816189400 -0.9291357864
N 2.3917684141 0.7893803128 -0.6913628994
C 3.3346219353 0.3971613165 -1.5732351468
N 4.5148297601 0.2932825490 -0.9720172240
C 4.2252152537 0.6421114166 0.3127245841
N 2.9531526899 0.9509425023 0.5334391266
C 0.1550390827 -0.7600238219 0.7585670357
C 0.2404206713 -2.1189817267 1.0729928839
C 0.2099763672 -2.5626741603 2.3921961080
C 0.0843145824 -1.6266081459 3.4082888530
C -0.0096580665 -0.2681723113 3.1346330449
C 0.0277365417 0.1536698865 1.8103608195
Cl 0.0462800235 -2.1711979864 5.0838631484
O 0.6806430876 -1.3271445348 -1.5527596953
H -2.3698523335 -1.5725293239 -0.0510723690
H -1.6591753340 -2.2144792460 -1.5451437670
H -3.1096342338 -1.1931404445 -1.6137388589
H -1.1853978900 0.1578122238 -2.2902715887
H -2.1656056978 0.9678976177 0.5095848720
H -1.2434365286 2.6543033304 -1.9321746623
H -1.8790822185 3.2950040727 -0.3392667054
H -3.3629595550 1.3868802170 -2.3048393112
H -4.0372377085 2.0177970337 -0.7224110765
H 0.8519145750 1.2679446503 -1.9776019916
H 0.6259094563 1.8070864158 -0.3057785119
H 3.1186092501 0.2188320663 -2.6186789486
H 4.9638938407 0.6773879094 1.1037446698
H 0.3228296075 -2.8524220354 0.2789983384
H 0.2790396586 -3.6206193124 2.6189284877
H -0.1036372470 0.4527441131 3.9388352529
H -0.0341380560 1.2180528133 1.6165365125
H 1.5408560450 -1.6022150788 -1.2061421028
