56
CONF3
C -2.9183062475 0.8855075295 -1.2507725541
C -2.5787556817 -0.2726441271 -0.2782496414
C -3.0219048634 -1.6185375998 -0.8854632458
C -4.5345502345 -1.8137692617 -0.8892872102
C -5.1066441257 -1.6779683721 0.5055468051
O -6.0975896399 -2.2943378643 0.8708582608
C -4.4449357051 -0.6942726125 1.3656237753
C -3.3455503140 -0.0017359784 1.0070801897
C -2.8552730724 1.1464436398 1.8366727008
C -1.3619676526 1.0422281060 2.1478753458
C -0.5183579956 0.8363083326 0.8876153355
C -1.0566922795 -0.3749506509 0.0942044341
C -0.1477501688 -0.7992021357 -1.0734727686
C 1.3311360192 -0.9381129768 -0.6636709556
C 1.8622434227 0.2837637637 0.0848996499
C 0.9279915341 0.5527660713 1.2820541449
C 1.6905625144 1.5805622782 2.1236515081
C 3.1810825698 1.1937980233 1.9258952822
C 3.2107833806 0.0632674972 0.8687088466
C 4.4295683060 0.1157528437 -0.0417545098
O 4.9642617722 1.1608368152 -0.3694014726
C 4.9706432904 -1.1932453691 -0.5819131317
O 5.9568378988 -0.9793481217 -1.5576830298
O 3.1370285678 -1.2387801845 1.4741525942
C 2.0062784611 1.5039169712 -0.8367571508
O -0.3195186353 0.1291174297 -2.1561867703
H -2.6247881217 0.6326243847 -2.2687173423
H -2.4023991249 1.8095584574 -0.9820386163
H -3.9940427112 1.0867895207 -1.2276457289
H -2.5741294934 -2.4323305345 -0.2981750563
H -2.6331858627 -1.7021262449 -1.9056552390
H -4.8192882677 -2.7895230805 -1.2919747925
H -5.0221876080 -1.0536708715 -1.5154452374
H -4.9501660656 -0.4784906142 2.3045810888
H -3.4418848691 1.2194115097 2.7575154056
H -3.0331469670 2.0734578814 1.2720328986
H -1.1953313160 0.1905159194 2.8231229073
H -1.0332597744 1.9416118667 2.6803767149
H -0.5680334251 1.7442905213 0.2716965925
H -0.9994885319 -1.2247271185 0.7960228162
H -0.4742057329 -1.7956678865 -1.4090433531
H 1.9177560143 -1.1426081964 -1.5714501972
H 1.4223629181 -1.8211576872 -0.0219281802
H 0.9068200517 -0.3846171922 1.8578833339
H 1.5013455169 2.5967219112 1.7598141948
H 1.3984114456 1.5538149969 3.1763772534
H 3.7811795006 2.0353197603 1.5737279095
H 3.6430799154 0.8407869109 2.8546157744
H 4.1368846614 -1.7888534062 -0.9834898869
H 5.3671715824 -1.7742501146 0.2677642776
H 6.1258659221 -0.0219697073 -1.5528388052
H 3.7327492644 -1.2467233230 2.2315030159
H 2.5980582579 1.2496218584 -1.7219535572
H 2.5161691614 2.3353364102 -0.3460599435
H 1.0296207627 1.8399427202 -1.1826741754
H 0.3274418707 -0.0904529102 -2.8362711000
