47
CONF244
C -7.1965414307 -1.9212701226 2.1132992267
O -6.5149550402 -0.6947136288 1.7201389991
P -4.9613339143 -0.7716938215 1.3432456954
S -3.7219841616 -1.5056104649 2.6407323182
O -4.8594963583 -1.5608865065 -0.0485938337
C -5.7135463050 -1.1665331048 -1.1676893543
O -4.8134995754 0.8077553549 0.9942776188
C -3.5577761407 1.4088390189 0.8766689722
C -2.6702038531 1.0187005241 -0.1210997073
C -1.4520929261 1.6757257382 -0.2355035779
C -1.1218845592 2.6994335153 0.6569504666
C -2.0254390413 3.0786060586 1.6514328815
C -3.2545525577 2.4353387361 1.7583446259
S 0.4075525360 3.6140049728 0.5080424231
C 1.6203420034 2.3228999502 0.2578819706
C 1.5737716849 1.1177829635 0.9649797207
C 2.5637591251 0.1631657885 0.7736771980
C 3.6096902844 0.4345439134 -0.0999829440
C 3.6842898516 1.6348551432 -0.7931457162
C 2.6748454193 2.5773168719 -0.6215531946
O 4.6187426898 -0.5222207400 -0.2265615459
P 4.8432768856 -1.3528996050 -1.6131519387
S 3.2219772865 -1.8569233723 -2.5494698378
O 5.8179875526 -2.5003307337 -1.0818128447
C 5.3061337337 -3.5338892764 -0.1921268247
O 5.8180053274 -0.4750102271 -2.5177239491
C 7.0877319141 0.0155079800 -1.9813454371
H -8.2389719710 -1.6408645003 2.2588462039
H -6.7704886009 -2.3003889116 3.0457042256
H -7.1155883848 -2.6728967641 1.3229433611
H -5.5058638535 -0.1315839015 -1.4520318587
H -5.4532710097 -1.8406884576 -1.9827173183
H -6.7658569445 -1.2848038014 -0.8984428953
H -2.9317348560 0.2230640498 -0.8105546908
H -0.7600831222 1.3878403123 -1.0198326343
H -1.7686607753 3.8678627830 2.3503096853
H -3.9650318005 2.7122940949 2.5295009678
H 0.7630937903 0.9185822205 1.6578349008
H 2.5372945431 -0.7827441721 1.3042259039
H 4.5098045802 1.8290904159 -1.4698018116
H 2.7113467596 3.5093990567 -1.1760447742
H 4.5065607584 -4.0893130875 -0.6890806092
H 6.1517755578 -4.1892363770 0.0127374766
H 4.9425306717 -3.0832320389 0.7349486122
H 7.4760366577 0.6975121603 -2.7366591456
H 6.9194205394 0.5487822492 -1.0422170490
H 7.7728859288 -0.8211700714 -1.8325339700
