78
CONF308
C -1.0043697081 -0.1400603446 -2.4718748074
C -0.4299123596 -0.5960226511 -3.8058996194
O -1.0507021115 -1.9121391027 -4.0190997827
C -1.4766700545 -2.4348000965 -2.8385765954
O -1.9653864281 -3.5396416802 -2.7816887388
C -1.1649217013 -1.4583444130 -1.7336587000
C -2.0958432290 -1.3261153113 -0.5256657634
C -3.5667981065 -1.1903992714 -0.9042579649
C -4.1383527851 0.0628258084 -1.1340750462
C -5.4761099964 0.1719650949 -1.5181442797
O -6.1213369952 1.3492575846 -1.7641782830
C -5.3539690549 2.5526910122 -1.6314842419
C -6.2542084118 -0.9809657219 -1.6674342473
O -7.5642823794 -0.8587453496 -2.0374410274
C -5.6787692186 -2.2330359640 -1.4199945036
O -6.5446953079 -3.2791953302 -1.5852571016
C -6.0299563751 -4.6021450517 -1.3809071012
C -4.3436089572 -2.3430244176 -1.0376110981
C -1.6239399077 -0.1340495936 0.2997855639
C -2.1026359317 -0.0536169650 1.6232817735
C -1.7448568088 1.0404931202 2.3708154877
C -0.9611285896 2.0646307803 1.8452191782
O -0.8126343201 3.0608760329 2.7783254711
C -1.3055109191 2.4947420455 4.0102611625
O -2.1122680980 1.3496846193 3.6532075268
C -0.4957714665 2.0230440329 0.5575744735
C -0.8184609726 0.8906909387 -0.2238765114
C -0.2139315456 0.8258681906 -1.6104793485
O 1.1961597880 0.4058333430 -1.6262479497
C 1.8034516636 -0.0111394423 -0.4546025444
O 2.3921209709 1.1397439713 0.1787018655
C 2.9664775239 0.7735911590 1.4277246460
C 3.4674269137 2.0136169923 2.1440421034
O 4.1272187108 1.5965468680 3.3566192139
C 5.1722531483 0.6611842222 3.1552246791
O 4.7426136091 -0.4987639571 2.4453433575
C 4.1540651666 -0.1538202109 1.1826324670
C 3.6829197861 -1.4062138138 0.4713122634
O 4.7375049253 -2.3143651203 0.1490665398
C 2.9129733248 -1.0062158143 -0.7967008212
O 2.3126905366 -2.1512480022 -1.3944681214
C 6.3786066708 1.2980715485 2.5108541352
C 6.7524662133 2.6150143287 2.5130866416
C 8.0126267178 2.8395990159 1.8932129247
C 8.5927544833 1.6891253239 1.4348895296
S 7.5959894937 0.3070682131 1.7540546268
H -1.9955609535 0.2968506749 -2.6472064170
H 0.6528978890 -0.7403273452 -3.7671962713
H -0.7057604752 0.0291111086 -4.6558125702
H -0.1720709924 -1.7719431020 -1.3704296698
H -1.9966967601 -2.2287686025 0.0879951765
H -3.5425532554 0.9549195278 -0.9887033844
H -4.5069685307 2.5580990801 -2.3278722165
H -4.9887354775 2.6766754398 -0.6050026778
H -6.0372760867 3.3658560599 -1.8779734044
H -7.9400415678 -1.7506871801 -2.0866565265
H -5.6836319992 -4.7299360770 -0.3491147047
H -6.8633095617 -5.2770051095 -1.5766672515
H -5.2099855209 -4.8118601539 -2.0772007923
H -3.8991789351 -3.3123168958 -0.8524794016
H -2.7411869060 -0.8322842915 2.0279010845
H -1.9269881061 3.2289829794 4.5256583254
H -0.4559769175 2.1586323235 4.6197821822
H 0.1126751926 2.8209114328 0.1476159923
H -0.2086345377 1.8287532685 -2.0505656925
H 1.0867846891 -0.4743779316 0.2439652924
H 2.2229488552 0.2579649226 2.0595730701
H 2.6457113283 2.6635841359 2.4542178392
H 4.1514896813 2.5724598318 1.4911579871
H 5.4215909525 0.2963161590 4.1574916981
H 4.8882193563 0.3756804744 0.5522349424
H 3.0080281372 -1.9648138549 1.1330132533
H 5.3887737880 -1.8422388331 -0.3905381045
H 3.6065318502 -0.5146051442 -1.4999834950
H 2.9933785934 -2.8390073105 -1.4258070792
H 6.1391745184 3.3966710608 2.9457944884
H 8.4693268274 3.8169463032 1.7891434477
H 9.5377372032 1.5671324417 0.9220533624
