59
CONF277
C 6.5311521141 2.7235175572 3.6515112297
C 5.9858229622 3.4585429438 2.4240060933
C 4.8173040082 2.5663387578 1.9797427551
C 5.2426862583 1.1047135791 2.3396511054
C 6.5361747568 1.2660792418 3.1813999842
C 5.4879014634 0.2627984833 1.0910498021
C 4.2422486246 -0.0070053115 0.2877477970
O 4.2783404284 -0.2003434644 -0.9199748728
N 3.0216542205 -0.0405408820 0.9701885400
C 2.8837122137 0.1967955788 2.3423691872
O 1.7744422387 0.2154527535 2.8577730724
C 4.1484635903 0.3919421862 3.1342098905
C 1.7951747873 -0.2599116568 0.1808890797
C 1.2330687479 1.0571063067 -0.3541173687
C 0.0276281495 0.8504718570 -1.2750304027
C -1.1693255449 0.2349309552 -0.5515886982
N -2.4165647580 0.3056683428 -1.3269730386
C -2.3526621864 -0.5467413753 -2.5223212924
C -3.6601383132 -0.4760244512 -3.3066814902
N -4.7833061696 -0.8704800936 -2.4557990915
C -4.8579599372 -0.0344528067 -1.2569485332
C -3.5450183414 -0.1147925405 -0.4844249389
C -5.2882299234 -2.1408702193 -2.4765968347
N -4.9412135516 -2.9357707664 -3.5190006683
C -5.4934660391 -4.1471776382 -3.5499258466
C -6.3766391647 -4.6075333364 -2.5801766894
C -6.6577283835 -3.7174031732 -1.5500914802
N -6.1308264890 -2.4966647868 -1.4753539469
H 5.8431992249 2.8494336359 4.4974082931
H 7.5196862301 3.0717142304 3.9659050574
H 5.6762346301 4.4878530155 2.6283607943
H 6.7568612380 3.4870351390 1.6439741018
H 4.5809969881 2.6786870274 0.9160673343
H 3.9159261299 2.8376801767 2.5424631264
H 7.4080723079 1.1003129435 2.5365413166
H 6.5862473145 0.5387438236 3.9979218691
H 6.2050608556 0.7398685588 0.4166488463
H 5.9070708239 -0.7143708940 1.3737222216
H 4.4965614341 -0.6079740465 3.4317751743
H 3.8835036242 0.9357397528 4.0447752346
H 1.0805398232 -0.7603630417 0.8351697879
H 2.0493632971 -0.9286560521 -0.6445193211
H 0.9554954274 1.7007820802 0.4900634976
H 2.0240282750 1.5732760067 -0.9100113135
H 0.3359086633 0.2239307747 -2.1206870979
H -0.2752831095 1.8206492704 -1.6870726481
H -1.3352439418 0.7874353440 0.3831914564
H -0.9492662635 -0.8137098690 -0.2702273457
H -1.5399708251 -0.2058602841 -3.1712180426
H -2.1501763354 -1.6031305557 -2.2498828020
H -3.6117519724 -1.1205741447 -4.1827657948
H -3.8341525093 0.5563941650 -3.6358896721
H -5.6893577187 -0.3532766599 -0.6302667040
H -3.5986350125 0.5462438503 0.3887175425
H -3.4095984869 -1.1523863108 -0.1162502513
H -5.2117490741 -4.7808580408 -4.3905318980
H -6.8122314446 -5.5978336675 -2.6209553543
H -7.3347710141 -3.9973567736 -0.7433765057
H -5.0330164904 1.0002402628 -1.5783157119
