60
CONF15
C -0.0800352229 -1.1006849449 2.3976139520
C -0.8357591834 -1.7046272492 1.2672507825
C -1.4196973796 -1.0662435537 0.1689113012
N -2.0217258759 -2.0403245523 -0.5803552055
N -1.8508175428 -3.2551380665 -0.0435283427
C -1.1419744731 -3.0659981212 1.0818008573
C -0.7710003129 -4.2110465191 1.9610302809
C -2.7335104826 -1.8937863771 -1.8408616138
C -1.4927642392 0.3407753821 -0.1442896707
C -0.4537845673 1.2191868599 -0.0497248744
C -0.7360167965 2.6084146162 -0.0939293201
N -0.9354871135 3.7513687032 -0.1153857098
C 0.9666745328 0.8353798115 0.0750573111
C 1.8312693295 1.5715644474 0.8942707290
C 3.1619765461 1.2041377269 1.0247672730
C 3.6884459493 0.0968060186 0.3443112193
C 2.8208422727 -0.6133308880 -0.4929938012
C 1.4866546773 -0.2492085955 -0.6349514804
C 5.1570568631 -0.2832546495 0.5333866539
C 5.5506096317 -1.5160522217 -0.2882975425
C 6.0488446641 0.8959503280 0.0987144678
C 5.4073645154 -0.5915215597 2.0225681983
O -2.7739778631 0.7966748679 -0.4108082616
C -3.0528130131 1.4860808102 -1.5922478070
O -2.2523984120 1.5762206849 -2.4845513734
C -4.4656181631 2.0391023630 -1.5601379522
C -5.4640832359 0.8741768298 -1.4263549402
C -4.6024274202 2.9884007992 -0.3550180429
C -4.7190064544 2.8010078960 -2.8628039561
H -0.3790903920 -0.0624636571 2.5661379205
H -0.2498770535 -1.6665941726 3.3180499420
H 0.9994111679 -1.0988423566 2.1983748999
H -1.1858131235 -4.0852469327 2.9670957942
H -1.1503012311 -5.1465642014 1.5446349557
H 0.3163570112 -4.2905662576 2.0652421813
H -2.2633383243 -1.1104778804 -2.4399344455
H -2.6692235138 -2.8414253627 -2.3765811538
H -3.7853509586 -1.6441155601 -1.6695254127
H 1.4531764244 2.4270877748 1.4467946996
H 3.7990155350 1.7924098627 1.6772484758
H 3.1816456797 -1.4627915433 -1.0605349454
H 0.8457671406 -0.8111303590 -1.3066636365
H 4.9634756680 -2.3953843917 -0.0035760156
H 6.6057288773 -1.7447767731 -0.1086757247
H 5.4231200790 -1.3440642614 -1.3621412412
H 7.1035913852 0.6287245828 0.2255831957
H 5.8787382800 1.1405653267 -0.9550682231
H 5.8527040128 1.7917101700 0.6950369661
H 4.7794421720 -1.4251083378 2.3549218127
H 5.1907774188 0.2746481204 2.6544478601
H 6.4566773424 -0.8678997147 2.1729786044
H -6.4779962735 1.2858050023 -1.4156576621
H -5.3827134982 0.1878826761 -2.2752008500
H -5.3067582718 0.3148785668 -0.5008709238
H -4.4554024890 2.4591126523 0.5895067257
H -3.8791595360 3.8066370797 -0.4175538369
H -5.6101062476 3.4150699534 -0.3622464649
H -4.6146008279 2.1442141989 -3.7306752357
H -4.0195490737 3.6343616637 -2.9729980099
H -5.7371875787 3.2003125866 -2.8487166085
