25
CONF1
C 2.2303808574 0.1281897816 -1.4791563450
C 0.8749771548 0.2322556488 -1.7036641237
C 0.0056808568 -0.7104649672 -1.1399817235
C 0.4968662655 -1.7622820183 -0.3608161286
C 1.8545733645 -1.8695637651 -0.1393053527
C 2.7517255406 -0.9260107863 -0.6905710298
N 4.0827129138 -1.0245976745 -0.4683317648
S -1.7198999487 -0.5824911902 -1.4512287692
O -2.4243659788 -1.6113216045 -0.6659694288
O -2.0072951821 -0.4535501979 -2.8904542930
N -2.0841189475 1.0074238963 -0.8545049343
C -2.1569111529 1.2341168534 0.5164657710
N -3.1628723424 1.8386273802 1.0868242922
C -2.9166006643 2.0289321868 2.4286868678
C -1.7307871987 1.5557997459 2.8960596566
S -0.8162254490 0.8520159818 1.5933129124
H 2.9097626670 0.8586053027 -1.9075509924
H 0.4875605068 1.0459835828 -2.3082557862
H -0.1859264167 -2.4830755315 0.0746557120
H 2.2420280017 -2.6823154022 0.4673304644
H 4.7231688868 -0.3534700297 -0.8568699499
H 4.4592283573 -1.7699958740 0.0920803444
H -2.8980299350 1.3742615448 -1.3472867485
H -3.6673114087 2.5176021648 3.0392138250
H -1.3483205524 1.5553250720 3.9074544342
