63
CONF121
C 2.4052002467 1.6850855867 0.6082450385
C 1.1346102918 2.5182162855 0.7485648760
N 0.0018971849 1.6665604068 1.1161212102
C 0.2354639582 1.0534486893 2.4241063784
C 1.4538362953 0.1365173271 2.3672321255
C 2.6808642394 0.9261562218 1.9074330985
N 3.8680136267 0.0773753125 1.8030775351
C 4.0765862820 -1.0110597975 0.9589549835
C 3.2874445534 -1.6173688605 -0.0115824928
C 3.8197353672 -2.7185363866 -0.6889478738
C 5.0995837327 -3.2001099894 -0.4073816529
C 5.8974656248 -2.5945746969 0.5667800198
C 5.3687686610 -1.5038501235 1.2369454501
N 5.8948352723 -0.7033261321 2.2338113176
C 4.9926590723 0.2778143934 2.6014076363
O 5.1488893234 1.1478380541 3.4563481056
C -1.2723020894 2.3883027333 1.0715139325
C -1.7227755134 2.7172836200 -0.3567663703
C -1.5928440002 1.5373929407 -1.3231155136
C -2.2695899285 0.2450313026 -0.8257589721
C -3.7640278784 0.3704537919 -0.6062112824
C -4.3539781518 -0.3266310170 0.4535792700
C -5.7247966487 -0.2731181497 0.6882353175
C -6.4999932910 0.4977581788 -0.1607666365
C -5.9637920274 1.2102316191 -1.2183825812
C -4.5884482139 1.1406296769 -1.4316972931
F -7.8416729496 0.5626402944 0.0580110904
C -1.9005483009 -0.9115362009 -1.7402585503
C -0.7840784259 -1.6930120588 -1.4267382668
C -0.3625146311 -2.7254531712 -2.2604011022
C -1.0841220017 -2.9616084704 -3.4177218391
C -2.1961145023 -2.2161737632 -3.7690477664
C -2.5979249143 -1.1881290066 -2.9187142135
F -0.6886911381 -3.9722946042 -4.2396025963
H 3.2551042875 2.3361828655 0.3752447130
H 2.2809279815 0.9867252928 -0.2263664014
H 0.9221031976 3.0108137615 -0.2054791998
H 1.2908455544 3.3173226000 1.5032038484
H 0.3825286539 1.8211088930 3.2124756246
H -0.6496999201 0.4682371402 2.6994743803
H 1.2474182061 -0.6843873949 1.6715942821
H 1.6449422229 -0.2981438951 3.3546082268
H 2.9260634940 1.6593119421 2.6854147221
H 2.2924516180 -1.2615980429 -0.2471161897
H 3.2187316142 -3.2044417157 -1.4507085952
H 5.4835899548 -4.0567737221 -0.9513747696
H 6.8932191869 -2.9608696862 0.7931023396
H 6.8061807987 -0.7924569271 2.6544992771
H -1.2371956428 3.3212475823 1.6680535533
H -2.0273255995 1.7472407606 1.5441001857
H -2.7656967479 3.0528232862 -0.3039644003
H -1.1504135734 3.5625014236 -0.7560979922
H -1.9908212330 1.8133900359 -2.3072045704
H -0.5323210981 1.3074506114 -1.4743779303
H -1.8250396591 0.0106782091 0.1472787846
H -3.7274139780 -0.9233749362 1.1112557431
H -6.1834617100 -0.8103497170 1.5114661766
H -6.6066648911 1.8080103327 -1.8555906044
H -4.1637820853 1.7035716666 -2.2564586693
H -0.2328104489 -1.4919206584 -0.5115561542
H 0.4996281673 -3.3375530952 -2.0171252451
H -2.7351858406 -2.4390884903 -4.6836636032
H -3.4735382545 -0.6025746033 -3.1819589940
