53
CONF8
C 0.6256559207 -0.5531710008 -0.1227969706
C -0.1082183565 -0.7576226048 -1.4528279564
C -1.4549739038 -0.0816379153 -1.5423284315
C -2.0722327898 0.5079613055 -0.4285810476
C -3.3276846770 1.1074268768 -0.5918688988
C -3.9712417673 1.1082782942 -1.8250465162
O -5.2041124196 1.6804564160 -2.0079926559
C -3.3668286411 0.5141508192 -2.9322923736
C -2.1189985089 -0.0689257946 -2.7738418498
C -1.3478142015 0.5971599794 0.9155767113
C -2.3029048691 0.5730371660 2.1214804799
C -3.0539486253 -0.7537895403 2.2425951415
C -2.0717057759 -1.9232413711 2.3497939329
C -1.0940295620 -1.9202925775 1.1714428871
C -0.3494045578 -0.5909297228 1.0615342020
O 0.4248682459 -0.4481517787 2.2669854534
C -0.5307518132 1.9089843858 0.9156891672
C 0.5779780266 1.8984926366 -0.1312424811
N 1.4127124255 0.6940574988 0.0023177911
C 2.5753055336 0.7692267434 -0.8909994460
C 3.5288040365 -0.4005905851 -0.7538999198
C 4.1539266342 -0.6927841541 0.6337094767
C 5.4858158145 -1.0226395872 -0.0879540181
C 4.9671037579 -0.2233791235 -1.3109889572
H 1.3288791495 -1.3824333289 0.0155146647
H 0.5275572897 -0.4234464796 -2.2819769909
H -0.2427782502 -1.8366924165 -1.6058769315
H -3.8222696292 1.5835941379 0.2492800319
H -5.5132480842 2.0465598245 -1.1686348747
H -3.8724959019 0.5175630466 -3.8926152174
H -1.6375283556 -0.5292684432 -3.6334387931
H -1.6924694123 0.7209148274 3.0197678145
H -2.9975558677 1.4189424468 2.0804991990
H -3.7130931248 -0.7303671307 3.1183488133
H -3.6946583611 -0.8972931113 1.3623392619
H -2.6139813737 -2.8755738698 2.3743863733
H -1.5140903183 -1.8464555039 3.2909058217
H -1.6543731566 -2.0943549560 0.2461609347
H -0.3567351754 -2.7267736318 1.2689559418
H 1.1643030394 0.1312014394 2.0062872205
H -0.0944352256 2.0512456074 1.9115281620
H -1.2042752246 2.7535708828 0.7288962194
H 1.2244963825 2.7725770467 0.0115420336
H 0.1485381087 1.9811432265 -1.1468209420
H 2.2753027681 0.8768669585 -1.9525804507
H 3.1159915438 1.6886769603 -0.6271418953
H 3.0964759194 -1.3176017771 -1.1710811811
H 3.6939339839 -1.4687417292 1.2528627485
H 4.2354768507 0.2305764538 1.2181398892
H 6.4162873647 -0.6898398958 0.3800775929
H 5.5615120059 -2.0903463176 -0.3146623921
H 5.2768785560 0.8261591203 -1.2586788175
H 5.1810348422 -0.6124797586 -2.3104475869
