43
CONF21
C 0.5200116855 1.6605485554 1.5491564817
O 1.8593765011 1.0503815267 1.4519656848
C 1.7502600606 -0.0158756267 0.6001755415
C 2.8132088155 -0.7124251436 0.0243852426
O 4.0741811746 -0.3737505316 0.4250963222
C 5.1619908034 -1.0563578953 -0.2113215307
C 2.4846101684 -1.6665984964 -0.9505118369
C 1.1608519311 -1.8635099387 -1.3616079320
C 0.1069687266 -1.1600327775 -0.7677895838
C 0.4464950459 -0.3065251732 0.2666859327
C -0.4827333318 0.6109503852 1.0083132554
C -1.2342030967 -0.1016943448 2.1443648903
C -2.1427685445 -1.2027572945 1.6128219228
N -3.0180586417 -0.6870385170 0.5557661473
C -3.9862906133 -1.6974011155 0.1381616023
C -2.2484184947 -0.1237359455 -0.5722738252
C -1.3071634922 -1.1343273722 -1.2938200797
C -1.4986818082 1.1175105341 -0.0401108318
C -0.7808098378 1.9189014947 -1.0888460902
C 0.1749280322 2.7700066575 -0.7099765716
C 0.4504186859 2.9762380628 0.7580318168
O 1.6412368459 3.7205055830 1.0180836765
H 0.3757908832 1.8717626421 2.6119783008
H 6.0694135646 -0.6450567972 0.2316975349
H 5.1147803825 -2.1350803856 -0.0205265282
H 5.1622622308 -0.8727783958 -1.2924032891
H 3.2722348523 -2.2298619377 -1.4373365490
H 0.9637440421 -2.5531460347 -2.1780644400
H -1.8331245947 0.6459413513 2.6801986305
H -0.5137846929 -0.5272284203 2.8526640234
H -2.7729592191 -1.5834095735 2.4253015436
H -1.5315609044 -2.0560018209 1.2581290621
H -4.6342287393 -1.9462245682 0.9860385186
H -3.5271300455 -2.6395741095 -0.2136029702
H -4.6113819647 -1.2996642694 -0.6684819284
H -2.9876736873 0.2173642192 -1.3079353118
H -1.2628306153 -0.8690669195 -2.3576286753
H -1.7595236414 -2.1327485779 -1.2625372334
H -2.2454922134 1.7520526811 0.4615495481
H -1.0372696676 1.7818795499 -2.1372863434
H 0.7307430521 3.3768934216 -1.4208356585
H -0.4194178739 3.5045468430 1.1902721024
H 1.5019981618 4.6163877976 0.6865828053
