53
CONF120
C -1.1445032802 -1.8894390141 -3.1051771828
N 0.1587439941 -2.1183832809 -2.4743642355
C 1.2056682199 -1.8493518703 -3.4769434514
C 2.6031594541 -2.0941660901 -2.9262593536
C 2.8418708696 -1.2121255808 -1.7043989141
C 1.7296546294 -1.4420559438 -0.6883289623
C 0.3361363297 -1.2439525429 -1.2933261341
C -0.7419060286 -1.5028949512 -0.2198910991
C -1.7744835324 -0.3801546183 -0.0972933509
N -1.1289264049 0.9055328548 0.2067217026
C -1.5330586939 2.0693995861 -0.4736795110
C -2.8191247615 2.2074746117 -1.0098839674
C -3.1711180317 3.3568484304 -1.7128246192
C -2.2674333613 4.4050305032 -1.8579617023
C -1.0000305147 4.3004099528 -1.2895282976
C -0.6332809031 3.1365009153 -0.6213503251
S 1.0269635610 2.9522120333 -0.0013670068
C 0.6639186358 1.9881455460 1.4432156465
C -0.3705837529 1.0345782240 1.3741000596
C -0.5908175568 0.2177034029 2.4884521689
C 0.2341215417 0.3443077977 3.6006890074
C 1.2553485120 1.2831168109 3.6752723384
C 1.4466908003 2.1271216330 2.5856543900
S -0.0229271150 -0.7803305288 4.9772245505
O 0.5284876541 -0.1525524999 6.2005163012
O -1.4436636308 -1.2023420343 4.9748389995
C 0.9915762231 -2.2127812876 4.5647664755
H -1.2259429512 -2.5120506834 -4.0021588725
H -1.2844569219 -0.8324007287 -3.4073092574
H -1.9630665007 -2.1639983032 -2.4348099788
H 1.0171966590 -2.4976091360 -4.3410821375
H 1.1369402658 -0.8003334031 -3.8348997733
H 3.3397270928 -1.8874384157 -3.7111493326
H 2.7057288266 -3.1513408835 -2.6481712064
H 3.8211414696 -1.4158581260 -1.2566832580
H 2.8384890422 -0.1571832921 -2.0132059190
H 1.8314544730 -0.7556663688 0.1620725480
H 1.7930227307 -2.4643787513 -0.2890160220
H 0.2598229436 -0.1831858779 -1.6175618977
H -0.2494380631 -1.6541030963 0.7459126264
H -1.2747847498 -2.4364150038 -0.4288120987
H -2.5472342563 -0.6354220191 0.6414250210
H -2.2777578887 -0.2548494441 -1.0572853034
H -3.5508489561 1.4191834937 -0.8753081170
H -4.1685736496 3.4339122619 -2.1335064805
H -2.5444355767 5.3031026203 -2.3995591594
H -0.2845761457 5.1116337791 -1.3828922263
H -1.3888167619 -0.5143371435 2.4913022046
H 1.8804768273 1.3624700305 4.5567623352
H 2.2285425703 2.8792263784 2.6111560833
H 0.8597581204 -2.9324721143 5.3776374030
H 0.6357481123 -2.6216116477 3.6161892778
H 2.0314005316 -1.8867263748 4.4920803321
