40
CONF3
C -3.8026635944 -3.1458704213 -1.7364147258
C -3.1191374155 -1.9380436605 -1.1605901793
C -2.0797589412 -2.0733923525 -0.2352383554
C -1.4653225060 -0.9630454946 0.3245153651
C -1.8696642010 0.3280314770 -0.0360119073
C -2.9115233246 0.4705608751 -0.9585149883
C -3.5239306335 -0.6474215998 -1.5093413779
C -1.2638647623 1.5174141454 0.5611662079
C -1.8832947056 2.6284856000 1.1067929608
C -0.8367896673 3.3984725520 1.6378363820
N 0.3533477866 2.8414275216 1.4439520745
N 0.0849538754 1.6977792625 0.7813011775
C 1.1741840438 0.9048643249 0.3349756732
C 2.2687168454 0.7311950052 1.1805742777
C 3.3439278710 -0.0355377784 0.7551073414
C 3.3012315570 -0.6232691767 -0.5043988651
C 2.2236801097 -0.4325722825 -1.3622265001
C 1.1537122089 0.3438366100 -0.9416262928
S 4.6875838877 -1.6259142530 -1.0511701904
O 4.6815935312 -1.6273947051 -2.5186875077
O 5.8566760597 -1.2354278743 -0.2554987640
N 4.2328157941 -3.1950834433 -0.5487282253
C -0.9331304601 4.7042689571 2.3579310234
F -0.2884619864 5.6978771153 1.7077142796
F -2.2305515673 5.0733609150 2.4790133710
F -0.4101119139 4.6402457887 3.6022309563
H -4.6411500678 -3.4548916995 -1.1010123582
H -4.2042557883 -2.9389369071 -2.7317559548
H -3.1170145063 -3.9941110110 -1.8096531635
H -1.7523761828 -3.0668088164 0.0582430373
H -0.6708741488 -1.0960364326 1.0516545981
H -3.2263973776 1.4660698495 -1.2557399261
H -4.3260159615 -0.5153689921 -2.2300194672
H -2.9435158566 2.8154227668 1.1609850604
H 2.2712598281 1.2070386451 2.1537163151
H 4.2122268963 -0.1728226395 1.3891768158
H 2.2371579024 -0.8636911022 -2.3566587180
H 0.3138759202 0.5231172854 -1.6018727200
H 4.9171876853 -3.5419476784 0.1173336641
H 4.1856739513 -3.8018808524 -1.3623552098
