44
CONF22
C -0.3592616081 -2.9103281333 0.3011271041
C -1.2449570071 -1.8224581435 -0.3264727197
C -2.6187515773 -1.8466478598 0.3465610017
C -1.3764026289 -2.0729745223 -1.8411163833
C -0.0577763622 -1.5817617911 -2.4581038912
C 0.5399068837 -0.5653906386 -1.4464103805
C 0.9643043826 0.7399759004 -2.1424343092
C 1.6722441408 1.7312152392 -1.2578568918
C 1.0748996295 2.9426293340 -0.9014078781
C 1.7114706460 3.8435028199 -0.0508706671
C 2.9674495439 3.5183139798 0.4434771658
Cl 3.7850277322 4.6458982730 1.5276183536
C 3.6007460656 2.3292074291 0.1007905473
C 2.9455739579 1.4470240656 -0.7521096437
C -0.5284687321 -0.4246171434 -0.3241586858
O -1.4407610929 0.5999234786 -0.7397683164
C 0.1430355017 -0.0265252595 1.0023738448
N -0.7864399866 0.0552734493 2.1269788535
C -0.7981300867 -0.6422354089 3.2771796186
N -1.8363317819 -0.2807388559 4.0269724417
C -2.4425743138 0.6665956545 3.2633782715
N -1.8394156245 0.9106257179 2.1044431318
H -0.8185767860 -3.8895473464 0.1294587694
H 0.6453085271 -2.9326180213 -0.1316226138
H -0.2616373292 -2.7808818066 1.3834589342
H -3.1082106480 -2.8009374156 0.1206654407
H -3.2642221188 -1.0465009729 -0.0269450927
H -2.5513051895 -1.7666033632 1.4358294268
H -2.2160889537 -1.4852118199 -2.2265224689
H -1.5837111040 -3.1273019330 -2.0513796566
H -0.2243998297 -1.1094692586 -3.4312513157
H 0.6415456665 -2.4079408671 -2.6187789044
H 1.4343047740 -1.0005533478 -0.9868995154
H 0.0872902861 1.2077711266 -2.5976218102
H 1.6388373097 0.4518231061 -2.9589593860
H 0.0878823782 3.1844320703 -1.2836080596
H 1.2355780934 4.7788412920 0.2219876930
H 4.5864067506 2.0975044338 0.4888085981
H 3.4360910417 0.5158847356 -1.0232063847
H -1.9812359301 0.8417701759 0.0300759815
H 0.6161207823 0.9521389346 0.8855612488
H 0.9113637491 -0.7520712410 1.2775160648
H -0.0470200697 -1.3818576918 3.5224367059
H -3.3397093147 1.1948211280 3.5608058780
