53
CONF111
C -0.6387149320 -0.8404331084 -4.1342093575
N 0.3092368256 -1.4809546112 -3.2149419832
C 1.6748968335 -1.2394704701 -3.7158971491
C 2.7225988108 -1.9401300569 -2.8639133058
C 2.6201077989 -1.4610178033 -1.4208469123
C 1.1914335476 -1.6382618188 -0.9148659224
C 0.1673225022 -0.9634979573 -1.8334506418
C -1.2645291479 -1.1797372589 -1.3242853539
C -1.4821261466 -0.7829457610 0.1380888347
N -0.9489557878 0.5530008322 0.4368524663
C -1.3818296761 1.6596108877 -0.3200870700
C -2.6250239889 1.6790643523 -0.9616189554
C -2.9986028644 2.7709712362 -1.7407380894
C -2.1610007021 3.8759866241 -1.8612838648
C -0.9424317609 3.8909237941 -1.1864300243
C -0.5518978817 2.7842275959 -0.4395141993
S 1.0462389080 2.7524760342 0.3468697206
C 0.6063152402 1.8274870670 1.7969989973
C -0.3391448320 0.7898372899 1.6723840135
C -0.6250113538 0.0150368849 2.8020808349
C 0.0585346562 0.2637339572 3.9880494379
C 0.9942888199 1.2822890643 4.1163652857
C 1.2469419278 2.0817811971 3.0056636745
S -0.2902370478 -0.7808766365 5.4081383150
O 0.0152264399 -0.0096050234 6.6356254066
O -1.6499881295 -1.3478422154 5.2454265405
C 0.9021614540 -2.1258674967 5.2726554760
H -1.6650682323 -1.1586616019 -3.9364913539
H -0.3940961879 -1.1360030037 -5.1591167646
H -0.5987354502 0.2653715984 -4.0785378326
H 1.7224206913 -1.6024307856 -4.7491584154
H 1.8947053318 -0.1510787320 -3.7410164391
H 3.7178895142 -1.7382469308 -3.2763198756
H 2.5602264513 -3.0251075259 -2.9092025289
H 3.3226136294 -2.0002134565 -0.7752455523
H 2.8885010861 -0.3959906490 -1.3726719651
H 1.1074532759 -1.2148500922 0.0914689399
H 0.9478283719 -2.7078345469 -0.8436323457
H 0.3766025505 0.1281269044 -1.8358546654
H -1.5185860085 -2.2442426840 -1.4097295210
H -1.9699310571 -0.6352156613 -1.9540526664
H -0.9487980518 -1.4834724412 0.7835895263
H -2.5486686903 -0.8674414307 0.3932261155
H -3.3031492571 0.8406853455 -0.8544421611
H -3.9594747267 2.7568217496 -2.2450458390
H -2.4543932327 4.7281340533 -2.4649805789
H -0.2841552247 4.7515269484 -1.2542483827
H -1.3751754321 -0.7653953722 2.7662603681
H 1.5060484014 1.4589126410 5.0548987092
H 1.9649110380 2.8928162407 3.0719312082
H 0.7178103054 -2.7896570792 6.1220991022
H 0.7307852538 -2.6428336221 4.3258705124
H 1.9066262216 -1.6995066611 5.3172865441
