40
CONF10
C 2.7858778210 -2.8509192581 -0.7733719602
O 3.9033992363 -2.2509261091 -0.0739258966
C 3.8785115899 -0.9298386092 0.1167953943
C 4.9540649483 -0.3565764808 0.7962032955
C 4.8820421976 1.0215290541 0.9737004555
N 3.8549350447 1.7634630042 0.5294284635
C 2.8953687095 1.0982767815 -0.1018449333
N 2.8462959674 -0.2188196275 -0.3399704094
N 1.8377934440 1.8876496794 -0.5453476288
C 0.6649894059 1.5551355112 -1.2073082099
O -0.2069409480 2.3911389474 -1.4040176676
N 0.5682586702 0.2428594338 -1.6287525945
S -0.9186540623 -0.3941003767 -2.1429728237
O -1.3260204780 0.2636530609 -3.3859873090
O -0.6879325478 -1.8407393749 -2.1158042652
C -2.0528174651 0.0438893522 -0.8866527155
C -2.0894044742 -0.3908187129 0.4367027820
N -3.0605416993 0.1817444097 1.1476814857
C -3.6727695871 1.0209407858 0.2892785419
N -3.0784954363 0.9825139653 -0.9784757291
C -3.5149759044 1.7723878121 -2.0070357030
C -4.5737575667 2.6087093405 -1.7855219415
C -5.2068373066 2.6614280937 -0.5267056058
C -4.7607832209 1.8727312509 0.5075045374
Cl -0.9960214155 -1.5153439434 1.1499275060
O 5.8152736215 1.7512310220 1.5991250892
C 6.9694177840 1.0622887535 2.1219853079
H 3.0128404730 -3.9157655176 -0.8018191894
H 2.7108549633 -2.4507944718 -1.7882293058
H 1.8543102624 -2.6742759012 -0.2287512335
H 5.7693150016 -0.9726547633 1.1458650729
H 1.9024161381 2.8670367328 -0.2997552046
H -2.9895190234 1.6873933456 -2.9464334345
H -4.9148765338 3.2325426180 -2.6024736303
H -6.0470312794 3.3296889544 -0.3756835613
H -5.2155201032 1.8866430599 1.4907400963
H 7.5234731624 0.5738072201 1.3142437905
H 7.5833207740 1.8367210606 2.5796561064
H 6.6692132599 0.3279740946 2.8760629741
H 1.2751542360 -0.4178022368 -1.2653424933
