33
CONF51
C -4.9972553540 1.4865055583 -0.1025677236
C -3.6462338617 0.8934930635 0.2730893984
C -3.8474558397 -0.1782085776 1.3460881985
O -3.9586884389 0.0875034143 2.5203987394
O -3.9587135116 -1.4435233378 0.9078832742
O -3.0824126696 0.3408366016 -0.9221332652
C -1.7341533234 0.0339876091 -0.9219808191
C -0.9043798913 0.1125381693 0.1930800919
C 0.4448021237 -0.2285398401 0.0770136171
C 0.9467022303 -0.6415713886 -1.1482978576
C 0.1171936675 -0.7289794986 -2.2644814183
C -1.2216065203 -0.3941102283 -2.1490773856
O 2.2695976662 -1.0213147441 -1.3405168882
C 3.1899737169 -0.6500487735 -0.3881525896
C 3.6582145654 0.6643687407 -0.3006948876
C 4.6352994038 1.0136943238 0.6235245372
C 5.1427060117 0.0214996473 1.4539665961
C 4.7039627757 -1.2947972273 1.3810055546
C 3.7204861855 -1.6199888189 0.4543827305
Cl 6.3802285776 0.4530832016 2.6214151572
Cl 3.0256802210 1.8842882862 -1.3766735175
H -4.8512632437 2.2797472590 -0.8392233733
H -5.4719613823 1.9084424802 0.7861967825
H -5.6490410493 0.7169579157 -0.5257236851
H -2.9926321198 1.6692612803 0.6879133467
H -3.8421974394 -1.4646161859 -0.0591272168
H -1.2714079745 0.4289310154 1.1621205287
H 1.0862971888 -0.1684178840 0.9494027291
H 0.5290641640 -1.0535052826 -3.2141053215
H -1.8818037196 -0.4516994453 -3.0080694816
H 4.9950473469 2.0336545123 0.6831027926
H 5.1158913361 -2.0529366714 2.0362274142
H 3.3500591739 -2.6365349788 0.3747352438
