27
CONF42
C -4.6539725945 -0.4409768543 -0.1103783505
C -3.4510901162 0.4526039065 -0.3948257165
C -2.0680007763 -0.1723817268 -0.0244213316
C -0.8434433839 0.5046961615 -0.7339530810
C 0.5289607470 0.1918556854 -0.0353767946
C 1.7685249135 0.4623520923 -0.9507973599
C 3.1645832178 0.5773180468 -0.2338506156
C 3.6142729023 -0.6100087214 0.6726661645
F 3.5012871983 -1.7738935624 0.0207152573
F 4.8951751841 -0.4273354499 1.0165558810
F 2.8746991980 -0.6566744959 1.7882189959
F 3.1896389804 1.7025119417 0.5114670713
F 4.0792408883 0.6949503336 -1.2259324932
F 1.5830258877 1.6447033794 -1.5875676951
F 1.8577777433 -0.5208782687 -1.8714199151
F 0.5548358410 -1.1145545746 0.3235749571
F 0.6292357530 0.9592014892 1.0726609339
F -0.7871807260 0.0725809054 -2.0150792412
F -1.0198296134 1.8461401185 -0.7295172138
F -1.8861550978 -0.0811777118 1.3164814307
F -2.0829584089 -1.4831957460 -0.3726683611
F -3.5674775015 1.6313567458 0.2883987798
F -3.4384461241 0.7483272044 -1.7323077867
O -4.7076870243 -0.8554527821 1.2394670346
H -4.5792439035 -1.3331485341 -0.7366513851
H -5.5375486820 0.1348071380 -0.4183012283
H -5.0085656071 -0.1120555858 1.7785515157
