46
CONF7
C 4.1964832963 0.6839048620 -1.0610213839
C 2.7042046843 0.4551982113 -1.2759847305
C 2.0409485450 1.4764670759 -2.2743111939
N 0.6517238037 1.5612611927 -1.8857311380
C 0.3312262841 1.4943652040 -0.4533181158
S 1.8078974557 0.7464073209 0.3512964563
C -0.9066086442 0.6063670312 -0.8276200646
C -0.4164498234 0.7701008894 -2.2838941087
O -0.7694866896 0.3742024967 -3.3706308574
N -2.2305737099 1.0387636484 -0.5143849308
C -2.9964926260 0.5487539996 0.4985457236
O -4.1149872002 0.9995285236 0.7431285636
C -2.4041039467 -0.5720762330 1.3019728286
C -2.8705646245 -1.8812975435 1.1287962050
C -2.3776747040 -2.9167738392 1.9281697142
C -1.4233375998 -2.6179502540 2.8959174073
C -0.9404905389 -1.3270341590 3.0872557466
C -1.4351970897 -0.3022453580 2.2765260645
O -1.0430760181 0.9997739225 2.3514491093
C -0.1213020894 1.3605915470 3.3931882483
O -3.7889494629 -2.0404368966 0.1392833000
C -4.3008460823 -3.3625460450 -0.0899112510
C 2.6842119672 2.8532276631 -2.2153676464
O 3.6775359634 2.9618871167 -3.1113846258
O 2.3538399286 3.7318652926 -1.4505675740
C 2.4451505603 -0.9673906828 -1.7715058216
H 4.4087832780 1.6830893039 -0.6716205695
H 4.5838967006 -0.0517491115 -0.3508779378
H 4.7272745758 0.5508068043 -2.0090893033
H 0.0900137988 2.4515890678 0.0135487762
H -2.5996190813 1.8473972876 -1.0004913587
H -2.7216476590 -3.9352430747 1.8047271419
H -1.0408743627 -3.4192765666 3.5204972958
H -0.1967784466 -1.1330092224 3.8488980592
H -0.5552769571 1.1602581947 4.3789594089
H 0.0503719931 2.4303253837 3.2724177654
H 0.8253720848 0.8205618475 3.2853458673
H -3.4973226225 -4.0474828795 -0.3823708085
H -5.0143749502 -3.2612522066 -0.9076119141
H -4.8110300368 -3.7436738839 0.8015400395
H 2.7923969646 -1.6891321210 -1.0278886164
H 2.9918909924 -1.1362309913 -2.7063684376
H 1.3825968154 -1.1513623787 -1.9521157799
H -0.7532860242 -0.4281007809 -0.5036170837
H 2.1173202182 1.0827756765 -3.2926117554
H 4.0936391797 3.8367000017 -3.0112997775
