21
CONF41
C 1.8425949930 -0.8270655508 1.6243989262
C 1.3080829778 -0.4716739596 0.2346729607
C 0.1420440443 0.4818522233 0.3052197668
C -0.4535140179 0.8375460909 -1.0862180541
C -1.6014336136 1.8918623368 -1.1203611739
F -1.1702274207 3.0896596174 -0.7035562508
F -2.6337503223 1.5112204635 -0.3559452422
F -2.0362937035 2.0174586116 -2.3867095797
F -0.9407740414 -0.3003707948 -1.6461315477
F 0.5415699810 1.3165659764 -1.8781435596
F 0.5061949030 1.6615759562 0.9072804940
F -0.8781578020 -0.0449788784 1.0581678899
C 3.0650043244 -1.7357678517 1.5483467058
O 2.7687972892 -3.0292090716 0.9997095367
H 2.1340615501 0.0862478119 2.1560267648
H 1.0639059584 -1.3221486797 2.2140210895
H 0.9688044519 -1.3689658788 -0.2937450975
H 2.0923716446 -0.0010528842 -0.3678694229
H 3.4382956320 -1.9152469737 2.5614258705
H 3.8654475421 -1.2493485671 0.9733205589
H 2.7547960084 -2.9556991479 0.0382452960
