43
CONF62
C 0.5203626509 -1.8411984180 -4.1572973784
C 1.5630100445 -2.0366417219 -3.0773710594
O 1.3163685721 -1.1863073429 -1.9284615403
N 0.2502204645 -1.6906698485 -1.2063583560
C -0.0941572738 -0.9422120136 -0.2289436461
C -1.0923700689 -1.3918432272 0.7513687668
C -2.1607286228 -0.5387268974 1.1069336930
C -3.0951626719 -0.9381802713 2.0625448679
C -2.9751976882 -2.1841307233 2.6661585743
C -1.9254004219 -3.0251150899 2.3305896604
C -0.9768254365 -2.6469387727 1.3744886800
O 0.0323120853 -3.5046874592 1.0534704875
C 1.2793273060 -3.2111712021 1.7218173829
Cl -1.7742026014 -4.5831854901 3.1210607098
O -2.2110279294 0.6389663064 0.4437759120
C -3.2705827231 1.5534684012 0.7641717750
O 0.5350997312 0.2591683176 0.0821621385
C 0.4296501319 1.3113153940 -0.8029644126
O -0.2312943826 1.2651641438 -1.8117532447
C 1.2046786997 2.4804940280 -0.3353866866
C 1.9635321222 2.4577214776 0.8408202141
C 2.6710817056 3.5898991864 1.2273218193
C 2.6262573834 4.7443100579 0.4479415050
C 1.8712561361 4.7686862119 -0.7241510083
C 1.1622126074 3.6415460620 -1.1163406565
H 0.4864136262 -0.7957160545 -4.4775762599
H 0.7706171545 -2.4623966532 -5.0232497318
H -0.4701102146 -2.1346710979 -3.7983419033
H 1.6125304713 -3.0781220712 -2.7398441933
H 2.5546594835 -1.7232991123 -3.4155766263
H -3.9242156602 -0.2987889687 2.3358164952
H -3.7036045148 -2.4985395806 3.4051897728
H 1.9856261152 -3.9751527792 1.3949627982
H 1.1487002145 -3.2600373349 2.8088357441
H 1.6477586778 -2.2189827680 1.4352180195
H -3.1020403502 2.4234699089 0.1295549122
H -4.2473316970 1.1120870797 0.5376872486
H -3.2260424402 1.8481368739 1.8184418176
H 2.0000436969 1.5611092945 1.4477215225
H 3.2593705902 3.5716534929 2.1389986085
H 3.1806097137 5.6260366562 0.7538716108
H 1.8367895446 5.6674270466 -1.3312533686
H 0.5718056997 3.6460555462 -2.0260545428
