47
CONF92
C -4.0282381548 1.3866182700 1.6504871788
C -2.5525197086 1.7068265424 1.5765055816
C -2.0696913290 3.1186132216 1.8182694732
C -2.1179351517 2.5730108875 0.3911860695
C -0.8468840072 2.3102177515 -0.2978147415
O 0.2569555801 2.2325816979 0.1974664995
O -1.0703152883 2.1313413081 -1.6377597144
C 0.1077201479 1.7470100008 -2.3944332548
C -0.2016232118 2.0728586458 -3.7863557834
N -0.4140589002 2.3078527232 -4.8966944405
C 0.4161800604 0.2737649412 -2.2297703208
C -0.5626197324 -0.6780546606 -2.5192028826
C -0.2735267493 -2.0256944344 -2.3359534666
C 0.9763305560 -2.4318619528 -1.8758423658
C 1.9396446070 -1.4664758800 -1.5896471876
C 1.6679998759 -0.1116025428 -1.7636402393
O 3.2181983906 -1.7829281920 -1.1855847912
C 3.4251728444 -2.9356664186 -0.4379687193
C 4.4786488253 -3.7585705798 -0.8177965283
C 4.7724877285 -4.8807605290 -0.0464022882
C 4.0154729327 -5.1761264945 1.0849488954
C 2.9631884314 -4.3374974128 1.4512570290
C 2.6631989385 -3.2081628474 0.6954661095
C -2.9776143697 4.2093994014 2.1794447835
C -2.7095932926 5.1735243646 3.0603885621
Cl -3.8537790213 6.4382169536 3.4328889270
Cl -1.2137984994 5.3025001968 3.9454178733
C -1.6627215465 0.5810246075 2.0505963672
H -4.2293798395 0.4581568089 1.1063274448
H -4.6539299597 2.1716221648 1.2214899928
H -4.3232830236 1.2384921709 2.6951767873
H -1.0650865057 3.1780397229 2.2255006447
H -2.9251116378 2.9149546668 -0.2477792368
H 0.9645381357 2.3533754960 -2.0798503648
H -1.5388324243 -0.3687147675 -2.8789421714
H -1.0246221811 -2.7751756242 -2.5632897937
H 1.1996416369 -3.4848077043 -1.7444943467
H 2.4294117279 0.6236077986 -1.5244847967
H 5.0553941328 -3.5151649393 -1.7039788782
H 5.5942940904 -5.5275637889 -0.3370839751
H 4.2447903489 -6.0532317734 1.6810212529
H 2.3748948910 -4.5561431314 2.3369562480
H 1.8515474000 -2.5458083853 0.9789485829
H -3.9501570744 4.2529124564 1.6985240874
H -1.8092581947 -0.3055864273 1.4232495711
H -1.9350937853 0.3172637724 3.0779146801
H -0.6060371008 0.8518122213 2.0323834466
