47
CONF5
C 3.3665640326 -4.2373074970 -1.4361294159
C 3.6885561852 -2.8499833308 -1.0469165494
C 2.9411786875 -1.7105048073 -0.8807717957
C 3.8946125560 -0.7187140408 -0.4787237306
N 5.1087237714 -1.2222434706 -0.4174423697
O 4.9741634386 -2.5801670882 -0.7642702049
C 3.7003000255 0.7096365948 -0.1847438527
C 4.2957881020 1.2772566114 0.9474936117
C 4.1296633938 2.6318248515 1.2158698974
C 3.3715221283 3.4273754637 0.3596672824
C 2.7806103983 2.8663318959 -0.7710030218
C 2.9422681381 1.5131270480 -1.0451466530
C 1.4761268223 -1.6544440799 -1.0395761913
O 0.8776793078 -2.4108291108 -1.8064228367
N 0.8332282658 -0.7305188725 -0.2662468189
C -0.5711067652 -0.5033528197 -0.3588217444
C -1.4902248990 -0.7643337500 0.8853712934
N -1.8437267642 0.6615681107 0.8617748623
C -1.0750349306 0.9554891087 -0.2569541601
O -0.9146909504 1.9780605883 -0.8810646052
C -3.2150831499 1.0227367471 1.1361605771
C -4.0970955952 -0.1083933664 0.4866981901
S -3.0820797891 -1.6742561115 0.7061090783
C -5.4482968953 -0.3028412739 1.1668638672
C -4.2846789124 0.1961918841 -0.9995503566
C -3.4311315166 1.1448677724 2.6364351629
O -2.8255872680 0.5110651506 3.4706015711
O -4.3952727384 2.0378475816 2.9159933740
H 4.0460870729 -4.9356938376 -0.9423643300
H 3.4738295207 -4.3565127089 -2.5201406875
H 2.3327368409 -4.4665101917 -1.1758429922
H 4.8752189226 0.6502498543 1.6168579250
H 4.5891672053 3.0655453658 2.0982371167
H 3.2400573619 4.4834042721 0.5729692859
H 2.1940320616 3.4837539379 -1.4434810154
H 2.4909589298 1.0801434278 -1.9324641848
H 1.3677262752 -0.1774766570 0.3887375008
H -0.9628383076 -0.9889040153 -1.2574099281
H -0.9692441163 -1.0962045568 1.7864895375
H -3.4474287158 1.9784048634 0.6560024279
H -5.3450231383 -0.5469131505 2.2273824311
H -5.9935118595 -1.1154963476 0.6789663262
H -6.0430850851 0.6107037080 1.0673547620
H -3.3309011898 0.3513369976 -1.5110994987
H -4.7982231906 -0.6363441929 -1.4871037286
H -4.8943454343 1.0997550487 -1.1147505451
H -4.5321889415 2.0512685940 3.8798303317
