33
CONF41
O -3.5215031764 3.2822835993 -2.4815401654
C -3.2196416560 2.1912953399 -1.7388611669
C -4.2170877386 1.3685259425 -1.2094747523
C -3.8405689208 0.2636967302 -0.4591076018
O -4.7906088821 -0.5483460223 0.0283177472
C -2.4664210608 -0.0271901442 -0.2208441118
C -2.0716976727 -1.2360507449 0.4458621656
O -2.8949790015 -2.0551761690 0.9045625118
C -0.5903633928 -1.4995789462 0.5200496367
C 0.1900892240 -0.1931948509 0.5626013248
O -0.1678558412 0.6362424916 -0.5877969626
C -1.4943863659 0.8492455440 -0.7679643245
C -1.8586812374 1.9476175288 -1.5252670985
C 1.6786322490 -0.3803969981 0.5363723462
C 2.3150525036 -0.9105036386 -0.5851273145
C 3.6942942298 -1.0949149722 -0.5815137741
C 4.4526958039 -0.7656418004 0.5384694832
O 5.8064885450 -0.9261615884 0.6039348222
C 3.8154327177 -0.2365354045 1.6724073785
O 4.6047220002 0.0705476186 2.7437838511
C 2.4384481335 -0.0409790291 1.6573076541
H -4.4818134145 3.3734940289 -2.5569703257
H -5.2681483316 1.5739332251 -1.3847625020
H -4.3053851105 -1.2932124707 0.4854866304
H -0.3670249909 -2.1011453338 1.4054539631
H -0.3028030803 -2.0847485687 -0.3644143694
H -0.0975046050 0.3693184798 1.4616958695
H -1.1083420493 2.6163320081 -1.9292704708
H 1.7424574555 -1.1705358505 -1.4693601762
H 4.1958405418 -1.5001009512 -1.4566374433
H 6.1234219292 -1.2819183270 -0.2369731938
H 4.0505351770 0.4212995730 3.4536675199
H 1.9567069124 0.3824990023 2.5359126376
