63
CONF603
C 8.1762436502 -3.3531909594 -3.1046654495
C 7.7488048876 -3.4391643096 -1.6417923280
N 6.4991828185 -2.7132907653 -1.3909874806
C 6.5294486253 -1.2514135319 -1.3431589802
C 5.4701197890 -0.7493996111 -0.3935309666
N 4.1424085681 -1.2243883048 -0.8299851901
C 4.0313721135 -2.4836013441 -1.3680565207
O 2.9896742267 -2.9814230046 -1.7772117046
C 5.3170028651 -3.3558109263 -1.4471208844
O 5.1776901662 -4.5692897473 -1.5754904041
C 3.0371367477 -0.3652002546 -0.4903790611
O 3.2494418937 0.6549837348 0.1572896319
N 1.8285293656 -0.7503010827 -0.9312789335
C 0.6390069956 0.0073005008 -0.5853085748
C 0.1909071848 -0.2621250227 0.8459004666
C 0.4120763691 0.6869446067 1.8432986979
C 0.0634020516 0.4108044385 3.1631685314
C -0.5146181844 -0.8120176854 3.4918523882
C -0.7465844762 -1.7594643539 2.4958284748
C -0.3930006996 -1.4872923621 1.1782556162
C -0.4496730632 -0.4022837063 -1.5887297526
O -0.3064801082 -1.3747944240 -2.3254196700
N -1.5871480559 0.3394347374 -1.6097994756
C -1.9343408038 1.4619772045 -0.7934415352
C -3.0717328569 1.3073830420 0.2705225013
N -3.8289612764 2.3432546597 -0.4593537975
C -2.8632707592 2.5210262142 -1.4371768619
O -2.8141142676 3.2327565897 -2.4115659334
C -4.5790590883 3.3257971659 0.3026596364
C -4.5589417917 2.8013114443 1.7858488957
S -2.8847095293 1.9722828421 1.9647065030
C -5.6804688697 1.7755281723 1.9596763077
C -4.6786158184 3.9060716529 2.8279221429
C -3.9350660050 4.7040624528 0.1902623897
O -4.8712992033 5.6673775717 0.2159110811
O -2.7453559378 4.9096784267 0.1231119877
H 9.1079897926 -3.9078592242 -3.2478685108
H 8.3469797722 -2.3159933535 -3.4082260456
H 7.4106644976 -3.7871508117 -3.7545511960
H 7.5900672098 -4.4785007373 -1.3472471259
H 8.5150493961 -3.0088869058 -0.9881300464
H 6.3900670489 -0.8216675744 -2.3448590111
H 7.5101598103 -0.9414825961 -0.9722071819
H 5.6690700454 -1.0899335579 0.6299964794
H 5.4535234916 0.3400730531 -0.3989148998
H 1.7268826422 -1.6233949281 -1.4424595710
H 0.8620830220 1.0751811076 -0.6942186249
H 0.8642583224 1.6400762747 1.5856722676
H 0.2393859752 1.1555549024 3.9330776715
H -0.7891556485 -1.0255023185 4.5200953187
H -1.2022564794 -2.7124721060 2.7457397091
H -0.5649543592 -2.2338142880 0.4068362121
H -1.0569466022 1.9597495213 -0.3752456797
H -3.5491111363 0.3228656397 0.2667496827
H -5.6226573760 3.3931715632 -0.0225808847
H -5.6207820235 1.3240628763 2.9528706294
H -5.6278460147 0.9813291878 1.2102134287
H -6.6497324252 2.2771091515 1.8598674623
H -5.6262916585 4.4370510610 2.6930559749
H -3.8571249278 4.6252973116 2.7649432031
H -4.6769950497 3.4658921376 3.8287108174
H -2.3001366105 -0.0114787204 -2.2378152271
H -4.4240347578 6.5317697612 0.2020331872
