41
CONF1
C 0.3097058822 -2.0690967311 -2.6773440659
C -0.1304079141 -1.2810970292 -1.4973364566
C -1.2312517534 -1.4572126451 -0.7016541520
C -1.2146999739 -0.4462817714 0.3198468572
C -0.0463923558 0.3163822357 0.1410310607
N 0.6328540693 -0.2183333979 -0.9748844997
C 1.8026655741 0.2815166618 -1.5767841644
O 1.9714973044 0.2299048166 -2.7818497357
C 2.8519164039 0.8124006550 -0.6677215804
C 3.6916497917 1.8214340915 -1.1460679102
C 4.7384397084 2.2946830477 -0.3692530977
C 4.9566988113 1.7254768138 0.8823762480
C 4.1506890447 0.7002932674 1.3681298057
C 3.0922167126 0.2527875324 0.5902587694
Cl 6.2813082535 2.3068215636 1.8644485330
C 0.2025426486 1.4398152453 0.9262549070
C -0.7060470812 1.7484030349 1.9253446077
C -1.8603894453 0.9706494222 2.1326851666
C -2.1338344023 -0.1292365221 1.3265403339
O -2.6673696669 1.3993964763 3.1472576118
C -3.8683057352 0.6681288377 3.3734016535
C -2.3024991279 -2.4945653439 -0.8418272819
C -3.5685827593 -1.8644809060 -1.3840739516
O -4.5219887792 -1.5237251795 -0.7254409034
O -3.4941556468 -1.6888729482 -2.7278635887
H 0.1957683883 -1.4998609161 -3.6035979948
H -0.2913003166 -2.9771120711 -2.7520493197
H 1.3638323161 -2.3523721593 -2.6057330295
H 3.5126956951 2.2279054465 -2.1355911920
H 5.3841056480 3.0881268820 -0.7265579679
H 4.3509440771 0.2634882237 2.3392444228
H 2.4525733087 -0.5404285596 0.9620081661
H 1.0699338939 2.0695130520 0.7756061919
H -0.5499377649 2.6117254465 2.5621379405
H -3.0433387958 -0.7078723651 1.4251827768
H -3.6545006916 -0.3737776558 3.6465302351
H -4.5196455118 0.6858063549 2.4898127957
H -4.3686136382 1.1657775337 4.2051747280
H -2.5459445063 -2.9243590802 0.1338311465
H -1.9837616883 -3.2952691831 -1.5135574011
H -4.3090702997 -1.2364816635 -2.9972751989
