35
CONF811
C -0.3337681850 2.3551798120 0.0507089696
C -0.8617730752 3.7559197397 0.2314118605
C -1.9439196410 3.9280423235 1.2686199024
Br -3.5641447679 2.9051838331 0.7211223779
Br 0.6257099866 4.9627556022 0.8283284160
O 0.0137108626 1.8228822632 1.3505121023
P 0.5812779768 0.3322611108 1.4986709235
O 0.8313112249 0.0050506488 2.9189305847
O 1.8211506931 0.2704690530 0.4945858597
C 3.1287802890 -0.1833412315 0.9101501850
C 3.4887645837 -1.4579469926 0.1812525097
C 4.8919421233 -1.9408533235 0.4576052915
Br 6.2158408307 -0.6966931511 -0.3645598184
Br 2.2829272223 -2.9296713445 0.8085121308
O -0.4554112998 -0.5958133727 0.7021528432
C -1.7513534573 -0.8540979038 1.2930998951
C -2.4890965836 -1.8244864027 0.4065240079
C -1.7301943851 -3.0697737647 0.0178919195
Br -1.3543897167 -4.1619517389 1.6403471581
Br -2.9423956434 -0.9286869729 -1.3319728093
H 0.5409997287 2.3551109686 -0.6055015971
H -1.1244481692 1.7406283586 -0.3987794024
H -1.1593076044 4.1549460449 -0.7394704662
H -1.6587382367 3.5309657711 2.2408274772
H -2.2731466103 4.9617005185 1.3436894422
H 3.1658684821 -0.3215976709 1.9949428037
H 3.8343856227 0.6007162297 0.6183112555
H 3.2843103567 -1.3795449221 -0.8873832342
H 5.1254466639 -1.9652756180 1.5219229139
H 5.0876513774 -2.9035382110 -0.0082126573
H -1.6174372520 -1.3146291987 2.2794673479
H -2.3162787886 0.0777115358 1.3998826170
H -3.4578685268 -2.0554436688 0.8518266735
H -0.7571357035 -2.8457938960 -0.4159389088
H -2.3161374410 -3.7164478586 -0.6308883624
