38
CONF4
C 2.7417811177 1.1835973377 -2.1368927385
C 2.7969781935 0.1322967093 -1.0507811125
C 3.1043828785 -1.2591809081 -1.5652263229
O 1.4421666375 0.1323028424 -0.4437842361
C 1.3217142412 -0.2780545832 0.8077484479
O 2.2228886895 -0.6702694935 1.5238330985
C -0.1436689899 -0.2104580011 1.3089255543
C -0.9899324496 -1.3060801309 0.6563166097
C -2.3658746684 -1.3050655937 0.9039453627
C -3.1828458078 -2.3149521943 0.4121591953
C -2.6034502801 -3.3348895553 -0.3348524484
C -1.2413562063 -3.3706256535 -0.5903225709
C -0.4388881574 -2.3480088861 -0.0858397674
Br -3.7209945649 -4.7319023169 -1.0280275672
C -0.6879854514 1.1893776547 1.0380858896
C -0.5541897763 2.1860416455 2.0038058146
C -1.0021845536 3.4817810459 1.7571403096
C -1.5786955596 3.7651552036 0.5273403200
C -1.7177759396 2.7946971487 -0.4573409442
C -1.2673673836 1.5064158618 -0.1921104064
Br -2.2047353695 5.5455779910 0.1764978838
O -0.1259060430 -0.4309783285 2.7151723670
H 2.0056126708 0.9099601968 -2.8990312653
H 2.4814957960 2.1607106955 -1.7213489634
H 3.7235552924 1.2580304216 -2.6129064822
H 3.4964650929 0.4204477131 -0.2607908976
H 4.0930992335 -1.2558772241 -2.0336483135
H 2.3659559943 -1.5587941508 -2.3155923860
H 3.1123253655 -1.9914774481 -0.7537716448
H -2.8096133114 -0.5048886278 1.4884904853
H -4.2490047029 -2.3045329171 0.6069030256
H -0.8029799684 -4.1748434336 -1.1695387908
H 0.6262541447 -2.3896577246 -0.2878987161
H -0.1018070750 1.9524808380 2.9603016225
H -0.9005442553 4.2504009885 2.5145299177
H -2.1706725126 3.0316573774 -1.4130212509
H -1.3741999672 0.7449155555 -0.9573709596
H 0.6999971378 -0.9053101614 2.9089019814
