63
CONF145
C 2.5317715801 1.3674396056 1.3519542470
C 1.8562438985 0.0609672186 0.9441868857
N 1.4030498027 0.1119329707 -0.4528683770
C 2.5572650538 0.3173637508 -1.3393774006
C 3.2601333241 1.6366564879 -1.0369847347
C 3.7110899817 1.6498923615 0.4227803822
N 4.4215085773 2.8780964197 0.7777558264
C 3.9433128502 4.1862946672 0.7783254897
C 2.7078718195 4.7388272911 0.4620691274
C 2.5679348847 6.1254781527 0.5742714410
C 3.6265833186 6.9357383841 0.9887727509
C 4.8705677887 6.3857744923 1.3081900434
C 5.0076470867 5.0121940119 1.1969601429
N 6.0868729727 4.1817110253 1.4351645778
C 5.7547736240 2.8634762830 1.1852085011
O 6.4840488813 1.8796882709 1.2989808971
C 0.7061669369 -1.1251420104 -0.8342447848
C -0.6296074932 -1.3270277461 -0.1234405873
C -1.3918145079 -2.5111456587 -0.7172187247
C -2.6857335903 -2.8455853583 0.0459753523
C -3.7022620789 -1.7164924090 0.0805685241
C -3.8831407878 -0.8284920938 -0.9839810241
C -4.8569130304 0.1670723267 -0.9375191673
C -5.6464385553 0.2596583662 0.1945938326
C -5.5022050785 -0.5927667384 1.2756036154
C -4.5224465989 -1.5788416568 1.2050276729
F -6.5968073661 1.2322325242 0.2523330440
C -3.3032853708 -4.1256346046 -0.4949366623
C -3.2172003116 -5.3105753724 0.2397150683
C -3.7404267616 -6.5062290010 -0.2495528048
C -4.3492917672 -6.4905675598 -1.4911621995
C -4.4578209050 -5.3405941733 -2.2554735493
C -3.9304876052 -4.1584302470 -1.7443769546
F -4.8652649264 -7.6507818968 -1.9816520753
H 2.8819830409 1.2926580224 2.3872924895
H 1.8011408989 2.1821856242 1.3019615359
H 0.9951994315 -0.1113625998 1.5958545559
H 2.5608363801 -0.7831877427 1.0976919769
H 3.2850738683 -0.5150516864 -1.2416425050
H 2.2030955671 0.3180340939 -2.3764035271
H 2.5728793092 2.4663714670 -1.2344497921
H 4.1272163749 1.7531062679 -1.6964460105
H 4.4520866864 0.8525079218 0.5589168630
H 1.8725473842 4.1309027621 0.1387168309
H 1.6110946092 6.5763546201 0.3321252396
H 3.4845250052 8.0086778681 1.0652956125
H 5.7000051123 7.0057396278 1.6314941683
H 7.0025282865 4.4652073644 1.7460519762
H 1.3506644122 -2.0119303059 -0.6642030843
H 0.5200311204 -1.0728581821 -1.9151620010
H -0.4784608250 -1.5135165630 0.9465701545
H -1.2242196686 -0.4096319707 -0.2095826778
H -1.6163671458 -2.3282033468 -1.7758410043
H -0.7546560071 -3.4044531053 -0.6911348465
H -2.4033977738 -3.0478824000 1.0864087459
H -3.2560679069 -0.8970781132 -1.8669738110
H -4.9970621614 0.8606948663 -1.7596686648
H -6.1368483341 -0.4821380254 2.1483402023
H -4.3942381473 -2.2570499908 2.0444711546
H -2.7336644693 -5.3042350751 1.2126016184
H -3.6790652373 -7.4283408860 0.3184830286
H -4.9458007204 -5.3728796064 -3.2237893745
H -4.0167513501 -3.2497915229 -2.3326263196
