36
CONF103
C 4.0255377769 2.5158234242 -1.7973813902
C 2.6000726247 2.3609796941 -1.2505869339
C 2.1762643359 0.9265343382 -1.1747815765
C 1.1404671396 0.3937023826 -1.8250166171
C 0.7304689558 -1.0456254915 -1.7440745957
C -0.6889614869 -1.2291778488 -1.1930031098
C -1.0107367753 -0.5893812450 0.1646708708
C -2.5499405628 -0.5636837357 0.1858024344
C -2.9209992397 -0.1638400539 -1.2457854831
C -1.7944501651 -0.7089679606 -2.1029128928
O -1.7698157086 -0.7217092492 -3.3195847620
C -0.3782666459 -1.3237313783 1.3442516658
C -0.6868526464 -0.6360313280 2.6489120506
O -0.5274733677 0.5515821783 2.8570738314
O -1.1625572415 -1.4923892456 3.5718798844
C -1.4672396624 -0.9154489720 4.8678701804
H 4.3296985816 3.5670997028 -1.8055800325
H 4.0918955787 2.1307331699 -2.8200198920
H 4.7407223151 1.9608320060 -1.1808774089
H 1.8940159110 2.9214766572 -1.8744309494
H 2.5603029183 2.8024066224 -0.2450123607
H 2.7885866458 0.2783038795 -0.5429655762
H 0.5250098728 1.0393286828 -2.4555393181
H 1.4390330106 -1.6001930677 -1.1188636738
H 0.7566748229 -1.5001059480 -2.7432975447
H -0.8962922554 -2.3113314008 -1.1125322341
H -0.6408958045 0.4442959731 0.1546747960
H -2.9481935296 0.1218861223 0.9387913064
H -2.9268598028 -1.5700713253 0.4076584131
H -2.9010303358 0.9289011430 -1.3657019568
H -3.8958074367 -0.5118065298 -1.5981748672
H -0.7133175666 -2.3645697402 1.3747004330
H 0.7146727241 -1.3221267894 1.2392975860
H -2.2373085244 -0.1473026840 4.7656061864
H -0.5661997207 -0.4819683331 5.3079685393
H -1.8302244385 -1.7444242477 5.4738885909
