47
CONF51
C -6.3508933181 -3.2463874555 -0.2809972993
O -6.6337662189 -1.9315267534 0.2478697981
P -5.4990769247 -0.7977030753 0.1988735343
S -4.4868483763 -0.6159677937 -1.4354352692
O -6.3221715736 0.4805666252 0.7125423844
C -7.0757625319 1.2704062579 -0.2354358736
O -4.6686077098 -1.1716446795 1.5422646924
C -3.4764073146 -0.5102456685 1.8492340919
C -3.5209661487 0.6949127732 2.5339632237
C -2.3277743564 1.3272226891 2.8662712320
C -1.1052309599 0.7398126806 2.5351726964
C -1.0806958384 -0.4847444023 1.8618913164
C -2.2694894509 -1.1041916954 1.5037775276
S 0.3899646888 1.5570530249 3.0719642803
C 1.4917224814 1.2972849457 1.6902651262
C 1.0754453721 1.4893102367 0.3698456607
C 1.9737049738 1.3186405433 -0.6728603676
C 3.2943640329 0.9916033331 -0.3902799598
C 3.7316373218 0.8191278466 0.9152979087
C 2.8187522252 0.9573502983 1.9556926880
O 4.1692206567 0.8917891137 -1.4702089515
P 5.0419670998 -0.4444188738 -1.7749952556
S 4.2142524896 -2.1605202170 -1.5467270646
O 6.3352348848 -0.1167073909 -0.8530538217
C 7.3574771483 -1.1301612786 -0.7177287503
O 5.5136646848 -0.1465513410 -3.2778918219
C 6.1047354139 1.1322265843 -3.6165901019
H -6.0074651168 -3.1733155272 -1.3170936188
H -7.2911550558 -3.7961673783 -0.2289825118
H -5.5934287589 -3.7452870103 0.3318529305
H -6.4276349678 1.6039105170 -1.0509354273
H -7.9114749815 0.6868171870 -0.6337747820
H -7.4532738085 2.1259368625 0.3255275868
H -4.4792736013 1.1354670753 2.7840564347
H -2.3467704045 2.2831187236 3.3791753294
H -0.1330047836 -0.9472410354 1.6082292751
H -2.2701992840 -2.0444126568 0.9643247864
H 0.0457462847 1.7564513492 0.1581571510
H 1.6650712989 1.4431536627 -1.7046809088
H 4.7655413406 0.5615495966 1.1129767913
H 3.1395550048 0.7950554702 2.9792552673
H 6.9306041777 -2.0433451894 -0.2929837401
H 7.8112599746 -1.3522368004 -1.6895157693
H 8.1069308304 -0.7105441703 -0.0453253067
H 6.9143448328 1.3810135549 -2.9236577650
H 6.4982541897 1.0186047766 -4.6272454232
H 5.3419189655 1.9149348872 -3.5950359272
