43
CONF46
C 0.9910762327 1.3989346603 1.3951937151
C 2.4126159477 1.7949284887 1.0522029213
O 3.0946543996 0.6932815240 0.3843444027
C 3.5843911756 -0.2694465522 1.1772713792
O 3.6312549028 -0.2336799424 2.3856963651
C 4.1439161129 -1.4388047778 0.3617853032
C 5.5969289033 -1.1736731642 0.0009524422
O 3.4426701490 -1.6410277440 -0.8641797954
C 2.0893026327 -1.8332659477 -0.7950450151
C 1.4000941662 -1.6953605443 -2.0023691095
C 0.0230484722 -1.8411693807 -2.0370955491
C -0.6591188259 -2.1217971971 -0.8612615251
C 0.0100855990 -2.2817922506 0.3368011733
C 1.3956341630 -2.1413606351 0.3764542432
O -2.0508099434 -2.3021597111 -0.8959729053
C -2.8262830392 -1.1945853646 -0.7736292680
C -4.2339877452 -1.4373351335 -0.8172856088
N -5.0996745211 -0.4669789819 -0.7085169094
C -4.5974171262 0.7952496468 -0.5529348332
C -5.4919682789 1.8770759144 -0.4332467776
C -4.9825856837 3.1439647759 -0.2796342332
C -3.5964159228 3.3887381039 -0.2397403525
C -2.7147281603 2.3393440551 -0.3553700550
C -3.1913093516 1.0220917044 -0.5127482541
N -2.3065709580 -0.0096235957 -0.6256821902
Cl -6.0739627549 4.5061179112 -0.1297559513
H 0.9808183400 0.6127822809 2.1539897485
H 0.4615533227 1.0343037853 0.5097006016
H 0.4558292587 2.2665190325 1.7948645126
H 2.9838889884 2.0785972769 1.9405852146
H 2.4430234384 2.6048089519 0.3200073092
H 4.0724929835 -2.3282533518 1.0019858204
H 6.1823338904 -1.0212209111 0.9109983376
H 6.0014596202 -2.0301454558 -0.5436705319
H 5.6706288783 -0.2843047413 -0.6299368391
H 1.9614584745 -1.4582176178 -2.8990411256
H -0.5272330314 -1.7219052897 -2.9639257932
H -0.5479115699 -2.5053877286 1.2394632415
H 1.9069633780 -2.2610967974 1.3240785293
H -4.5975034224 -2.4559084244 -0.9430883418
H -6.5577484693 1.6851986446 -0.4658298454
H -3.2381917960 4.4045912886 -0.1197682236
H -1.6427024485 2.5019730791 -0.3304304121
