56
CONF25
C -1.7085354415 -4.6743516298 -1.2427898597
C -0.7843498678 -3.9069875760 -0.2980208243
C -0.4326003405 -4.6906956777 0.9667651100
N -1.3220531423 -2.5735718685 0.0241426913
C -2.4417725412 -2.2958396355 0.7845468394
C -3.4309035107 -3.1352788540 1.3067880189
C -4.4680727968 -2.5514326659 2.0235866666
C -4.5365345079 -1.1601665175 2.2159881441
C -3.5584698418 -0.3238341601 1.7006557679
C -2.4889435025 -0.8864992043 0.9893909929
C -1.3544125672 -0.3232351946 0.3256340988
C -0.6565067477 -1.3818004730 -0.2421493750
C 0.5875979110 -1.3289587685 -0.9955657063
C 1.6031240629 -0.5421371444 -0.6212612870
C 2.8538208696 -0.2904197847 -1.4038713525
C 2.9735748178 1.1953130637 -1.7956600931
C 2.9196347958 2.1684486940 -0.6266074068
C 3.1005195249 3.6030402639 -1.1165220158
C 2.9890728035 4.6105133599 -0.0063934640
O 2.8563969812 4.3427819523 1.1734741169
O 3.0647209733 5.8744499948 -0.4636929647
O 3.9555556991 1.7995363890 0.2949725537
O 2.9691769297 -1.1145249302 -2.5667169672
C -1.0541056061 1.1077716683 0.1910968927
C -0.8701582238 1.6883881899 -1.0725502777
C -0.5823329510 3.0414881236 -1.2110502811
C -0.4859055772 3.8115260852 -0.0637551840
C -0.6758081506 3.2900726008 1.2032096678
C -0.9610779536 1.9319655759 1.3207913078
F -0.1878383888 5.1344439748 -0.1899134591
H -2.6528599992 -4.9439716828 -0.7635340660
H -1.9281346612 -4.0792995697 -2.1338853164
H -1.2143311865 -5.5987115790 -1.5557660399
H 0.1507582633 -3.7144648160 -0.8308680608
H 0.0714160809 -5.6198648712 0.6852176856
H -1.3214640885 -4.9504971877 1.5468212107
H 0.2414360863 -4.1095029598 1.6029355557
H -3.4121637949 -4.2080838023 1.1631412669
H -5.2448762627 -3.1866182271 2.4376581303
H -5.3674927310 -0.7395149801 2.7736831231
H -3.6140340076 0.7510224467 1.8459609009
H 0.6675313546 -1.9172949953 -1.9081316636
H 1.5243055999 0.0025009182 0.3172856689
H 3.7168851666 -0.5521928318 -0.7792426117
H 3.9198945031 1.3268589142 -2.3347822273
H 2.1537476892 1.4394855636 -2.4842569954
H 1.9413568817 2.0987850561 -0.1287282511
H 4.0826094569 3.7249240021 -1.5916526791
H 2.3517708209 3.8504043911 -1.8789964663
H 2.9950322170 6.4778828957 0.2960868871
H 3.8449299065 2.3704300710 1.0686976612
H 2.2932122024 -0.8340830307 -3.1988365566
H -0.9526410771 1.0674975411 -1.9586823059
H -0.4381234411 3.4944843970 -2.1862125533
H -0.5882923073 3.9292847323 2.0750854464
H -1.0932859849 1.5005334461 2.3081386126
