48
CONF14
C 1.4081309742 -2.0885004558 -0.5162293107
C 0.5966348357 -1.2289453316 -1.4689617469
N -0.8068528437 -1.1278251765 -1.0300476959
C -0.9024554922 -0.6849852522 0.3625726089
C -0.0438016880 -1.5493731322 1.2728938122
N 1.3516457712 -1.5403179703 0.8377407737
C 2.2196257862 -2.2986331156 1.7483077112
C 2.5059477332 -1.5847470750 3.0690641592
C 3.3869193763 -0.3393594792 2.9443951638
N 2.7572138462 0.7342531133 2.1926692741
C 2.9965714942 0.9934882553 0.8710938683
O 3.8834566772 0.5846416270 0.1238182835
N 1.9684970700 1.8973152451 0.5509674288
C 1.6894542297 2.4745580971 -0.6611641786
C 0.5921849658 3.2693008162 -0.7574540985
C -0.2355483064 3.4903566156 0.3866084193
C 0.0430241082 2.9076835447 1.5912423953
C 1.1738135654 2.0613884368 1.6849306450
N 1.6341087394 1.3536777812 2.6969840546
C -1.6994656659 -0.5450650806 -1.9374102354
C -1.6978888638 -0.9655537881 -3.2839633278
C -2.6086013531 -0.4208289140 -4.1705166582
C -3.5501243365 0.5342669347 -3.8031156084
C -3.5485824805 0.9409833328 -2.4730175175
C -2.6433067861 0.4254551293 -1.5507818284
Cl -2.5815045431 -0.9823135748 -5.8474530786
H 2.4492437301 -2.0944181612 -0.8586549375
H 1.0327494342 -3.1317751108 -0.5492152251
H 1.0447424721 -0.2204078065 -1.5173842152
H 0.6471496712 -1.6704036602 -2.4652588635
H -0.5974138659 0.3713749612 0.4657915810
H -1.9422826495 -0.7705469647 0.6931379378
H -0.4486910323 -2.5821289600 1.2893537224
H -0.1205799433 -1.1432887574 2.2863500699
H 3.1727116888 -2.4685774696 1.2306345168
H 1.7891433222 -3.2968286928 1.9630704060
H 3.0393056414 -2.2857634945 3.7215772265
H 1.5776473124 -1.3248239365 3.5886234757
H 4.3191428015 -0.5764038646 2.4224716936
H 3.6378152799 0.0456661169 3.9383845601
H 2.3776392280 2.2517531128 -1.4681443058
H 0.3536565845 3.7342998283 -1.7057212906
H -1.1052910076 4.1310140323 0.2890133338
H -0.5777153986 3.0559748544 2.4670771287
H -1.0147453294 -1.7318169800 -3.6269601840
H -4.2492314154 0.9422745392 -4.5227151641
H -4.2629558472 1.6914249240 -2.1483340021
H -2.6720036943 0.7974466768 -0.5350888516
