43
CONF59
C 6.2627312230 -1.7360908477 -0.9344099358
O 4.9712987050 -1.4510048643 -1.4880933233
C 4.2642010793 -0.4078043940 -0.9625374766
C 3.0194883131 -0.1803121355 -1.5531472199
C 2.2748759522 0.8709863625 -1.0390512953
C 2.7268945210 1.6900002459 0.0266431961
C 3.9742262569 1.4448116116 0.5967087576
C 4.7365759587 0.3946022587 0.0989589817
N 1.7742203163 2.6600900897 0.3236134834
C 0.8007173150 2.4074260659 -0.5134240577
N 1.0347918284 1.3714324071 -1.3717058719
S -0.7438686863 3.3356096557 -0.6374111782
O -1.4172513002 2.7743259412 -1.8883520328
C -1.5836564288 2.5578443965 0.8711838391
C -1.7617852788 1.0860617283 0.7136570063
N -0.7332812483 0.3335582581 1.1359959269
C -0.8105136989 -0.9889353945 0.9782251508
C -1.9028111314 -1.6477306503 0.4173050393
C -1.9290545327 -3.1362886947 0.2523404690
C -2.9737289086 -0.8452953179 0.0110448081
O -4.0634551405 -1.4552543374 -0.5641583354
C -5.1678724340 -1.6400593491 0.3492285118
C -2.9236756366 0.5493426692 0.1316201302
C -4.0648554680 1.4109354953 -0.3293341232
H 6.6412940129 -2.5885734212 -1.4990367077
H 6.9413430328 -0.8839597318 -1.0563783438
H 6.1879543183 -2.0021927580 0.1263654415
H 2.6706903637 -0.8046671628 -2.3680087978
H 4.3450101006 2.0559648806 1.4130855977
H 5.7051937771 0.1976420229 0.5402116670
H 0.3875899284 1.0315958885 -2.0695624835
H -0.9177642769 2.8049318423 1.7025681109
H -2.5187924529 3.1147965045 0.9609437043
H 0.0432404814 -1.5711521793 1.3247970388
H -2.0278549938 -3.4092556670 -0.8033459040
H -2.7796300394 -3.5808560099 0.7785290726
H -1.0098526703 -3.5796166253 0.6420134532
H -4.8679411413 -2.2816962087 1.1856568030
H -5.5225543390 -0.6778247879 0.7348433783
H -5.9609621535 -2.1231811474 -0.2232769377
H -4.6536269062 1.7698781835 0.5234782729
H -3.6981877741 2.2816998306 -0.8753306126
H -4.7293621562 0.8482159336 -0.9867259269
