48
CONF22
C -3.3340486206 2.2424559778 -0.1895326139
Si -1.8090254023 1.8549009441 0.7834341586
O -2.0259745794 2.5261840724 2.2758334102
O -1.5429953054 0.2491046758 0.9427364484
Si -1.9002612630 -1.2948809622 0.4856495141
C -3.5170288381 -1.3514683298 -0.4322103687
C -1.9028164405 -2.3298322389 2.0335849607
O -0.7334776148 -1.8171401663 -0.5559110245
Si 0.8478337573 -2.2919222616 -0.4769945766
C 0.9483675506 -4.0386559011 0.1589003341
C 1.5665482570 -2.1142508900 -2.1850998748
O 1.6499085895 -1.3335403903 0.6020579667
Si 2.2936928114 0.1875974717 0.6419257918
C 1.8503470489 0.9507388415 2.2810421849
C 4.1337688651 0.0570942684 0.3913599668
O 1.6922987974 1.0662924326 -0.6141121890
Si 0.5740429605 2.1591975722 -1.1229806545
C 1.4514321182 3.7334033640 -1.5792464268
C -0.3665635935 1.4133037973 -2.5476090939
O -0.4694450560 2.5232428470 0.1092209123
H -4.2247966732 1.8317499418 0.2965427346
H -3.2708815143 1.8208767365 -1.1973692164
H -3.4602527232 3.3263551585 -0.2802366568
H -1.2993180862 2.4535571204 2.9054947270
H -3.7649148148 -2.3853307947 -0.6967806871
H -4.3328345257 -0.9506478712 0.1784784529
H -3.4628717422 -0.7677608680 -1.3575571331
H -2.0781553239 -3.3859348874 1.8024450573
H -0.9416671586 -2.2485691707 2.5539401694
H -2.6886369573 -1.9946699430 2.7194672526
H 0.3675601777 -4.7172202157 -0.4751084547
H 0.5580177771 -4.1074937147 1.1798911291
H 1.9870817470 -4.3869306310 0.1676066449
H 1.0237358443 -2.7407523368 -2.9013480557
H 2.6189569734 -2.4183600302 -2.1966830964
H 1.5056090134 -1.0745542736 -2.5224449677
H 0.7676861937 0.9195833410 2.4397082290
H 2.3298221510 0.4013412399 3.0988195161
H 2.1789424167 1.9943845184 2.3326856955
H 4.3566778433 -0.3823729004 -0.5875220827
H 4.6067794348 1.0442324282 0.4367463677
H 4.5896397756 -0.5751235485 1.1608619193
H 2.1883508051 3.5521801798 -2.3689292231
H 1.9768034277 4.1463983330 -0.7108502716
H 0.7424500567 4.4862778922 -1.9399102790
H 0.3112126390 1.1707455619 -3.3734063073
H -0.8662640885 0.4874927847 -2.2395908747
H -1.1253363932 2.1087210209 -2.9225593970
