63
CONF125
C 6.8218573890 -0.2393522424 -4.6099603411
C 7.3637737881 -0.0913085025 -3.1907619846
N 6.2900459181 -0.1058558413 -2.1903782335
C 5.4567708430 1.0876396054 -2.0332134742
C 4.9888371331 1.1989722459 -0.6036482204
N 4.2339351288 -0.0140532589 -0.2286138530
C 4.6583556982 -1.2297749418 -0.7034469804
O 4.1171553090 -2.3033189799 -0.4632035555
C 5.9288040553 -1.2584497378 -1.5993668499
O 6.5089345938 -2.3348175588 -1.7304149306
C 3.1783921413 0.1774799493 0.7267647965
O 2.9567076398 1.3011787431 1.1687173167
N 2.4856373241 -0.9163889337 1.0919960723
C 1.3704582307 -0.7776387280 2.0070841557
C 0.7369095086 -2.1255229257 2.2828404060
C 0.3161302070 -2.9405045240 1.2277193322
C -0.2911150265 -4.1644559386 1.4909536759
C -0.4917878729 -4.5786995511 2.8066856541
C -0.0804668856 -3.7650871417 3.8594380796
C 0.5332504949 -2.5423863002 3.5986295160
C 0.2954627163 0.1519133576 1.4006637069
O 0.0836092663 0.2174781085 0.1939776542
N -0.4305304735 0.8398465059 2.3132308782
C -1.5102913082 1.6912034233 1.9222640235
C -2.7551994120 1.1187417197 1.1724286856
N -2.5149829115 2.1093114616 0.1086602178
C -1.3584399995 2.6120807795 0.6879259119
O -0.5863414143 3.4740154994 0.3373253331
C -3.6506405381 2.8039166657 -0.4678323915
C -4.9201340233 2.0344242756 0.0544903243
S -4.4439250378 1.4764869960 1.7819503370
C -5.1641880822 0.8208800205 -0.8440913027
C -6.1706424611 2.9003552199 0.1370485101
C -3.6693184882 4.2677500605 -0.0383602805
O -4.1667338619 5.0421717479 -1.0161106624
O -3.3164127451 4.6782099570 1.0439910319
H 7.6516163520 -0.2238657966 -5.3223555791
H 6.1407959869 0.5790390058 -4.8614428983
H 6.2865290324 -1.1870733287 -4.7201015342
H 8.0479050724 -0.9077490912 -2.9511581919
H 7.9027114107 0.8550364231 -3.0776977959
H 4.6026904717 1.0634396812 -2.7237392582
H 6.0654044730 1.9635898204 -2.2727938863
H 5.8389202486 1.3289958672 0.0768701586
H 4.3215072232 2.0533779607 -0.4973042943
H 2.7140884555 -1.8085141170 0.6661347573
H 1.7178722283 -0.3425457066 2.9516502605
H 0.4572600633 -2.6159311742 0.2006577181
H -0.6121938246 -4.7938119389 0.6668890378
H -0.9667198879 -5.5333672324 3.0097734990
H -0.2313838796 -4.0835181548 4.8861221511
H 0.8593398849 -1.9101133482 4.4195577785
H -1.8222329591 2.3008246765 2.7747596075
H -2.6471806956 0.0813990186 0.8437917185
H -3.6542630594 2.7568047217 -1.5622400769
H -5.4383943449 1.1631458015 -1.8483474583
H -5.9846813181 0.2208554590 -0.4433084168
H -4.2759038690 0.1888295007 -0.9283412115
H -7.0103859631 2.2970312152 0.4922511886
H -6.4220343629 3.2770259691 -0.8595102864
H -6.0424491188 3.7488238224 0.8150033294
H -0.2057837105 0.7636614039 3.2944270227
H -4.2222315745 5.9571988717 -0.6883752557
