46
CONF126
C -3.8477938784 -1.5657837521 1.2730035367
C -2.4445498919 -2.0986323877 1.4470374779
C -1.4305242959 -1.9679418717 0.3325076515
C -1.2622349128 -1.1683270120 1.6492354752
C -1.3672583153 0.3017811768 1.6327129400
O -2.2056312760 0.9788587023 1.0695674959
O -0.3393491445 0.8423752237 2.3407159976
C -0.2414134039 2.2834929396 2.2947843762
C 0.2271879327 2.7906399450 0.9533349850
C 0.8665420658 1.9457751762 0.0487859594
C 1.3013141013 2.4547220205 -1.1728012608
C 1.1133984162 3.7942277726 -1.5033910386
C 0.4743049765 4.6275204096 -0.5915284885
C 0.0297465653 4.1347716509 0.6321993317
O 1.8774034956 1.6581750296 -2.1423762744
C 2.5415593154 0.5020413943 -1.7572201152
C 3.5609965912 0.5402640704 -0.8086685377
C 4.2469695566 -0.6323389662 -0.5089145562
C 3.9253284104 -1.8254890214 -1.1557177788
C 2.9102342108 -1.8424233581 -2.1088738382
C 2.2086049798 -0.6774472805 -2.4123085919
C -1.7278456154 -1.2714946761 -0.9192276854
C -1.4163593075 -1.7224749106 -2.1344794265
Cl -1.7841326326 -0.8194019748 -3.5824040814
Cl -0.6238475226 -3.2436679550 -2.4448700911
C -2.3829829015 -3.3820484254 2.2483987523
H -3.8909878000 -0.6609206901 0.6698286388
H -4.4631861121 -2.3372918972 0.7978597378
H -4.2830061793 -1.3436100043 2.2532360799
H -0.7273693385 -2.7907940689 0.2504082880
H -0.4682345375 -1.5398544992 2.2878275120
H 0.4862053442 2.5266558288 3.0745473631
H -1.2049085669 2.7305050078 2.5566443022
H 1.0151654422 0.8976448954 0.2833759733
H 1.4580353748 4.1623858814 -2.4637396911
H 0.3182885332 5.6720736003 -0.8423479319
H -0.4768035156 4.7908184120 1.3339516409
H 3.8092130958 1.4747337931 -0.3158738057
H 5.0436224023 -0.6098282695 0.2281322705
H 4.4669777466 -2.7355629120 -0.9198358399
H 2.6554707223 -2.7658732319 -2.6188748402
H 1.4143161870 -0.6721536257 -3.1514691643
H -2.2334003353 -0.3122906599 -0.8731769572
H -1.3568628216 -3.7469909653 2.3475531021
H -2.9806012171 -4.1577964482 1.7577726236
H -2.7916006264 -3.2190240668 3.2517020701
