44
CONF10
C 4.1849432610 -1.3050278474 -1.1519563388
N 3.0570981695 -1.9452162979 -0.4759379577
C 2.1329344718 -2.5147836571 -1.4632562105
C 0.9515710061 -3.1874384996 -0.7728482507
N 0.2709338385 -2.2146672541 0.0864807628
C 1.1758773953 -1.6207835825 1.0788660132
C 2.3603114390 -0.9725540682 0.3720372705
C -0.8601947353 -1.6288874159 -0.3635953909
O -1.5100069119 -1.9644513301 -1.3404078137
O -1.2626438602 -0.6099345548 0.4887217071
C -2.1801380565 0.3338231519 -0.0446316745
N -1.5634840926 1.6708970689 -0.0240145365
C -2.2485916622 2.5915621892 0.7677317293
O -1.9754991283 3.7664868242 0.9295377138
C -3.3918298596 1.8284904506 1.3363411272
N -4.3264998597 2.2913528632 2.1596307470
C -5.2262896877 1.3671737253 2.5193357703
C -5.1746860444 0.0411649267 2.0659882074
N -4.2268473671 -0.4063716609 1.2281601073
C -3.3484048317 0.5228098213 0.8789590473
C -0.4121838244 1.9222455052 -0.7901939341
N -0.2237516152 1.0831028988 -1.8104597698
C 0.8611521175 1.2308269763 -2.5706356265
C 1.7904151147 2.2351681015 -2.3308193990
Cl 3.1969756130 2.3762611980 -3.3610985390
C 1.6037041902 3.1082216955 -1.2656922195
C 0.4800350935 2.9520059463 -0.4698265015
H 4.7166240914 -2.0418330322 -1.7631531653
H 3.8624051600 -0.4755699964 -1.8111186012
H 4.8805262112 -0.9015658382 -0.4087615810
H 1.7502136759 -1.7345489179 -2.1530589807
H 2.6719194760 -3.2565050170 -2.0643432475
H 0.2462640795 -3.5769904799 -1.5075609719
H 1.3048321330 -4.0119415987 -0.1418870491
H 1.5273229430 -2.4291745941 1.7318155945
H 0.6458367799 -0.8893842711 1.6864922341
H 1.9939702496 -0.1087777712 -0.2201827673
H 3.0623917982 -0.5900990710 1.1221726991
H -2.4758927651 0.0376375229 -1.0563765883
H -6.0202241506 1.6782421593 3.1933572942
H -5.9261705490 -0.6727286569 2.3930243163
H 0.9935334272 0.5322889751 -3.3931922758
H 2.3255002571 3.8884790921 -1.0519482808
H 0.3060471043 3.6009940192 0.3767827272
