51
CONF17
C 3.6177610920 -2.5898844859 2.5759119259
C 3.3000845136 -2.1990738384 1.1250885654
C 2.8317956654 -0.7745891007 0.9987352097
N 3.6632298196 0.2216661511 1.0382740650
O 5.0019564489 -0.1426142695 1.1609523927
C 5.8081146332 1.0512775985 1.2970929126
C 5.6469069561 1.6981624679 2.6575821412
C 1.4326629483 -0.4149121948 0.7153581238
C 1.1102160098 0.8292865538 0.1849718261
C -0.2655362691 1.2086615409 -0.2532676705
C -1.0729581291 -0.0357359734 -0.6280167332
C -1.0560424499 -1.0067908937 0.5546008534
C 0.3415889087 -1.3226006651 1.0607635488
O 0.5003229021 -2.3085209790 1.7861788989
C -2.4633009464 0.1976578636 -1.1945722373
C -3.4383342661 1.0011507724 -0.5689316822
C -4.7011192460 1.1372831911 -1.1591201620
C -5.0418733797 0.5008306005 -2.3470649434
C -4.0766041578 -0.3074641688 -2.9461785556
C -2.8068646866 -0.4717793579 -2.3940914060
C -1.8384551098 -1.3808381628 -3.1126206918
C -6.4030143432 0.6634424631 -2.9662501733
C -3.2127925341 1.7597786073 0.7177978396
O 2.0005947822 1.7928392946 0.0370048505
H 2.7196433880 -2.5172517418 3.1930252413
H 3.9794878271 -3.6217011627 2.6115137712
H 4.3904422750 -1.9407540753 2.9957445878
H 4.2056680640 -2.2987811869 0.5167664751
H 2.5401910218 -2.8656175600 0.7192464620
H 6.8288869771 0.6885693238 1.1467418921
H 5.5564126313 1.7444754867 0.4845662826
H 4.6219543257 2.0499497082 2.8050044472
H 5.8964764207 0.9898732962 3.4532712358
H 6.3193907222 2.5583735249 2.7358967738
H -0.7223971964 1.7701117992 0.5684503866
H -0.1760402529 1.9001981479 -1.0978816186
H -0.4860562107 -0.5160488072 -1.4154826636
H -1.5263308284 -1.9599529979 0.2910449217
H -1.6209632973 -0.6059334325 1.4060360109
H -5.4407209667 1.7613709950 -0.6625416769
H -4.3202163050 -0.8291157818 -3.8691542068
H -1.4735604538 -2.1858007111 -2.4652914672
H -2.3265763313 -1.8409399171 -3.9746266940
H -0.9611227045 -0.8353245295 -3.4786193692
H -7.0431743974 1.3030817440 -2.3537194926
H -6.3282609862 1.1098320683 -3.9640248023
H -6.8986810702 -0.3061720235 -3.0846665208
H -2.6456649958 1.1926314229 1.4576374249
H -4.1747656646 2.0209874958 1.1657198945
H -2.6749798790 2.6977579950 0.5376495525
H 2.8826168304 1.4289474550 0.4198433687
