47
CONF139
C -3.0342736622 0.6086953208 4.3266392385
C -3.4599160021 1.1054401606 2.9613267191
C -4.1177421890 0.1179129431 2.0552693642
C -2.6492503074 0.5240658283 1.7961840290
C -2.3285530154 1.2897196683 0.5896821968
O -3.0042559904 2.1269645383 0.0278564858
O -1.0978596609 0.9072236906 0.1108514492
C -0.6681314651 1.5868022180 -1.0950816814
C -1.5181191001 1.1792756472 -2.2217445286
N -2.1573833435 0.8458251132 -3.1241942397
C 0.7760910285 1.2218947093 -1.3362238893
C 1.7610174559 2.1996573438 -1.2182257734
C 3.0952570225 1.8497687625 -1.4150743824
C 3.4500030288 0.5418025498 -1.7226695815
C 2.4503031814 -0.4268826987 -1.8274519188
C 1.1135103000 -0.0957393191 -1.6409137417
O 2.7149573675 -1.7287715982 -2.1930155449
C 3.9122843676 -2.3107565898 -1.7966978946
C 4.3549454859 -2.2310569473 -0.4787016994
C 5.5229298345 -2.8976177706 -0.1203989242
C 6.2323473001 -3.6409724444 -1.0630148423
C 5.7677029743 -3.7169792046 -2.3741506985
C 4.6050519526 -3.0480974587 -2.7498663938
C -5.1908707155 0.5062908809 1.1189959410
C -5.4503021798 -0.1410107507 -0.0141047567
Br -6.8771766838 0.3535289259 -1.1701444540
Br -4.3924195891 -1.5988917098 -0.6200825161
C -3.8863245887 2.5539135117 2.9455810678
H -2.7400338402 -0.4440467689 4.2972294864
H -3.8639094938 0.7165122983 5.0336451902
H -2.1889600519 1.1971903082 4.6980012425
H -4.1883947111 -0.9053856302 2.4206136474
H -1.9094985781 -0.2228888775 2.0608797647
H -0.7776629733 2.6691670822 -0.9678640477
H 1.4892410342 3.2220056837 -0.9768527295
H 3.8688758439 2.6064071563 -1.3354832193
H 4.4884426208 0.2745312698 -1.8850651647
H 0.3544329635 -0.8666247556 -1.7324918126
H 3.7926209051 -1.6591731825 0.2523266990
H 5.8735717596 -2.8417003151 0.9054109386
H 7.1404281140 -4.1603602298 -0.7751774960
H 6.3130555252 -4.2946760767 -3.1138419980
H 4.2305699700 -3.0929448419 -3.7671878307
H -5.8276848847 1.3510257266 1.3685202802
H -4.1767607332 2.9002230171 1.9540542755
H -3.0667851650 3.1851649511 3.3040680997
H -4.7353702174 2.6835685686 3.6256323444
