43
CONF31
C -3.1694723808 -1.7426299682 -1.6931533346
C -3.1547107925 -1.7325614778 -0.1570387543
C -2.5979484946 -3.0748006153 0.3521028849
C -4.6159968216 -1.6318119979 0.3218802660
C -2.3210693528 -0.5069214190 0.3677149578
C -1.0375422129 -0.1873025257 -0.4241421909
C 0.1032753735 -1.2176550578 -0.4596740187
C 1.3175273260 -0.6170492460 -1.1200543831
C 2.2277373112 0.1463700891 -0.3833376217
C 3.3268405718 0.7451772443 -0.9916414878
C 3.5075586340 0.5749514119 -2.3588184753
C 2.6229165599 -0.1745299144 -3.1232038401
C 1.5311009505 -0.7654924698 -2.4924498902
Cl 4.8979883575 1.3264853685 -3.1423690958
C -2.0170989315 -0.6913922871 1.8763933272
N -1.4090139826 0.4872914471 2.4773354779
C -2.0118500258 1.6013842248 2.9394043753
N -1.1048673919 2.4776585314 3.3594790809
C 0.0680262363 1.8289897185 3.1194844108
N -0.0627757689 0.6201715779 2.5861447603
O -3.1848575760 0.6390278895 0.2210276969
H -3.4891170564 -0.7745917869 -2.0910421774
H -3.8768948631 -2.5026297619 -2.0405156048
H -3.1254859006 -3.8876582437 -0.1573993487
H -2.7663050542 -3.2011594573 1.4260081107
H -1.5310741925 -3.1979396544 0.1558298160
H -5.1271911599 -0.7763680373 -0.1236724922
H -5.1446504170 -2.5424597484 0.0209207949
H -4.6958038676 -1.5510471471 1.4103102707
H -0.6242894115 0.7385606929 0.0003734079
H -1.3295447112 0.0553394782 -1.4511471828
H -0.1993984819 -2.1057089182 -1.0203721504
H 0.3613576252 -1.5341358766 0.5562501991
H 2.0758610940 0.2765797816 0.6845803235
H 4.0309822966 1.3310052005 -0.4113652969
H 2.7824835671 -0.2989108791 -4.1884075888
H -1.3336465606 -1.5242926589 2.0464027202
H -2.9473351104 -0.8872580441 2.4144832566
H -3.0871997109 1.7181686912 2.9622225695
H 1.0404981077 2.2476715619 3.3466379623
H -2.6346822463 1.4333104865 0.2112335456
H 0.8351503178 -1.3550638701 -3.0834085476
H -2.1891537340 -1.9868618033 -2.1131697074
