22
CONF15
C 2.1684512719 -0.9397231860 -0.6694871498
C 0.8533626225 -0.1572345213 -0.6915559823
C 0.3538689070 0.1757443620 0.7159477758
C -0.8431499425 1.1456423364 0.8261384524
C -2.1578955960 0.6912915848 0.1911808126
O -2.1635948316 0.8852896727 -1.2265975856
O -0.4700567072 2.4311011797 0.3242399411
O 0.0482542782 -1.0683993968 1.3719869757
O -0.1121518808 -0.8772967422 -1.4774371380
O 1.9845279304 -2.2934785864 -0.2390698383
H 2.8979103841 -0.4125035147 -0.0375148906
H 2.5668545570 -0.9952849864 -1.6869580704
H 1.0307948131 0.7912912025 -1.2122072679
H 1.1940579303 0.6755238028 1.2231831286
H -1.0292664134 1.2635597009 1.9041549121
H -2.3582788771 -0.3548097044 0.4581931369
H -2.9666307204 1.3123335650 0.5896405002
H -1.5622881673 0.2019086773 -1.5815349131
H -0.7643845637 2.4467922844 -0.6002707411
H -0.0792186148 -0.8926282436 2.3133412231
H -0.1469495944 -1.7792405990 -1.1256689701
H 1.5557840139 -2.2498786921 0.6302956993
