55
CONF166
C 1.5405251699 1.4489458207 1.0917955368
C 2.6492375475 1.6649844322 0.0736225179
N 2.8329428899 0.4524136695 -0.7340252595
C 3.1762234495 -0.6695569796 0.1473139849
C 2.0675193692 -0.8948391768 1.1652937617
N 1.8656097439 0.3192491709 1.9601420631
C 0.9542004893 0.1703801131 3.0946566337
C -0.5695106501 0.1776492554 2.7998387774
C -1.0328660681 -1.0062315654 2.0228000682
C -1.6279962961 -1.0408692965 0.8121902788
C -1.8574178909 -2.3329336372 0.1361152207
C -2.3671742404 -3.4447629668 0.8187125814
C -2.5004871369 -4.6761497317 0.1884571708
C -2.1425207177 -4.8154405225 -1.1519232252
C -1.6661758207 -3.7190286708 -1.8615604723
C -1.5282396288 -2.4870209913 -1.2196971207
S -0.8582451113 -1.1307444387 -2.1595045779
C -1.5995367741 0.2483823435 -1.3286604860
C -1.9575749192 0.1647998905 0.0302969372
C -2.6085636887 1.2593259518 0.6019591229
C -2.8001153537 2.4335537141 -0.1219511353
C -2.3732407268 2.5298284553 -1.4447035617
C -1.7915046490 1.4260122098 -2.0528052928
C -3.4842245650 3.5774622854 0.5579384989
F -4.7714427625 3.2784785287 0.8895162575
F -3.5256978179 4.6927882262 -0.2033417144
F -2.8678776317 3.9166669301 1.7237358051
C 3.8265471038 0.6401198996 -1.7971416810
C 3.2190039269 1.4308508767 -2.9505019815
O 1.9832145354 0.8337237289 -3.3652591419
H 0.5922954171 1.2947342558 0.5394460977
H 1.4264288464 2.3509932221 1.7058529939
H 2.3728509360 2.5005096264 -0.5782653758
H 3.5882298754 1.9355382142 0.5945293847
H 3.2955810557 -1.5730214101 -0.4615285520
H 4.1315732047 -0.4834259778 0.6760243293
H 1.1543401946 -1.2014153032 0.6256051148
H 2.3509555435 -1.7141194868 1.8368018983
H 1.2195627971 -0.7556585529 3.6200013215
H 1.1422936674 1.0033862374 3.7858345643
H -0.8371469855 1.1183389651 2.3144264794
H -1.0688299836 0.1782701966 3.7796294623
H -0.7768967958 -1.9692095980 2.4660742402
H -2.6588063452 -3.3297326894 1.8582307927
H -2.8920742418 -5.5248560546 0.7397394214
H -2.2502877392 -5.7720071485 -1.6528235147
H -1.4036997070 -3.8163780187 -2.9105977225
H -2.9617399185 1.1873609245 1.6253846228
H -2.5158840746 3.4435671264 -2.0092531187
H -1.4960638501 1.4762049401 -3.0959049055
H 4.1132613406 -0.3521103406 -2.1659850076
H 4.7422296862 1.1442134136 -1.4362641010
H 3.0577232528 2.4816213508 -2.6674323466
H 3.9025209414 1.4170171314 -3.8056759236
H 1.5869706727 0.5121414666 -2.5358649136
