42
CONF194
C -5.5568554123 3.0525267613 2.3347134135
C -5.0177064056 2.5017287391 1.0162555986
C -4.2629643105 1.2106386128 1.2048031269
O -5.1244210829 0.1720259832 1.6519775521
C -4.4014399789 -1.0294491447 1.3649850700
C -3.5835200940 -0.6811887949 0.0966261625
O -3.7481540292 0.7428211060 -0.0436733047
C -2.1305279877 -1.0657097215 0.2583441209
O -1.4681516088 -0.7938389985 -0.9831047682
C -0.1277953752 -1.0420974138 -1.0568579401
C 0.6329104757 -1.5817375837 -0.0155673539
C 1.9979161803 -1.7963041126 -0.2028883446
C 2.5895716328 -1.4743543731 -1.4143536025
C 1.8387512869 -0.9380137914 -2.4554286726
C 0.4796969736 -0.7245089738 -2.2773958649
O 3.9420623612 -1.7452029802 -1.6197320189
C 4.8627649770 -0.8159037192 -1.1837150487
C 4.5123427810 0.4192688269 -0.6397337748
C 5.5229961549 1.2928494925 -0.2392577864
C 6.8641377633 0.9468081904 -0.3765368421
C 7.1968247536 -0.2930353919 -0.9239547240
C 6.2037838436 -1.1769211858 -1.3280315170
H -4.7461769660 3.2130897796 3.0533529060
H -6.2786421226 2.3645171982 2.7839644514
H -6.0578044229 4.0107047720 2.1726464828
H -4.3286099649 3.2195161034 0.5576799798
H -5.8302919242 2.3203433926 0.3033790554
H -3.4298690815 1.3251581092 1.9249654994
H -3.7348459435 -1.2856597148 2.2021409231
H -5.1164273072 -1.8377930517 1.2042198494
H -3.9952552397 -1.1488222997 -0.8039227491
H -2.0608926044 -2.1364353077 0.5019438203
H -1.6743914097 -0.4831992227 1.0711882496
H 0.1852188151 -1.8420158868 0.9353938521
H 2.6008057700 -2.2144328807 0.5971358679
H 2.3202184209 -0.6921072441 -3.3964824160
H -0.1263527262 -0.3101292949 -3.0764257454
H 3.4705367684 0.6978834567 -0.5297315104
H 5.2495594493 2.2548316503 0.1836807457
H 7.6426107584 1.6334990739 -0.0612763718
H 8.2386663355 -0.5771790558 -1.0368684573
H 6.4497216919 -2.1441192051 -1.7544578029
