39
CONF109
C 8.0961795641 1.6688218209 -2.3135547395
C 6.6894072898 1.8418300456 -1.7440283189
C 6.4961204412 1.1039559364 -0.4190103654
C 5.0924122938 1.2880640241 0.1579541954
C 4.8619185757 0.5607715448 1.4934233154
C 4.7254411806 -0.9578464539 1.3088866602
C 4.7846172874 -1.7611504183 2.6071739855
C 3.6765673683 1.1559248995 2.2420325303
O 2.4687733236 1.0246478428 1.4200100825
C 1.5121492252 0.1879899141 1.8322632049
O 1.5147530110 -0.4520934404 2.8609229521
C 0.3708491320 0.1887893250 0.8591098842
C -0.1691624535 1.4204551862 0.5048695249
C -1.2898928968 1.4895769888 -0.3071936975
C -1.8828057423 0.3241920420 -0.8011656734
C -1.3213546005 -0.9220523597 -0.4723210547
C -0.1977001956 -0.9861586071 0.3611434483
Br 0.6209344993 -2.6551503757 0.7528843134
Br -2.0861561849 -2.5117953065 -1.1628853706
Br -3.4152716223 0.4337147788 -1.9039728971
Br -1.9679086207 3.2174137879 -0.7128675942
H 8.2143711056 2.2056125001 -3.2600886838
H 8.8494542485 2.0490116349 -1.6146048829
H 8.3155078485 0.6110088056 -2.4965955630
H 6.4788088935 2.9095093860 -1.5968263749
H 5.9495941919 1.4780246665 -2.4693362170
H 6.7093330496 0.0383852115 -0.5733074001
H 7.2355849384 1.4664668746 0.3089881215
H 4.3475369947 0.9443843402 -0.5725435273
H 4.9136400793 2.3628310367 0.3001331470
H 5.7293437461 0.7542470477 2.1442711901
H 5.5266042097 -1.2990651547 0.6446294695
H 3.7860487314 -1.1676486778 0.7786134534
H 5.7230759143 -1.5714369439 3.1400524241
H 3.9570639886 -1.5124578443 3.2779966456
H 4.7273152379 -2.8342562172 2.3996746708
H 3.8040087330 2.2321184564 2.3854548290
H 3.5016323417 0.6743018094 3.2053577595
H 0.2819632792 2.3292286150 0.8838093153
