34
CONF195
C -2.9137729758 -3.0446566524 0.8811537016
C -2.5434800562 -1.5924031103 0.7253498971
O -2.6560290171 -1.2671339402 -0.7144099909
P -2.0083750429 0.0522075662 -1.3125205824
S -2.3235241302 0.2800832167 -3.2050746975
O -2.4372603947 1.1995396468 -0.3005683642
C -2.4615981566 2.6259629870 -0.6672829257
C -1.0697306813 3.2050992391 -0.7416011489
O -0.3956314057 -0.0374376315 -0.8565913440
N 0.2459807445 -1.1230578215 -1.4511445801
C 1.4548389017 -1.2731060619 -1.0114840587
C 2.0863041828 -2.4222029104 -1.5990208467
N 2.6275938893 -3.3368940660 -2.0552756997
C 2.2315306771 -0.4999618069 -0.0281107320
C 2.1240418053 0.8947202634 0.0722015292
C 2.8890668142 1.5778541267 1.0085271676
C 3.7535407963 0.8858002526 1.8550227887
C 3.8693852549 -0.4986309959 1.7517699326
C 3.1235122830 -1.1898904784 0.8063191459
H -3.9330590502 -3.2264738739 0.5301804927
H -2.2222838308 -3.6845542881 0.3264900365
H -2.8593148715 -3.3104264188 1.9411851543
H -3.2269143602 -0.9307024608 1.2639032010
H -1.5159208618 -1.3979898216 1.0483392841
H -3.0507213456 3.0816670489 0.1301901497
H -2.9996703026 2.7214944692 -1.6149548320
H -0.4977081304 2.7638271008 -1.5634536276
H -0.5298680230 3.0479243429 0.1965791686
H -1.1480521900 4.2819790847 -0.9214983323
H 1.4681811624 1.4423368409 -0.5908763343
H 2.8103301688 2.6580645580 1.0749489298
H 4.3424622540 1.4264042935 2.5889825717
H 4.5456682050 -1.0412330091 2.4038600748
H 3.2204774861 -2.2682089912 0.7247764617
