40
CONF3
C -3.6862392911 -2.3668882850 -3.1164586102
C -3.0460793039 -1.3604936244 -2.2030273412
C -2.3297612882 -1.7771285990 -1.0742218378
C -1.7483874524 -0.8590418194 -0.2120981911
C -1.8614975133 0.5159106229 -0.4611215487
C -2.5818349905 0.9403699696 -1.5823936599
C -3.1637021991 0.0119289770 -2.4382056472
C -1.2868359819 1.5085013358 0.4455295087
C -1.8549433137 2.6650369209 0.9516181479
C -0.8963007487 3.1728638750 1.8419749253
N 0.1975611244 2.4177507637 1.9018267414
N -0.0492536911 1.4076558135 1.0414969668
C 0.9850816876 0.4676385805 0.7820897161
C 1.6715965859 -0.0933204842 1.8570722145
C 2.6862681667 -1.0083380901 1.6131210645
C 2.9905545104 -1.3455530253 0.2977166591
C 2.3119420083 -0.7843072249 -0.7791088616
C 1.3035010241 0.1377866153 -0.5338140254
S 4.2937815037 -2.5412717107 -0.0152455780
O 4.3700784544 -3.4239612688 1.1610578048
O 4.0755317557 -3.0939924459 -1.3624312067
N 5.6892337141 -1.5943501214 -0.0601936081
C -1.0196849905 4.3934293631 2.6877828821
F 0.1273516978 4.7067235214 3.3193345428
F -1.3883851608 5.4700193001 1.9473942973
F -1.9769427884 4.2443143076 3.6436130054
H -4.5748144750 -2.8035174778 -2.6455816983
H -3.9959260829 -1.9076150062 -4.0580864047
H -2.9998137674 -3.1902742602 -3.3357334389
H -2.2334823577 -2.8390791153 -0.8649114561
H -1.2142110805 -1.2092401679 0.6656568316
H -2.6711916916 2.0020953984 -1.7911702528
H -3.7120392083 0.3599246266 -3.3091194861
H -2.8406801050 3.0483226770 0.7371275713
H 1.4022775394 0.1759099323 2.8717132344
H 3.2211077521 -1.4646270969 2.4383373142
H 2.5690296403 -1.0560591468 -1.7963925269
H 0.7709763557 0.5983424330 -1.3577610139
H 6.3209082347 -1.8495434231 0.6948234913
H 6.1452259279 -1.6759231430 -0.9655053053
