44
CONF5
C 0.2123775228 2.6598555591 -1.6460999097
C -0.2987461055 2.5382392851 -0.2129282841
C 0.5418288313 1.5643876837 0.6380321461
C 0.5474682745 0.1682255962 0.0507202265
C -0.6186884089 -0.6088421656 -0.1412590147
C -0.6198027283 -1.7051620968 -1.0441331678
C 0.5672297614 -2.1292262804 -1.6225312475
C 1.7582582361 -1.4689703832 -1.3616358289
C 1.7112026122 -0.3158703255 -0.5564454483
O 2.8378172852 0.4423550014 -0.3650315019
C 4.0061978241 0.0615896421 -0.9249057135
C 4.1610160500 -1.0439465107 -1.6807857818
C 3.0274023489 -1.9162473406 -1.9674515419
O 3.1235995296 -2.9233014276 -2.6592353759
C 5.0794147267 1.0418672013 -0.5895698933
O 4.9047973210 2.0420145470 0.0612244052
O 6.2696774670 0.6681858450 -1.1106611339
C -1.8854813789 -2.3638085262 -1.4382072552
O -1.9239575222 -3.3718520520 -2.1395963985
C -3.0791939883 -1.6787788679 -0.9777509339
C -3.0037949620 -0.7137312735 -0.0260778607
N -1.8090457816 -0.2717370819 0.5099630465
C -1.7685547302 0.0422218872 1.9695304118
C -2.5424078557 -0.9740895991 2.8025835990
C -4.2243296597 0.0370473241 0.3965758126
O -4.2151118064 1.1610766283 0.8446926949
O -5.3577562492 -0.6685323959 0.1813231440
H 1.2617047114 2.9746734919 -1.6617040452
H 0.1407341539 1.7044150104 -2.1765613608
H -0.3698509762 3.3948917389 -2.2089831184
H -0.2640119375 3.5181692312 0.2773991544
H -1.3492309040 2.2253551447 -0.2128609647
H 1.5690185129 1.9311502167 0.6759643185
H 0.1782976377 1.5853015071 1.6662701085
H 0.5580377122 -2.9815705012 -2.2939152302
H 5.1294549098 -1.2879093741 -2.0964877931
H 6.9093916665 1.3516796237 -0.8577021858
H -4.0345237346 -1.9634166203 -1.3976850018
H -0.7211302712 -0.0213818376 2.2591194618
H -2.1276189143 1.0597483445 2.1458916265
H -2.2042112253 -1.9922939282 2.5881980146
H -2.3604718834 -0.7671945654 3.8613746562
H -3.6219041659 -0.9248702343 2.6429543223
H -6.0951022023 -0.0797182116 0.4068669328
