51
CONF15
C 3.2367378848 1.0540525344 1.2692132652
C 2.6785841265 0.1353668151 0.2137231412
C 1.4710929285 0.4756466679 -0.4249770210
C 0.9617890214 -0.3174395110 -1.4500877549
C 1.6401987022 -1.4627537731 -1.8542912338
C 2.8226888138 -1.8192864622 -1.2235117269
C 3.3466816951 -1.0393770949 -0.1834565293
C 4.5951955011 -1.5039144517 0.4707598040
C 4.6495141578 -1.7251089575 1.8527887058
C 5.8112484269 -2.2035589432 2.4504831770
C 6.9405756714 -2.4668612551 1.6773453023
C 6.8972396114 -2.2540636555 0.3013827959
C 5.7330966791 -1.7799563561 -0.2970790579
C 0.7589473867 1.7332436540 0.0108753826
O -0.5499809348 1.8693943491 -0.5864602494
C -1.5391570798 1.1336316432 -0.0218915234
O -1.3774394344 0.4194541485 0.9471316516
C -2.8012352408 1.3298137769 -0.7638975060
C -4.1018478266 0.8825093001 -0.0944721720
C -3.5849487367 0.1455896068 -1.3159089482
C -3.0857984237 -1.2640027221 -1.0968155080
C -4.2437793875 0.3524629080 -2.6615099784
C -5.2566630870 1.7765807517 -0.1624518646
C -6.1944363327 1.9162886391 0.7802018738
C -6.1841800254 1.1482911227 2.0816113293
F -5.0826086825 1.4445948618 2.8211708391
F -6.1504183318 -0.1919429426 1.8622824911
F -7.2549208559 1.3952608872 2.8539499933
Cl -7.5204103057 3.0381461566 0.5717114860
H 4.2784218579 0.8215505295 1.4910978544
H 2.6708965270 0.9791249899 2.2062237799
H 3.1849033532 2.0985755378 0.9454281873
H 0.0339728689 -0.0402844264 -1.9391969278
H 1.2396257249 -2.0784557569 -2.6535080913
H 3.3460832842 -2.7242814708 -1.5169642195
H 3.7683738151 -1.5344431705 2.4583474529
H 5.8330041198 -2.3764043841 3.5221962565
H 7.8474406713 -2.8379419295 2.1444943768
H 7.7727466659 -2.4550345249 -0.3085251624
H 5.7045849135 -1.6094047519 -1.3694479267
H 1.3010844556 2.6247015077 -0.3204189121
H 0.6600063041 1.7707430150 1.1000109434
H -2.8399656990 2.2287655003 -1.3699482217
H -3.9351301867 0.3488010006 0.8346594513
H -3.9238004086 -1.9621826166 -1.1946431925
H -2.3406962762 -1.5211079156 -1.8581218230
H -2.6371165812 -1.3956167369 -0.1111893336
H -5.1435421769 -0.2679948409 -2.7361778772
H -3.5540727749 0.0461951354 -3.4547623980
H -4.5228565630 1.3923921686 -2.8425557037
H -5.3597292291 2.3867875503 -1.0548183705
