53
CONF399
C 1.2617927906 -0.0096729564 -1.0443856050
C 2.6086841038 -0.2174512697 -1.7163829450
N 3.5294684349 0.8677973666 -1.3619601760
C 2.9383962344 2.1519216818 -1.7589788004
C 1.5887966083 2.3482623259 -1.0873904652
N 0.6658720282 1.2686909227 -1.4567654192
C -0.6421820667 1.4644363334 -0.8167764178
C -1.7456613198 0.6457289204 -1.4912284859
C -2.9553057811 0.4319515216 -0.5791016993
N -2.5896332422 -0.2918388374 0.6464938868
C -3.1691836484 0.0788429614 1.8740083034
C -4.4163053779 0.7113147738 1.9457247427
C -4.9415198664 1.0981118411 3.1763299757
C -4.2570529515 0.8262721546 4.3571096030
C -3.0347411690 0.1594478577 4.3033279200
C -2.4892902063 -0.1930581009 3.0727926211
S -0.8663685043 -0.9242743934 2.9847694409
C -1.1459903321 -1.9988802040 1.5960400809
C -1.9732399818 -1.5465205055 0.5536731761
C -2.1558977784 -2.3722594414 -0.5633071576
C -1.4711766267 -3.5775259410 -0.6351859302
C -0.6402802445 -4.0277131846 0.3811525271
C -0.5074558282 -3.2313336147 1.5161257230
Cl -1.6823231928 -4.5751833548 -2.0732196812
C 4.8561643188 0.6656293442 -1.9557791252
C 5.9018172946 1.4932739660 -1.2196707640
O 5.8564357326 1.2240838973 0.1874776947
H 1.3941807922 -0.0413412421 0.0568008420
H 0.5973153155 -0.8365573824 -1.3184507195
H 2.4646085019 -0.2790819430 -2.8129034305
H 3.0366577232 -1.1686147890 -1.3796119322
H 2.8130292708 2.2033241438 -2.8583743224
H 3.6035285771 2.9689297367 -1.4601210882
H 1.1628543915 3.3050689595 -1.4109409948
H 1.7325561453 2.3957209698 0.0110610231
H -0.8984800665 2.5290509076 -0.8782769362
H -0.5878784126 1.2092832038 0.2592878063
H -1.3499734692 -0.3172845173 -1.8230227878
H -2.0946751537 1.1617854054 -2.3921902460
H -3.7701881384 -0.0650847889 -1.1249809291
H -3.3312156535 1.4091957533 -0.2637166893
H -4.9813970199 0.9002204541 1.0401261669
H -5.9028046692 1.6010989325 3.2062008169
H -4.6704072351 1.1205342881 5.3158917965
H -2.4899574277 -0.0682070099 5.2144422062
H -2.8158128827 -2.0752456398 -1.3683616275
H -0.1162792253 -4.9723723692 0.3011863418
H 0.1240145229 -3.5635502875 2.3340022585
H 5.1129223683 -0.3954143082 -1.8490247481
H 4.8754483856 0.9100901661 -3.0345901030
H 6.9008176778 1.2238829969 -1.5773870433
H 5.7579476930 2.5678734759 -1.4075014775
H 4.9093696506 1.1318282203 0.3855624869
