39
CONF49
C 4.2402816089 0.2389292843 -2.6137379849
C 3.3755964905 -0.1142900207 -1.4061540537
C 3.6900881039 0.7588010798 -0.1928654913
C 2.8366074184 0.4268075331 1.0324809734
N 1.4148095412 0.6630427330 0.7998181409
C 0.5401111306 -0.3411128359 0.5675850215
O 0.8030539790 -1.5337119935 0.6777855487
N -0.7600451266 0.0928369668 0.1979234076
C -1.1632498069 1.3212003094 -0.3530006832
C -0.4721189215 2.3619134679 -0.9617733897
C -1.2302651812 3.4280551207 -1.4475250728
C -2.6245730731 3.4360474211 -1.3477997509
C -3.3128796928 2.3698216502 -0.7782953946
C -2.5730489027 1.3003798545 -0.2841697006
N -3.0330814013 0.1136410953 0.2640206902
C -1.9644906805 -0.5757321394 0.5318016421
N -1.8849998947 -1.8297223619 1.0785891255
C -2.9355325196 -2.5225601097 1.6641195354
O -4.0590861155 -2.1321544135 1.8435544850
O -2.4623814250 -3.7496635194 2.0179781955
C -3.4445795928 -4.5855160322 2.6591183461
H 4.0038765785 -0.3974386310 -3.4711327907
H 5.3043981518 0.1139351209 -2.3866093875
H 4.0853260476 1.2799220714 -2.9176881072
H 3.5159526648 -1.1683621954 -1.1367484016
H 2.3161688686 -0.0066532508 -1.6709602324
H 4.7444548038 0.6364420102 0.0882450745
H 3.5620856493 1.8191694320 -0.4537480719
H 3.1491827768 1.0291895763 1.8931475974
H 2.9473422162 -0.6270838656 1.3027574748
H 1.0744814465 1.6117235403 0.7910103688
H 0.6031096682 2.3516761249 -1.1038427385
H -0.7218631457 4.2592133092 -1.9240693815
H -3.1791632815 4.2826816038 -1.7384948425
H -4.3954948914 2.3507516293 -0.7233532284
H -0.9669609417 -2.2650810118 1.0531600260
H -2.9278800536 -5.5197891379 2.8780567283
H -4.2920254417 -4.7597775163 1.9910717238
H -3.8032052559 -4.1175333967 3.5797450058
