65
CONF773
C -2.1486692664 3.3583294003 -3.3893255436
C -1.7220498326 2.5176485254 -2.1884928585
C -2.6817958427 2.6534245552 -0.9838253984
C -4.0955484857 2.1589826237 -1.2955733464
C -2.0470668020 1.9369871152 0.1876481448
O -1.3198264962 2.4710262758 1.0053413846
O -2.3283425230 0.6198006677 0.1853067413
C -1.7093319927 -0.2029126527 1.2221940134
C -2.5879519914 -0.2119101267 2.4616394565
C -1.9206694976 -1.0258264464 3.5808185420
C -1.3399362697 -2.2993179060 3.0423001412
C -1.1658049751 -2.5743368364 1.7353507667
C -1.5606937030 -1.5993139906 0.6412074059
C -0.5650066930 -1.6801772737 -0.5361722093
C -0.6127342722 -3.1146595059 -1.1015270558
C -0.3536199236 -4.1091876208 -0.0024032817
C -0.5954265153 -3.8365474748 1.2910447931
C 0.3086635581 -3.3309107303 -2.3050745853
C 0.8534822772 -1.2308769452 -0.1166552640
C 1.2311117250 0.1222948265 -0.7232335514
C 2.5350797861 0.6687325660 -0.1778470998
C 3.7525828775 -0.1964872127 -0.4844142109
C 5.0721199027 0.5770515010 -0.3522002621
C 4.8360463805 1.9343517808 0.3223985931
C 3.8046657253 2.6954278433 -0.4644874598
O 3.9230837920 3.8378085931 -0.8576155299
O 2.6910201547 2.0012499947 -0.7798264344
O 5.5761285352 0.7769487493 -1.6843611216
C -0.8515527091 -0.2147016551 4.3350290329
H -3.1008159326 3.0170941293 -3.8055765901
H -2.2574191365 4.4117935839 -3.1091021173
H -1.3976293062 3.2957342477 -4.1824796563
H -1.6631060451 1.4588473826 -2.4722394901
H -0.7167175270 2.8208553250 -1.8711292560
H -2.7146622771 3.7103361455 -0.6950617666
H -4.0740362223 1.1502737055 -1.7181295815
H -4.7130994850 2.1405478610 -0.3926144679
H -4.5761039977 2.8245333601 -2.0170152200
H -0.7313487424 0.2284041846 1.4554870105
H -2.7720511548 0.8135497572 2.7984669711
H -3.5533974518 -0.6605273697 2.1971898132
H -2.6957346317 -1.2917967881 4.3135568580
H -1.0284105348 -3.0424797242 3.7765043999
H -2.5472893578 -1.9035695938 0.2572538433
H -0.9254798559 -1.0063356997 -1.3239412170
H -1.6427577188 -3.2724383787 -1.4617893571
H 0.0495643129 -5.0809248063 -0.2825834974
H -0.3718837166 -4.5765884516 2.0572912168
H 1.3657247794 -3.2669205804 -2.0289002672
H 0.1404896800 -4.3230860969 -2.7362273125
H 0.1113309422 -2.5832478973 -3.0804397489
H 0.9192935947 -1.1703593382 0.9782067624
H 1.5915571249 -1.9813483452 -0.4131933019
H 1.3092886565 0.0331942793 -1.8148363561
H 0.4447058713 0.8571182673 -0.5157118941
H 2.4410277783 0.8211402772 0.9060396921
H 3.6805977973 -0.5904093889 -1.5039605169
H 3.7456509655 -1.0496877151 0.1999810008
H 5.8004167446 0.0053778929 0.2363776582
H 5.7534221102 2.5248827371 0.3692750266
H 4.4773565851 1.7775877881 1.3480475513
H 6.4203966454 1.2418761200 -1.6149407048
H -0.3852401568 -0.8231474132 5.1164724452
H -1.3007527223 0.6654971637 4.8065378784
H -0.0608454429 0.1213237331 3.6559401777
