63
CONF183
C -9.0270895941 2.3209908780 2.6654772369
C -9.3362514868 0.8516472460 2.9514112343
C -9.0070957157 -0.0883890430 1.7876867097
C -7.5249034016 -0.1295125107 1.4138014380
C -7.2213460513 -1.1649046246 0.3300538654
C -5.7355569799 -1.2944327605 -0.0173525800
C -5.1234356559 -0.0411297658 -0.6439936414
C -3.6716865184 -0.2416253475 -1.0780860559
C -3.0622326170 1.0106019156 -1.7094788969
C -1.6402965937 0.8180095719 -2.2442677622
C -0.5923297082 0.5502858906 -1.1635634704
C 0.8236095824 0.4347576436 -1.7264286937
C 1.8831029792 0.1944974818 -0.6524458176
C 3.2947017536 0.0563244488 -1.2204169631
C 4.3586862020 -0.1633234796 -0.1465365092
C 5.7672236719 -0.3183413633 -0.7178091712
C 6.8329388863 -0.5261571390 0.3564542526
C 8.2407379199 -0.6937222379 -0.2145666741
C 9.3042807728 -0.8823066356 0.8664211377
C 10.7032774531 -1.1221401573 0.3109718826
O 11.2195200408 -0.0066416643 -0.4220428470
H -9.3606666296 2.9617015315 3.4874809525
H -7.9545381375 2.4903628829 2.5317226337
H -9.5335710327 2.6559988783 1.7531363154
H -10.4006883640 0.7496684720 3.1964477476
H -8.7835330908 0.5272079991 3.8432083709
H -9.5927766915 0.2078942167 0.9058336135
H -9.3356014325 -1.1038439645 2.0469233301
H -6.9293308864 -0.3574794856 2.3101890515
H -7.2051504321 0.8619780533 1.0736376347
H -7.7859618991 -0.9130986077 -0.5789131363
H -7.5959581699 -2.1425341747 0.6617412900
H -5.1730850898 -1.5585149172 0.8893926594
H -5.6051715091 -2.1339595017 -0.7133808999
H -5.7256641229 0.2602086725 -1.5133226155
H -5.1687195633 0.7952177856 0.0652751689
H -3.6171134879 -1.0714131215 -1.7973835486
H -3.0802523525 -0.5512695222 -0.2067575872
H -3.7106013825 1.3385092329 -2.5330315409
H -3.0655033358 1.8270616866 -0.9736383927
H -1.6341821908 -0.0088769204 -2.9685028726
H -1.3451060573 1.7159823706 -2.8033874076
H -0.6247423729 1.3603740796 -0.4209466783
H -0.8361722066 -0.3728603245 -0.6222920182
H 0.8562182635 -0.3834750597 -2.4595231007
H 1.0707761391 1.3508678360 -2.2811654660
H 1.8611674104 1.0217885600 0.0706922291
H 1.6291690271 -0.7125167053 -0.0860734095
H 3.3186219767 -0.7802875884 -1.9327534786
H 3.5434269148 0.9568155905 -1.7993747621
H 4.3431536456 0.6793919883 0.5586834346
H 4.1044292155 -1.0569928501 0.4405022626
H 6.0182080455 0.5716351261 -1.3118670550
H 5.7840766330 -1.1665807143 -1.4165246480
H 6.5781275482 -1.4104944027 0.9569907999
H 6.8237833461 0.3265614161 1.0493048138
H 8.2557818682 -1.5556154594 -0.8978987554
H 9.0341284105 -1.7427848248 1.4946950638
H 9.3279557184 -0.0023348885 1.5217035738
H 10.7101496913 -2.0313573172 -0.3128537602
H 11.4105454536 -1.2804811231 1.1314257542
H 10.6852845914 0.0981678305 -1.2160643629
H 8.4778998337 0.1924020046 -0.8204045087
