55
CONF206
C 5.5591220165 -1.0390085135 -4.9819621657
O 4.2634564815 -1.4923693942 -4.6045735868
C 3.8265425536 -1.1780727497 -3.3520746929
C 4.5605025676 -0.4491960545 -2.4161237020
C 4.0017459813 -0.1931112758 -1.1661123086
C 2.7286053290 -0.6422306815 -0.8269466571
C 2.0113400498 -1.3813034715 -1.7761606170
C 2.5494281785 -1.6442245230 -3.0218455680
C 2.1703078927 -0.3019819169 0.5278750430
S 1.6342513069 -1.8750380827 1.3674769760
C 0.5273134952 -1.2831262160 2.6347396540
C 0.8677035061 -1.5030030364 3.9724558036
C -0.0240752757 -1.2080149052 4.9955237076
C -1.2675460491 -0.6654010403 4.6857247939
C -1.6119831223 -0.4171277757 3.3644950098
C -0.7286773802 -0.7219341992 2.3230897081
N -1.1295773888 -0.5055897339 0.9874903591
C -2.4917181107 -0.8830073026 0.5733433313
C -3.3966296900 0.3379271625 0.3780587661
N -4.7775093624 -0.0748482843 0.1371826208
C -5.4587352607 -0.4106328873 1.3837230992
C -5.5194970556 0.9643363157 -0.5724770865
C -0.3323026967 0.0810681639 0.0331471604
O -0.6786778556 0.1828291709 -1.1330668030
C 0.9906375244 0.6806266853 0.5320511930
O 1.3684931523 1.7683505038 -0.3211749829
C 0.5042133098 2.8201804748 -0.3172643384
C 0.9001199638 3.8285321714 -1.3529462263
O -0.4492757614 2.8926761528 0.4214223669
H 6.3360602933 -1.4655931824 -4.3339402506
H 5.6217299884 0.0568789666 -4.9564494339
H 5.7104572592 -1.3863305535 -6.0048391431
H 5.5542335984 -0.0811908657 -2.6383969332
H 4.5762144200 0.3792629523 -0.4429184957
H 1.0208267832 -1.7507136745 -1.5386181626
H 1.9955868987 -2.2119272062 -3.7614604459
H 2.9682807730 0.1486015983 1.1281332066
H 1.8399376343 -1.9294799568 4.1951769613
H 0.2527873680 -1.3971337660 6.0270593745
H -1.9697730155 -0.4195866751 5.4754806333
H -2.5725360646 0.0288109263 3.1302466644
H -2.8832906600 -1.5629784678 1.3332331961
H -2.4266015884 -1.4297397724 -0.3718523894
H -3.3100749290 1.0232092881 1.2454971940
H -3.0291828737 0.8888599438 -0.4920122928
H -6.4707294880 -0.7688776769 1.1687599582
H -5.5378547253 0.4580585183 2.0688415494
H -4.9327131114 -1.2119233531 1.9120154954
H -5.5851470543 1.9115508802 -0.0017118674
H -5.0376119987 1.1744975461 -1.5321150295
H -6.5389717100 0.6170491520 -0.7715467584
H 0.8423817299 1.0615322193 1.5481694532
H 0.6492113571 3.4210549245 -2.3376282182
H 0.3511882262 4.7549197939 -1.1899776374
H 1.9780108115 4.0038849596 -1.3342178511
