55
CONF188
C 1.5229575882 1.4630443573 1.2151668220
C 2.6196963616 1.7572116495 0.2030502723
N 2.7676474525 0.6264279191 -0.7225262846
C 3.0982347212 -0.5838199156 0.0394480386
C 2.0016190365 -0.8844276413 1.0509280137
N 1.8404383991 0.2493926658 1.9647854233
C 0.9465030068 0.0073744416 3.0974622473
C -0.5826153758 0.0356890719 2.8281181298
C -1.0840243565 -1.1339982923 2.0515378865
C -1.6505330028 -1.1597794036 0.8271138137
C -1.9526958166 -2.4508688974 0.1773567804
C -2.5648931356 -3.5013028133 0.8726219396
C -2.7753351075 -4.7358169284 0.2698388685
C -2.3932072924 -4.9383039806 -1.0556265040
C -1.8146976589 -3.9010172627 -1.7784195575
C -1.5998949431 -2.6661896895 -1.1638934875
S -0.8003349267 -1.3895084214 -2.1140351370
C -1.4667712341 0.0605668546 -1.3418802850
C -1.8753125801 0.0425536073 0.0028751931
C -2.4772357661 1.1942441254 0.5219349646
C -2.5667509673 2.3517541652 -0.2408795124
C -2.0815940219 2.3812220549 -1.5506371765
C -1.5550604718 1.2277571292 -2.1069047066
C -3.1583792224 3.6022264323 0.3289726400
F -2.2154426941 4.5713269152 0.5056722085
F -3.7469283174 3.4097376289 1.5301168173
F -4.0987074773 4.1413358605 -0.4923055230
C 3.7613161302 0.8947837451 -1.7688365787
C 3.1894207494 1.8451878386 -2.8139280749
O 1.9225358758 1.3664096919 -3.2846446893
H 0.5635689325 1.3783439771 0.6674761806
H 1.4355037550 2.3039278077 1.9144464026
H 2.3480257815 2.6565239282 -0.3596755070
H 3.5716324998 1.9592023486 0.7313757363
H 3.1874478683 -1.4256741400 -0.6567457365
H 4.0660558059 -0.4693673780 0.5656513309
H 1.0732893192 -1.1139751735 0.5008585950
H 2.2765469493 -1.7725309251 1.6324919464
H 1.2215856452 -0.9564091845 3.5440420853
H 1.1464292108 0.7844068077 3.8477238934
H -0.8435547954 0.9867776358 2.3612101592
H -1.0654493068 0.0293738800 3.8157467520
H -0.8953076379 -2.1015643986 2.5180609428
H -2.8751370134 -3.3352779756 1.8998004928
H -3.2457396717 -5.5369596589 0.8306077029
H -2.5609401437 -5.8970654493 -1.5354030599
H -1.5322468167 -4.0465038320 -2.8165847315
H -2.8739362221 1.1727174630 1.5296884847
H -2.1457970947 3.2879090477 -2.1431863409
H -1.2242932519 1.2256801892 -3.1405658137
H 3.9993292174 -0.0592697904 -2.2546520474
H 4.7016994622 1.3094973340 -1.3600357267
H 3.0844958779 2.8620542534 -2.4075243619
H 3.8677098446 1.8976596686 -3.6716774228
H 1.5091264243 0.9773106832 -2.4943176902
