25
CONF1178
C -0.8644247564 1.0148272445 1.0248013186
C -0.0470677385 1.1059059428 2.3003407256
O 1.3031608299 1.4522022803 1.9525201504
N -0.3852785104 -0.0352354408 0.1235118669
C -0.6928648772 0.2359835520 -1.2827209611
C 0.2858108230 1.2041839630 -1.9342681173
O 1.6242168116 0.6920480771 -1.9938813246
C -0.7747972957 -1.3896108801 0.5357214947
C 0.3753768946 -2.3462825976 0.2421598763
O 1.5745668264 -1.8674581209 0.8630341781
H -1.9281513304 0.8783902673 1.2959125750
H -0.7884822305 1.9783258288 0.5083466204
H -0.0671133753 0.1531430466 2.8480735239
H -0.4931534641 1.8764600840 2.9459170181
H 1.8179120157 1.4760205470 2.7680699187
H -0.6505371534 -0.7097580985 -1.8375899642
H -1.7197636499 0.6299085523 -1.4107363809
H 0.3512508432 2.1379970223 -1.3669942108
H -0.0822710744 1.4496679711 -2.9416743504
H 1.6023018623 -0.1192998080 -2.5172605703
H -1.7006809606 -1.7324767931 0.0419007003
H -0.9601511194 -1.3949010434 1.6152542487
H 0.1604199091 -3.3395424973 0.6501278728
H 0.5221946623 -2.4484551329 -0.8448591867
H 1.5375258413 -0.9020443845 0.7288376374
