49
CONF38
C -5.4551347646 1.8864838860 -3.1075675739
C -5.0345446882 1.1112218426 -1.8933482636
C -3.7954662305 1.2034836969 -1.3946859263
C -3.3186921433 0.4920551480 -0.1794353234
C -1.8604616410 0.0877376946 -0.0827795484
C -2.9689232165 -0.9723093341 -0.1688823962
C -3.0198238650 -1.7425644313 -1.4681791253
C -3.3158064495 -1.7958886106 1.0490570289
C -1.1358008162 0.3143786674 1.1795642537
O -1.6241865083 0.5054794884 2.2739485007
O 0.2098204916 0.2727750700 0.9717917370
C 1.0028064570 0.4693150473 2.1716644982
N 2.3718917494 0.3267040930 1.8102960596
C 3.0482660239 -0.9048754964 1.7298801724
O 2.5996631060 -1.9765572068 2.0686147383
C 4.3911485291 -0.5965964094 1.1596132569
C 4.4630895193 0.7188779248 0.9012800698
C 3.1712866361 1.3586014854 1.2836381127
O 2.8472270357 2.5206645832 1.1895531721
C 5.6505206361 1.4148750082 0.3425052615
C 6.8734155465 0.4880159858 0.4232366466
C 6.5305458212 -0.9412825302 -0.0192093701
C 5.4744591303 -1.5785314456 0.8970789263
C -6.0976741614 0.2471199106 -1.2805657490
H -5.7992693333 1.2105772894 -3.9005864830
H -6.2984417923 2.5482202619 -2.8729558998
H -4.6388697335 2.4961625403 -3.5024302559
H -3.0826177042 1.8610726672 -1.8912252655
H -3.7088964709 0.8522353193 0.7728406111
H -1.2560760712 0.1883074866 -0.9788219967
H -4.0299152283 -2.1351247546 -1.6335761850
H -2.7639823921 -1.1134813794 -2.3237860066
H -2.3284315776 -2.5913695706 -1.4345678637
H -3.2929880228 -1.2023486422 1.9641218417
H -4.3211954009 -2.2162609518 0.9301723974
H -2.6172353206 -2.6328456938 1.1622984717
H 0.8255666666 1.4751911105 2.5615834036
H 0.7345399347 -0.2890107539 2.9114938569
H 5.8204612943 2.3558174827 0.8784050184
H 5.4439858807 1.7008199746 -0.6986273128
H 7.6858186972 0.8897302075 -0.1901934578
H 7.2358541921 0.4652957103 1.4590757550
H 7.4331507139 -1.5598950521 -0.0336292452
H 6.1430399625 -0.9157352576 -1.0458292676
H 5.0532203312 -2.4902131920 0.4579480242
H 5.9219400989 -1.8885743420 1.8520579948
H -6.9446786296 0.8598758521 -0.9465888620
H -6.4963988254 -0.4577365710 -2.0207598839
H -5.7262073718 -0.3198941164 -0.4248109520
