53
CONF5
C -2.4324399026 4.5505840537 -0.3932556150
C -0.9755453240 4.1941672949 -0.5774304176
O -0.7967742928 2.8474957356 -0.0656368229
C 0.4478743135 2.3202268590 -0.1931437466
O 1.3740102701 2.9552357405 -0.6899685808
C 0.5126763333 0.9599972959 0.3203870376
C 1.7215611977 0.3430065432 0.4677409776
N 1.7957826912 -0.8989795333 1.0270069078
C 0.7251139520 -1.5629206240 1.5712629260
C -0.5251330084 -1.0219818299 1.4806877036
C -0.7841945124 0.2504933800 0.6844042372
C -1.6761086948 0.0013582984 -0.5374614441
C -2.9310664037 0.6229899026 -0.5872891819
C -3.8011567772 0.4584944212 -1.6556130929
C -3.4332128833 -0.3515074196 -2.7277188117
C -2.1984307051 -0.9867781152 -2.7149604856
C -1.3443377485 -0.8033618973 -1.6291313934
Cl 0.2041660509 -1.6516464442 -1.7019898094
C -1.6522095886 -1.6655764017 2.1452664271
O -1.6702198575 -2.7724156186 2.6701706824
O -2.7565166696 -0.8682035685 2.1255355372
C -3.9413291834 -1.4317669952 2.7219070275
C 1.0881470651 -2.8457493909 2.2558905618
C 3.0611709140 0.9570234505 0.0982929501
O 4.1617688596 0.1846081763 0.5668176259
C 4.9323718815 -0.4597272820 -0.4578334064
C 4.2634405455 -1.7008914778 -1.0251726737
N 3.9971125894 -2.6670643955 0.0521896075
H -3.0748656953 3.8671095058 -0.9559629932
H -2.6050969755 5.5674181327 -0.7578697218
H -2.7145734323 4.5099468371 0.6628555302
H -0.3164326992 4.8724853635 -0.0252058861
H -0.6812596108 4.2121916784 -1.6318816009
H 2.7020648530 -1.3800484095 1.0103334680
H -1.3678841171 0.9290797763 1.3135025164
H -3.2160323973 1.2554789914 0.2475077008
H -4.7632271074 0.9607916531 -1.6529377358
H -4.0998902400 -0.4920821119 -3.5723626917
H -1.8925318445 -1.6219592498 -3.5388693128
H -4.2176407981 -2.3621322932 2.2184680928
H -3.7821314670 -1.6275382741 3.7857816033
H -4.7191921281 -0.6800406797 2.5863660801
H 2.1716387306 -2.9812074642 2.2589509457
H 0.7183428349 -2.8541938907 3.2828225491
H 0.6226841729 -3.6956338569 1.7494790371
H 3.1094078194 1.1045510264 -0.9876643838
H 3.1252889432 1.9499393986 0.5542325823
H 5.1554907618 0.2491691919 -1.2677855124
H 5.8764771792 -0.7347795221 0.0264533696
H 3.3080138714 -1.4278860434 -1.4930102681
H 4.9113449115 -2.0916011223 -1.8271018844
H 4.8757749362 -3.0115328434 0.4273855418
H 3.5077083072 -3.4746343434 -0.3192536377
