47
CONF115
C 0.4226555691 0.8015454654 3.2354230954
C 0.1585102980 1.6914240782 2.0419204939
C 0.6757091636 3.1102857548 2.0172964763
C 1.3825498910 2.0363033066 1.1877308908
C 1.2793790717 2.0988027768 -0.2759217928
O 0.4766969121 2.7245243345 -0.9343244370
O 2.2403767873 1.3017756117 -0.8437444500
C 2.1353278164 1.1699765380 -2.2847955879
C 3.4486782600 0.7027347630 -2.7289516115
N 4.4661577722 0.3179165599 -3.1158966968
C 1.0437389617 0.1955962406 -2.6687600061
C 1.0316545908 -1.0775854920 -2.0969659928
C 0.0122221762 -1.9608740042 -2.4116931364
C -0.9793650867 -1.5616126301 -3.3097317187
C -0.9782568910 -0.3059158506 -3.8857358584
C 0.0441617819 0.5805955416 -3.5574772288
F -1.9622375427 -2.4347492310 -3.6068115740
O 0.0224582115 -3.2378049680 -1.8990686132
C -0.9539240755 -3.5750174085 -0.9703886180
C -1.0753353199 -4.9328370276 -0.6859898446
C -2.0065934518 -5.3444860181 0.2607777559
C -2.8115789527 -4.4125141883 0.9161330181
C -2.6747197674 -3.0596569094 0.6180717585
C -1.7443141075 -2.6280796221 -0.3260122511
C 1.3944414684 3.7065451324 3.1451563023
C 1.2984704781 4.9787369008 3.5324012581
Cl 0.2908659448 6.1670897996 2.7516446712
Cl 2.1889982201 5.6055566305 4.8965944265
C -1.1756191267 1.4326836267 1.3806562660
H 1.4267051092 0.9255256393 3.6455646317
H 0.3061190406 -0.2464699474 2.9401507050
H -0.3058830607 1.0142419654 4.0255777778
H 0.0748390855 3.7899765594 1.4208290152
H 2.3253917916 1.6561497359 1.5659732314
H 1.9449131803 2.1494553666 -2.7383405160
H 1.7993207582 -1.3922170689 -1.3965841703
H -1.7690986016 -0.0308245097 -4.5749516688
H 0.0531722853 1.5756376040 -3.9896743198
H -0.4433277433 -5.6458731182 -1.2049830546
H -2.1042006995 -6.4022970772 0.4842763690
H -3.5379055421 -4.7394980368 1.6525567255
H -3.2924753411 -2.3236466141 1.1234096750
H -1.6379813805 -1.5719665293 -0.5486560961
H 2.0652016997 3.0771617467 3.7219142995
H -1.2178541430 0.4027698302 1.0089736092
H -1.3660190989 2.1136046316 0.5501715012
H -1.9720260962 1.5573102227 2.1218853921
