44
CONF114
C 3.0994884628 1.6254709902 -1.5234685226
C 2.2943549221 0.7953325854 -0.5280845452
C 3.1688473377 0.1287415254 0.5986152945
N 2.4886019722 -1.0907428964 0.9825492166
C 1.8324531797 -1.8622041480 -0.0871734848
S 1.5333714265 -0.6611346959 -1.4504894906
C 0.6841123064 -2.2042118792 0.9192412022
C 1.4218442026 -1.2115137996 1.8657275739
O 1.1854638729 -0.6806199891 2.9242664157
N -0.6359770099 -1.8198124577 0.5368567037
C -1.7585382632 -2.4048751623 1.0204601076
O -1.7456915568 -3.3399706433 1.8190402231
C -3.0729436325 -1.8564843039 0.4287771351
C -2.9757421737 -0.3961015960 0.0482758417
C -2.9086690563 0.5939664335 1.0340950197
C -2.7421935689 1.9302938944 0.6964963541
C -2.6352832997 2.2970455599 -0.6486938109
C -2.7073476604 1.3248091356 -1.6452760173
C -2.8776639812 -0.0097497432 -1.2901474734
O -2.4565715100 3.5922934219 -1.0427449389
N -4.1432348853 -2.0911204506 1.4027866391
C 4.5781880619 -0.1929695518 0.1265244493
O 5.4181649290 0.8215180472 0.3819546601
O 4.8967853370 -1.2233233050 -0.4240931962
C 1.1965298400 1.6486056549 0.1074225896
H 3.8730116494 1.0356801726 -2.0223361740
H 3.5706094142 2.4648064369 -1.0021709318
H 2.4321564290 2.0345625759 -2.2869736536
H 3.2192672874 0.8037848920 1.4585186699
H 2.4014509123 -2.7128914753 -0.4644664587
H -0.7306552120 -1.0056921064 -0.0592400136
H -3.2049043467 -2.4359677564 -0.5044474293
H -2.9790932763 0.3121390888 2.0801952131
H -2.6840788029 2.6908363745 1.4708733826
H -2.6297993262 1.6200012973 -2.6867505067
H -2.9277617436 -0.7651226599 -2.0701704028
H -2.4149505086 4.1651461118 -0.2647292071
H -5.0350286134 -1.9747587911 0.9322431943
H -4.0971297228 -3.0605307631 1.7031335342
H 1.6487973683 2.5112012277 0.6099554598
H 0.5146365196 2.0124777334 -0.6659912445
H 0.6078047951 1.0901696105 0.8403029188
H 0.6936092514 -3.2393394354 1.2704667405
H 6.2946078792 0.5994681114 0.0201020081
