38
CONF22
C 3.4019465253 2.3231697444 -1.8525512440
S 4.4375858114 1.1321060899 -1.0030301788
O 3.8710922088 -0.2108564309 -1.1646283517
O 5.8447688447 1.3897665866 -1.3288155418
N 4.2934410137 1.5784624948 0.6539977084
C 3.4514609982 1.0809887468 1.6237941073
O 3.5685774745 1.4242600554 2.7884514695
C 2.2787114477 0.2441313861 1.1888379071
C 2.2516006721 -1.1550766496 1.2163661794
C 1.0970450760 -1.8616182823 0.8966049425
C -0.0558281744 -1.1814682916 0.5463095511
C -0.0347530052 0.2133613917 0.5265070641
C 1.1228125207 0.9261436596 0.8497615963
O -1.1109418576 0.9782472407 0.1785478555
C -2.3318703389 0.3596610896 -0.0207428690
C -3.1318610806 -0.0033978668 1.0641685043
C -4.3820664388 -0.5678572519 0.8514000621
C -4.8207669497 -0.7605324168 -0.4555189152
C -4.0334914694 -0.3855208648 -1.5426080693
C -2.7835763159 0.1745459183 -1.3200891052
C -6.1859580586 -1.3363591721 -0.6984317625
F -7.1171902628 -0.3617480751 -0.8849291567
F -6.2161648020 -2.1148287801 -1.8053341821
F -6.6171401042 -2.0926318361 0.3358739713
Cl -2.5559411997 0.2499341375 2.6891711235
N 3.4581845872 -1.8949070212 1.5391554027
O 3.4098804174 -3.1226045976 1.5521027515
O 4.4787698744 -1.2485536879 1.7835968246
H 3.7710773112 3.3231422708 -1.6160808060
H 3.5010151011 2.1065641645 -2.9198813651
H 2.3714864342 2.1837907385 -1.5192261974
H 5.0365583637 2.1905597708 0.9829425927
H 1.1089939226 -2.9440123411 0.9139287357
H -0.9531597202 -1.7314424092 0.2883107462
H 1.1016303809 2.0108625896 0.8332416995
H -4.9968375603 -0.8508072895 1.6974656837
H -4.3858707476 -0.5344481282 -2.5568176159
H -2.1432216833 0.4689732852 -2.1443158353
