47
CONF86
C 4.5929413302 -2.6586391917 -0.7985902283
C 3.5006667655 -1.6732745132 -0.5100817378
C 2.1567878583 -2.1168734733 -0.3291617120
C 1.8306570079 -3.5732243652 -0.4387314435
C 1.1431215698 -1.2090562987 -0.0579484557
C 1.4161565315 0.1605438196 0.0392580794
N 0.4405593301 1.1001594741 0.3117182587
C -0.9417285226 0.6702432844 0.5902216012
C -1.7537344012 0.4865212219 -0.6924945344
O -1.7663698999 1.6785958796 -1.4821396500
C -3.2008518268 0.0679497406 -0.3775448092
O -3.8901524181 1.1027731141 0.3264076585
C -3.2954945395 -1.1810741917 0.4943204104
O -2.3588007504 -2.1383932710 -0.0128968648
C -4.7014548172 -1.7666517614 0.4871146020
O -4.7437586263 -2.9837666801 1.2460166858
C 0.7346261646 2.4397676171 0.3180588941
N -0.2501895888 3.3080964820 0.4771262610
C 0.0414393120 4.6407139276 0.5239950084
O -0.8205540540 5.5078387624 0.6575386142
N 1.3866565899 5.0432371022 0.4133846980
C 2.4760856070 4.2293544601 0.2230023478
O 3.6166247886 4.6633499205 0.1272971122
C 2.1220189193 2.7896335534 0.1481682612
N 3.0782138672 1.9267224552 -0.0728124902
C 2.7524297356 0.6141562368 -0.1497519052
C 3.7684807776 -0.3263197313 -0.4175627858
H 4.6746869780 -3.4006610297 0.0033220614
H 5.5541696161 -2.1521259253 -0.9022905392
H 4.3894971771 -3.2110880817 -1.7227342482
H 2.1133710916 -3.9596985527 -1.4246408097
H 0.7656850418 -3.7531320103 -0.2826743824
H 2.3973963656 -4.1534702404 0.2985608886
H 0.1343798990 -1.5869814200 0.0588017205
H -0.8931953997 -0.2626772857 1.1527973589
H -1.4033456329 1.4297441624 1.2224234386
H -1.2983837950 -0.2901659303 -1.3154032253
H -1.7123613732 2.4388933835 -0.8798460620
H -3.6899053222 -0.1274835189 -1.3449048958
H -4.0203091952 1.8346647168 -0.2908107158
H -3.0345232362 -0.9066777258 1.5313563068
H -2.5678066448 -2.9766860360 0.4246671326
H -4.9765904306 -2.0370121952 -0.5383060514
H -5.4196479350 -1.0306974940 0.8684429733
H -4.6826061412 -2.7510526052 2.1818179736
H 1.5582151558 6.0410163714 0.4665736097
H 4.7768976740 0.0529082564 -0.5510636851
