33
CONF2
C -3.9056740054 -0.2998424286 -0.1108538918
C -3.6070377996 -0.9928404683 1.0627947214
C -2.2811657999 -1.0778803728 1.4665989656
N -1.2850379172 -0.5200496901 0.7813040915
C -1.5531258518 0.1324411601 -0.3450230228
C -2.8714017190 0.2645662493 -0.8256041531
Cl -3.1890861505 1.1374627542 -2.3025623870
N -0.5061050121 0.7207718206 -1.0297589283
C 0.8344584635 0.5624475301 -0.7454807864
C 1.4412955304 -0.6563240396 -0.3962754415
C 2.7848670035 -0.7405930254 -0.0789046315
C 3.6148256746 0.3685045374 -0.1552993233
C 3.0598096752 1.6026303483 -0.5137006896
C 1.6918700038 1.6831125330 -0.7680484080
N 1.0778062646 3.0001627710 -1.0280037201
O 0.4555388533 3.1131422937 -2.0817872398
O 1.2003719711 3.8559691718 -0.1753968274
Cl 4.0483115673 3.0107380324 -0.6724424699
C 5.0912636083 0.2101790638 0.1293620055
F 5.8442403463 0.5249012549 -0.9457988881
F 5.3838482363 -1.0642131340 0.4626011065
F 5.4891618148 0.9922582017 1.1542110843
N 0.7227469381 -1.9439362700 -0.4819973104
O 1.0410406978 -2.8093158272 0.3175679846
O -0.0959518155 -2.0657330879 -1.3812526135
C -4.7186258583 -1.5895632714 1.8717159355
F -5.6086225611 -2.2421163405 1.0872863188
F -4.2606389081 -2.4644189210 2.7898619039
F -5.4150272500 -0.6334429652 2.5372349416
H -4.9266067628 -0.2127426780 -0.4653112812
H -2.0055128155 -1.6118252131 2.3712784418
H -0.7411720082 1.4239538176 -1.7186555210
H 3.1893356920 -1.7076817001 0.1903401447
