70
CONF35
C -1.2494037909 -2.1711786335 2.1809899542
C -2.1188539634 -2.3193378100 3.4472233138
C -1.5711516285 -1.4190516729 4.5055349457
C -1.5521439842 -1.4230466871 5.8750117012
N -0.8985626050 -0.2758889450 6.3252522532
C -0.4847423808 0.4732428981 5.2456799397
C 0.2114092850 1.6756964220 5.1199651887
C 0.4659233212 2.1163972025 3.8251695395
C 0.0569040286 1.3998170028 2.6815241875
C -0.6420545656 0.2045654006 2.8030283123
C -0.9012129707 -0.2333952478 4.1009632934
C -1.1356774747 -0.6931861207 1.6861870395
C -0.2265851042 -0.6234618688 0.4547561375
C -0.6428456493 -1.6412391953 -0.6209143402
C -0.7050479370 -3.0402061650 0.0033581677
N -1.6530385476 -3.1049949320 1.1222772489
C -3.0527221021 -2.9907834694 0.6886897444
C -3.4100869638 -4.0725602136 -0.2845052795
C -3.9926852173 -3.8593617311 -1.4603592709
C 0.3464975798 -1.6106217736 -1.7687328943
O 1.0831985772 -2.5577623677 -2.0067763168
N 0.5080205979 -0.4197672202 -2.4871031758
C 1.6733023834 -0.3721592686 -3.3931626622
C 3.0210321753 -0.3178684226 -2.6662745267
C 3.1567686765 0.7929330136 -1.6323282780
N 2.9047344637 2.1476244906 -2.1524337973
C 3.8612147643 2.5331865582 -3.1898444942
C 2.9321593328 3.1106205671 -1.0497261477
C -0.4710260139 0.6273297394 -2.4915982712
O -1.6631467253 0.4122443901 -2.3143517092
N 0.0369549612 1.8599809411 -2.7378236779
C -0.8547755773 3.0111622177 -2.7896009286
C -0.1630825161 4.1818373689 -3.4733964419
H -0.2290291227 -2.4729662011 2.4693898143
H -3.1532421764 -2.0242039273 3.2270899537
H -2.1357051396 -3.3722269089 3.7488362838
H -1.9437652812 -2.1386644119 6.5838900219
H -0.7421050631 -0.0480918966 7.2904965561
H 0.5464010583 2.2464023368 5.9800473498
H 1.0056143049 3.0485473249 3.6893725658
H 0.2979091169 1.8020917058 1.7025520626
H -2.1419670331 -0.3555844369 1.3910933576
H -0.2408260534 0.3919681286 0.0445668250
H 0.8063548180 -0.8365548069 0.7701255667
H -1.6265385962 -1.3618367550 -1.0046743539
H -0.9856973612 -3.7788252855 -0.7520995801
H 0.2865554566 -3.3227839848 0.3764847050
H -3.6877767091 -3.1187072912 1.5740654414
H -3.3157332236 -2.0109500022 0.2484889357
H -3.1718986700 -5.0867232240 0.0358284190
H -4.2177816612 -2.8526030887 -1.8039811293
H -4.2611945369 -4.6797684092 -2.1179139490
H 1.5457928750 0.4892548274 -4.0517678107
H 1.6524648442 -1.2747067373 -4.0129983185
H 3.1784601472 -1.2688911758 -2.1492359018
H 3.8105111203 -0.2474187371 -3.4240112485
H 4.1616476052 0.7343516710 -1.1711642357
H 2.4291813313 0.6185995969 -0.8283565222
H 4.9070430860 2.5009934146 -2.8315013583
H 3.6433928670 3.5528374991 -3.5232969587
H 3.7743704084 1.8724480579 -4.0564044370
H 3.9090687511 3.1317755457 -0.5331424752
H 2.7240962808 4.1173472508 -1.4265258929
H 2.1627500920 2.8505450712 -0.3144125229
H 1.0478694245 2.0271396789 -2.6276316370
H -1.7589614914 2.7198072934 -3.3331163780
H -1.1787901337 3.2955758342 -1.7771877247
H 0.1237772640 3.9224312961 -4.4971666317
H 0.7398306050 4.4822826724 -2.9308697696
H -0.8313551360 5.0463413001 -3.5115470367
