31
CONF1
C -3.4257188806 1.1356685802 -1.8527905057
C -3.0689023982 0.4911222261 -0.5122398373
C -3.9643308160 -0.7105557333 -0.2048350660
O -3.1525221085 1.4602288962 0.5465629898
C -1.6123086790 0.0028378741 -0.5805793710
O -1.2739910391 -0.8288496913 -1.4127959659
N -0.7706777730 0.5681447465 0.3429882770
C 0.5849400054 0.3397746597 0.5426548910
C 1.3115972056 -0.6314181658 -0.1635884129
C 2.6694094979 -0.8063927188 0.0671273528
C 3.3023547252 -0.0093550425 1.0313124946
C 2.5784626615 0.9245945282 1.7665134770
C 1.2343854065 1.1098803298 1.5176505429
N 4.7401938226 -0.0714130823 1.2960843350
O 5.4913555047 -0.2825500694 0.3496736430
O 5.1120750561 0.1299977279 2.4490654022
C 3.3597907068 -1.9240934892 -0.6889483040
F 4.0764163527 -1.4793565011 -1.7442919338
F 2.4567756692 -2.8013642197 -1.1870198012
F 4.1855230470 -2.6416902363 0.1062466906
H -2.7780133957 1.9953432952 -2.0478011700
H -3.3154679525 0.4132892766 -2.6647631827
H -4.4664757774 1.4739244117 -1.8227991935
H -3.6945075376 -1.1514976340 0.7592018519
H -3.8666755585 -1.4688029140 -0.9851400667
H -5.0075292753 -0.3807099835 -0.1656229008
H -4.0668067686 1.7648172217 0.6009049735
H -1.2087243788 1.2526594282 0.9481933222
H 0.8002531125 -1.2560820928 -0.8787443222
H 3.0878493201 1.5240943699 2.5109906916
H 0.6812707424 1.8577540970 2.0767894000
