58
CONF14
C -5.1648887319 -2.9699416012 2.6037274507
C -4.5110864471 -1.9747232430 3.3322618513
C -3.1596363221 -1.7333802741 3.1259443526
C -2.4256768584 -2.4823180880 2.1947784497
C -3.0882998116 -3.4809991909 1.4751803485
C -4.4501748385 -3.7191898851 1.6777110276
C -0.9423170151 -2.1591930241 2.0174765235
C -0.2292527016 -3.0834018681 1.0113137377
C 1.2768121738 -2.8322830889 0.8552405617
C 1.6286356012 -1.6063535215 0.0456125220
C 2.4935981008 -0.6393537627 0.5564408570
C 2.8206374689 0.4912091888 -0.1841850575
C 2.2972963438 0.6825590335 -1.4691173062
C 1.4431081701 -0.3027602606 -1.9862777238
C 1.1182686226 -1.4283782250 -1.2430313175
C 2.6328526493 1.8841777558 -2.2594690959
C 2.7346317235 1.8233851786 -3.6565695566
C 3.0393449130 2.9516069727 -4.4100980039
C 3.2464621834 4.1574855402 -3.7529872707
C 3.1607293712 4.2583779771 -2.3704653725
C 2.8553491392 3.1190642587 -1.6349568745
Br 3.6635293943 5.7247002447 -4.7809481306
O 1.8781307689 -3.9477747608 0.1593781475
C -0.7468272130 -0.6861450132 1.7164171981
C -1.3320299904 -0.0610263023 0.6451238519
C -1.0276250960 1.3060406237 0.3188691026
C -1.5281296394 1.9703066991 -0.8124781445
C -1.1649886580 3.2820427526 -1.0646636101
C -0.3065430601 3.9544524541 -0.1869270488
C 0.1960814078 3.3179151939 0.9381219081
C -0.1628223071 1.9951678063 1.1766153929
O 0.3543951398 1.3992847851 2.2888880117
C 0.1233233636 0.0603360114 2.5843211798
O 0.6884347448 -0.3661565939 3.5794570548
O -2.1926696877 -0.6650687391 -0.1892747551
H -6.2226384334 -3.1564310961 2.7601884409
H -5.0583192928 -1.3860850116 4.0622588240
H -2.6579288110 -0.9532326949 3.6927630781
H -2.5556471366 -4.0874978469 0.7504706238
H -4.9457268380 -4.4975905985 1.1057477666
H -0.4694162248 -2.3264474644 2.9918294201
H -0.3515881050 -4.1117447119 1.3737262674
H -0.6964360196 -3.0398863000 0.0209936887
H 1.7303112507 -2.7345793536 1.8533694456
H 2.9133157515 -0.7692292944 1.5502959525
H 3.5087031103 1.2189879798 0.2346803227
H 1.0042833924 -0.1728782116 -2.9705979368
H 0.4467518190 -2.1678011001 -1.6687133890
H 2.5969392427 0.8777719970 -4.1707905973
H 3.1222144664 2.8843514600 -5.4887540601
H 3.3169856245 5.2076865383 -1.8710887010
H 2.7604594447 3.2064940297 -0.5581808963
H 1.7098527048 -4.7421480847 0.6838461701
H -2.1939638573 1.4418506906 -1.4846675151
H -1.5479002665 3.7903215578 -1.9429593289
H -0.0231155549 4.9825123525 -0.3878521089
H 0.8667591616 3.8206479621 1.6264481440
H -2.4725486692 -1.5247360123 0.1716366329
