58
CONF41
C -5.1473156709 -3.3529451949 2.5011738076
C -4.2692030826 -4.1747768463 1.8005714071
C -2.9614143839 -3.7602302059 1.5499296616
C -2.5133434640 -2.5175714233 1.9978328667
C -3.4039897469 -1.6979396823 2.6997856611
C -4.7086622102 -2.1085927996 2.9520232651
C -1.0958150504 -2.0005329007 1.7564077857
C -0.1035017742 -3.0869614609 1.3073496119
C 1.3668380675 -2.6956121217 1.4529697835
C 1.7908407583 -1.5278046148 0.5946191723
C 2.3683818185 -0.3989349015 1.1735293624
C 2.7121722036 0.7045337680 0.4006094494
C 2.4862274302 0.7094013809 -0.9809904233
C 1.9363933711 -0.4437155153 -1.5648736902
C 1.6050366604 -1.5456738539 -0.7913860889
C 2.8006206730 1.8970140968 -1.7999515250
C 2.6783423949 3.1875494545 -1.2669744504
C 2.9480202725 4.3160623296 -2.0322953967
C 3.3482274232 4.1479612676 -3.3514503612
C 3.4889386371 2.8865979265 -3.9156607212
C 3.2144733873 1.7701221398 -3.1338388897
Br 3.7169068412 5.6984931003 -4.4218153258
O 2.1092455352 -3.8847412689 1.1063727477
C -1.1473720103 -0.7894751489 0.8397394712
C -0.8259494518 0.4839375468 1.2408243428
C -0.8979757777 1.5983219582 0.3301696686
C -0.5830491083 2.9196729543 0.6880454930
C -0.6575823054 3.9318675824 -0.2529783729
C -1.0383402199 3.6432703065 -1.5684149380
C -1.3529254612 2.3456532113 -1.9433400069
C -1.2861301993 1.3360141148 -0.9874536206
O -1.6205794435 0.0767353630 -1.3851436269
C -1.5848574653 -1.0099767826 -0.5143592366
O -1.9300987645 -2.0764384511 -0.9942715675
O -0.4140578166 0.8152653197 2.4747607416
H -6.1646417749 -3.6782334123 2.6955082508
H -4.6007296225 -5.1447516150 1.4420428631
H -2.2979734191 -4.4117569774 0.9926814783
H -3.0679570478 -0.7263939275 3.0551674130
H -5.3818735769 -1.4592466280 3.5035420532
H -0.7466370224 -1.6716658228 2.7450101073
H -0.2568363267 -3.9677689974 1.9405679099
H -0.2992405623 -3.3856591042 0.2741287785
H 1.5589948863 -2.4351380871 2.5058285550
H 2.5394946329 -0.3769171923 2.2466637266
H 3.1694736872 1.5656745370 0.8777182887
H 1.7328826819 -0.4639115404 -2.6310316061
H 1.1636572211 -2.4171308588 -1.2661220638
H 2.3346409902 3.3231489608 -0.2473517968
H 2.8334600458 5.3067389795 -1.6073761817
H 3.8147744126 2.7701935772 -4.9428768495
H 3.3465254947 0.7856228038 -3.5705482190
H 3.0483255275 -3.6622645352 1.1539843330
H -0.2772013406 3.1339725714 1.7052293972
H -0.4097243472 4.9498905129 0.0276547546
H -1.0871575658 4.4380723808 -2.3056388345
H -1.6522071641 2.1003296962 -2.9565364698
H -0.3285521787 0.0306458455 3.0363185280
