40
CONF202
C 3.3401489847 -1.5000085255 1.2401811519
O 4.0938326972 -0.3822849296 0.7019114400
C 4.3180118849 -0.4160417777 -0.6213342280
O 3.9828364096 -1.3305601779 -1.3467732875
C 4.9884001402 0.8514882196 -1.0837215149
S 3.7073427415 1.9698946357 -1.8186717631
C 2.5937664888 2.1170026785 -0.4315060586
C 1.4259249267 1.3512461995 -0.4326394430
C 0.5102371078 1.3838943729 0.6271427216
C 0.8370579475 2.2137974919 1.7078011864
C 1.9778533076 2.9906618317 1.7475869557
C 2.8533504385 2.9436938591 0.6682284656
Cl 4.2989742131 3.9260227240 0.7428297634
F -0.0050595556 2.2627663233 2.7599742297
N -0.6098132093 0.5683326221 0.7028354345
C -1.4865794426 0.5405350686 -0.2311297466
N -2.5498277345 -0.3304256520 -0.2071929309
N -3.3086656587 -0.3251440336 -1.3890512365
C -3.0502701311 0.6879701270 -2.2557110835
O -3.6910286163 0.9803573310 -3.2475716976
S -1.5732897855 1.5803206282 -1.6890752725
C -4.6447711876 -0.9373415471 -1.2885988964
C -4.5187208863 -2.3451948292 -0.7240130202
C -3.7575873192 -2.3089656282 0.5987319673
C -2.3914871860 -1.6675416813 0.4070722219
H 2.3584971939 -1.5482974116 0.7619671893
H 3.2398953643 -1.2925218177 2.3045070517
H 3.8828206765 -2.4335583551 1.0763192826
H 5.6771615369 0.6284279311 -1.9018535430
H 5.5085990068 1.3613766569 -0.2709360962
H 1.2442084009 0.6760791003 -1.2622428644
H 2.1710885794 3.6216559330 2.6073086153
H -5.2694098879 -0.3101521607 -0.6374472450
H -5.0622980609 -0.9339002972 -2.2964694096
H -5.5242399693 -2.7525199505 -0.5836446933
H -3.9936137511 -2.9837740973 -1.4442865145
H -4.3274466790 -1.7420659904 1.3447819722
H -3.6090296309 -3.3201808125 0.9889303159
H -1.7553209829 -2.2829724949 -0.2455001551
H -1.8815495893 -1.5120716651 1.3579657131
