44
CONF4
C -2.3295269258 -1.3753473078 0.8150290974
C -2.2322943928 -0.4369131629 -0.3962476679
C -1.5517485187 -1.1426578614 -1.5680864643
C -0.0598462624 -1.3891936127 -1.2904996856
C 0.6888684600 -0.1105212446 -0.8721350062
C -0.0179212761 0.6163611998 0.2928098541
C -1.4652202534 0.8666309204 -0.0978550258
C -2.3917476253 1.6412859404 0.8538902013
C -3.8201658000 1.2267467776 0.4002524409
C -3.6169705706 0.1527935571 -0.6993668223
O -4.6193048391 -0.8640257132 -0.7214321875
C 0.7532271413 1.8905005501 0.6223779393
C 2.1322410274 1.5379492281 1.1697165304
C 2.8413333396 0.4677788505 0.3703542651
C 2.1639712631 -0.3331206171 -0.5672250128
C 2.9024898100 -1.3120500757 -1.2393320864
C 4.2566211478 -1.5125128179 -1.0038843751
C 4.9104480625 -0.7135247164 -0.0696029162
C 4.2011048438 0.2689371144 0.6084404694
O 6.2433445431 -0.8479714838 0.2195673339
H -1.3518697211 -1.7653372331 1.1050496650
H -2.9742313266 -2.2228936066 0.5692208495
H -2.7597977387 -0.8779029244 1.6881648735
H -2.0530610436 -2.0914590340 -1.7933061571
H -1.6480387952 -0.5101071822 -2.4624698278
H 0.0690888941 -2.1528045449 -0.5134031052
H 0.3873270355 -1.8032712260 -2.1997997832
H 0.6319190222 0.5823414981 -1.7307845459
H 0.0085584820 -0.0321579614 1.1829392763
H -1.4395614885 1.4279963091 -1.0487533181
H -2.2093950245 1.3496322209 1.8943245351
H -2.2337671965 2.7215110137 0.7924376713
H -4.3982585581 2.0775577213 0.0263774582
H -4.3898298380 0.7825867552 1.2225710316
H -3.5670257427 0.6383617486 -1.6888036072
H -5.4569610426 -0.4518222571 -0.9563827569
H 0.2088898188 2.4951782909 1.3565141614
H 0.8475142146 2.4975029223 -0.2892317822
H 2.7680877299 2.4291075599 1.2262156174
H 2.0245762844 1.1775705498 2.2030199597
H 2.4164064777 -1.9446072686 -1.9732730995
H 4.7971660684 -2.2855642985 -1.5448710185
H 4.7250869838 0.8852828440 1.3334816395
H 6.6082736159 -1.5578476176 -0.3201408307
