37
CONF30
C -4.4000863601 2.1190175075 1.5659775995
C -4.7292583508 2.5794848147 0.2955724624
C -4.3129447342 1.8724237175 -0.8241745241
C -3.5437092247 0.7157223545 -0.6859399754
C -3.1880516931 0.2578493190 0.5927758134
C -3.6471578177 0.9621455877 1.7076866553
C -2.3787827007 -0.9802873138 0.9000162879
O -2.7955067921 -1.8034132659 1.7064260942
N -1.1704049365 -1.0542706319 0.2897179792
C -0.2898036475 -2.2003225846 0.4322123321
C 0.9926170098 -1.8685484916 1.1912560655
C 1.8974959849 -0.8984624188 0.4819400013
C 3.1488156717 -0.5332593810 1.0059382876
C 3.9711527673 0.3461489523 0.3246302637
C 3.5149894374 0.8613536273 -0.8843997226
C 2.2654008934 0.4701847151 -1.3484511609
N 1.4867167888 -0.3830326978 -0.6820335695
C 4.3857531715 1.7839926349 -1.6871192884
F 3.6576457657 2.5838817927 -2.4945055868
F 5.1388056879 2.5780070108 -0.8921998603
F 5.2423561719 1.0905443484 -2.4771948796
Cl 3.6872915740 -1.1895073333 2.5331509026
C -3.1471661258 -0.0217186078 -1.9396397714
F -3.9170131901 0.3227007496 -2.9947488933
F -1.8580002527 0.2563641197 -2.3069696683
F -3.2378837916 -1.3608595440 -1.8052161165
H -4.7362977720 2.6563139957 2.4466340468
H -5.3238252268 3.4784216519 0.1734720148
H -4.5983949592 2.2096294409 -1.8132647507
H -0.0460155165 -2.5930013642 -0.5619117429
H -0.8439121608 -2.9644505647 0.9826560748
H 1.5529987615 -2.7940427043 1.3787255283
H 0.7451369247 -1.4694091196 2.1835870961
H 4.9374514841 0.6271217169 0.7272437398
H 1.8725697424 0.8578441198 -2.2847991036
H -0.8771834849 -0.3328446824 -0.3505063112
H -3.4031689469 0.5747689697 2.6909222200
