39
CONF1
C -1.7735681711 2.6192569618 -3.1219656648
C -1.1593454385 2.3139732914 -1.7909097772
O -0.1637344626 2.9168894346 -1.3986203665
C -1.8364644134 1.2510385266 -0.9648997720
C -1.0157196897 0.7983209983 0.2405305712
C -1.8106195001 0.0516571267 1.3064615927
C -3.1245794025 -0.3811927641 1.1308514760
C -3.7956162025 -1.0448697650 2.1571958028
C -3.1616118424 -1.2887454804 3.3718765061
C -1.8474228628 -0.8616394631 3.5558795007
C -1.1818977791 -0.1976006428 2.5312424961
C 0.2153683690 0.0016435059 -0.1555411420
C 1.4882669283 0.5190318772 -0.1055178574
O 1.7510635491 1.8096024266 0.1364889383
C 2.6390144180 -0.3281936756 -0.2949471557
C 3.9636958977 0.1232685468 -0.1788656360
C 5.0167828584 -0.7587254260 -0.3498243525
C 4.7655454349 -2.1027566181 -0.6502938567
C 3.4651802007 -2.5673822078 -0.7818820571
C 2.4121813570 -1.6751273677 -0.6019501288
O 1.1481293142 -2.1594792192 -0.7644074657
C 0.0188634713 -1.3610245274 -0.5751504330
O -1.0525565542 -1.8988262121 -0.7910373594
H -2.8653057983 2.6365121636 -3.0531316953
H -1.3918974782 3.5594012359 -3.5213715445
H -1.5123301814 1.8022614338 -3.8067009157
H -2.7851680429 1.7030420182 -0.6381786175
H -2.1149652814 0.4132320294 -1.6144364500
H -0.6609199586 1.7070861733 0.7405345590
H -3.6348025744 -0.2215213966 0.1873675313
H -4.8174864006 -1.3771823406 2.0006899263
H -3.6856577885 -1.8070012909 4.1688114438
H -1.3417995047 -1.0424965332 4.4995806679
H -0.1570035617 0.1348295501 2.6788765058
H 0.9793528409 2.3469882153 -0.1689432814
H 4.1453180158 1.1667339847 0.0504890294
H 6.0383233478 -0.4070399103 -0.2544529980
H 5.5931130159 -2.7912662195 -0.7867668253
H 3.2502729707 -3.6026986411 -1.0228200924
