55
CONF217
C -8.2810365572 -1.1521118061 0.4393787974
C -7.2864597526 -0.9524713016 -0.6782698204
O -6.0084729378 -0.6217729083 -0.0584517853
C -4.9872228269 -0.4047530965 -0.9187515476
O -5.0811396630 -0.4696440408 -2.1330457797
N -3.8562842213 -0.1087153377 -0.2042427371
C -2.5768036762 0.1778817134 -0.6936623008
C -1.5838766402 0.4404860316 0.2584425495
C -0.2799538113 0.6952817925 -0.1427571837
C 0.0356026146 0.7863712393 -1.5016543465
C -0.9583658501 0.5497591692 -2.4471689057
C -2.2513660176 0.2236624526 -2.0566643479
S 1.6910639991 1.2265282686 -1.9839253733
C 2.0467868986 2.3571891450 -0.6520904979
C 2.8347228813 3.4868181418 -0.8738871804
C 3.1018574468 4.3541294989 0.1800690063
C 2.5558464048 4.1177664212 1.4410828760
C 1.7574588809 3.0001481812 1.6601442347
C 1.5251450881 2.1038134511 0.6202767865
N 0.7536252324 0.9150482414 0.8144733499
C 1.1913761278 -0.0395337449 1.7278350292
O 2.1207294601 0.2047245758 2.4889183521
C 0.4790329213 -1.3784560301 1.7504529106
C 1.4203219321 -2.5568518223 2.0141943831
N 2.0242424333 -3.0784279913 0.7823532825
C 2.7938804586 -4.2937806094 1.0798675575
C 3.3996743013 -4.8541336674 -0.1949237074
O 4.2587998670 -3.8947804091 -0.8236401428
C 3.5182338946 -2.7050733698 -1.1185517926
C 2.9117767076 -2.1034784083 0.1377808881
H -7.9737289400 -1.9707872324 1.0960950227
H -9.2549701356 -1.4020585498 0.0089162537
H -8.3901212980 -0.2408775150 1.0340340291
H -7.5749759426 -0.1303286196 -1.3404904430
H -7.1577158066 -1.8587488923 -1.2780478177
H 2.1854216225 -2.2615129972 2.7545604405
H -0.7244872910 0.6205179441 -3.5046751187
H -3.0065132890 0.0328307617 -2.8045980218
H 3.2296175094 3.6837594641 -1.8654473136
H 3.7202456717 5.2290771250 0.0084018107
H 2.7474912116 4.8074120460 2.2563753661
H 1.3259177750 2.8060679528 2.6350984636
H -0.2479530186 -1.3218833334 2.5704320754
H -0.0873955350 -1.5628918963 0.8355852849
H 0.8339737345 -3.3708634987 2.4545440104
H 3.6047032248 -4.0889864218 1.8070692422
H 2.1258112432 -5.0431550055 1.5219734498
H 4.0164496464 -5.7294030299 0.0281499099
H 2.5996629240 -5.1465262170 -0.8943397162
H 4.2205328788 -2.0017283512 -1.5752060276
H 2.7199865862 -2.9371600687 -1.8427144207
H 2.3389612028 -1.2169270142 -0.1597609212
H 3.7202529780 -1.7750921122 0.8206166030
H -1.8202960393 0.4206611600 1.3178641690
H -3.9654441071 -0.1031400368 0.8005491139
