35
CONF400
C -0.6370505100 1.6146962123 1.7388057697
C -1.5946073274 2.6341178384 1.1727764848
C -1.1974480823 3.2094026977 -0.1659203779
Br 0.5016711960 4.2217450729 0.0220273115
Br -3.3852418036 1.7898289968 0.8816756189
O -0.3753896261 0.6442401870 0.7065136473
P 0.6608726668 -0.5466057980 0.9957438396
O 0.5132452707 -1.2440057396 2.2894985494
O 2.0684166416 0.1636906239 0.7246225877
C 3.2570257229 -0.2505371592 1.4222630431
C 4.0513302811 0.9789075843 1.8012571888
C 4.2677084028 1.9797147733 0.6916795988
Br 5.4109451970 1.1740972655 -0.7154699151
Br 3.0931666351 1.9755500252 3.2466241904
O 0.4843108583 -1.4202377620 -0.3335140395
C -0.6342985027 -2.3220391496 -0.4452809502
C -1.9203192860 -1.6135389905 -0.8289094740
C -3.0774003226 -2.5568442172 -1.0551382864
Br -3.6148566744 -3.4035077385 0.6588708039
Br -1.6604110160 -0.6515626196 -2.5551985045
H -1.0530191376 1.1229398186 2.6232309643
H 0.2966862832 2.1251585209 2.0092046369
H -1.7766517066 3.4150457385 1.9132150323
H -1.0096019728 2.4306631926 -0.9033813643
H -1.9272854037 3.9285912027 -0.5306660649
H 3.8603261913 -0.8576376305 0.7361980095
H 3.0003396547 -0.8368410807 2.3094553911
H 4.9948460255 0.6737938375 2.2580247607
H 3.3331971098 2.2606888753 0.2083605108
H 4.8067907787 2.8575246777 1.0407485162
H -0.3521104221 -3.0457890943 -1.2147189112
H -0.7886428705 -2.8432123009 0.5079639549
H -2.8271556516 -3.3706945100 -1.7364265122
H -3.9597020211 -2.0264634765 -1.4062106971
H -2.1814682407 -0.8277187569 -0.1186903787
