76
CONF9
C -0.6082591842 -1.9944361838 -1.0073117112
C -1.8578374621 -1.2382464489 -0.5812396409
C -3.0978587731 -1.8762571003 -1.1500507346
C -4.3438782172 -1.6905718945 -0.6994634722
C -5.5223630273 -2.4223246382 -1.2993662533
O -5.1997244620 -3.4231222110 -2.2584937940
C -4.7716503832 -0.7385166391 0.3950966429
C -3.8600413177 0.4672157132 0.6696711955
O -2.9403191673 0.2389198772 1.7564476925
C -4.6476135746 1.7316520498 1.0934275841
O -5.5200182389 1.7371726851 1.9525409382
C -4.1322866895 2.8781571797 0.3446622536
C -4.6045495970 4.2699045943 0.5851202518
C -3.2417307180 2.4309200542 -0.5636543693
C -3.0921695471 0.9390240289 -0.5755056098
C -1.7190434467 0.2934506235 -0.8624043308
O -1.5116071480 0.5683002442 -2.2522023586
C -0.5193234286 0.8073665547 -0.0180682147
C -0.3144964119 2.3225824006 -0.0387866774
C 0.7895136802 0.1496491998 -0.5000488283
O 1.7724630314 0.3077511978 0.5652982804
C 3.0016343429 0.7808772603 0.2401612009
O 3.2949404059 1.1142300708 -0.9062316902
C 3.8999618842 0.8440951876 1.3950622714
C 3.4570256707 0.4082914012 2.6571203627
C 4.2722148544 0.4465223897 3.7723094074
C 5.5769197378 0.9363866304 3.6360450493
C 6.0521131807 1.3742768977 2.4155987186
C 5.2376193973 1.3436678962 1.2560380629
N 5.7245204840 1.7754420982 0.0694082987
C 7.0664825637 2.2944338498 -0.1171563769
C 0.7265464479 -1.3007871273 -0.9045669628
O 1.7560256503 -1.6248238472 -1.8623763613
C 1.6134746212 -1.2196789010 -3.1364990995
C 2.7612412754 -1.6700579386 -3.9815939155
O 0.6574542401 -0.5806181936 -3.5441572073
C 0.4219615722 -2.4558536871 0.0139925965
C 0.2213259353 -2.2364103791 1.4974715534
C 1.1158719904 -3.7729319022 -0.2782438366
H -0.7181472084 -2.6463109784 -1.8710214257
H -1.9391693305 -1.3044252417 0.5066859447
H -2.9603392244 -2.5612447099 -1.9840437708
H -6.1259181796 -2.8450182084 -0.4783196122
H -6.1659460817 -1.6992891033 -1.8183356873
H -4.7039827936 -4.1172226752 -1.8046868819
H -5.7618754963 -0.3495570019 0.1167405634
H -4.9361382699 -1.2860704381 1.3337646744
H -3.4735519247 0.0756746670 2.5481444774
H -4.3955546471 4.5738674340 1.6169136792
H -4.1184022678 4.9737346734 -0.0938936606
H -5.6892504565 4.3385942077 0.4470943086
H -2.7438820765 3.0628295226 -1.2917724020
H -3.6797054026 0.5970107246 -1.4402610657
H -0.7281035682 0.0817674696 -2.5759250655
H -0.7025092843 0.5032724385 1.0142527405
H 0.6407290342 2.5765134465 0.4319351817
H -1.0986653448 2.8391841977 0.5190290082
H -0.3002325191 2.7025212367 -1.0652673217
H 1.1499109798 0.7132977013 -1.3654136820
H 2.4455095122 0.0307765917 2.7452875592
H 3.9062687457 0.1034111065 4.7335291754
H 6.2338803890 0.9753707236 4.5002735135
H 7.0668211807 1.7463453075 2.3428459021
H 5.0978167718 1.7257721715 -0.7208358346
H 7.1827221993 2.5662077619 -1.1675995889
H 7.2469998790 3.1889894287 0.4932979980
H 7.8320255071 1.5483708169 0.1334895626
H 3.7087996466 -1.4687184293 -3.4764234252
H 2.6864418599 -2.7533927182 -4.1258736627
H 2.7266375238 -1.1720416512 -4.9495820789
H -0.4477632360 -3.0083063836 1.8942960818
H -0.1971228898 -1.2634335192 1.7518093841
H 1.1839361830 -2.3248160285 2.0117648242
H 0.5611333159 -4.5813125267 0.2098960984
H 1.1669638080 -3.9883484940 -1.3468524483
H 2.1351239810 -3.7696561056 0.1234724393
