55
CONF54
C -7.8578177766 0.5731836653 -1.4602664102
C -7.6284328405 -0.5210861415 -0.4401064615
O -6.7009549369 -0.0837367595 0.5968711451
C -5.3837941109 -0.1792060314 0.2946910973
O -4.9377421825 -0.6576906761 -0.7349459826
N -4.6527466745 0.3356120158 1.3315697287
C -3.2602074318 0.4217928066 1.4483206229
C -2.3739640171 0.0250227320 0.4434387420
C -1.0053349456 0.1297632571 0.6648390463
C -0.5017772678 0.6764219740 1.8444740215
C -1.3903383547 1.0929511770 2.8361553366
C -2.7544999481 0.9493911999 2.6474846524
S 1.2582678912 0.8397298618 2.0579786169
C 1.6779209304 1.2231465536 0.3711923253
C 2.7180915334 2.1057051640 0.0802855784
C 3.0111304889 2.4102363134 -1.2446016701
C 2.2357587313 1.8802466870 -2.2752835153
C 1.1869589878 1.0141630456 -1.9851763953
C 0.9420504233 0.6380046092 -0.6656366821
N -0.0763648354 -0.3068944343 -0.3321996665
C -0.0336298710 -1.6568041134 -0.6596563301
O -0.8576912170 -2.4383189321 -0.1937642887
C 1.0543505917 -2.1572565895 -1.5857764731
C 1.9577018704 -3.1476111652 -0.8448232393
N 2.7241004707 -2.5033513897 0.2280041484
C 3.2924390860 -3.5207621747 1.1242163553
C 4.0889175383 -2.8562446968 2.2329519606
O 5.1572157734 -2.0648133783 1.6985597474
C 4.6211993353 -1.0651489536 0.8251901190
C 3.8235845165 -1.6867668716 -0.3086043565
H -6.9359819941 0.8087213530 -1.9984012782
H -8.2317389088 1.4802597541 -0.9769145906
H -8.6044141765 0.2365466267 -2.1864036120
H -7.2400745713 -1.4336713022 -0.8993250166
H -8.5425610065 -0.7541395251 0.1095577170
H 1.3322526235 -3.9260864771 -0.3947588368
H -1.0146028294 1.5296877969 3.7556471069
H -3.4405057713 1.2667771653 3.4269796933
H 3.2881550872 2.5526233701 0.8886140981
H 3.8278008851 3.0882999338 -1.4692789154
H 2.4399988637 2.1485617568 -3.3063049426
H 0.5705990520 0.6020343933 -2.7777663491
H 0.5495943343 -2.6907414504 -2.3984463049
H 1.6445700491 -1.3614503736 -2.0346864741
H 2.6235509918 -3.6392428505 -1.5784618503
H 2.4762288489 -4.1043604121 1.5667566308
H 3.9526103957 -4.2191515706 0.5726085052
H 3.4255096503 -2.2182125908 2.8399051572
H 4.5479730125 -3.6107450641 2.8780125440
H 3.9797947972 -0.3801190033 1.4026704696
H 5.4713656631 -0.5041324586 0.4264082002
H 4.4995920091 -2.2988220418 -0.9382357490
H 3.4236666618 -0.8783729230 -0.9313262187
H -2.7344103990 -0.3814964520 -0.4889458367
H -5.1887426397 0.6814330111 2.1152820733
