44
CONF53
C -4.2670181051 1.0543053111 0.8372552145
C -3.0916465000 0.1097674669 0.8175458105
C -3.4351028652 -1.3670388222 0.7514023311
O -2.2767325062 -1.9451341341 0.1188122462
C -1.6315006072 -0.9136797512 -0.6390216168
O -2.3687183136 0.2700494625 -0.4281052747
C -1.6824128481 -1.2214656105 -2.1499507401
N -3.0318204952 -1.5228316155 -2.5856655923
C -3.6768981810 -2.7047094920 -2.5143052826
N -4.9351463006 -2.5672822747 -2.9153853812
C -5.0060492499 -1.2406240068 -3.2234797673
N -3.8802761953 -0.5641272130 -3.0366616864
C -0.1816301091 -0.7622643263 -0.1764494211
C 0.2988207110 0.5128907586 0.1342871995
C 1.6012396857 0.7382022896 0.5570385841
C 2.4675460871 -0.3454936910 0.6620746527
C 2.0369963241 -1.6313779720 0.3529017781
C 0.7247286698 -1.8220139124 -0.0589781811
Cl 0.2715288577 -3.4822774807 -0.4413189111
O 3.7572240252 -0.2353371471 1.1312336221
C 4.4637936470 0.9315963998 0.8859981966
C 5.1783084789 1.4764948267 1.9459443245
C 5.9705657820 2.6005900260 1.7339382870
C 6.0215611406 3.1582523938 0.4624674208
C 5.3102369621 2.6162973677 -0.6026955462
C 4.5270515920 1.4878720321 -0.3887746791
Cl 7.0156880208 4.5862477002 0.1900716615
H -4.9214314412 0.8634526694 -0.0186810778
H -3.9281235885 2.0930362555 0.8060395711
H -4.8381466669 0.9070860646 1.7586721879
H -2.4071627956 0.3052511298 1.6566619747
H -3.5587963989 -1.8336112540 1.7314617990
H -4.3301019829 -1.5330478563 0.1344176810
H -1.3171946879 -0.3517825935 -2.7011268581
H -1.0475975655 -2.0800486099 -2.3754766853
H -3.1951939377 -3.6134857468 -2.1783729340
H -5.9016254486 -0.7614811486 -3.5990286172
H -0.3841347098 1.3504445730 0.0534321436
H 1.9319927554 1.7405898158 0.8037375631
H 2.7238430849 -2.4653317633 0.4363783447
H 5.1155159869 1.0217732515 2.9286144207
H 6.5329669235 3.0359120573 2.5519636395
H 5.3710935472 3.0592793413 -1.5901888917
H 3.9737582343 1.0450554348 -1.2102059017
