53
CONF1
C 0.2946519084 -1.3267604559 -0.1584559947
C -0.3914983928 -1.1009461915 -1.5117224254
C -1.4749813231 -0.0498968598 -1.5085085851
C -1.9539047150 0.5271996361 -0.3228950134
C -2.9735097564 1.4843050837 -0.4011265307
C -3.5226159698 1.8532845069 -1.6249080767
O -4.5276910164 2.7806315780 -1.7275520373
C -3.0559687079 1.2767223990 -2.8056309141
C -2.0395278062 0.3365553757 -2.7291234633
C -1.3038416889 0.2022480103 1.0224011552
C -2.2805634563 0.2971848721 2.2062755707
C -3.4014545893 -0.7405301149 2.1205165253
C -2.8248593563 -2.1573004547 2.0467773571
C -1.8286786890 -2.2819312550 0.8906751598
C -0.7146430781 -1.2414223377 0.9936860548
O -0.0045790620 -1.5147315185 2.2165821583
C -0.1350995910 1.1936044098 1.2230207799
C 0.9821358172 0.9973289936 0.2037907045
N 1.4104956642 -0.4098260818 0.1705859231
C 2.5813206963 -0.6169879647 -0.6865070660
C 3.8713132688 -0.0281317626 -0.1369022482
C 4.2451806617 1.4653008545 -0.3697102186
C 5.7045955446 1.0182492895 -0.6296094826
C 5.1653984103 -0.4070720319 -0.9051201371
H 0.7221852159 -2.3384323893 -0.1525179186
H 0.3589717505 -0.8555071738 -2.2726116236
H -0.8299462686 -2.0556542779 -1.8316078833
H -3.3555612288 1.9550000133 0.4996866342
H -4.7577422615 3.1008202880 -0.8450336310
H -3.4864709037 1.5679600332 -3.7584389553
H -1.6665476493 -0.1148456974 -3.6455619174
H -1.7002189572 0.1218072277 3.1192264270
H -2.6852321025 1.3114858403 2.2908410232
H -4.0638421804 -0.6463506328 2.9889826479
H -4.0128671476 -0.5503050537 1.2284079828
H -3.6309374324 -2.8886423254 1.9158687044
H -2.3236948508 -2.3983303185 2.9919680106
H -2.3636639435 -2.1418836615 -0.0551481126
H -1.3745039147 -3.2802809600 0.8690363392
H 0.8855392409 -1.1498320705 2.0590013210
H 0.2678452966 1.0613131352 2.2343444027
H -0.5173503334 2.2188913085 1.1553389166
H 1.8396624778 1.6100153217 0.4949925708
H 0.6642632309 1.3448614176 -0.7971778055
H 2.7244962394 -1.7018075150 -0.7886308425
H 2.4234478992 -0.2168249031 -1.7075294380
H 3.9734305131 -0.2832223738 0.9251066287
H 4.0672633626 2.1751516154 0.4432113515
H 3.7732832531 1.8404590201 -1.2850062981
H 6.2574836908 1.5179586514 -1.4298166681
H 6.2985132261 1.0482868968 0.2888498536
H 4.9490492815 -0.5461349770 -1.9707406836
H 5.7414700144 -1.2630344251 -0.5415798407
