56
CONF7
O 5.9955467398 1.2542307386 -0.3291483135
C 5.2943190125 1.2740579158 0.9208564899
C 4.3262000287 0.1023405317 1.0088103357
N 3.4322624252 0.0809700567 -0.1552727320
C 2.8230853126 -1.2411665258 -0.3338651270
C 1.9296887437 -1.2599049774 -1.5646426551
N 0.8766158855 -0.2529474656 -1.4360989086
C -0.0806434808 -0.2892910171 -2.5419322850
C -0.9997576386 -1.5127167097 -2.4861509915
C -1.5508629967 -1.7525085736 -1.0782158452
N -2.1607644539 -0.5371270973 -0.5228966142
C -3.2975899848 0.0027452801 -1.1469848039
C -4.1775653812 -0.7994325113 -1.8859470775
C -5.2914647417 -0.2450933757 -2.5104630093
C -5.5727205405 1.1119200074 -2.3870507227
C -4.7200733212 1.9191982067 -1.6377682187
C -3.5835856445 1.3744177206 -1.0476334833
S -2.4170737548 2.4503263633 -0.2424707119
C -1.8184891284 1.3343349723 1.0008036186
C -1.3615244816 1.8473456195 2.2115298765
C -0.7680644559 1.0133669795 3.1511434068
C -0.6967883366 -0.3509680909 2.8809263354
C -1.1932318606 -0.8812563636 1.6937238102
C -1.7312659466 -0.0399052209 0.7108272242
C -0.0193517421 -1.2525661335 3.8645875639
F 1.3392281432 -1.2245389727 3.7228683394
F -0.2704425548 -0.8962488572 5.1493187232
F -0.3881126682 -2.5487648131 3.7348321737
C 1.4824068774 1.0679030685 -1.2806581015
C 2.3752413341 1.0948171228 -0.0500930801
H 5.3289142396 0.9739786216 -0.9780649231
H 4.7681744538 2.2317644412 1.0484356009
H 6.0385956314 1.1945351709 1.7197776452
H 4.9048403634 -0.8294703380 1.0048033129
H 3.7672614337 0.1476903537 1.9631615519
H 2.2191831735 -1.5247181850 0.5523547939
H 3.6200778257 -1.9844585893 -0.4492873360
H 2.5444620452 -1.0858139177 -2.4713386938
H 1.4793362806 -2.2545428331 -1.6552935212
H -0.6973514103 0.6148508187 -2.4660822611
H 0.4233212135 -0.2534887211 -3.5275366390
H -1.8091808502 -1.3666829509 -3.2096590632
H -0.4736823634 -2.4245967073 -2.7909200005
H -0.7129167001 -2.0145383801 -0.4342708247
H -2.2467055211 -2.6006266062 -1.0655073859
H -3.9903934489 -1.8620654509 -1.9815243534
H -5.9468518274 -0.8884249920 -3.0888131390
H -6.4444008120 1.5436943734 -2.8669716581
H -4.9181805134 2.9815954468 -1.5321736215
H -1.4432977372 2.9123267545 2.4043037246
H -0.3794115922 1.4216527080 4.0769841287
H -1.1535148600 -1.9503096804 1.5297325540
H 0.6839169663 1.8097146267 -1.1568063142
H 2.0777004195 1.3554089676 -2.1714057320
H 2.8276863114 2.0879456711 0.0400575480
H 1.7571952124 0.9210420279 0.8544674006
