53
CONF281
C -0.1773135935 4.5637456694 -1.6593126209
C 0.2728811928 4.3433387468 -0.2292679820
O 0.0649570274 2.9605812165 0.1677932615
C 1.0044174664 2.0622276243 -0.2085976725
O 2.0496811508 2.3858897891 -0.7627361887
C 0.5904044402 0.7003886056 0.1163994920
C 1.4781794209 -0.3240626389 0.0036506382
N 1.0812865641 -1.6055628625 0.2735583957
C -0.1192482629 -1.9380947413 0.8516675136
C -1.0668241765 -0.9691014082 1.0200005519
C -0.8729246748 0.4390165367 0.4615731370
C -1.7373272898 0.6519879248 -0.7820878675
C -1.5080502384 -0.1723075774 -1.8912863351
C -2.2274226330 -0.0443941302 -3.0715807373
C -3.2140683053 0.9336364176 -3.1725978880
C -3.4701608035 1.7685900197 -2.0918027666
C -2.7355663802 1.6200934586 -0.9167961871
Cl -3.1355788669 2.7285472956 0.3989464704
C -2.3188020248 -1.2864260961 1.6976960724
O -2.6615605626 -2.3725210582 2.1503155827
O -3.1186918362 -0.1919467160 1.7825116550
C -4.3897794188 -0.3937509844 2.4324355446
C -0.2232390649 -3.3768734963 1.2550702173
C 2.9368915226 -0.2192288078 -0.4132711231
O 3.6707221081 -1.3910248441 -0.0773807922
C 4.1105335536 -1.3915117634 1.2941754520
C 4.7835638736 -2.7228649430 1.5779173419
N 3.9188750352 -3.9065253130 1.4702069715
H -1.2291777349 4.2872309773 -1.7778199037
H 0.4251827840 3.9744817406 -2.3556868737
H -0.0660811833 5.6219701663 -1.9158739574
H -0.3379657935 4.9158525700 0.4723031587
H 1.3253308713 4.6038001543 -0.0891048286
H 1.7989881832 -2.3160470575 0.1971222757
H -1.1890114151 1.1616977930 1.2146849864
H -0.7371038292 -0.9341613708 -1.8134851062
H -2.0190160993 -0.7027086771 -3.9086425937
H -3.7866966350 1.0511778836 -4.0868450469
H -4.2351736694 2.5344982708 -2.1551435059
H -4.2453441545 -0.7158085203 3.4672009569
H -4.8863319923 0.5760319919 2.4012563218
H -4.9797569269 -1.1418194912 1.8961411254
H 0.6712063232 -3.9233916476 0.9455077589
H -0.3349152448 -3.4660543863 2.3384948410
H -1.1030109158 -3.8438234507 0.8082167446
H 2.9885688867 -0.1107714177 -1.5025132504
H 3.3912935137 0.6711952038 0.0307227503
H 4.8147074769 -0.5601402309 1.4497752751
H 3.2498385113 -1.2480355820 1.9675569152
H 5.6303827143 -2.8471822324 0.8917656372
H 5.1976798761 -2.6742801060 2.5925404254
H 3.5704598573 -3.9820496023 0.5194492171
H 3.1001112611 -3.7835073258 2.0603646186
