42
CONF28
C -2.8135756383 -2.1451721138 0.5198390670
C -2.3361683481 -0.8250676369 0.0202376951
C -3.0596132624 0.1282523600 -0.6322993003
C -2.1951829351 1.2721524497 -0.9094907101
C -0.8880164610 0.9832434931 -0.4436406280
C -0.9371288454 -0.3726136804 0.1402197573
C 0.0203621833 -1.1309375878 0.7288913002
C 1.4616434146 -0.9124985912 0.7864611756
C 2.1899959929 -0.4540314124 -0.3224673188
C 3.5682931413 -0.2977678958 -0.2544267881
C 4.2255596274 -0.6104529851 0.9288955465
C 3.5342444966 -1.0757345059 2.0443638907
C 2.1598357286 -1.2481313316 1.9598784468
S 6.0262651291 -0.3650999482 1.0312699871
O 6.4459682848 0.3687002860 -0.2449213728
C 6.4911654883 -2.1246605907 0.7863332455
C 0.0923716397 1.9663330638 -0.4958657769
C -0.2057346445 3.2123751568 -1.0575647477
C -1.4838359320 3.4375639218 -1.5417506715
C -2.5073600539 2.5013941853 -1.4784086116
F -1.7578032533 4.6492665135 -2.0963198455
C -4.4987815535 0.0957852402 -1.0109612335
C -5.3793511431 0.9167887993 -0.0920674358
O -5.0340992487 1.4347406150 0.9481642793
O -6.6372577374 0.9933919215 -0.5734072012
H -3.8807789339 -2.2805396977 0.3359568523
H -2.2761033256 -2.9708806546 0.0394528824
H -2.6459180050 -2.2381878981 1.5994246607
H -0.3172390667 -2.0358409048 1.2323910201
H 1.6710992847 -0.2451260408 -1.2522677141
H 4.1344254884 0.0546657002 -1.1108450488
H 4.0598870983 -1.3121034176 2.9653840529
H 1.6109911867 -1.6272674272 2.8169127446
H 6.0833104419 -2.7114112646 1.6138558386
H 6.0847070242 -2.4560272533 -0.1728647777
H 7.5831119695 -2.1650964904 0.7914638616
H 1.0888717843 1.7951965703 -0.1069070085
H 0.5413464012 3.9957877992 -1.1176997094
H -3.4991930574 2.7464433412 -1.8443184676
H -4.8998536680 -0.9236975981 -1.0062846995
H -4.6471019180 0.4698555136 -2.0319149224
H -7.1733591129 1.5064104939 0.0553494045
