47
CONF114
C -3.8805266787 -2.0170146264 0.1564406087
C -2.9850908582 -1.8945549616 -1.0829234225
C -2.9695696282 -3.2298223161 -1.8349651998
C -1.5331766923 -1.4456073022 -0.7949913504
C -0.8554191210 -2.1303505524 0.4272526209
C -0.5258022503 -0.9956678562 1.4010815194
C -0.1947393233 0.1719647467 0.4710224966
C -0.0617912776 1.5340607702 1.1640291956
C 1.1177025547 1.5677177845 2.0997868789
C 2.4122042364 1.7433997494 1.6012186336
C 3.5199107057 1.7365800545 2.4430596310
C 3.3193355648 1.5493356356 3.8054480031
Cl 4.7147922513 1.5412749611 4.8862087746
C 2.0492908063 1.3731110492 4.3379514633
C 0.9559585315 1.3850276955 3.4751299575
C -1.3214752156 0.0873710046 -0.5943113921
O -2.5356558192 0.6646027809 -0.1012447054
C -0.8880676198 0.7992437703 -1.8880278000
N -1.8337818962 0.6423025189 -2.9858009864
C -1.8220180530 -0.2744741411 -3.9736732117
N -2.8969677811 -0.1390336514 -4.7431966675
C -3.5482177619 0.9064266569 -4.1610698452
N -2.9430844747 1.4143866667 -3.0936617693
H -3.8353038278 -1.1266922528 0.7855786792
H -4.9201271014 -2.1649442279 -0.1558218291
H -2.4322319483 -3.1469794217 -2.7860804726
H -2.4778067713 -4.0050112442 -1.2344070763
H -3.9893816831 -3.5689480682 -2.0468281176
H -0.9528437236 -1.7111580516 -1.6866245293
H -1.4851995649 -2.9006091967 0.8777567057
H 0.0720694473 -2.6185247676 0.1099302457
H 0.2937490280 -1.2389497923 2.0837009754
H -1.4039379523 -0.7354120269 2.0065743260
H 0.7534586036 -0.0546913411 -0.0395563612
H 0.0558400049 2.3252146203 0.4127975131
H 2.5610709781 1.8908134058 0.5347077277
H 4.5190358268 1.8783384684 2.0463400670
H 1.9118948572 1.2316556626 5.4041596054
H -0.0408901529 1.2470839129 3.8844659761
H 0.0694587326 0.3921006472 -2.2247913735
H -0.7638758869 1.8730316169 -1.7121289129
H -1.0239596058 -0.9953328679 -4.0954473971
H -4.4821164349 1.3103384239 -4.5317852853
H -3.6018395152 -2.8853035021 0.7633735750
H -3.4346790270 -1.1420332671 -1.7434379438
H -0.9777390393 1.7415361442 1.7277461738
H -2.4230213472 1.6240133406 -0.0680412526
