53
CONF13
C -1.2199864222 -0.6935341530 -3.8757214513
O -2.1959569842 -0.5556868398 -2.8266337706
C -1.8673348592 0.3181590109 -1.8693779869
C -2.5915755623 0.5830854490 -0.7563742890
C -2.0587896481 1.6087242851 0.1739684905
C -1.8130548714 2.8982378163 -0.3140892599
C -1.3253383129 3.9105274491 0.5021969648
C -1.0788994389 3.6453369402 1.8438629794
C -1.2866492680 2.3628904282 2.3360595115
C -1.7684865045 1.3353185023 1.5225511144
C -1.9692266333 0.0040936441 2.2068999195
O -2.0129089219 -1.1623273456 1.3561708493
C -0.9329639305 -1.4992871698 0.6450392223
N 0.1993090722 -0.8249103202 0.7759867302
C 1.2129823909 -1.2239191574 -0.0118270535
N 1.1847467435 -2.2285886455 -0.9028056881
C 0.0272846079 -2.8869313376 -0.9776140526
C -1.0894683281 -2.5864994421 -0.2311983743
C 0.0201940778 -4.0317646924 -1.9732716259
F -1.2077169946 -4.5801213312 -2.0930546848
F 0.3991847920 -3.6172411600 -3.2027270324
F 0.8687246517 -5.0091042947 -1.5957942066
N 2.4272985082 -0.5891680158 0.0650084848
C 2.8268828804 0.5183147001 0.8075960832
C 4.1953556082 0.6990288667 1.0803365666
C 4.6720948892 1.8016512793 1.7732126387
C 3.7626603214 2.7516256694 2.2168405741
C 2.4055862839 2.6134433061 1.9595143595
C 1.9462039716 1.5118820845 1.2540092357
Cl 4.3458870648 4.1434470509 3.1053350752
Cl 5.3608772871 -0.4903726222 0.5239038354
C -3.8615293916 -0.0538079645 -0.3678482471
O -4.5384026556 0.3205731062 0.5708275137
O -4.1990190678 -1.1027814471 -1.1521675270
C -5.4298836420 -1.7518717196 -0.7784030085
H -0.2433382573 -0.9662754402 -3.4613198454
H -1.5787987690 -1.4969716948 -4.5186037862
H -1.1433050818 0.2369950976 -4.4500036665
H -0.9208314574 0.8456975360 -2.0110789033
H -2.0499358274 3.1071944723 -1.3528418620
H -1.1590113060 4.9029978756 0.0967127932
H -0.7200648757 4.4287782093 2.5039377997
H -1.0571565418 2.1469167145 3.3766880130
H -2.9489268498 -0.0151490647 2.6924239488
H -1.1842232853 -0.1372335550 2.9577772859
H -2.0334080105 -3.1022082706 -0.3269343175
H 3.1497268072 -1.0658054093 -0.4564354298
H 5.7318824777 1.9079497473 1.9664193611
H 1.7017984242 3.3666943228 2.2907748994
H 0.8886295862 1.4180511745 1.0496069403
H -5.5603561559 -2.5596352141 -1.4987327223
H -6.2657712538 -1.0491903934 -0.8291116131
H -5.3587272749 -2.1463108042 0.2391669358
