74
CONF293
C -0.9815955183 -1.4944221180 1.2182945206
C -0.6781665407 -2.6616898866 2.1481689102
O -1.4873151723 -2.3712493372 3.3400148443
C -1.7838475006 -1.0454905049 3.4042558146
O -2.3890803344 -0.5838200718 4.3437862572
C -1.1878960895 -0.3540953958 2.2038762409
C -1.9011170203 0.8392151093 1.5625601534
C -3.3912116575 0.6037723492 1.3371472605
C -4.2931323446 0.9675368789 2.3387235235
C -5.6601701668 0.7308540290 2.1807120099
O -6.6185053374 1.0463507762 3.0993625447
C -6.1746400213 1.6317995633 4.3303809313
C -6.1327886897 0.1333270163 1.0065990400
O -7.4745988922 -0.0832189985 0.8616851566
C -5.2244917699 -0.2143895045 0.0006828209
O -5.8085497585 -0.7750517980 -1.1024505371
C -4.9485303005 -1.1448813662 -2.1888909946
C -3.8603072878 0.0195307672 0.1581548520
C -1.1923131761 1.1666577727 0.2523206934
C -1.4895796486 2.4170949949 -0.3271178340
C -0.9638407803 2.6970014330 -1.5641034601
C -0.1790404259 1.7778593039 -2.2518938375
O 0.1983844304 2.2941632680 -3.4627217983
C -0.3737415506 3.6195191283 -3.5307822210
O -1.1157038806 3.8340367595 -2.3078335025
C 0.1241594925 0.5519663780 -1.7166991136
C -0.3771774630 0.2487953191 -0.4296654893
C 0.0358810606 -1.0774558500 0.1782931415
O 1.3107293156 -0.9927119967 0.8914708591
C 2.3921203824 -0.4631507197 0.2012394269
O 2.7693955328 -1.3782627188 -0.8346670281
C 3.8666358558 -0.8380378614 -1.5683700962
C 4.2023798615 -1.7470761059 -2.7381576463
O 5.3691197134 -1.2252199817 -3.3902419555
C 6.4767354908 -1.1380975997 -2.4995758152
C 7.6554453707 -0.5959895027 -3.2622154989
O 6.1948571744 -0.2499738483 -1.4181298698
C 5.0890792974 -0.7391327296 -0.6554502312
C 4.8062718044 0.1881745276 0.5156356129
O 5.9047139265 0.2799929429 1.4190092207
C 3.5281178803 -0.2837993811 1.2156047592
O 3.1704119255 0.6978990141 2.1830085315
H -1.9272717642 -1.6960007810 0.7011848334
H -0.9988171735 -3.6335486107 1.7715241004
H 0.3700836846 -2.6955145962 2.4563576259
H -0.1969426719 -0.0120918343 2.5445859543
H -1.8041699239 1.7008632893 2.2329968467
H -3.9179673098 1.4263290947 3.2439702983
H -5.4917729838 0.9584471087 4.8617394436
H -5.6809438675 2.5944332442 4.1531452765
H -7.0758545751 1.7856837434 4.9244896878
H -7.6130102130 -0.4915561408 -0.0062223568
H -4.2203781047 -1.8992750104 -1.8695594695
H -5.6023448339 -1.5630127690 -2.9543056742
H -4.4246633279 -0.2680355880 -2.5864143485
H -3.1679956600 -0.2225108427 -0.6384220363
H -2.1334441314 3.1243588654 0.1859431555
H 0.4316466606 4.3583545867 -3.5985074108
H -1.0598443830 3.6746796955 -4.3821060038
H 0.7371741000 -0.1652030972 -2.2535953547
H 0.1405991297 -1.8308611649 -0.6111210732
H 2.1500502896 0.5136808163 -0.2534128349
H 3.6167158476 0.1670831736 -1.9478987359
H 3.3993864757 -1.7625014782 -3.4792242018
H 4.3870291678 -2.7709691065 -2.3764270229
H 6.6717584078 -2.1426135591 -2.0811748352
H 8.5211563106 -0.5220692073 -2.6003389910
H 7.4179766557 0.3957655328 -3.6573274484
H 7.8988001287 -1.2648493839 -4.0906629637
H 5.3226519510 -1.7495060119 -0.2719907663
H 4.6482481472 1.2069962359 0.1383420697
H 6.0752084611 -0.6040850543 1.7734056121
H 3.7167544726 -1.2601975710 1.6928440413
H 2.4030831580 0.3593974774 2.6636351661
