22
CONF69
C 2.2179603741 -1.0607601471 -0.3245550977
C 0.7854932053 -0.5563030171 -0.3938327177
C 0.5156266715 0.5131414388 0.6760427428
C -0.7340355251 1.3816397135 0.4374790033
C -2.0781418795 0.6592510824 0.4186153395
O -2.2471111624 -0.1737551561 -0.7423529461
O -0.5298706434 2.0619947114 -0.8122009110
O 0.4429903365 -0.0840266511 1.9703453724
O -0.0554657719 -1.7026816943 -0.1839270456
O 2.4698670035 -2.0573007592 -1.3191551444
H 2.4213483620 -1.4544506749 0.6828740398
H 2.9072942051 -0.2342920464 -0.5213079428
H 0.6050870617 -0.1283567671 -1.3896829006
H 1.3677213349 1.2057385606 0.6861326041
H -0.7676580999 2.1015325403 1.2687330694
H -2.1807206138 0.0116011773 1.2949802561
H -2.8803426968 1.4098236620 0.4502894984
H -2.0196641090 0.3752743234 -1.5083008738
H -1.1003945035 2.8412382568 -0.8262108079
H 0.0303769098 -0.9526916008 1.8380241626
H -0.9468660246 -1.4331869486 -0.4858350870
H 1.7765063858 -2.7234298080 -1.2161546297
