37
CONF1
C -2.2457378402 -0.6330544233 1.9902593733
C -1.8892406443 0.1934878356 0.7432879350
C -3.1982220813 0.8073388909 0.2132433554
C -0.9478755398 1.3351788910 1.1443690598
C -1.3279563064 -0.6837552922 -0.4079726232
C 0.1286464766 -1.2295111515 -0.4263954495
C 0.4417620690 -2.0627537791 0.8216894486
C 0.2138346603 -2.1860303116 -1.6397530809
C 1.1589394728 -0.1163254184 -0.6468889949
C 1.0406405139 0.7520352507 -1.7420263142
C 1.9625014242 1.7610662232 -1.9891264791
C 3.0529313661 1.9258876983 -1.1346067930
C 3.2073011922 1.0693458250 -0.0481671151
C 2.2694282418 0.0632742158 0.1815588025
O 3.9342666961 2.9370598522 -1.4142194202
H -1.3634626755 -1.0283269030 2.4970389112
H -2.8951887337 -1.4759078369 1.7266942959
H -2.7847482457 -0.0034874775 2.7079996503
H -3.8988721471 0.0229414243 -0.0967708995
H -3.0059370938 1.4536332583 -0.6507012886
H -3.6834166467 1.4085060845 0.9905446364
H -0.0198432296 0.9582997444 1.5840477507
H -0.6816214141 1.9525790873 0.2796602709
H -1.4409594133 1.9756744295 1.8853477768
H -1.4642687487 -0.1182562146 -1.3379220608
H -1.9924879296 -1.5551552451 -0.4946412554
H 0.5229289137 -1.4549877227 1.7257564339
H -0.3511632653 -2.8009573592 0.9782430216
H 1.3853560639 -2.6052344686 0.6952334908
H -0.4588287280 -3.0391478729 -1.4960402877
H 1.2351913225 -2.5647809787 -1.7535316207
H -0.0701560101 -1.6797844779 -2.5676807978
H 0.2042602404 0.6508637412 -2.4268857518
H 1.8451937929 2.4242224096 -2.8408204643
H 4.0576743802 1.1871115203 0.6191717454
H 2.4208704680 -0.5793945328 1.0410992812
H 4.6382595949 2.9383443854 -0.7514894398
