85
CONF72
C 0.5892848571 0.2546041836 -1.9589115111
C 1.8769367316 1.0660893191 -2.0838635411
C 2.7814074649 0.9350587484 -0.8661688906
C 4.0545899873 1.7843644257 -0.9263516969
C 4.7950181749 1.6648214683 0.4109518124
C 3.8789414496 2.0196904457 1.5785451243
C 2.6018824623 1.1851644816 1.5382882621
O 1.9749261532 1.3099832876 0.2673242502
C 1.5584028742 1.6493613972 2.5456522275
C 0.3007335511 0.7857693040 2.5174136166
C 0.6027958390 -0.6427600350 2.0705183609
C 2.0272070890 -1.0239784103 2.4353085426
O 2.9946914495 -0.1659462189 1.7981040268
C 2.3692006477 -2.4684270680 2.0416795458
C 2.3170400105 -2.7018248434 0.5652674138
C 1.5469017974 -3.5590725865 -0.1157412876
C 0.5598294515 -4.5169728943 0.5157289522
C -0.8185419690 -3.9279698516 0.9101227756
C -1.4250869377 -3.1110168227 -0.1873137249
C -2.0366995682 -1.9266828620 -0.0148486011
C -2.5907947094 -1.1778133491 -1.1160442176
C -3.2783931031 -0.0235670355 -1.1313620057
C -3.7903904658 0.5549053382 -2.4192207623
O -5.0251020981 1.1879744797 -2.0780160428
C -4.8860150577 1.7278527992 -0.7638903380
C -3.8708309273 0.8192227777 0.0077899652
C -2.8395303638 1.7523595968 0.7425625321
C -2.2010618009 2.6817866960 -0.2487710261
C -2.9961759188 3.3837722065 -1.0610500338
C -4.4871057153 3.2109999194 -0.8745949758
O -4.9503159016 3.8502996676 0.3364797046
C -2.5118296519 4.3148762624 -2.1269656681
C -1.9126217839 1.0163276544 1.6757679347
O -2.3015755014 0.1832536502 2.4819305937
O -0.6415229502 1.4159881488 1.5889665613
O -4.6111335204 0.0454535567 0.9359210671
C -1.7618373454 -5.0716719844 1.3189214343
C 1.6662418541 -3.6491027303 -1.6133169422
C 4.9630724213 1.3730119189 -2.0840599166
H 0.8079598347 -0.7940821987 -1.7274675695
H -0.0462213309 0.6398544325 -1.1594482466
H 0.0142293315 0.2848043101 -2.8898743080
H 2.4390677700 0.7310639507 -2.9625685459
H 1.6438315960 2.1285433523 -2.2377948416
H 3.0741062822 -0.1214485329 -0.7508449091
H 3.7444168054 2.8320574447 -1.0615670224
H 5.1605842874 0.6364479526 0.5289318519
H 5.6741705453 2.3201502668 0.4111648259
H 3.5883295776 3.0755684335 1.5130663238
H 4.3810760109 1.8641574787 2.5389231245
H 1.2999183916 2.6939381702 2.3543932439
H 2.0058375743 1.5943144258 3.5441080478
H -0.1794096103 0.7877802868 3.5012551678
H 0.4774593322 -0.7250166271 0.9865623858
H -0.0941754458 -1.3364333998 2.5465840408
H 2.1582326950 -0.9329301737 3.5282356932
H 3.3860576991 -2.6702644758 2.4052357527
H 1.6913813872 -3.1357431471 2.5855631133
H 3.0081131003 -2.0856287624 -0.0050533225
H 0.9937825494 -4.9773524385 1.4114994765
H 0.3790869669 -5.3385260798 -0.1903843636
H -0.6805952182 -3.2743841424 1.7797499715
H -1.3887829089 -3.5415014504 -1.1900473984
H -2.1031941830 -1.5177671951 0.9881384498
H -2.4089263102 -1.6306932450 -2.0932026121
H -3.0809685440 1.2878301845 -2.8439408577
H -3.9993961142 -0.2066594362 -3.1769727836
H -5.8583672067 1.6704300314 -0.2652302537
H -3.4732753389 2.3375589875 1.4273255285
H -1.1196050937 2.7492696718 -0.3029953945
H -5.0339316445 3.6202388002 -1.7362924580
H -4.4816172808 4.6884304807 0.4200474498
H -2.8715859625 3.9933257365 -3.1125296956
H -1.4202411496 4.3620050395 -2.1536086997
H -2.8989810650 5.3306455794 -1.9736147348
H -4.0036935974 -0.2140193209 1.6482786018
H -1.9756072355 -5.7188747090 0.4610854877
H -1.3090105864 -5.6868880174 2.1043811123
H -2.7116776809 -4.6755561508 1.6876878323
H 0.7046001370 -3.4494523207 -2.1011365383
H 1.9696356936 -4.6589457611 -1.9175546889
H 2.3989744681 -2.9378380803 -2.0039343515
H 5.1769660396 0.2980234179 -2.0438388301
H 5.9194452188 1.9030359904 -2.0267940408
H 4.5194607396 1.5943480932 -3.0582741973
