25
CONF1
C -2.4937520661 -1.3073820768 1.8627973429
C -1.4101735574 -1.9794671262 1.0686561401
O -0.5768136160 -2.7081561260 1.5843856502
C -1.3824856238 -1.6852743575 -0.4247922534
C -0.7106169483 -0.3466383275 -0.6491948729
C -1.4472007159 0.7871971278 -0.9805400099
C -0.8154911942 2.0204669732 -1.1494447759
C 0.5557294548 2.1290189871 -0.9811953528
C 1.3094394966 0.9883890525 -0.6404702435
C 0.6772634128 -0.2373768807 -0.4747826870
O 2.6481628852 1.2202449804 -0.5064288583
C 3.4820766205 0.1064844084 -0.1554475747
O 1.1648958859 3.3390212624 -1.1526098754
H -2.5822631363 -0.2547951261 1.5750107278
H -3.4497955086 -1.7839407833 1.6118511055
H -2.3101766643 -1.3999933207 2.9339324865
H -0.8284993713 -2.4860117190 -0.9226006383
H -2.4052445878 -1.6509809303 -0.8124257474
H -2.5220477962 0.7141150835 -1.1155796884
H -1.3831372507 2.9064513987 -1.4165504414
H 1.2510787906 -1.1194287819 -0.2133639188
H 3.4297486083 -0.6738398036 -0.9229739464
H 3.1884770823 -0.3064940184 0.8162584921
H 4.4959395089 0.5023280632 -0.0986107896
H 2.1148863015 3.2260619614 -0.9977429750
