48
CONF24
C 5.3991410966 -0.1795798656 -0.4811787233
C 4.1206190819 -0.6077455971 -1.1960736614
C 3.0623259642 -1.1367342296 -0.2300158472
C 1.8788467594 -1.7039995508 -1.0204138987
O 1.9361855724 -2.8307756894 -1.5066381027
N 0.8330506826 -0.8545411659 -1.1774818595
C -0.3613419171 -1.2114572181 -1.8688090715
C -1.7351191113 -1.1842691671 -1.1049033868
N -2.2353717428 -0.2578570525 -2.1354249291
C -0.9931784566 -0.0931303441 -2.7384620332
O -0.6019503388 0.6745343615 -3.5844711791
C -3.1356279572 0.7946984699 -1.7097716313
C -2.6475424656 1.2562463320 -0.2842772331
S -1.8954450094 -0.2869820494 0.4893796842
C -1.5720530028 2.3316874730 -0.4410930559
C -3.7712739494 1.7560409031 0.6177454585
C -4.5931860892 0.3633098748 -1.7230177765
O -5.5057976763 1.1205982198 -1.9696793292
O -4.7505488420 -0.9306968069 -1.4060598221
O 2.6839984144 -0.0432944679 0.6170308127
C 1.9464742417 -0.3086964181 1.7469672897
C 1.5348736227 -1.5820950504 2.1426705136
C 0.7678701512 -1.7166985986 3.3009834346
C 0.4086980567 -0.6060055802 4.0566920654
C 0.8280574540 0.6612492899 3.6485131813
C 1.5939966031 0.8142306284 2.5007619704
H 6.1420441013 0.1634792345 -1.2066953614
H 5.2066223436 0.6371107347 0.2196195356
H 5.8298171151 -1.0171121959 0.0776146031
H 3.6893927229 0.2290365801 -1.7587479784
H 4.3350845725 -1.4075599427 -1.9127124850
H 3.4841488149 -1.9560981206 0.3656391290
H 0.8717850553 0.0344635539 -0.6964275822
H -0.2001317660 -2.1496663824 -2.4070828617
H -2.2585623410 -2.1402115512 -1.0482474247
H -3.0514888784 1.6392126545 -2.4002897861
H -2.0215247106 3.2416569683 -0.8547170907
H -0.7658375711 2.0089230088 -1.1050203984
H -1.1367818180 2.5677028606 0.5337336436
H -3.3619557293 2.0492086014 1.5884781514
H -4.2370878645 2.6385255236 0.1669169200
H -4.5380665449 0.9946429234 0.7834075585
H -5.7018794123 -1.1385319781 -1.4106708640
H 1.7868572608 -2.4665259718 1.5695749330
H 0.4468919796 -2.7086083744 3.6041285152
H -0.1916760211 -0.7230076870 4.9526789371
H 0.5555317326 1.5388561468 4.2267464882
H 1.9211168059 1.7945656112 2.1691007330
