52
CONF25
C -2.2012892692 4.3968454884 0.2391897963
C -1.2837835343 3.6437113267 1.2051748096
C -0.0662627151 4.4980705555 1.5612875955
C -0.8364565973 2.3078451044 0.5824700097
C 0.1622760373 1.5248756719 1.4216671564
C -0.1800974741 1.0824719315 2.7022310736
C 0.7174397351 0.3455412284 3.4672386302
C 1.9670980033 0.0530375976 2.9339759182
C 2.3363429542 0.4776667905 1.6643223667
C 1.4221320080 1.2095078810 0.9121747882
Cl 3.1103362232 -0.8821028079 3.8926218693
C -1.9982452434 1.3604511939 0.3621737426
O -3.0423329695 1.3328030356 0.9702821430
O -1.6675067354 0.4353233774 -0.5826071484
C -2.5681096513 -0.6908667061 -0.7172931920
C -2.6247102340 -1.4268670542 0.5540737155
N -2.6362243327 -2.0484234477 1.5277710143
C -2.0171425438 -1.5853919949 -1.8030184961
C -0.6708759532 -1.9474812823 -1.7484053215
C -0.1631389689 -2.7930088441 -2.7279345036
C -0.9857434291 -3.2752660369 -3.7493711209
C -2.3211358333 -2.9007904335 -3.7863531699
C -2.8504861817 -2.0531100250 -2.8129421129
O 1.1572154013 -3.1701711744 -2.7876641185
C 1.9677691446 -2.9894683206 -1.6703174180
C 1.6775383304 -3.6271250947 -0.4676891198
C 2.5580922872 -3.4799634744 0.6000979876
C 3.7174951911 -2.7182386729 0.4598833455
C 3.9939061882 -2.0938739014 -0.7536376166
C 3.1146214164 -2.2217058886 -1.8269949225
H -1.6585679614 4.6489136180 -0.6795756657
H -2.5458318095 5.3308572890 0.6933831458
H -3.0827641733 3.8085694258 -0.0322373968
H -1.8423744502 3.4188525116 2.1223856824
H -0.3886254184 5.4604908429 1.9700228149
H 0.5392545255 4.6947978119 0.6683676298
H 0.5707982585 4.0077645293 2.3028519193
H -0.3748316870 2.5046349421 -0.3922709721
H -1.1600723707 1.3078874431 3.1123471328
H 0.4467199961 0.0019558930 4.4590945995
H 3.3144624456 0.2369919777 1.2644671055
H 1.6994088606 1.5391163412 -0.0847570440
H -3.5772123555 -0.3428641847 -0.9621351212
H -0.0343339406 -1.5670337676 -0.9572012301
H -0.5645693499 -3.9333053492 -4.5019865562
H -2.9580064239 -3.2732157769 -4.5819250120
H -3.8954178326 -1.7627126854 -2.8404756288
H 0.7776526139 -4.2265148725 -0.3732710927
H 2.3402537275 -3.9715756392 1.5430470809
H 4.4003616242 -2.6106239173 1.2959534439
H 4.8946515564 -1.4991368401 -0.8687886387
H 3.3103231276 -1.7408831361 -2.7797043005
