41
CONF1084
C -2.4432201590 -2.2025609826 1.3800324143
C -2.8359223204 -0.7352546461 1.5199928597
C -4.2495757776 -0.5034492446 0.9910742414
N -1.8617236899 0.0822235558 0.7686864780
C -1.8156084500 1.4942718557 1.1663626327
C -1.1582187318 2.3355527803 0.0585562653
O -1.6597239445 1.9199463994 -1.2143159138
C 0.3623734138 2.3259425145 0.0816454114
O 0.8229721651 0.9660489128 0.0308398669
C 2.1460540232 0.7390037181 -0.2152755673
C 3.1115339199 1.7480229601 -0.2471858259
C 4.4413987636 1.4232461915 -0.5144422579
C 4.8131239107 0.1042133966 -0.7446602786
C 3.8405602300 -0.8948119059 -0.6986054786
C 2.5042715146 -0.6051443746 -0.4351774048
C 1.4689279258 -1.6950514089 -0.3996094248
C 0.5707665127 -1.7832369904 -1.6058177071
C 0.6260188554 -1.0125896012 -2.6894395796
H -1.4413623500 -2.3847803562 1.7849225146
H -3.1504611005 -2.8408042758 1.9173785628
H -2.4478913185 -2.4953492362 0.3235709639
H -2.8131379372 -0.4697239968 2.5928964923
H -4.9695168298 -1.0892006874 1.5714525860
H -4.3116845639 -0.8147347586 -0.0577878985
H -4.5469984358 0.5472956457 1.0558380878
H -0.9351762654 -0.3112186963 0.8948840431
H -2.8436841172 1.8495195178 1.2898482972
H -1.2922442415 1.6617605214 2.1219233343
H -1.4471848462 3.3852304416 0.2037138954
H -1.8647802864 0.9730732234 -1.0812544634
H 0.7257247709 2.8122981864 0.9982834076
H 0.7373094491 2.8778111137 -0.7898350281
H 2.8422165528 2.7805265686 -0.0612866291
H 5.1843749604 2.2146653015 -0.5374189970
H 5.8474535117 -0.1494056381 -0.9524331252
H 4.1208314193 -1.9306575286 -0.8726590248
H 1.9737119116 -2.6624674203 -0.2790481217
H 0.8362113217 -1.5877456146 0.4922095472
H -0.1788609607 -2.5730236412 -1.5518230638
H 1.3544514315 -0.2103401461 -2.7806631585
H -0.0633097560 -1.1584612578 -3.5153729272
