56
CONF1
C 3.6177030404 3.4324123801 0.9604682594
C 2.1497568741 3.0800303218 1.0530433947
O 1.7176764915 2.7056194437 -0.2617527619
C 0.4446185652 2.2276785249 -0.3984074613
C -0.5047462630 2.1972395913 0.6233787486
C -1.7723906285 1.6863939264 0.3644673523
C -2.1400990998 1.1982548097 -0.8910514377
C -1.1684659361 1.2370802406 -1.8950601050
C 0.1025608095 1.7429401129 -1.6604493963
C -3.5396625079 0.6216669382 -1.1109230608
C -3.8040864629 0.2461125128 -2.5731805102
C -4.6090028160 1.6381407245 -0.6703857481
C -3.6979401556 -0.6327205833 -0.2379448173
O -2.8167962397 -1.6531397513 -0.7005585973
C -2.3896621014 -2.5384704795 0.3328282138
C -1.3697937972 -1.8978668202 1.2447248770
C -0.1553600972 -1.4769027143 0.7017880273
C 0.7883837276 -0.8696612104 1.5202923640
C 0.5310395836 -0.6537819852 2.8731337690
C -0.6859684852 -1.0585268119 3.4041583422
C -1.6332968578 -1.6859721734 2.5973015336
O 1.9897730756 -0.3894408090 1.0404779287
C 2.6112568297 -1.0530703149 -0.0045273377
C 2.7617398437 -2.4378361731 0.0007436983
C 3.4613201328 -3.0445389888 -1.0362928467
C 4.0119846025 -2.2791966760 -2.0618188263
C 3.8592853419 -0.8959222950 -2.0452682006
C 3.1539255499 -0.2741428690 -1.0194214200
H 4.2005396154 2.5666762909 0.6336997769
H 3.9865399514 3.7464199398 1.9412059164
H 3.7758104040 4.2494711828 0.2513112240
H 1.5589704316 3.9391751636 1.4036183627
H 1.9909299195 2.2389329872 1.7415428130
H -0.2721159163 2.5509396492 1.6200794166
H -2.4806377955 1.6605378132 1.1870672035
H -1.3936444688 0.8619281611 -2.8861857459
H 0.8472076814 1.7645752936 -2.4493034080
H -3.1174865426 -0.5281097644 -2.9220890596
H -4.8228118159 -0.1430561679 -2.6718169456
H -3.7134505304 1.1224028807 -3.2231918470
H -4.5001966412 2.5657961948 -1.2397157067
H -4.5296237071 1.8858557861 0.3919362383
H -5.6135653283 1.2396377678 -0.8499959030
H -4.7388503209 -0.9973037636 -0.2889592984
H -3.4761810157 -0.3763775324 0.8079836988
H -1.9474827055 -3.3961430624 -0.1856657468
H -3.2489245176 -2.9010111651 0.9194102484
H 0.0386902225 -1.6013222006 -0.3585801331
H 1.2875443399 -0.1744098028 3.4851354523
H -0.8929165423 -0.8915792089 4.4565138523
H -2.5800897877 -2.0110393063 3.0189338532
H 2.3348638380 -3.0247414530 0.8069554290
H 3.5837146890 -4.1230469331 -1.0363598142
H 4.5584526213 -2.7592477266 -2.8665196370
H 4.2848978933 -0.2922038745 -2.8406864066
H 3.0093149838 0.8003215171 -0.9905094574
