47
CONF47
C 4.5834470416 -0.5065990752 1.8078839501
C 4.2809623305 -0.0882341993 0.4224500404
C 3.1259591624 0.0760132486 -0.2947404604
C 3.5657990031 0.4642589515 -1.5999293180
N 4.8784252784 0.5476410674 -1.6526514820
O 5.3347592480 0.1793533565 -0.3746505500
C 2.7616063368 0.8064578669 -2.7790346369
C 3.2025541068 0.4545214228 -4.0600462702
C 2.4516537422 0.8062013837 -5.1766165090
C 1.2576657678 1.5086446114 -5.0256070812
C 0.8164529959 1.8624076664 -3.7514699112
C 1.5626150127 1.5134812034 -2.6319826586
C 1.7457295023 -0.2513373922 0.1160423551
O 0.9859118524 -0.9039991616 -0.6022859587
N 1.3755017606 0.1928658722 1.3471018255
C 0.0791291387 -0.0825031030 1.8818875852
C -1.2209543745 0.4377165890 1.1723308107
N -1.6836175391 -0.9527684431 1.1058364730
C -0.5470765218 -1.4858614372 1.6981463226
O -0.2456030037 -2.6186502754 1.9939296462
C -3.0726058211 -1.2283814307 1.3879983932
C -3.5011169097 -0.2009622888 2.5019748379
S -2.5097123670 1.3494427628 2.1175526808
C -4.9847381230 0.1478364853 2.4807156961
C -3.0976538538 -0.7586113925 3.8672827488
C -3.9556538552 -1.1649140794 0.1512305140
O -4.9517125051 -1.8410857139 0.0146253182
O -3.5232136710 -0.2681507905 -0.7479859578
H 3.7577014144 -1.0928712181 2.2151641123
H 4.7304469229 0.3716915005 2.4468112351
H 5.4986290342 -1.1028523241 1.8306062823
H 4.1250941040 -0.1048986708 -4.1738562824
H 2.7963453161 0.5249193135 -6.1666417972
H 0.6716701516 1.7792718303 -5.8982446721
H -0.1097249164 2.4148442387 -3.6290398915
H 1.2219919036 1.8042173804 -1.6431756843
H 1.9818914661 0.8210479473 1.8540149199
H 0.0649865702 0.1781593499 2.9439736018
H -1.0555371398 0.9160402216 0.2039817609
H -3.1688387620 -2.2416709130 1.7897198399
H -5.5751477612 -0.7561225841 2.6625017511
H -5.2916033981 0.5853313673 1.5270974228
H -5.2079315864 0.8636065132 3.2767185576
H -2.0414417120 -1.0407622695 3.8974798711
H -3.2716255658 -0.0085407232 4.6429027583
H -3.7013851849 -1.6447403725 4.0948712051
H -4.1400352902 -0.2614541017 -1.5014481672
