22
CONF133
C 2.2303930502 -0.2696665730 -0.0046819114
C 1.0188728029 -0.4316879876 -0.9164012211
C -0.3158858636 -0.4800689126 -0.1539650635
C -0.7485810331 0.8859839346 0.3787226067
C -1.9853397846 0.7789644251 1.2652576801
O -2.3691388033 2.0620076017 1.7674799927
O -0.9999648938 1.8021300734 -0.6966454421
O -1.3594690733 -0.9212559702 -1.0351773967
O 1.1509578686 -1.6223585438 -1.7121537380
O 2.3869463244 -1.4187349471 0.8439567584
H 2.1083380019 0.6102454147 0.6364229147
H 3.1237688300 -0.1183950048 -0.6208179957
H 0.9927022795 0.4010752028 -1.6286552337
H -0.2176992395 -1.1785918224 0.6928467892
H 0.0617272322 1.3287151622 0.9687214067
H -2.8090164989 0.3188988536 0.6997530933
H -1.7648150837 0.1498530118 2.1341917201
H -2.4479759748 2.6403434783 0.9960847129
H -1.5432844544 1.3181890670 -1.3377423324
H -0.9385508567 -1.5363572501 -1.6559120095
H 1.3394150695 -2.3486622114 -1.0980261235
H 3.0866008942 -1.9706268170 0.4767407876
