47
CONF130
C -6.8404103090 -1.7974063501 1.4213525284
O -5.4655418174 -2.2367295906 1.6517828416
P -4.5254836056 -2.6280751390 0.4255691497
S -2.7533129738 -3.1686073308 0.9869846107
O -5.4362417034 -3.6664519640 -0.3774833866
C -4.9270783464 -4.2871746133 -1.5913399954
O -4.5750605233 -1.3683516669 -0.6144575153
C -3.6983301284 -0.2896704002 -0.4990668830
C -2.7341324169 -0.1276414469 -1.4874985947
C -1.8861226916 0.9695870247 -1.4323602651
C -1.9870417453 1.8780379841 -0.3741292250
C -2.9559763755 1.6974186647 0.6130851312
C -3.8276207179 0.6137023694 0.5464033413
S -0.9427241216 3.3284802392 -0.3027570339
C 0.7021596691 2.6338805140 -0.4140568018
C 1.0256167728 1.3889710186 0.1317721213
C 2.3310145923 0.9173668743 0.0616957257
C 3.3049848056 1.7073023587 -0.5357893433
C 3.0040758296 2.9496923976 -1.0753310322
C 1.6928394535 3.4098704592 -1.0216437211
O 4.6109610320 1.2154882963 -0.6599404905
P 5.7010782921 1.4232647053 0.5215270292
S 6.0166448437 3.2280849090 1.1499385635
O 7.0011621392 0.7783330670 -0.1420560778
C 6.9727579644 -0.5965455306 -0.6346584186
O 5.1392500600 0.3689228742 1.5949765774
C 5.7488555417 0.2868072109 2.9135826528
H -6.8613964013 -0.9925744221 0.6819124769
H -7.1932160240 -1.4319032232 2.3850319567
H -7.4459985309 -2.6421634505 1.0874827702
H -4.0276676847 -4.8654699940 -1.3642350919
H -5.7221604352 -4.9451197276 -1.9402412065
H -4.7123293264 -3.5221815610 -2.3422814468
H -2.6634041211 -0.8503582661 -2.2932946360
H -1.1393807036 1.1139543399 -2.2062182085
H -3.0310259652 2.3986950180 1.4372866891
H -4.5871622606 0.4688860605 1.3073334255
H 0.2629615601 0.7824071376 0.6081230829
H 2.5935522777 -0.0510928262 0.4723796721
H 3.7833291795 3.5385987199 -1.5460251829
H 1.4426631012 4.3712054968 -1.4588583988
H 7.9981297660 -0.8211955500 -0.9262441442
H 6.6476351841 -1.2752117947 0.1576572500
H 6.3080727882 -0.6683095335 -1.4983721807
H 5.6472880565 1.2436767602 3.4316306609
H 5.1998992341 -0.4923307449 3.4417974714
H 6.8038857005 0.0119308433 2.8260795645
