38
CONF14
C -6.5641172110 0.5286233443 1.8177469699
C -5.2221497240 0.8572031333 1.1785203015
C -5.2292721991 0.3903454307 -0.2760354570
O -5.7034809525 1.0593558039 -1.1707712407
O -4.7173121835 -0.8335465979 -0.4255355032
C -4.7235354383 -1.3516121914 -1.7826754601
O -4.2190315009 0.2192446886 1.9707584043
C -2.9060903893 0.4972305926 1.7013265862
C -1.9785937802 -0.1700445102 2.5091640033
C -0.6206539739 0.0401224919 2.3298905724
C -0.1987568444 0.9139338960 1.3360473721
C -1.1002569579 1.5832425606 0.5305362185
C -2.4683519895 1.3781410301 0.7104536633
O 1.1707689146 1.1985924084 1.1965734031
C 1.9390471656 0.3202033353 0.5186118663
C 3.3194708142 0.5941638292 0.4446707617
C 4.1341467035 -0.2784153313 -0.2412990025
C 3.5532199107 -1.4034680983 -0.8352819310
C 2.1851419496 -1.5929173022 -0.7179634225
N 1.3971927893 -0.7415499977 -0.0510506887
C 4.4173536697 -2.3573043783 -1.5962879716
F 4.8882494817 -1.8082281419 -2.7484509202
F 3.7591325668 -3.4855805468 -1.9378749329
F 5.5094607458 -2.7281313139 -0.8797229135
Cl 3.9795861485 2.0121133967 1.2115686028
H -7.3688207271 1.0013490448 1.2499739543
H -6.5807479766 0.9102541974 2.8412297665
H -6.7224907127 -0.5531459094 1.8337285959
H -5.0669530805 1.9434257286 1.1671050474
H -5.7496567104 -1.4225281312 -2.1498466438
H -4.1383929206 -0.6965340946 -2.4320187587
H -4.2667576905 -2.3375407647 -1.7150430596
H -2.3386807174 -0.8471699144 3.2763419267
H -0.7426277892 2.2626613806 -0.2357046740
H -3.1612614270 1.9151153215 0.0738109255
H 5.2005319857 -0.0922449833 -0.3115535609
H 1.6966852788 -2.4519410333 -1.1684392722
H 0.1077384494 -0.4697391988 2.9516006417
