46
CONF357
C -6.4328775150 2.9878583502 -1.5072364576
C -5.5959768036 3.0283856897 -0.2278147764
C -4.9534967441 1.6852326675 0.1366933439
C -3.9571517422 1.2268233227 -0.9060239165
O -3.3357057356 0.0014312843 -0.3992900743
C -2.4249222792 -0.5705096636 -1.1921584179
O -2.0627724433 -0.1373028071 -2.2649432964
C -1.9391484491 -1.8833615086 -0.5767604217
C -2.8986902176 -3.0045009454 -0.9494562270
O -0.6619397687 -2.2360373550 -1.1075283880
C 0.4176106029 -1.4676793775 -0.7660361675
C 1.6293896796 -1.8514437484 -1.3519330843
C 2.7917092381 -1.1508239763 -1.0708662262
C 2.7341081946 -0.0681823718 -0.2007842774
C 1.5449724000 0.3260395344 0.3851032740
C 0.3725148796 -0.3742306601 0.1015556759
O 3.8905990573 0.6880852480 0.0404197706
C 4.7993231809 0.1949481142 0.9195225306
C 6.0000691670 0.9102023914 1.0341120467
C 7.0022519606 0.5295993364 1.8930081718
C 6.8076457067 -0.6178918660 2.6801308308
C 5.6151355252 -1.3461918101 2.5847954389
C 4.6185186544 -0.9406953963 1.7099109885
C 7.8264113968 -1.0355552591 3.5755387856
N 8.6563919141 -1.3792288638 4.3085258848
F 6.1615828252 2.0076153965 0.2680218498
H -5.8159698931 2.8080703870 -2.3933510312
H -7.1846279532 2.1922093288 -1.4545465083
H -6.9566145573 3.9366181177 -1.6588759337
H -4.8118572161 3.7908665449 -0.3202904441
H -6.2312084559 3.3370771152 0.6099710892
H -4.4352534107 1.7775612045 1.0982478123
H -5.7320099312 0.9211259831 0.2545691273
H -4.4267219183 0.9940114011 -1.8658850170
H -3.1682884038 1.9695635617 -1.0680398291
H -1.8863436210 -1.7791120279 0.5140793076
H -2.9522291461 -3.1111418487 -2.0364799924
H -2.5491726731 -3.9424803242 -0.5116375132
H -3.8955474910 -2.7831745326 -0.5612862545
H 1.6432631939 -2.6991659549 -2.0287255589
H 3.7366332982 -1.4379490712 -1.5208469140
H 1.5280434429 1.1762596463 1.0587457263
H -0.5496227582 -0.0504042471 0.5691523587
H 7.9164393001 1.1093330656 1.9498052481
H 5.4700602021 -2.2279932934 3.1980063233
H 3.6954756194 -1.5038608984 1.6379038563
