44
CONF128
C -5.8201720017 -0.8095327718 0.6665125686
N -4.3536121271 -0.7540587227 0.6255696353
C -3.8489250416 0.6251791128 0.8176369047
C -4.1204692054 1.3500880239 -0.5307759632
C -4.1085027871 0.2026816495 -1.5742170679
C -3.8287419992 -1.0677501947 -0.7234610889
C -2.3248109909 -1.3395094444 -0.5839652180
C -1.6209636098 -0.0909773260 -0.0711032137
C -2.3466796984 0.5302732833 1.1173798415
O -0.2694141184 -0.4983022189 0.3221762691
C 0.6924761153 0.4368749898 0.2954947080
O 0.5153509345 1.5861742702 -0.0556753464
C 2.0104748266 -0.1133758650 0.8269322257
C 2.2475855085 -1.5903707616 0.4502528104
O 2.3138558435 -1.7983402593 -0.9604558669
C 3.2003375143 0.7390596862 0.4582706281
C 4.1618016572 1.0392041690 1.4269405498
C 5.3126773236 1.7491118484 1.0935534314
C 5.5203514755 2.1661533535 -0.2191940747
C 4.5685991712 1.8712449899 -1.1930341330
C 3.4165008008 1.1642928364 -0.8575545945
H -6.3192090109 -0.1483215337 -0.0618113390
H -6.1462456815 -1.8362613399 0.4700055760
H -6.1630475996 -0.5294306143 1.6680645656
H -4.3621143762 1.0985200241 1.6607129293
H -5.0918372746 1.8511253263 -0.5080838448
H -3.3648026170 2.1147198101 -0.7347987983
H -3.3488206987 0.3434750600 -2.3491635996
H -5.0749444495 0.1201190537 -2.0785929765
H -4.3264215880 -1.9577741818 -1.1212886240
H -1.8985924483 -1.6357756549 -1.5488297046
H -2.1765989246 -2.1617206607 0.1252440352
H -1.5160313058 0.6431678239 -0.8747321069
H -2.1994575682 -0.1025513682 2.0000201401
H -1.9368208111 1.5231745614 1.3296488027
H 3.1716560884 -1.9234745572 0.9411124644
H 1.4203941508 -2.2022097337 0.8148008354
H 4.0058323668 0.7137270608 2.4521419394
H 6.0460419829 1.9779627117 1.8608447341
H 6.4159888113 2.7207836208 -0.4812551887
H 4.7201583325 2.1956795005 -2.2180984166
H 2.6731379212 0.9583042494 -1.6212604304
H 1.8959399333 -0.0986065812 1.9213435240
H 3.1403755145 -1.4124114589 -1.2800048588
