39
CONF12
C 6.3428744731 1.2466771687 -3.1109112937
C 6.0488838448 0.1780335712 -2.0601933331
C 5.7762542708 0.7731860231 -0.6785451307
C 5.3624119745 -0.2877945497 0.3404685312
C 5.2102545875 0.2078811676 1.7868590645
C 4.8148599428 -0.9538293565 2.7119342384
C 4.7522710594 -0.5955383469 4.1960841667
C 4.2623963407 1.3923907557 1.8885550814
O 2.9396137315 0.9632104131 1.4186811654
C 2.2966024071 1.7446268304 0.5511292050
O 2.6618926491 2.8271831236 0.1480141278
C 0.9929306531 1.1172418283 0.1511907533
C 0.0216170753 0.9505904538 1.1298237048
C -1.2324230097 0.4636276889 0.7922461115
C -1.5301014026 0.1155690573 -0.5286080947
C -0.5371182349 0.2530894041 -1.5142960705
C 0.7213405787 0.7581768943 -1.1686206931
Br 2.1146873868 0.8956937852 -2.4534917312
Br -0.8974078328 -0.2498393474 -3.3041305934
Br -3.2481078757 -0.5388180825 -0.9749992487
Br -2.5055830639 0.2929436887 2.1920659243
H 5.4893219476 1.9254342882 -3.2218107781
H 7.2120240256 1.8493305885 -2.8241703047
H 6.5490952607 0.8024058025 -4.0898092390
H 5.1773485753 -0.4134753208 -2.3719225818
H 6.8911635582 -0.5230817395 -1.9936591615
H 6.6732295747 1.3006162864 -0.3234911225
H 4.9879117004 1.5309051966 -0.7782261278
H 6.1084499814 -1.0933272364 0.3405386128
H 4.4164493526 -0.7455843329 0.0190414919
H 6.1828164047 0.5993947786 2.1238396285
H 5.5476609813 -1.7568002329 2.5656692548
H 3.8482591841 -1.3568677293 2.3842087245
H 4.5934077707 -1.4922715598 4.8026914142
H 5.6864097062 -0.1273652844 4.5266509570
H 3.9331626490 0.0960147730 4.4172223091
H 4.5947940650 2.2360875937 1.2824429178
H 4.1286937257 1.7281052629 2.9200605793
H 0.2424104099 1.2163434168 2.1568203239
