57
CONF6
C -4.3120395254 -2.1144902278 -2.0282306279
C -4.8850632584 -0.7212414873 -1.7758434827
C -3.7604637943 0.2581507119 -1.4541593589
N -3.0089377761 -0.1853358288 -0.2663731574
C -2.3709069540 -1.4795390472 -0.5472053084
C -3.4354293657 -2.5345519304 -0.8506209818
C -2.1311306181 0.8900483347 0.2679969261
C -1.1097991294 1.4303601463 -0.7510901140
C -0.0660781997 2.3836465590 -0.1652339030
N 0.5754732636 1.8449520656 1.0391526191
C -0.4204175553 1.4759446885 2.0469785257
C -1.3380945887 0.3936361225 1.4920877235
C 1.5913001358 2.7562582905 1.5669198329
C 2.6420048740 2.0050444773 2.3790053549
C 3.2552779472 0.8814755488 1.5362629960
C 2.2545217149 -0.2225587951 1.2516412586
O 1.7577974460 -0.8380767956 2.1953263536
C 1.9966123285 -0.6751623227 -0.1497953852
C 2.3293022014 0.0894671001 -1.2750366560
C 2.0263005937 -0.3551600806 -2.5562401777
C 1.3995678305 -1.5833391643 -2.6923157327
C 1.0678239822 -2.3813928864 -1.6092700985
C 1.3684560015 -1.9131755215 -0.3379118850
F 1.0988292746 -2.0229608409 -3.9387529629
C -3.0903440787 2.0153035796 0.7486836731
O -2.9158147570 3.2063093870 0.4878035383
N -4.1079686780 1.5824136179 1.5265203154
H -5.1146838607 -2.8423089978 -2.1930943575
H -3.7020725113 -2.0915118389 -2.9422832072
H -5.4367136361 -0.3612487237 -2.6519678567
H -5.5868582071 -0.7515235407 -0.9319238392
H -4.1744135231 1.2558071679 -1.2653139521
H -3.0995566871 0.3425863337 -2.3377063935
H -1.7931423512 -1.8039959871 0.3206354606
H -1.6719805682 -1.4153020065 -1.4035418286
H -2.9377918633 -3.4893980647 -1.0573283279
H -4.0582644813 -2.6742857089 0.0425674976
H -0.5894361049 0.5618279071 -1.1738273770
H -1.6178163503 1.9484590116 -1.5698993616
H 0.7160328378 2.5481747692 -0.9178619240
H -0.5344082429 3.3587209143 0.0461418544
H 0.0977463605 1.0774822304 2.9247464805
H -0.9986923185 2.3610430656 2.3786217026
H -0.6916789585 -0.4342067078 1.1891640733
H -2.0172293740 0.0295345923 2.2700207418
H 2.0881638993 3.2343349292 0.7130237469
H 1.1386148567 3.5642289197 2.1719801315
H 3.4242798701 2.7061616478 2.6892826614
H 2.2098169106 1.5827445353 3.2926529154
H 3.6924765641 1.2957891783 0.6250841584
H 2.2634981948 0.2355141238 -3.4343045710
H 0.5818860623 -3.3383688780 -1.7659121048
H 1.1124877308 -2.5067477245 0.5328197515
H -4.8188229750 2.2398709118 1.8079678993
H -4.3186673184 0.5949602798 1.5370509552
H 4.0686713652 0.4036423170 2.0970475346
H 2.7992003431 1.0592374685 -1.1635129066
