43
CONF5
C 0.5587792083 0.1753368070 2.0867372871
C 1.9520910959 0.7155989671 2.3352511427
O 2.8623350504 0.2651761119 1.2896371843
C 3.3462697749 -0.9775806528 1.4188830067
O 3.2023873393 -1.6952579832 2.3821320993
C 4.1739660316 -1.3875538914 0.1975494971
C 5.6159718783 -0.9376776790 0.3710752334
O 3.6987792180 -0.7988487737 -1.0125572250
C 2.3843718152 -0.9984057045 -1.3387586007
C 1.5731905589 -1.9822220282 -0.7714079997
C 0.2360989958 -2.0728775830 -1.1525378608
C -0.2683363684 -1.1931789924 -2.0907395652
C 0.5359523291 -0.2281025298 -2.6813093937
C 1.8647182120 -0.1306520257 -2.3024135422
O -1.6086179348 -1.3184961185 -2.4891165301
C -2.5177860508 -0.5164195492 -1.8781082800
C -3.8652235113 -0.6841158006 -2.3239128762
N -4.8452531310 0.0140683904 -1.8187025236
C -4.5228949095 0.9174763208 -0.8443550303
C -5.5461165658 1.6958772022 -0.2680263285
C -5.2168246913 2.6050657488 0.7082727865
C -3.8894725793 2.7797247693 1.1449256858
C -2.8833355818 2.0242611861 0.5890019932
C -3.1742193039 1.0769853004 -0.4133873301
N -2.1680016132 0.3321287019 -0.9540221622
Cl -6.4709419335 3.5846389553 1.4407786500
H 0.5369564197 -0.9104885000 2.2071283721
H 0.2178731040 0.4198769368 1.0760411958
H -0.1375066049 0.6128348166 2.8098098910
H 2.3455384814 0.4016481573 3.3062249406
H 1.9845422859 1.8047397345 2.2594858577
H 4.1276402317 -2.4833393671 0.1423035839
H 6.2093040974 -1.2714703229 -0.4835302320
H 5.6641417404 0.1523808013 0.4331112247
H 6.0313741598 -1.3709264789 1.2842743394
H 1.9537934183 -2.6723974809 -0.0280388815
H -0.4139512736 -2.8207855907 -0.7117566956
H 0.1143330886 0.4491934813 -3.4158376268
H 2.5153741336 0.6242004204 -2.7292937877
H -4.0843879225 -1.4125561467 -3.1029119087
H -6.5658894450 1.5599971943 -0.6077922739
H -3.6741302554 3.5106675011 1.9156702713
H -1.8528925953 2.1414755939 0.9064382055
