43
CONF20
C -2.9323406479 1.6043699284 3.0582818635
Si -1.4310934759 1.1027952002 2.0776521090
C -0.6330050729 2.5710378264 1.2456418533
O -0.3845018160 0.3855037544 3.1449480765
O -1.8634849593 -0.0325196601 0.9582799627
Si -2.0243484517 -0.2754613967 -0.6625718364
C -3.6210940621 0.4838564510 -1.2440308533
C -1.9462594193 -2.1150949849 -0.9489621561
O -0.8050445310 0.4833572200 -1.4764813924
Si 0.8118203900 0.3079403575 -1.7523938843
C 1.0951177762 -1.0849648435 -2.9581139999
C 1.4450165725 1.9328301337 -2.3974113821
O 1.5601114993 0.0062299132 -0.3149565338
Si 2.2796757554 -1.0684177155 0.6980058067
C 2.9250734353 -2.5415913319 -0.2391949472
C 3.5649952438 -0.1584430235 1.6798034465
O 1.1654600215 -1.5826336107 1.8401609047
H -3.4206566868 0.7283473534 3.4988514937
H -3.6596255366 2.1151109892 2.4174503682
H -2.6595235863 2.2881180004 3.8697182760
H 0.3049734715 2.2802156171 0.7617197830
H -1.2909621259 3.0029740505 0.4830739005
H -0.4105587666 3.3493559055 1.9844762204
H 0.2221007324 -0.2653393074 2.7403267708
H -3.7657413255 0.3254105057 -2.3181164025
H -4.4746095592 0.0456225974 -0.7156864595
H -3.6224755886 1.5636001574 -1.0555484490
H -2.7546966801 -2.6242930546 -0.4129875594
H -0.9939434050 -2.5264433465 -0.5935935720
H -2.0403298625 -2.3512388088 -2.0144621899
H 0.5961705961 -0.8622933983 -3.9080621428
H 2.1636151980 -1.2188026933 -3.1584838160
H 0.6969579846 -2.0320022166 -2.5800253173
H 1.2805872026 2.7318558167 -1.6663321805
H 2.5189302735 1.8757050355 -2.6055776585
H 0.9324886904 2.2079587543 -3.3254821786
H 2.1072024045 -3.0984789139 -0.7094843834
H 3.6214703042 -2.2331865388 -1.0262131191
H 3.4534595915 -3.2202024750 0.4391816658
H 4.0546794769 -0.8217092282 2.4001035968
H 4.3327451881 0.2585116789 1.0197112791
H 3.1063369524 0.6699791610 2.2316345184
H 0.4953066927 -2.2075696954 1.5351500421
