48
CONF23
C 2.8453583492 -2.1644507594 -4.0267219235
C 3.3205274470 -2.0800972507 -2.5790490702
C 2.9543071228 -0.7619974283 -1.8957768449
C 1.4383585861 -0.5430743607 -1.8815863854
O 0.8737868178 0.0737607687 -2.7808428923
N 0.7894481077 -1.1178389329 -0.8355766420
C -0.6089070609 -0.9310386156 -0.6151651586
C -1.0811907584 0.0131418380 0.5454615996
N -1.7249262535 -1.1538894368 1.1657435742
C -1.3675521939 -2.0353567328 0.1515596509
O -1.6058125248 -3.2074344658 -0.0189755398
C -3.0222175017 -0.9709233202 1.7777327674
C -3.7759425169 0.0860921365 0.8862682222
S -2.4238161945 1.2411366945 0.2761505832
C -4.4236377767 -0.6352140239 -0.2960569227
C -4.8122742650 0.9037372206 1.6492614170
C -2.9380120909 -0.5613507663 3.2395174069
O -3.7738271759 -0.8661037830 4.0608774153
O -1.8574195165 0.1897664429 3.5046340015
O 3.4928241741 -0.8424234488 -0.5669991218
C 3.4546621874 0.2822925685 0.2230665355
C 2.9653808964 1.5228553908 -0.1894399354
C 2.9713654028 2.5884129057 0.7121674693
C 3.4540582355 2.4298797532 2.0063323659
C 3.9410471707 1.1838970860 2.4045825828
C 3.9414400412 0.1120920814 1.5223543525
H 1.7540275487 -2.1580598315 -4.0952048146
H 3.2261833416 -1.3244052757 -4.6163578008
H 3.2064060568 -3.0905209199 -4.4819077026
H 2.9036893774 -2.9039751402 -1.9879945639
H 4.4117361954 -2.1654876483 -2.5341434700
H 1.3460403223 -1.5431756099 -0.1056893581
H -0.2721191157 0.4601621215 1.1295558710
H -3.5737721062 -1.9155185561 1.7479725456
H -5.2257520758 -1.2883821569 0.0664338160
H -3.7026344303 -1.2437276088 -0.8492448683
H -4.8521324576 0.0943276238 -0.9877951099
H -5.5849552855 0.2369109456 2.0457166152
H -4.3680695890 1.4622196932 2.4772229022
H -5.2930413564 1.6152802521 0.9723283724
H -1.8752539280 0.4328583957 4.4470318557
H 2.5816089967 1.6789301937 -1.1905785048
H 2.5887956776 3.5511272068 0.3873325991
H 3.4522823985 3.2650512840 2.6986316920
H 4.3219268367 1.0436557587 3.4115541658
H -1.1065459170 -0.6929980731 -1.5598835403
H 3.3979780231 0.0797143826 -2.4422454071
H 4.3147765771 -0.8623090994 1.8207011016
