63
CONF45
C 1.7087512695 -1.2142659623 -0.2752344740
C 0.6623774937 -1.4695847779 -1.3544210754
N 0.1274054410 -0.2072271692 -1.8786270335
C 1.2074502097 0.5631306895 -2.5045655115
C 2.2778321150 0.9216677857 -1.4774313601
C 2.8361738483 -0.3525684257 -0.8426156184
N 3.8660523832 -0.0601106362 0.1586368791
C 5.2136637222 -0.3887149741 0.0548027465
C 5.9328552437 -1.0539227573 -0.9280406961
C 7.3051762993 -1.2248332040 -0.7202392921
C 7.9331857865 -0.7453289196 0.4313987567
C 7.2108145240 -0.0739589443 1.4219684811
C 5.8517053249 0.0947798503 1.2147330277
N 4.8718489400 0.7013322612 1.9776808312
C 3.6387351876 0.6266035209 1.3490950325
O 2.5726562236 1.0770745907 1.7655409169
C -0.9749173180 -0.4497561798 -2.8213643818
C -2.2850597121 -0.7775855364 -2.1048748148
C -2.8448882457 0.4274773789 -1.3444055774
C -3.8417754281 0.0477651730 -0.2375826978
C -3.2335321247 -0.7815739567 0.8837234626
C -1.8780521601 -0.7242615771 1.2187935934
C -1.3664163254 -1.4579078849 2.2882298573
C -2.2352194656 -2.2507834761 3.0151342662
C -3.5845567856 -2.3446515446 2.7177351780
C -4.0712143971 -1.6032801472 1.6456915083
F -1.7453129549 -2.9730922446 4.0596146882
C -4.5046267005 1.2962331282 0.3217302728
C -5.8345106344 1.5925823297 0.0165888744
C -6.4439663017 2.7542555524 0.4891583059
C -5.6922573392 3.6122971615 1.2706638147
C -4.3703348460 3.3596642973 1.5991238856
C -3.7850658514 2.1924881462 1.1187742892
F -6.2739554628 4.7496979988 1.7406404868
H 2.1120988313 -2.1680247746 0.0831607516
H 1.2465097954 -0.6983962689 0.5718105125
H -0.1548842779 -2.0595698732 -0.9277096511
H 1.1095236745 -2.0723039636 -2.1727812226
H 1.6707352289 -0.0025624344 -3.3401568600
H 0.7841615773 1.4810153157 -2.9275215673
H 1.8394510753 1.5546832352 -0.6989902331
H 3.0862897031 1.4808878350 -1.9614818811
H 3.3395382546 -0.9298769179 -1.6271863360
H 5.4587871411 -1.4301727183 -1.8276114887
H 7.8905052694 -1.7415695227 -1.4737537295
H 8.9999439833 -0.8941816744 0.5623164789
H 7.6920841894 0.3023238712 2.3184407520
H 4.9997907013 1.1517937475 2.8700338212
H -0.7168464023 -1.2568114394 -3.5337169329
H -1.1183526642 0.4633913913 -3.4134519440
H -3.0182532114 -1.1177660089 -2.8462600045
H -2.1344961502 -1.6196000675 -1.4194366228
H -2.0218252584 1.0064627267 -0.9100515034
H -3.3540638067 1.0990837654 -2.0461692420
H -4.6352474172 -0.5597087435 -0.6921032800
H -1.1956035677 -0.1143107849 0.6351481946
H -0.3138536274 -1.4185226066 2.5488711997
H -4.2317023915 -2.9838804746 3.3087333769
H -5.1279599596 -1.6622738339 1.3982506453
H -6.4085194798 0.9072630655 -0.6008145799
H -7.4777756835 2.9880842309 0.2583535505
H -3.8190346156 4.0593313660 2.2182599109
H -2.7520194679 1.9766075253 1.3757621786
