46
CONF3
C -3.6315413914 -2.0369999321 1.0139744694
C -2.3272983389 -2.0348868128 1.7751520816
C -1.0195294778 -2.2544293588 1.0478793686
C -1.3489895031 -0.8717405263 1.6397773205
C -1.6380815742 0.2980761491 0.7900170711
O -2.0940405029 0.2913596113 -0.3388915524
O -1.3226768020 1.4327575956 1.4653516638
C -1.5177664595 2.7042212545 0.7783139719
C -0.1970475902 3.2320075176 0.2932592433
C 0.5850765777 2.4517756813 -0.5601260603
C 1.8189877596 2.9298086322 -0.9859851729
C 2.2707689495 4.1926410123 -0.6070922297
C 1.4747044580 4.9724015738 0.2233638578
C 0.2509437695 4.4930481217 0.6874546899
O 2.6222923443 2.2190585810 -1.8563630674
C 2.6478210417 0.8345305837 -1.7795542432
C 2.6939944698 0.1405808726 -2.9839360388
C 2.8068798219 -1.2471839263 -2.9643189098
C 2.8627985144 -1.9332948298 -1.7539010219
C 2.8118106458 -1.2229659985 -0.5557094794
C 2.7107645767 0.1651575847 -0.5585580139
C -0.9735796909 -2.4860958966 -0.3971774413
C -0.2775613761 -3.4581807229 -0.9862402471
Cl -0.2918654556 -3.6974676879 -2.7146514171
Cl 0.7135132853 -4.6125835936 -0.1324808420
C -2.4319096351 -2.6274517667 3.1634530009
H -4.3901027911 -1.4878364229 1.5819971700
H -3.5527409697 -1.5856296613 0.0255910892
H -3.9786934504 -3.0695751591 0.8993918546
H -0.2632882920 -2.7797572333 1.6229412758
H -0.7988391611 -0.6265109396 2.5415291865
H -1.9556171356 3.3736400754 1.5209674888
H -2.2205366819 2.5567272784 -0.0461190518
H 0.2389196042 1.4757722789 -0.8831551249
H 3.2341339851 4.5437566908 -0.9613382964
H 1.8221134288 5.9546389780 0.5276104277
H -0.3544120834 5.0960103181 1.3572616520
H 2.6453436390 0.6905691021 -3.9179619046
H 2.8429297989 -1.7927049216 -3.9021293867
H 2.9424817557 -3.0149720958 -1.7428500248
H 2.8586558098 -1.7507536357 0.3921374827
H 2.6819085678 0.7219151885 0.3721183140
H -1.5507343726 -1.8373840474 -1.0463454699
H -2.7826124301 -3.6633850212 3.1007966425
H -3.1505871816 -2.0595711905 3.7644720977
H -1.4667891702 -2.6190933221 3.6770971782
