14
CONF8
C 0.5593657880 0.2891879415 -0.0002658439
C -0.6638729156 -0.6195951386 -0.0783839763
C -1.7557511164 -0.0936820280 -0.9726508346
O -2.3877556244 -0.7462923398 -1.7664270631
O -1.9871688562 1.2333678184 -0.7652181883
C 1.5927724948 -0.2559375960 0.9510885044
O 1.4506675865 -1.2081947894 1.6792659117
O 2.7346533445 0.4785010206 0.9055822999
H 1.0264299725 0.4241586880 -0.9822599423
H 0.2875667665 1.2933153788 0.3432368374
H -1.0878834864 -0.7438525434 0.9254368281
H -0.3963137787 -1.6156706546 -0.4339978866
H -2.7169610292 1.4797963183 -1.3550478873
H 3.3442508648 0.0848979189 1.5496409338
