28
CONF61
O -2.8119558237 0.9095948049 -2.8211059217
C -1.5279208990 0.6097048373 -2.2676941351
C -1.7473394477 -0.4464754914 -1.1956135658
O -0.4615691457 -0.9821312618 -0.8011341538
C -0.2422996648 -0.7296784133 0.5888949217
C -1.1871617607 0.4117061542 0.9537801248
C -2.3965735949 0.1005995995 0.0856395874
O -3.1632735122 -0.8995248540 0.7650471441
N 1.1827028072 -0.4276653713 0.7799682659
C 1.7958779989 0.5063555805 -0.0139092613
C 3.1027567244 0.8271605506 0.0997790900
C 3.9184460933 0.1749579329 1.0919032253
O 5.1136123071 0.3736020927 1.2971296557
N 3.2179050500 -0.7643628566 1.8614047207
C 1.8849162768 -1.1112513349 1.7753067913
O 1.3728360116 -1.9405498593 2.5138673132
H -2.7038006519 1.6338013330 -3.4486654566
H -0.8461224160 0.2049169560 -3.0289587156
H -1.0652758922 1.5064597485 -1.8271074613
H -2.3514294185 -1.2631557855 -1.6122254538
H -0.4422844325 -1.6279614397 1.1784262298
H -0.7528408436 1.3745576437 0.6674004793
H -1.4298537279 0.4322831352 2.0177752528
H -3.0076238204 0.9863844836 -0.1273533155
H -3.9069662707 -1.1393647086 0.1973413677
H 1.1575794473 0.9635119456 -0.7613177375
H 3.5547075088 1.5652103208 -0.5484400863
H 3.7429516952 -1.2486851393 2.5798610731
