59
CONF282
C 8.2182163766 -1.7996625380 0.1212500916
C 7.1972194283 -2.9282810723 -0.0452021408
C 5.8702222245 -2.2542726651 0.3341189786
C 6.0120665815 -0.7603745367 -0.1071291059
C 7.4988119401 -0.6134502831 -0.5269550116
C 5.6635459624 0.1889289943 1.0388505592
C 4.2212661801 0.1024347101 1.4612869814
O 3.8566681115 0.3319248238 2.6054926956
N 3.2874858658 -0.2296210037 0.4737987835
C 3.6099122266 -0.4303301886 -0.8725243017
O 2.7257397447 -0.6093095084 -1.6984399928
C 5.0680144491 -0.4115609593 -1.2539487233
C 1.8631904805 -0.2672805522 0.8539715632
C 1.2146906254 1.1112719914 0.7305214255
C -0.2519699269 1.1152030724 1.1723014736
C -1.1650482458 0.3849173788 0.1881827590
N -2.5461793861 0.2453994549 0.6691061351
C -3.2871453673 -0.6825920411 -0.1955455077
C -4.7120181246 -0.8756637531 0.3140980529
N -5.3977119748 0.4143907853 0.3821430211
C -4.6697923870 1.3649756696 1.2215370232
C -3.2427605094 1.5383962879 0.7085995959
C -6.2600401022 0.8262465296 -0.5941281051
N -6.6934605768 -0.1040605125 -1.4805533449
C -7.5773782230 0.3079758837 -2.3865926171
C -8.0479843225 1.6144064073 -2.4543353730
C -7.5328001228 2.4897470522 -1.5051754519
N -6.6480506442 2.1254941822 -0.5796321470
H 9.1863978944 -2.0143445324 -0.3412018855
H 8.3892410630 -1.6058611086 1.1879288750
H 7.1737470936 -3.2469502580 -1.0949343092
H 7.4115591132 -3.8094738373 0.5668383864
H 5.7310315882 -2.3060408225 1.4206823281
H 5.0039037411 -2.7411663042 -0.1258397568
H 7.9086531146 0.3609524809 -0.2428446454
H 7.5752139005 -0.7000233075 -1.6180242259
H 6.2736590158 0.0041428312 1.9272519735
H 5.8409115676 1.2292965209 0.7288578401
H 5.2889425659 0.5996196347 -1.6266682896
H 5.1840896214 -1.0971935662 -2.0989210656
H 1.8094127557 -0.6200646531 1.8861219990
H 1.3803928393 -0.9970346651 0.2030975094
H 1.7803791069 1.8144738217 1.3515568294
H 1.2951301953 1.4570340643 -0.3077106795
H -0.5722469231 2.1565615034 1.2793339496
H -0.3428084708 0.6492923171 2.1624387044
H -0.7844131169 -0.6296391590 0.0204413543
H -1.1337161370 0.9024443410 -0.7922721226
H -3.3275691530 -0.3177580127 -1.2423118671
H -2.7719364131 -1.6504273046 -0.1971300947
H -4.6847725918 -1.2985957244 1.3267399686
H -5.2617451657 -1.5542299536 -0.3364061720
H -5.1887961260 2.3221714425 1.2323981222
H -4.6432176484 0.9631499449 2.2426939852
H -3.2724971746 2.0084559766 -0.2960453587
H -2.7134184210 2.2192309828 1.3822740631
H -7.9228044285 -0.4443915860 -3.0952519825
H -8.7646110362 1.9308624933 -3.2015545669
H -7.8414112855 3.5347806462 -1.4877031408
