39
CONF41
C 4.6332409917 2.4598541608 -1.8259515681
C 3.4095730151 2.1788160092 -0.9572611201
C 2.6022531942 0.9837182008 -1.4670903884
C 1.3730328546 0.7241247492 -0.6245414519
C 1.6464760264 0.2547683408 0.8160468994
O 0.6846228143 -0.7900602349 1.0463381196
C -0.1538894454 -0.8554207195 -0.1089127070
C -0.4740215553 -2.3320375787 -0.3752264146
N -1.3384999695 -2.8741913060 0.6522516003
C -1.0323347966 -3.2408495290 1.9190417396
N -2.1306334906 -3.5577875164 2.5836241213
C -3.1071169370 -3.3484872405 1.6561692930
N -2.6812046139 -2.9293424365 0.4720571955
O 0.6385323713 -0.3850314712 -1.1725087795
C -1.4147789129 -0.0142255882 0.1116700631
C -2.3088093999 0.3232633566 -0.9100285297
Cl -2.0527262264 -0.1746773404 -2.5718167569
C -3.4615486654 1.0603068075 -0.6623031935
C -3.7354273287 1.4547105040 0.6396136259
Cl -5.1878350285 2.3779120795 0.9565902924
C -2.8867971508 1.1261786957 1.6870388225
C -1.7403885913 0.3961505831 1.4060113853
H 5.2004352590 3.3157581455 -1.4495230624
H 5.3045057226 1.5950414537 -1.8487886851
H 4.3380326833 2.6789000859 -2.8572907705
H 2.7646063221 3.0666394789 -0.9282641277
H 3.7308927698 1.9960447160 0.0769064476
H 3.2234346046 0.0786125027 -1.4727683639
H 2.2849542576 1.1639328704 -2.5010632693
H 0.7207982215 1.6121203308 -0.6145796182
H 1.5145834242 1.0581261624 1.5503351829
H 2.6500129913 -0.1760177469 0.9188343901
H -0.9824892179 -2.4327884996 -1.3349577249
H 0.4719403773 -2.8799850122 -0.3960215214
H -0.0177363008 -3.2565122928 2.2928799398
H -4.1581972822 -3.5142331381 1.8519353556
H -4.1355494481 1.3102434422 -1.4715807612
H -3.1198105170 1.4284245849 2.7006912746
H -1.0721328161 0.1180012001 2.2124429439
