55
CONF38
C 1.1871276149 1.3659897975 0.7145700546
C 1.6446796181 1.4419392347 -0.7332784882
N 3.0672007858 1.1061301093 -0.8468398312
C 3.2845642225 -0.2401335420 -0.3029594834
C 2.8320714791 -0.3072532033 1.1466251539
N 1.4073681169 0.0209653735 1.2583600036
C 0.9647159221 -0.0880947157 2.6510335767
C -0.5674858436 -0.0570456006 2.7985424224
C -1.1886622488 -1.2244529989 2.1050141140
C -1.8681423410 -1.2395637771 0.9422975489
C -2.2307701728 -2.5193244955 0.3007199100
C -2.7858623657 -3.5832571600 1.0214479279
C -3.0479427523 -4.8036732307 0.4094470285
C -2.7766478628 -4.9759906380 -0.9472210646
C -2.2554537942 -3.9236369242 -1.6921185145
C -1.9878377811 -2.7035324116 -1.0695226819
S -1.2542844684 -1.4039256021 -2.0442258669
C -1.8958039319 0.0220513972 -1.2077721928
C -2.1881683990 -0.0269511320 0.1645097329
C -2.7773812736 1.0961355407 0.7549491712
C -2.9632492066 2.2618135136 0.0232250856
C -2.5899910623 2.3256587119 -1.3219475184
C -2.0777459618 1.1980963501 -1.9415069904
C -3.5711263242 3.4759431593 0.6517912555
F -3.9052031514 3.2892035081 1.9476383503
F -4.7027751310 3.8694525886 0.0046327095
F -2.7276124531 4.5444371746 0.6118982451
C 3.5334901881 1.2197004647 -2.2340907830
C 5.0507757609 1.3374416155 -2.2820709382
O 5.4994531179 2.4148858713 -1.4499213329
H 0.1200248474 1.6090155061 0.7503778835
H 1.7283389081 2.1285286520 1.3109835850
H 1.0242626510 0.7578963556 -1.3457802107
H 1.4884950621 2.4608067595 -1.1060055135
H 2.7317031646 -0.9955009613 -0.8960495299
H 4.3498008657 -0.4888174472 -0.3524668560
H 2.9926407197 -1.3233733736 1.5251977399
H 3.4545079602 0.3817602083 1.7528586918
H 1.3385660535 -1.0409146997 3.0468861836
H 1.3965939027 0.7175035353 3.2762799255
H -0.9566084264 0.8975094509 2.4424779902
H -0.7898328584 -0.1070252908 3.8719112978
H -0.9521815291 -2.1936720711 2.5446453411
H -3.0085347549 -3.4406501633 2.0745645911
H -3.4719507819 -5.6175833783 0.9885174441
H -2.9858659733 -5.9235907284 -1.4328855798
H -2.0585479271 -4.0465757935 -2.7526560764
H -3.0829233965 1.0459809126 1.7931552984
H -2.7295824306 3.2396466622 -1.8899837965
H -1.8276743956 1.2241544760 -2.9971860327
H 3.0996505243 2.1325905996 -2.6602874693
H 3.2029180307 0.3674796057 -2.8577384770
H 5.5295790005 0.3950060043 -1.9772430029
H 5.3685792795 1.5559830620 -3.3066287354
H 4.9287408379 2.3708331381 -0.6648764821
