50
CONF4
C 5.8818393132 2.0899916174 -1.1510736088
C 5.9221603341 1.9693268758 0.3580493115
O 4.6345373831 1.5438121475 0.8822966513
C 4.3932853842 0.2065786870 0.8551818115
O 5.2123662917 -0.6202261727 0.4694168054
N 3.1579738687 -0.0987838237 1.3515180196
C 2.1013982282 0.9028225330 1.5164392253
C 1.1842314516 0.9229465386 0.2772039291
C 0.6411715484 -0.4590584023 0.0366113654
C -0.6771386383 -0.7386841664 -0.0003467231
C -1.7215668704 0.3122130019 0.1220503141
C -2.4902323984 0.6281608081 -1.0087751604
C -2.2197966168 -0.1141600127 -2.2849521998
C -2.7226366355 -1.5606369260 -2.2157825747
C -2.1617809721 -2.4698995427 -1.1395381502
C -1.2175861712 -2.1204188997 -0.1532770686
N -0.7838056545 -3.0063731928 0.7685261058
C -1.2417655876 -4.2584879528 0.7378577667
C -2.1663749683 -4.7021397304 -0.2003802873
C -2.6227914247 -3.7898865802 -1.1377087192
C -3.4917228800 1.5940066207 -0.9171938157
C -3.7141616466 2.2287294012 0.2986643252
C -2.9698290104 1.9295747008 1.4316012111
C -1.9736632690 0.9620687994 1.3311553007
Cl -4.9811104423 3.4517583886 0.4031049117
C 1.7362811661 -1.4779756845 -0.1143319841
C 2.6440339952 -1.4517770038 1.1304050467
H 5.7015649637 1.1170177527 -1.6154731936
H 6.8423704314 2.4721839092 -1.5111623354
H 5.0961879920 2.7850043825 -1.4617819411
H 6.0912478319 2.9400026103 0.8301226881
H 6.6926886438 1.2680568542 0.6882211682
H 1.5115120644 0.6253024166 2.3992429386
H 2.5407253288 1.8834139365 1.6924259985
H 0.3904811157 1.6589229734 0.4216074235
H -1.1427118173 -0.1068786743 -2.4899865246
H -2.7193389781 0.3815084003 -3.1223609458
H -3.8141242327 -1.5426551692 -2.0945657842
H -2.5367718307 -2.0401391730 -3.1851083845
H -0.8581873244 -4.9323923287 1.5023225372
H -2.5197740094 -5.7276695932 -0.1912457662
H -3.3467640952 -4.0955750896 -1.8892233814
H -4.0858776971 1.8513081703 -1.7880116388
H -3.1615015833 2.4354509770 2.3708846381
H -1.3829275944 0.7099999761 2.2068270651
H 2.3536667568 -1.2094222371 -0.9836291955
H 2.0656864561 -1.7487100761 2.0135511945
H 3.4850821876 -2.1358431079 1.0138159790
H 1.7880209559 1.2371291661 -0.5862100903
H 1.3501972991 -2.4862749277 -0.2644008424
