51
CONF81
C 3.3229619803 1.7638048821 -3.4113217297
C 2.2228166445 1.3352513642 -2.4625924996
C 1.2849675545 2.4671715198 -2.0898707926
O 2.9218716568 0.8572381208 -1.2573354159
C 2.2913655391 0.0340703891 -0.4176884058
N 3.0312814839 -0.3345159790 0.6323676869
C 2.4314871272 -1.1959331705 1.4619693614
C 1.1564772969 -1.6847461252 1.3012329377
C 0.4745433375 -1.1825876728 0.1782346893
N 1.0357221483 -0.3454648140 -0.6836034316
O -0.7873746376 -1.5838533628 0.0216331937
C -1.6258770615 -0.9623018388 -1.0103337563
C -2.9790073197 -0.7585711675 -0.4013499144
C -4.0436246857 -1.5847482342 -0.7624915384
C -5.3015956607 -1.4151093729 -0.1909886837
C -5.4987598973 -0.4145843216 0.7564087171
C -4.4410597895 0.4133814906 1.1240559411
C -3.1761681600 0.2524700191 0.5557997500
C -2.0703131067 1.1694912977 0.9399297897
C -1.8286083014 2.3036191037 0.2439524921
O -2.5333851779 2.6126315125 -0.8454090281
C -2.2872393897 3.9299073187 -1.3983081771
C -1.2254034569 0.9289364629 2.1148411478
O -0.2500812630 1.5922338112 2.4412369600
O -1.6586029523 -0.1333730218 2.8314250219
C -0.9142356400 -0.4124529633 4.0402044783
C 3.2784354486 -1.5973632116 2.6524319699
F 4.4470828036 -2.1542442730 2.2609119365
F 2.6510658387 -2.4888012670 3.4458481351
F 3.5856832779 -0.5220516153 3.4150659254
H 3.9082519282 2.5798791131 -2.9764071860
H 2.8746257528 2.1175659858 -4.3438738010
H 3.9895566312 0.9282258494 -3.6405479555
H 1.6639093373 0.4907958437 -2.8767542022
H 0.5262218748 2.1287285135 -1.3801135158
H 1.8462274562 3.2975317416 -1.6495796211
H 0.7786694204 2.8278693360 -2.9905275989
H 0.6859011402 -2.3757210920 1.9862487509
H -1.1676461125 -0.0219465087 -1.3213222124
H -1.6632114292 -1.6503622225 -1.8587403438
H -6.1224286677 -2.0623314410 -0.4831102817
H -6.4760037844 -0.2743174300 1.2077954956
H -1.0473371802 2.9982554881 0.5505515579
H -1.2152153816 4.0822218516 -1.5520069615
H -2.8114180100 3.9569139796 -2.3527944049
H -2.6883993506 4.6920057394 -0.7244060967
H 0.1436534197 -0.5650123113 3.8129956732
H -1.0220668474 0.4141907305 4.7472439702
H -1.3542980456 -1.3228585475 4.4459591375
H -4.5931170576 1.1982488687 1.8591202018
H -3.8820812868 -2.3656788217 -1.5005356316
