59
CONF481
C 5.0571735389 2.0681956266 4.7112729400
C 6.4529409277 2.4437167196 4.1357286546
C 6.6158869759 1.5877909700 2.8659704185
C 5.1814519457 1.3198633586 2.3859706813
C 4.4561579930 1.0496435479 3.7203094386
C 5.0985377209 0.1603110008 1.4032941418
C 3.7190345132 -0.0771332740 0.8498573108
O 3.3535110291 -1.1785667820 0.4619864114
N 2.8569177598 1.0205435909 0.7698000705
C 3.2194824023 2.3258235321 1.1144666072
O 2.4351339756 3.2493241333 0.9426777161
C 4.5988364199 2.5441841410 1.6783407494
C 1.5121585727 0.7999275834 0.2053850168
C 1.5112981973 0.9528516234 -1.3153688164
C 0.1109446656 0.8100716021 -1.9174363007
C -0.4841451223 -0.5806289913 -1.6963795596
N -1.6426835109 -0.8591693426 -2.5571568126
C -2.0358814772 -2.2681732762 -2.4172604589
C -3.2198675398 -2.5912812024 -3.3231163715
N -4.3479403988 -1.7165243592 -2.9991029226
C -3.9763044547 -0.3061939002 -3.1195318391
C -2.7826801648 0.0047269048 -2.2204289140
C -5.3537017023 -2.1236248150 -2.1672032769
N -5.4478733154 -3.4496162365 -1.8999941072
C -6.4725768834 -3.8297403637 -1.1392492046
C -7.4098155805 -2.9421128128 -0.6234436456
C -7.2146457069 -1.6044515885 -0.9477561341
N -6.2061874915 -1.1759791785 -1.7045924130
H 4.4215834935 2.9558770871 4.7864661686
H 5.1283275226 1.6437755004 5.7163104605
H 6.4886629765 3.5086369667 3.8857596654
H 7.2588729522 2.2563326179 4.8502416178
H 7.0777711734 0.6246006204 3.1166498207
H 7.2318932874 2.0640172133 2.0959590646
H 4.6918657806 0.0266420667 4.0372930542
H 3.3660734170 1.1264939946 3.6413677903
H 5.7533604764 0.3568626236 0.5410678723
H 5.4307540424 -0.7795470522 1.8538804671
H 4.5350302849 3.4174779172 2.3330711155
H 5.2430972652 2.8247409622 0.8320273830
H 0.8393448106 1.5290062233 0.6622872324
H 1.2024381110 -0.2028530370 0.5023785544
H 1.9145573012 1.9400745414 -1.5674173957
H 2.1828319730 0.2036118027 -1.7525024478
H 0.1674749956 0.9974974002 -2.9965378223
H -0.5385582560 1.5830071135 -1.4891808990
H -0.7523779206 -0.7171352222 -0.6302015907
H 0.2826382472 -1.3316033203 -1.9312265804
H -1.1842125134 -2.9006497608 -2.6941941054
H -2.3111601196 -2.5087535857 -1.3700301622
H -3.5130574372 -3.6340267811 -3.2120495297
H -2.9432632318 -2.4097534030 -4.3694605781
H -4.8237590095 0.3256928251 -2.8586969459
H -2.5011226800 1.0523539184 -2.3655534055
H -3.0834714741 -0.1233008921 -1.1600416928
H -6.5436676539 -4.8966834344 -0.9290863557
H -8.2343859892 -3.2703157856 -0.0033388083
H -7.8969513767 -0.8384191404 -0.5801132978
H -3.7035058604 -0.1191224493 -4.1658995160
