45
CONF27
C -3.3460707968 -2.1234379714 -5.5072179217
C -2.9935407871 -0.8905195005 -4.7390112197
C -2.6804514874 -0.8670338274 -3.4387507261
C -2.3706636397 0.3784357491 -2.7186884358
C -1.2160636080 0.4930546893 -1.6957760220
C -2.6825029190 0.5977822175 -1.2654630137
C -3.3168120129 -0.4970353514 -0.4400697204
C -3.1221338861 1.9887278557 -0.8608602923
C -0.3819953739 -0.6616139047 -1.3402073723
O -0.6895605024 -1.8369919398 -1.3619238436
O 0.8568790109 -0.2194981933 -0.9573954195
C 1.8056363152 -1.2170185191 -0.4988795528
C 2.2789985003 -0.8157494170 0.8644925451
C 1.4263041756 -0.9000802952 1.9622352904
C 1.8305097933 -0.5166601160 3.2293205143
C 3.1137159529 -0.0343746329 3.4735586571
C 3.9619087919 0.0538445476 2.3773136068
C 3.5556841675 -0.3228945764 1.1029701627
F 4.4301480310 -0.1991506913 0.0886490136
F 5.2131511523 0.5254779316 2.5329857589
C 3.5168423350 0.4150314515 4.8586512427
O 2.9317317803 1.6690968113 5.2019478299
C 3.4814590872 2.7546010869 4.4515793264
F 0.9593473205 -0.6252557367 4.2475068867
F 0.1773833545 -1.3672961410 1.7861462628
H -3.3098035106 -3.0132367450 -4.8720813614
H -2.6593823515 -2.2707664823 -6.3498909274
H -4.3523626107 -2.0452694634 -5.9368883599
H -2.9993554941 0.0481159825 -5.2956214734
H -2.6639119060 -1.7984589575 -2.8803591174
H -2.4415356555 1.2696272634 -3.3397094280
H -0.6753127724 1.4328961763 -1.7143243478
H -3.0993896070 -0.3342921626 0.6213612005
H -2.9665722191 -1.4925368691 -0.7095958912
H -4.4041585717 -0.4621379193 -0.5703189946
H -4.2085730060 2.0819758877 -0.9700303819
H -2.6475915112 2.7556829990 -1.4794151999
H -2.8676551588 2.1812983660 0.1873151214
H 1.3188726625 -2.1946593716 -0.4699110710
H 2.6330637856 -1.2395989771 -1.2092284686
H 4.6109475919 0.4648252277 4.9278967877
H 3.1486658865 -0.3031427223 5.5951440589
H 3.0132349606 3.6656948744 4.8289658773
H 4.5700580063 2.8156374709 4.5910703920
H 3.2608575356 2.6569035994 3.3791751587
