45
CONF21
C 3.3670592765 -0.5679962975 0.0684628541
N 3.2206896759 -0.3442493938 1.5096913254
C 4.0917477354 0.7628831501 1.9126707281
C 1.8243355904 -0.0313489167 1.8458372202
C 0.9167859352 -1.2617635112 1.8318742216
C -0.5607272656 -0.8751804296 1.7463669010
N -0.8994827124 -0.3052626754 0.4322235685
C -1.8183834901 0.7778065158 0.4372643076
C -2.9264129325 0.7687199287 1.2927324666
C -3.7985607471 1.8526369808 1.3268604775
C -3.5782396263 2.9514198876 0.4996172446
C -2.4754107781 2.9593188751 -0.3510051836
C -1.5802891936 1.8892323625 -0.3847668276
C -0.3885817133 1.8775675990 -1.2884499236
C -0.5637417936 0.8609424588 -2.4167251311
C -0.6272235210 -0.6034474246 -2.0270489208
C -0.5088787044 -1.5098549127 -3.0881085701
C -0.5201848521 -2.8872784230 -2.9151862211
C -0.6624602608 -3.3925283710 -1.6269547391
C -0.7956209910 -2.5225138507 -0.5545573723
C -0.7807431403 -1.1224442872 -0.7182901554
H 2.7334260828 -1.3953615770 -0.2647972999
H 4.4062935322 -0.8255197748 -0.1607474561
H 3.0941438548 0.3305930945 -0.5198478601
H 3.8259292631 1.7129784911 1.4091991756
H 4.0232380001 0.9171832829 2.9945114574
H 5.1310660327 0.5260797209 1.6615259554
H 1.8066207729 0.4087815882 2.8503190351
H 1.4213162091 0.7353311496 1.1544795787
H 1.1743475700 -1.9164484935 0.9948745117
H 1.0734694831 -1.8460574260 2.7458276421
H -1.2000701175 -1.7275175917 2.0194164805
H -0.7620536652 -0.0913237246 2.4835739907
H -3.1103041435 -0.0927723629 1.9268555404
H -4.6554849090 1.8310762586 1.9933720159
H -4.2566684272 3.7985485761 0.5206270304
H -2.2880869069 3.8196607395 -0.9886061623
H -0.2471074453 2.8697995229 -1.7273450477
H 0.5138212548 1.6353874418 -0.7134229919
H 0.2603175796 0.9748153084 -3.1312064699
H -1.4785360612 1.1170176662 -2.9689026114
H -0.3856092701 -1.1010413316 -4.0885792498
H -0.4135299603 -3.5500104782 -3.7678609917
H -0.6791422658 -4.4637244326 -1.4494116967
H -0.9230732611 -2.9441343094 0.4344976396
