27
CONF2
C -4.8880269216 0.6720412477 -0.6300851794
C -4.4998798957 0.2686713311 0.6445199277
C -3.1572874699 0.0547213857 0.9275431272
C -2.1854017123 0.2400493131 -0.0626098488
C -2.5781944936 0.6473229360 -1.3467544919
C -3.9207063387 0.8593775673 -1.6191260428
N -0.8530506276 -0.0018898485 0.3324934844
N 0.0090695083 0.1438877552 -0.5934245272
C 1.3319281973 -0.0691772121 -0.2838852550
C 1.8929442880 -0.4432097002 0.9884824600
N 3.2107231345 -0.6258657094 1.1624341547
C 4.0319724717 -0.4479203883 0.1267626522
C 3.5891372885 -0.0787715996 -1.1646980339
C 2.2409874797 0.1018230120 -1.3424871624
N 5.3682640442 -0.6039401404 0.3823806167
N 1.1051348086 -0.6294899238 2.0629335660
H -5.9361985596 0.8411899404 -0.8539700732
H -5.2451943651 0.1210941232 1.4196387669
H -2.8375324149 -0.2592997519 1.9163086436
H -1.8218809773 0.7917661630 -2.1087239262
H -4.2217672196 1.1757139934 -2.6133084512
H 4.2948315337 0.0617336073 -1.9757894294
H 1.8312564769 0.3841378867 -2.3070404148
H 5.6051120537 -1.0606738460 1.2481314233
H 5.9894072724 -0.7545835559 -0.3933900037
H 1.5391297220 -0.8886318442 2.9325848871
H 0.1052220180 -0.5000767473 1.9404554273
