61
CONF22
C -1.4696153829 -0.1192141559 -4.0573450268
C -0.9465655087 -0.2766422029 -2.6326685492
C -1.9566692477 -0.0600277134 -1.5258614693
C -3.2198079449 0.4635925834 -1.7917261829
C -4.1756260355 0.6346579209 -0.7850179845
C -3.8416438334 0.2628609302 0.5129898689
C -2.5826851622 -0.2584587938 0.8263191553
C -1.6301120398 -0.4117609925 -0.1948394126
C -0.2959667435 -0.9555744277 0.1114108716
C 0.9040402071 -0.3037157323 0.0481916356
N 1.9461157853 -1.0907343593 0.4373481833
C 3.3202829211 -0.9809800224 -0.0542045945
C 3.6464399132 -1.9422267005 -1.1983071998
O 4.0043874398 -3.2489321378 -0.7526243355
C 2.9036665748 -4.0419442667 -0.3081840501
C 2.2203508872 -3.5022040081 0.9460115953
N 1.3960188508 -2.3385830585 0.6883506587
C 0.0159254748 -2.3176096498 0.5018351194
O -0.7186817279 -3.3022561649 0.6801752033
O 1.1262895121 0.9641356633 -0.3966336263
C 1.3680777747 1.9687824040 0.5425867881
O 1.5727397078 1.7185656042 1.6996702331
C 1.2917776292 3.3283662469 -0.1193363758
C -0.1770908328 3.5519813259 -0.5367421533
C 1.7238304971 4.3934009792 0.8902374272
C 2.2023972453 3.3633613391 -1.3588125240
C -2.2616441502 -0.5692070945 2.2664782086
C -1.6708214137 0.6496132093 2.9890763834
C -5.5345538946 1.1894950931 -1.1154171491
H -2.3102240153 -0.7931164863 -4.2530231727
H -0.6747802196 -0.3552025510 -4.7708451848
H -1.8013569240 0.9042075069 -4.2589649224
H -0.5190104412 -1.2798859670 -2.5091553166
H -0.1065876856 0.4137943125 -2.4843184109
H -3.4858830414 0.7367525232 -2.8081422509
H -4.5733467121 0.3822375929 1.3093375842
H 3.4375317996 0.0514563422 -0.3952528934
H 4.0179052974 -1.1422593371 0.7749800284
H 4.5284253524 -1.5575308216 -1.7190355555
H 2.8067345278 -1.9853931153 -1.9106505197
H 2.1598766394 -4.1482269225 -1.1134043169
H 3.3236306980 -5.0267181734 -0.0820283947
H 1.5346854073 -4.2626694510 1.3330366129
H 2.9577176913 -3.2749182877 1.7244865314
H -0.2656997029 4.5482310374 -0.9808282437
H -0.4971977173 2.8098336083 -1.2731064896
H -0.8444452905 3.4988394930 0.3298103183
H 1.0777184269 4.3873461099 1.7720539772
H 2.7554471167 4.2307827159 1.2156372851
H 1.6592108235 5.3779265155 0.4182120725
H 2.1602834837 4.3662273375 -1.7945345830
H 1.8784041678 2.6442240459 -2.1145566212
H 3.2415139989 3.1494866772 -1.0886703516
H -1.5609717971 -1.4063104267 2.3284538003
H -2.3737231748 1.4890525262 2.9692135904
H -1.4473626583 0.4127049996 4.0343359659
H -6.0785711289 0.5154623338 -1.7867754990
H -6.1356659035 1.3290523955 -0.2135806171
H -5.4511427927 2.1540843433 -1.6273838325
H -3.1808667867 -0.8809493722 2.7748980536
H -0.7435526428 0.9704764477 2.5057428411
