47
CONF301
C -0.8152798377 -2.4169876513 -0.5465893601
C -1.7838206582 -1.5741318231 0.2809437919
C -2.6845018354 -0.7036857314 -0.5948126465
C -3.7214959085 0.1179161276 0.1791440162
C -3.1761247902 1.1720496000 1.1565156403
C -4.3137573739 1.8284261355 1.9634878416
C -5.2869284225 2.6823971047 1.1478521035
C -2.3429962389 2.2457892464 0.4652373746
O -1.0172554476 1.7142195748 0.2276883279
C -0.2026322505 2.4980709576 -0.5280664098
O -0.5377638914 3.5842272852 -0.9607463686
C 1.1096144064 1.8943508995 -0.7728686059
C 1.4930150954 0.6980606763 -0.2881946625
C 2.7624769906 0.0276646860 -0.4940450865
C 3.8069975256 0.5590680510 -1.2756882557
C 4.9938066327 -0.1216402859 -1.4388736789
C 5.1840024535 -1.3683843063 -0.8237356173
C 4.1648063468 -1.9196730638 -0.0444250445
C 2.9751366556 -1.2185333123 0.1092023237
O 6.3887205538 -1.9534825217 -1.0483623459
C 6.6333443734 -3.2211472786 -0.4418343290
H -0.1647868082 -1.7799658842 -1.1564668100
H -0.1768895678 -3.0396335781 0.0885640081
H -1.3571086284 -3.0822965001 -1.2276340196
H -2.4073469218 -2.2299179012 0.9039842834
H -1.2172761526 -0.9388406515 0.9720552335
H -3.2220377250 -1.3548890301 -1.2975646304
H -2.0597977284 -0.0427568401 -1.2076538396
H -4.3652616388 -0.5704504022 0.7448766702
H -4.3732536070 0.6213325265 -0.5461176934
H -2.5205867177 0.6762465042 1.8845512972
H -4.8710510718 1.0359198484 2.4779196418
H -3.8667639644 2.4505237198 2.7494803847
H -4.7773824824 3.5110023266 0.6453838796
H -6.0507977184 3.1172376248 1.7993804754
H -5.8048387327 2.0952210557 0.3841017668
H -2.7783384706 2.5531961879 -0.4926357895
H -2.2464218197 3.1423701237 1.0901570425
H 1.7541577482 2.5084932435 -1.3923469036
H 0.7795574548 0.1584664856 0.3304740094
H 3.6846069312 1.5205095041 -1.7625110964
H 5.7987952475 0.2863386938 -2.0403587112
H 4.2834931718 -2.8797020080 0.4418064764
H 2.1834489091 -1.6503469074 0.7149838991
H 7.6416581822 -3.5049100192 -0.7445932202
H 5.9192633764 -3.9749392355 -0.7965884473
H 6.5855926516 -3.1527833838 0.6523013814
