38
CONF26
O 1.6789526940 -0.1218641075 0.8650486178
P 0.8211882320 -1.1240887882 0.1965017711
O 0.4884801726 -2.4702368874 0.9999506274
C -0.0956943701 -2.3563027135 2.2788338530
C -1.4702970378 -2.5101895329 2.3872218434
C -2.0486057456 -2.4417887372 3.6526758766
C -1.2557181059 -2.2220544511 4.7771570143
C 0.1231070526 -2.0736065624 4.6404450549
C 0.7173389709 -2.1405979800 3.3822529116
O 1.3957632529 -1.8378190963 -1.1210178017
C 1.5608690997 -1.0555578011 -2.2819028151
C 2.6044929335 -0.1439970398 -2.3605986364
C 2.7510186107 0.5961357864 -3.5320847081
C 1.8705888235 0.4134575570 -4.5962938328
C 0.8373474692 -0.5162510762 -4.4947051032
C 0.6733832732 -1.2598357893 -3.3287298208
O -0.6215586189 -0.5649354850 -0.2534944201
C -0.9593635016 0.7943693518 -0.1215598186
C -0.8517947443 1.6146496999 -1.2350730450
C -1.2419495431 2.9471584169 -1.1200993125
C -1.7262848944 3.4369913312 0.0910618609
C -1.8246454123 2.5916849277 1.1947071984
C -1.4400803475 1.2566408849 1.0946278891
H -2.0678471693 -2.6797783975 1.4981000129
H -3.1223214066 -2.5607854458 3.7558483225
H -1.7116918907 -2.1691080898 5.7602964501
H 0.7437414432 -1.9063599415 5.5147947141
H 1.7885067941 -2.0301415546 3.2540453477
H 3.5604810531 1.3147147514 -3.6099853530
H 1.9914606750 0.9928788199 -5.5056155214
H 0.1509927581 -0.6630525415 -5.3223678109
H -0.1289943289 -1.9819455275 -3.2227019987
H -0.4720236386 1.2141030796 -2.1696815150
H -1.1641833311 3.6015784060 -1.9823710465
H -2.0274948080 4.4760276572 0.1747645680
H -2.2016584456 2.9688436069 2.1399387724
H -1.5084918891 0.5815789011 1.9420388906
H 3.2827486332 -0.0193522420 -1.5238700303
