119
CONF2
C -6.8136311022 6.4845302372 -0.7076237095
C -7.6575680802 5.5184755642 -1.5417942630
C -9.1247899022 5.5948500860 -1.1188859489
C -7.0936100565 4.0819843407 -1.4663285722
C -7.9699159326 3.1211251554 -2.2943834716
O -7.8963568997 3.1594616730 -3.5197713047
N -8.8002243928 2.2550084787 -1.6574618659
C -9.7511068450 1.4728623220 -2.4798292042
C -10.7464866515 0.9544454035 -1.4620430683
C -10.8612191484 -0.5187265328 -1.1835474400
C -11.9841858013 0.2228624328 -1.8703871815
C -10.7015189132 1.9450633194 -0.3174554124
C -9.1952833616 2.2378996147 -0.2327232122
C -8.4962812578 1.1623877638 0.5576158103
N -9.0214298483 0.5549000897 1.6104866829
C -8.0558965663 -0.3079644564 2.0469381216
C -6.9228104940 -0.2307935287 1.2533940085
N -7.2336710261 0.7284172958 0.3050302092
C -5.6586583821 -0.9404361972 1.3117688135
C -4.5556369702 -0.5569086759 0.5215821360
C -3.3834072824 -1.2682456375 0.6344028479
C -3.2361418590 -2.3544447394 1.5078480711
C -4.3193315692 -2.7411375590 2.2898350375
C -5.5136949320 -2.0392683797 2.1799225355
C -1.8715262016 -2.8764909294 1.3944880995
C -1.1677154161 -2.1114371989 0.4516082622
C -2.0833895820 -1.0452494739 -0.1001241874
F -2.2354125884 -1.1479259080 -1.4698636001
F -1.5803328187 0.2262424472 0.1055770484
C 0.1462573923 -2.3657662261 0.1312270055
C 0.8137144568 -3.4257937093 0.7738560783
C 0.1066782124 -4.1888185976 1.7162604656
C -1.2246962679 -3.9282277598 2.0313197013
C 2.2276955802 -3.7172899623 0.4724055231
C 3.1230526153 -2.6665727890 0.2473126963
C 4.4422814058 -2.9978935502 -0.0263173180
C 4.9009009011 -4.3363909379 -0.0792400465
C 4.0004956005 -5.3789889734 0.1397914387
C 2.6812456075 -5.0558640124 0.4117990974
N 6.2581637592 -4.3692178617 -0.3495540140
C 6.6084310262 -3.1061032233 -0.4553926230
N 5.5617813963 -2.2349773136 -0.2739020813
C 7.9877217816 -2.6021949506 -0.7653744238
C 9.0564561084 -3.7056366164 -0.7800267576
C 10.3754221215 -3.0899195125 -1.3034783231
C 10.8674880958 -2.2025864713 -0.1153188985
C 9.7208987670 -2.3697997429 0.8957557130
C 9.3463732726 -3.8454832550 0.7247224627
N 8.5214545880 -1.7142982978 0.3120995852
C 8.1419498388 -0.4270340250 0.4037859901
O 7.2107075957 0.0405454245 -0.2710529970
C 8.8559597974 0.4912313888 1.4003626949
C 7.9210187482 0.8017461755 2.5900346651
C 7.4305012910 -0.4870959492 3.2523302330
C 8.6305798233 1.7002888938 3.6016869532
N 9.2256031611 1.7057634617 0.6911474111
C 10.5111854600 1.9147114472 0.2847284984
O 11.4839339323 1.2720562458 0.6365265506
O 10.5639986633 2.9848192399 -0.5546119195
C 11.8914679656 3.3220860559 -0.9973842091
N -5.7467343444 4.0944687529 -2.0310868120
C -5.0322703100 2.9392000271 -2.0778024991
O -5.3128475197 1.9226417924 -1.4530321341
O -3.9479832051 3.0563633551 -2.8649130220
C -3.1025640835 1.8824247421 -2.9069960747
H -7.1950008412 7.5051919368 -0.8092506247
H -6.8610551033 6.2133219977 0.3532957179
H -5.7625914324 6.4819673552 -1.0057126527
H -7.6040652165 5.8063166780 -2.6021795002
H -9.5041464961 6.6069859768 -1.2864449779
H -9.7554459490 4.9052047245 -1.6881204598
H -9.2411795022 5.3790178286 -0.0508744110
H -7.0160509608 3.7630817635 -0.4198983350
H -10.2129583032 2.1436688597 -3.2158248831
H -9.2348561355 0.6786696318 -3.0295834680
H -10.2599664443 -1.1937098148 -1.7845265959
H -11.0009471839 -0.8224700768 -0.1518061319
H -12.8913030267 0.4095799849 -1.3042611657
H -12.1392859641 0.0412644577 -2.9296207123
H -11.2352663913 2.8673862727 -0.5797962750
H -11.0892715709 1.5482452215 0.6214510606
H -9.0028537137 3.2132829524 0.2236042143
H -8.2174844342 -0.9374655481 2.9104989994
H -6.6240110080 1.0888769858 -0.4280643492
H -4.6134922508 0.2844938129 -0.1591856175
H -4.2466693373 -3.5819876803 2.9723513637
H -6.3624940896 -2.3519362984 2.7784260614
H 0.6545797274 -1.7765531660 -0.6254751891
H 0.6256033580 -4.9875006315 2.2365439942
H -1.7355369586 -4.5337494594 2.7734225922
H 2.7985362120 -1.6339570433 0.3219134068
H 4.3294633366 -6.4111368821 0.0863656210
H 1.9591783477 -5.8534679753 0.5519333461
H 5.6723347506 -1.2272570572 -0.3176450224
H 7.9572339409 -2.0323002184 -1.7038530833
H 8.7187741396 -4.6046995108 -1.2931732762
H 11.0962268863 -3.8797972449 -1.5319068722
H 10.2195849094 -2.5122119944 -2.2192962372
H 11.8017729068 -2.5792667523 0.3129744587
H 11.0257342336 -1.1544663681 -0.3797847141
H 9.9188386385 -2.0326011814 1.9124787345
H 10.1916551758 -4.5057514986 0.9356744663
H 8.4747731922 -4.1512131799 1.3069750819
H 9.7859828618 0.0533810226 1.7703841334
H 7.0519229366 1.3334346131 2.1783904213
H 6.8731464116 -1.1247075523 2.5589218186
H 8.2737257176 -1.0674318051 3.6462492600
H 6.7716925789 -0.2530460344 4.0933702251
H 7.9495003498 1.9720645498 4.4139036997
H 8.9933447248 2.6204059862 3.1367356293
H 9.4896381551 1.1810479647 4.0424765955
H 8.4925418368 2.1531517099 0.1584078117
H 12.5285646104 3.5747355736 -0.1457071280
H 12.3384726821 2.4878877946 -1.5447403775
H 11.7659140538 4.1853028329 -1.6511663606
H -5.6024090207 4.7141833282 -2.8159504062
H -2.6855757119 1.6759113703 -1.9186435600
H -3.6698644158 1.0151414255 -3.2519266299
H -2.3100418196 2.1297162349 -3.6122751419
