74
CONF93
C -0.8754073747 -1.7565989818 -0.9324658782
C -0.5002296755 -3.1634495624 -1.3868927464
O -1.4973876114 -4.0210704977 -0.7586362041
C -2.0611570754 -3.3981751020 0.3199909774
O -2.8593633140 -3.9536825068 1.0276045073
C -1.4497371869 -2.0202812288 0.4498178117
C -2.2949981068 -0.8374880253 0.9282194836
C -3.6204160319 -0.7120334908 0.1815281553
C -4.6873782893 -1.5233950958 0.5681895716
C -5.8787040247 -1.4765308835 -0.1466198934
O -6.9871755635 -2.2402091277 0.1184573837
C -6.8480193933 -3.2630529049 1.1060445213
C -6.0394386103 -0.6104886275 -1.2333388389
O -7.2079913880 -0.5577122429 -1.9301263243
C -4.9753039906 0.2174147773 -1.6035145044
O -5.2175653239 1.0393454624 -2.6648110975
C -4.1615761518 1.8993806623 -3.0711875866
C -3.7709698201 0.1591654524 -0.8991702301
C -1.4555995613 0.4255476765 0.7816312574
C -1.9052540651 1.5683853418 1.4715480516
C -1.2426356039 2.7517631128 1.2637405537
C -0.1720404175 2.8461648860 0.3829425185
O 0.2928496249 4.1360806596 0.3439702416
C -0.5275170386 4.8789601891 1.2641922267
O -1.5014126068 3.9762402331 1.8190072663
C 0.2839739121 1.7546194241 -0.3100644387
C -0.3605402977 0.5152296473 -0.0930817230
C 0.1987873519 -0.6941570486 -0.8202275962
O 1.2911503917 -1.3353488207 -0.0994604415
C 2.3082202555 -0.5299143213 0.3707292574
O 3.0220723599 0.0087360363 -0.7564950001
C 4.0808129008 0.8505491824 -0.3223389539
C 4.7504057571 1.4991187535 -1.5226009361
O 5.8712531463 2.2552195447 -1.0645949266
C 6.8027014487 1.4507669453 -0.3582844091
C 7.9378955909 2.3310039620 0.0910818666
O 6.2172601875 0.8589093679 0.7975774811
C 5.1284499215 0.0233740583 0.4286874474
C 4.4801080566 -0.5977212777 1.6489882476
O 5.3467828504 -1.4286491301 2.4216256984
C 3.2425262868 -1.3968446945 1.2122286454
O 2.5205526624 -1.8521236929 2.3429485970
H -1.6747513448 -1.3687103793 -1.5772633300
H -0.5731122011 -3.3206126166 -2.4651140855
H 0.4890063159 -3.4625472521 -1.0276974396
H -0.6080343389 -2.1464567092 1.1498580601
H -2.5240049771 -0.9818817673 1.9911279728
H -4.5617272805 -2.2080464612 1.3959449599
H -6.0155505303 -3.9334988434 0.8615600717
H -6.6891054733 -2.8287005237 2.1008292458
H -7.7881444887 -3.8160092487 1.0971922954
H -7.8001675025 -1.2088742573 -1.5287456170
H -3.8741114571 2.5908619029 -2.2673610021
H -3.2787347154 1.3291384171 -3.3915941210
H -4.5511346624 2.4678395878 -3.9169822989
H -2.9503922673 0.8086070185 -1.1756147505
H -2.7707583568 1.5135519441 2.1231299774
H 0.1006088228 5.2758581921 2.0717420038
H -1.0449089700 5.6809250967 0.7234663924
H 1.1198259652 1.8261412776 -0.9981228415
H 0.5801412034 -0.3877548415 -1.8031345002
H 1.9235346892 0.3058623445 0.9829120784
H 3.7058891667 1.6410816224 0.3512062154
H 4.0792021304 2.1956665577 -2.0319387672
H 5.0641952347 0.7183980238 -2.2359933945
H 7.1429224921 0.6355592662 -1.0289136852
H 8.6710946504 1.7372079528 0.6405171083
H 7.5499072405 3.1163107080 0.7441026933
H 8.4171598610 2.7891820579 -0.7763339500
H 5.4810279844 -0.7778413115 -0.2523219711
H 4.1672999361 0.2003990288 2.3345407832
H 5.7932835466 -2.0389077940 1.8209766029
H 3.5648948863 -2.2437828257 0.5788534014
H 3.1766595390 -2.1860131783 2.9698046593
