49
CONF14
C -1.4903671274 0.6057035585 5.1235683994
C -2.0519963530 -0.5257535690 4.5353656655
C -1.4945547922 -1.0741957749 3.3854996397
C -0.3702172400 -0.4698195350 2.8211157462
C 0.1904749519 0.6745458091 3.3882310037
C -0.3685655430 1.1988499572 4.5491265629
N 0.2255416039 -1.0065850043 1.6495381958
C 1.5461116214 -1.4041946725 1.5453342320
O 2.4495451025 -1.0478529452 2.2805612778
C 1.6173113729 -2.4276574542 0.4288516416
C 0.2009476380 -2.5047512560 -0.0963539916
O -0.1941371615 -3.0922968296 -1.0861757409
N -0.5890350091 -1.7014923585 0.7177294733
C -1.7623622486 -1.0479877550 0.2353083488
C -2.8463624809 -1.8322426880 -0.1523063931
C -3.9820923734 -1.2131027178 -0.6654262921
C -4.0442764415 0.1747740759 -0.7653947192
C -2.9597272631 0.9480032646 -0.3560067726
C -1.8105881689 0.3430872006 0.1419163072
C 2.6649039790 -2.1628960134 -0.6626921368
C 2.3322324226 -1.0256350441 -1.6189406890
S 2.3085190230 0.6205847445 -0.7596403298
O 3.7627635100 0.9408847923 -0.4171168398
C 1.8657948158 1.5924416647 -2.2331559267
C 2.8453074042 2.3613518131 -2.8465189138
C 2.4944440568 3.1338557598 -3.9524455260
C 1.1830110184 3.1321644428 -4.4219894845
C 0.2108477345 2.3596650851 -3.7865194169
C 0.5464900529 1.5875428744 -2.6785836726
H -1.9295535043 1.0265936172 6.0220204982
H -2.9271366737 -0.9925040533 4.9758673754
H -1.9260010713 -1.9605263455 2.9334007433
H 1.0473260251 1.1447829383 2.9209997529
H 0.0687068607 2.0858647059 4.9959926417
H 1.8655914035 -3.3804416936 0.9171640697
H -2.7959868818 -2.9098862838 -0.0498713901
H -4.8263091118 -1.8209268420 -0.9743576227
H -4.9367781257 0.6531983370 -1.1550495182
H -3.0008731277 2.0299873464 -0.4303537047
H -0.9611159429 0.9436408660 0.4493728492
H 3.6280668996 -1.9841023177 -0.1732707781
H 2.7710494179 -3.0734087109 -1.2604732853
H 3.0928618017 -0.9368223559 -2.4019522434
H 1.3486366627 -1.1487806490 -2.0855656879
H 3.8593096754 2.3538536787 -2.4597587624
H 3.2489364622 3.7391881153 -4.4449401998
H 0.9149868429 3.7380334236 -5.2815543819
H -0.8123873887 2.3629167603 -4.1483982764
H -0.2092953608 0.9923491176 -2.1724906364
