44
CONF60
C -5.1798939545 1.8939872899 1.5504568069
N -3.8509548476 1.5935471606 1.0032597088
C -3.9368380437 0.8431300096 -0.2704527022
C -4.3247015761 -0.6066448157 0.1366186781
C -3.7636992502 -0.7475896961 1.5757270724
C -3.1090595580 0.6346919185 1.8539681237
C -1.6390655589 0.6676495164 1.4129214312
C -1.5270708340 0.2125116270 -0.0346139245
C -2.5532339453 0.8945543974 -0.9328891877
O -0.1692319542 0.5423455400 -0.4796823699
C 0.3690976646 -0.2204560755 -1.4439868879
O -0.1982675535 -1.1468494431 -1.9898456135
C 1.7985862376 0.2036694392 -1.7318749023
C 2.2300730028 -0.2925878307 -3.1191743573
O 3.5541729852 0.1315108904 -3.4413584815
C 2.7013214435 -0.3033481974 -0.6221928344
C 2.7801094314 -1.6705937836 -0.3401242223
C 3.6135349782 -2.1348599619 0.6733840999
C 4.3797126887 -1.2383621797 1.4168944144
C 4.3049354214 0.1247779352 1.1416708026
C 3.4675870539 0.5888639772 0.1290877229
H -5.7060378838 2.5675711705 0.8659372712
H -5.8151527256 1.0065677912 1.7102987998
H -5.0654876508 2.4062238552 2.5114744409
H -4.6770920679 1.3070369007 -0.9300298776
H -5.4109110918 -0.7296373202 0.1246745349
H -3.9060766109 -1.3442757631 -0.5546701142
H -3.0394362495 -1.5623383694 1.6698968381
H -4.5656568148 -0.9426075270 2.2926646030
H -3.1824164018 0.9310970157 2.9051013543
H -1.0321805159 0.0186319678 2.0539153489
H -1.2641902647 1.6930778459 1.5057727973
H -1.6329338782 -0.8741267558 -0.1014134483
H -2.2661730433 1.9421185709 -1.0790625192
H -2.5796921733 0.4027513239 -1.9109811339
H 2.2414980734 -1.3854255942 -3.1405951923
H 1.5079281000 0.0561835871 -3.8700542679
H 3.6640837481 -3.1988296371 0.8837836456
H 5.0304102797 -1.6011695465 2.2063826643
H 4.8987595612 0.8299935538 1.7152125965
H 3.4092311323 1.6529072202 -0.0824105636
H 2.1847847661 -2.3770373928 -0.9125542611
H 1.8266712517 1.2996221022 -1.7234594756
H 3.5479879900 1.0938892313 -3.5218568342
