39
CONF12
C -2.1503579523 3.1595717618 -2.1322084385
C -1.5421264404 2.0124186674 -1.3856151635
O -1.5492412795 0.8810311504 -1.8646514086
C -0.9669096922 2.3291320498 -0.0334900923
C -0.5246603786 1.1594462934 0.8620098868
C -1.6112101552 0.1401762213 1.1910929988
C -1.2668037615 -1.0388241280 1.8629909413
C -2.2387742069 -1.9516151294 2.2561706921
C -3.5840869955 -1.7027643190 1.9904141486
C -3.9411228975 -0.5291988113 1.3347396467
C -2.9636979664 0.3837830965 0.9411010722
C 0.8041145517 0.5477198614 0.4514618945
C 0.9617622273 -0.5154782446 -0.4102118662
O -0.0358952998 -1.0689857298 -1.0929936131
C 2.2569970601 -1.1246269382 -0.5996408311
C 2.4690168225 -2.2517605429 -1.4098137329
C 3.7382866759 -2.7893267141 -1.5366227523
C 4.8187707852 -2.2046901402 -0.8653153942
C 4.6336298364 -1.0849936909 -0.0677663309
C 3.3522024873 -0.5567232259 0.0593073631
O 3.2086766825 0.5520004223 0.8397561809
C 1.9651985906 1.1336338151 1.0721569562
O 1.9708227539 2.1140855835 1.8000687296
H -1.5438152510 4.0633376532 -2.0266106006
H -2.2946699527 2.9044141427 -3.1824177882
H -3.1260949868 3.3750170085 -1.6776500328
H -0.1054293877 2.9886474603 -0.2085543773
H -1.6937364511 2.9648442801 0.4895564691
H -0.2948054180 1.6461749163 1.8183123202
H -0.2218535866 -1.2442401816 2.0774852885
H -1.9439187530 -2.8600017337 2.7727753863
H -4.3445999704 -2.4154176635 2.2934866851
H -4.9850924048 -0.3180233995 1.1239387070
H -3.2789854578 1.2910927788 0.4367526187
H -0.7652565227 -0.3945122911 -1.2150026083
H 1.6254617754 -2.6921381572 -1.9282301873
H 3.8964762642 -3.6628704942 -2.1597157390
H 5.8133353941 -2.6262474565 -0.9685948188
H 5.4583923565 -0.6140883616 0.4557888774
