73
CONF1773
C -1.4095862857 1.7105745783 -4.8108694032
C -1.7291029235 2.3377639867 -3.4714370300
O -3.1006071602 1.9835325480 -3.1681255147
C -3.5713790293 2.4574323305 -1.9257009549
O -2.8705988609 1.8935571716 -0.8266367404
C -3.1734859896 0.5230605273 -0.5613673006
C -4.1181043826 0.4268538631 0.6394122381
O -5.3912566862 1.0208506019 0.3787474761
C -4.2797142317 -1.0147563002 1.1223943117
O -5.0245449267 -1.0542281654 2.3364951340
C -2.9021542933 -1.6250413109 1.3784166522
C -2.9733029525 -3.0931298640 1.7558663317
O -1.6922865523 -3.6417517898 2.0700969718
O -2.1430569840 -1.5340526993 0.1621732934
C -1.8745021787 -0.1966746737 -0.2102233849
O -1.0701826965 -0.2397695951 -1.3675414635
C 0.2623405301 -0.5014507576 -1.2243572300
C 1.0109615179 -0.3491055597 -2.3931891235
C 2.3765365614 -0.5789145102 -2.3493795047
O 3.1042763283 -0.4028171628 -3.4632239027
C 3.0125639770 -0.9704303799 -1.1364709079
C 4.4436031455 -1.0851331129 -1.0501453108
O 5.1938400993 -0.9137869252 -2.0311915622
C 5.0026446627 -1.3766056904 0.3175078137
C 4.0209443569 -2.2011148388 1.1392146055
O 2.7298355678 -1.5140851105 1.2032853788
C 2.2052485992 -1.1336895741 0.0138787324
C 0.8368911016 -0.9054262836 -0.0157479593
C 4.4692877788 -2.4440824569 2.5489987870
C 4.7732289468 -3.7354494143 2.9821642848
C 5.2213130122 -3.9704761953 4.2765585083
C 5.3565332034 -2.9010844998 5.1619392676
O 5.7933565560 -3.1793277465 6.4241501370
C 5.0457331583 -1.6029851403 4.7468779984
C 4.6112357642 -1.3825993568 3.4466414952
C -3.4388862669 3.9738679808 -1.7859289539
O -4.3860841871 4.5506559582 -2.6834710553
C -2.0182184717 4.4125869622 -2.1209632487
O -2.0082516864 5.8437553944 -2.1045711207
C -1.5932399662 3.8635943000 -3.4730461264
O -0.2282079527 4.2655673263 -3.6577182647
H -1.5475251330 0.6266519079 -4.7618691015
H -0.3695484315 1.9089636903 -5.0853396743
H -1.0701365109 1.9299053600 -2.6924593756
H -4.6306070793 2.1756575569 -1.8992432382
H -3.6093776375 0.0381363656 -1.4465799922
H -3.6880921490 1.0178137594 1.4592573948
H -4.7831835722 -1.6044358232 0.3354449220
H -5.8031151304 -0.4947699012 2.2048259165
H -2.3952555964 -1.0580762694 2.1789681305
H -3.3532613088 -3.6615406758 0.9000590734
H -3.6753583595 -3.2092179637 2.5909013707
H -1.4045711477 -3.2596955197 2.9086511452
H -1.3524749567 0.3417318086 0.5997851558
H 0.5328435015 -0.0413424489 -3.3151752024
H 4.0526163232 -0.5670364334 -3.2011348525
H 5.2018233547 -0.4173635210 0.8156691514
H 3.8441189312 -3.1612661631 0.6348240797
H 4.6603474046 -4.5720845813 2.2982171159
H 5.4603060719 -4.9743251557 4.6119564565
H 5.8472047594 -2.3601920005 6.9347499833
H 5.1464750700 -0.7732080133 5.4414791963
H 4.3706371029 -0.3708697042 3.1335551543
H -3.6731407894 4.2512963577 -0.7477433626
H -4.1503896033 5.4853866182 -2.7665876786
H -1.3335912746 4.0166561665 -1.3541758855
H -1.1777233555 6.1219848099 -2.5148124184
H -2.2308637648 4.2882233823 -4.2614808737
H -0.0385912745 4.2776171331 -4.6033135805
H -2.0655590442 2.1144824650 -5.5892373112
H 5.9538383046 -1.9072554949 0.2220131760
H -5.8111982861 0.5288200450 -0.3418690472
H 0.2535174218 -1.0928801084 0.8753664535
