47
CONF128
C -7.1667144595 -2.4291493529 1.3594180100
O -5.8205553059 -2.8179025563 1.7738049794
P -4.5510696230 -2.3486264655 0.9288831797
S -2.8922371074 -3.0577788062 1.6328090824
O -4.8706642878 -2.6443516207 -0.6166831975
C -4.6994756238 -3.9902293080 -1.1440010856
O -4.7444164920 -0.7377836346 0.9438568840
C -3.7822841778 0.1106489035 0.3846095687
C -3.8372696655 0.4118839550 -0.9680631424
C -2.8943060672 1.2865685890 -1.5012066467
C -1.9282757302 1.8627744998 -0.6752081588
C -1.9051057050 1.5659656734 0.6909378013
C -2.8272781378 0.6752211431 1.2226462775
S -0.7929903229 3.0476602345 -1.3861667534
C 0.7975066933 2.4772463361 -0.7991150343
C 1.0924967741 1.1207367062 -0.6405886785
C 2.3602313056 0.7278101971 -0.2297512378
C 3.3337239838 1.6958641455 -0.0102728041
C 3.0620831436 3.0456373680 -0.1791295129
C 1.7838805311 3.4380096710 -0.5613491763
O 4.6053655891 1.3392956912 0.4421588432
P 5.6202960900 0.4359648500 -0.4635275570
S 5.6038093107 0.8161200058 -2.3618521363
O 5.2803482187 -1.0880203184 -0.1389156232
C 5.2089915758 -1.5523148159 1.2448704827
O 6.9733643802 0.6572427682 0.3576551940
C 7.6396301098 1.9503067829 0.3197104615
H -7.3465662841 -2.7357868880 0.3262009823
H -7.2918745603 -1.3495194910 1.4674502966
H -7.8408568512 -2.9575199551 2.0325840822
H -3.6550013499 -4.2973411986 -1.0493160747
H -5.3517949726 -4.6898079209 -0.6137052558
H -4.9855962339 -3.9312341644 -2.1937714621
H -4.5959839725 -0.0405233795 -1.5962597300
H -2.9106305968 1.5151855752 -2.5616128420
H -1.1641339445 2.0246960364 1.3372454130
H -2.8215501654 0.4268070571 2.2781359434
H 0.3359426470 0.3670669557 -0.8305573766
H 2.5914419631 -0.3236070058 -0.0940536977
H 3.8401894302 3.7791763148 0.0025718322
H 1.5569492541 4.4932630174 -0.6743376553
H 6.2033415452 -1.5297338048 1.6952142108
H 4.5134249645 -0.9312634168 1.8153923625
H 4.8394788478 -2.5755210887 1.1882028607
H 7.9024802444 2.2037805471 -0.7106848394
H 6.9918727265 2.7184185585 0.7504506941
H 8.5397812025 1.8346637788 0.9223662482
