78
CONF448
C -0.8796464669 0.0343241225 -0.7395936462
C -0.3550061606 1.2510573669 -1.4937188131
O -0.9206852076 1.1056991150 -2.8315985047
C -1.2396890916 -0.1975670378 -3.0794654036
O -1.6426492882 -0.5649948532 -4.1513438319
C -0.9260073286 -1.0108541447 -1.8396581740
C -1.8227119300 -2.1843438217 -1.4382488537
C -3.3001524493 -1.8121332667 -1.3556889436
C -4.0384664518 -1.7196449538 -2.5363384589
C -5.3762543149 -1.3253317918 -2.5110492686
O -6.1644552230 -1.1861988871 -3.6090383432
C -5.5414157444 -1.3731663696 -4.8793219346
C -5.9956629895 -1.0426817473 -1.2867566696
O -7.3052957907 -0.6714516944 -1.2681820888
C -5.2526343391 -1.1555787198 -0.1095239948
O -5.9718628490 -0.8605648237 1.0256480686
C -5.2998159454 -0.9846601709 2.2738076814
C -3.9124472655 -1.5320580322 -0.1328256742
C -1.2955036329 -2.7165384782 -0.1143726120
C -1.6368296031 -4.0407973226 0.2283508928
C -1.2103587819 -4.5237886218 1.4388721307
C -0.4706899411 -3.7418740796 2.3199882813
O -0.1820471958 -4.4569626889 3.4530782589
C -0.7424697574 -5.7664981368 3.2477925742
O -1.4205911158 -5.7643701252 1.9780454005
C -0.1341356820 -2.4478161621 2.0202935555
C -0.5574822271 -1.9251629451 0.7772100319
C -0.1209277174 -0.5063798360 0.4575649883
O 1.3094267481 -0.5314762390 0.1785343373
C 2.0887281888 0.2772900743 0.9956740941
O 1.9117446396 1.6449464598 0.6130317568
C 2.7148155149 2.4902284965 1.4339438483
C 2.4707938307 3.9408175164 1.0579664500
O 3.3206945959 4.7654718887 1.8658122099
C 4.6967966174 4.4312944112 1.7682132848
O 4.9565342840 3.0652218482 2.0589230331
C 4.1976525047 2.1876785075 1.2223022406
C 4.4945940661 0.7495570826 1.5882198896
O 5.8446464586 0.4551864849 1.2702719829
C 3.5403639642 -0.1519752982 0.8049371958
O 3.7404395077 -1.4769914815 1.2875841106
C 5.2711084069 4.8491478039 0.4378124910
C 4.8333872776 5.8445973093 -0.3948311129
C 5.6760645815 6.0396945828 -1.5205064191
C 6.7533533326 5.1978018679 -1.5251931571
S 6.7496609388 4.1454413850 -0.1510581909
H -1.9119226268 0.2312260511 -0.4185240669
H 0.7347903500 1.2480996926 -1.5750298786
H -0.6933385066 2.2107150836 -1.0990786689
H 0.0940020690 -1.3979457733 -2.0004629365
H -1.7200151981 -2.9737893478 -2.1927173432
H -3.5494113252 -1.9308343113 -3.4775157357
H -4.6891565883 -0.6946079490 -5.0088715476
H -6.3103965483 -1.1472589249 -5.6190400550
H -5.2050095883 -2.4101568148 -5.0084841203
H -7.5432648407 -0.5288504078 -0.3418434677
H -4.9464158272 -2.0115563614 2.4326717673
H -4.4501918471 -0.2922706596 2.3367545526
H -6.0345466986 -0.7283749220 3.0382912311
H -3.3482789164 -1.6289240286 0.7861386826
H -2.2293811382 -4.6491885308 -0.4462268026
H -1.4660051115 -5.9805117541 4.0434545818
H 0.0661217562 -6.5083653172 3.2259290657
H 0.4444585283 -1.8471951521 2.7139280936
H -0.2798121587 0.1358493571 1.3344099054
H 1.8018384188 0.1656896247 2.0610722138
H 2.4668580252 2.3438279220 2.4995599807
H 1.4457440726 4.2498668655 1.2778418250
H 2.6715662256 4.0821010117 -0.0141393738
H 5.1744899587 4.9824769469 2.5853735671
H 4.4514214537 2.3497933444 0.1620337968
H 4.3071538994 0.6104011205 2.6674971920
H 5.9694047521 -0.4891435963 1.4274210692
H 3.7790191892 -0.0765481698 -0.2682319160
H 3.1463148068 -2.0557792201 0.7928223069
H 3.9361010630 6.4172667963 -0.1935995311
H 5.4903544922 6.7725461760 -2.2962077806
H 7.5425970400 5.1253186482 -2.2607913856
