43
CONF42
C -3.2223378508 -0.5500027610 2.9361008278
Si -1.7236514987 -0.2865724923 1.8650989286
C -0.8096308832 1.2936133035 2.2547106381
O -0.7570616646 -1.6081021072 2.1028363840
O -2.2353226897 -0.2684891558 0.2912122189
Si -2.2094394066 0.6375208865 -1.0840876191
C -2.8545032719 2.3545826227 -0.7627006590
C -3.2173236480 -0.2719337139 -2.3580800828
O -0.6550468014 0.7941249789 -1.6257150161
Si 0.7227670865 -0.1078793945 -1.6681476131
C 0.3270069951 -1.9296243301 -1.6870755582
C 1.7100723976 0.4279818619 -3.1504255030
O 1.5657668277 0.2707936135 -0.2956321539
Si 2.7557135792 -0.3339345018 0.6584721988
C 4.1391517806 -1.0541355344 -0.3588720811
C 3.3359062376 1.0049048832 1.8096966690
O 1.9926135669 -1.5536222867 1.5213844632
H -2.9506231171 -0.5720776193 3.9968106651
H -3.7103548301 -1.4995627982 2.6891394926
H -3.9510458200 0.2540586280 2.7870426139
H -0.0136291786 1.4693655787 1.5227092739
H -1.4882660437 2.1532997679 2.2360145896
H -0.3550396262 1.2415224541 3.2501574465
H 0.1873440051 -1.5393267688 1.8633198910
H -2.2034786907 2.8974083716 -0.0695394438
H -2.9067800628 2.9260547334 -1.6960467936
H -3.8605247505 2.3173187126 -0.3308329369
H -2.8188205753 -1.2795284133 -2.5202382431
H -3.2030906739 0.2589697891 -3.3160525770
H -4.2602181021 -0.3658603853 -2.0361969009
H -0.2554364633 -2.1899899082 -2.5777915077
H 1.2467184867 -2.5255033372 -1.6983279169
H -0.2520530670 -2.2130747493 -0.8014542990
H 2.6593349546 -0.1165657238 -3.2007190759
H 1.1585806344 0.2368532823 -4.0773193419
H 1.9336529472 1.4992690080 -3.0989788331
H 4.6234004303 -0.2763116796 -0.9597718703
H 4.9011471530 -1.5051382815 0.2868504181
H 3.7667782216 -1.8296050565 -1.0373460960
H 3.7940670221 1.8266678983 1.2485258826
H 2.4980226108 1.4083347372 2.3881402006
H 4.0822146406 0.6176355223 2.5121524976
H 2.5134190223 -2.0134394075 2.1909763194
