50
CONF105
C 2.7102425575 0.9617574166 -2.5304175259
C 2.3596865365 0.2283622460 -1.2542988900
C 1.3030310112 -0.6790485914 -1.2791429207
C 1.0365293380 -1.4788174460 -0.1525954749
C 1.8173226793 -1.4188500138 0.9720402717
C 2.8878389523 -0.5040586597 1.0483836298
C 3.1200883035 0.3760664349 -0.0561003579
C 4.1227536823 1.3779157098 0.2130866998
N 4.8772514459 1.3512777278 1.2974434290
C 4.6351560140 0.3717636202 2.2031894170
N 3.6530472884 -0.5107996530 2.1703236977
N 5.4617797421 0.3706679917 3.2968199465
N 4.3600060619 2.4375883684 -0.6293452938
C 0.4381609336 -0.8290168680 -2.5298089136
N -0.8035060492 -1.5530041707 -2.3752107064
C -1.8356897206 -1.0923214079 -1.5630318596
C -2.9512360547 -1.9177600327 -1.3588621343
C -4.0146186887 -1.4600011577 -0.5830320520
C -3.9891795689 -0.1806722083 -0.0085841899
C -2.8588906864 0.6194823734 -0.2023768588
C -1.7856549030 0.1778500761 -0.9802228125
O -2.8873270258 1.8271985123 0.4288984569
C -1.7367821508 2.6553615856 0.3107211458
O -5.0627632585 0.2854738954 0.7091319722
C -4.9828787283 -0.0279927415 2.1050280506
O -5.1392269775 -2.1851076798 -0.3225791335
C -5.2335027396 -3.4793684424 -0.9026926472
H 2.1766898940 1.9185633134 -2.6296602718
H 3.7808115193 1.1557623700 -2.6018476391
H 2.4357048826 0.3688626084 -3.4042933114
H 0.1959338377 -2.1644246797 -0.1836269296
H 1.6374125463 -2.0606510142 1.8272160114
H 6.3342080846 0.8616439910 3.2021834374
H 4.9230271025 3.1598012445 -0.2052200912
H 0.2037312034 0.1654088909 -2.9344054700
H 1.0099917008 -1.3412405598 -3.3155069045
H -0.7442750257 -2.5538186617 -2.4649756518
H -2.9809531974 -2.8927228988 -1.8301899273
H -0.9018165603 0.7885223922 -1.0910033699
H -0.8413252797 2.1575348459 0.7069399248
H -1.9508861325 3.5453443697 0.9044985213
H -1.5612462376 2.9495114225 -0.7328781292
H -4.9663029530 -1.1146507143 2.2592944332
H -4.0889768993 0.4235339050 2.5542139193
H -5.8775458434 0.3929005447 2.5697842993
H -6.1962781613 -3.8795060180 -0.5811588203
H -5.2091468387 -3.4287869239 -1.9993455271
H -4.4290117515 -4.1382670807 -0.5487026661
H 3.6029962312 2.7659724894 -1.2024872431
H 5.4540563962 -0.4644708443 3.8574156443
