47
CONF151
C -3.0429508095 0.2509090018 -3.6912535666
C -2.6067761890 1.4947969454 -2.9512007948
C -3.3370796947 2.7441160210 -3.4004624806
C -2.2519014632 1.4437355741 -1.4841590043
C -2.2259013142 0.1939029432 -0.7258970534
C -2.4311254441 0.0806948754 0.5868851200
Br -2.3847205813 -1.6125514263 1.4568489507
Br -2.7982745333 1.5467800094 1.7433936502
C -1.1603614566 1.7224811458 -2.5636193177
C -0.0933134692 0.7262585332 -2.7177583799
O -0.1927370532 -0.4693694065 -2.8864218484
O 1.1294426821 1.3417446766 -2.5824895896
C 2.2474140412 0.4476759188 -2.3813138617
C 2.5058883015 -0.3511792098 -3.5828109230
N 2.7735166451 -0.9386646849 -4.5400394218
C 2.0878060412 -0.3789821068 -1.1152715686
C 2.4393226721 -1.7243457812 -1.0575073038
C 2.2692600198 -2.4230268957 0.1356737996
C 1.7509768764 -1.7999357128 1.2646848940
C 1.4179235510 -0.4475764092 1.1920403486
O 0.8419280793 0.2397790104 2.2369413137
C 1.1286349961 -0.1388796895 3.5413559177
C 0.0592068628 -0.2355243352 4.4239248743
C 0.3098770949 -0.5323571413 5.7614429252
C 1.6140704872 -0.7370896812 6.2057642122
C 2.6746729551 -0.6327198492 5.3065877055
C 2.4404666697 -0.3277785925 3.9692657618
C 1.5891937345 0.2693775814 0.0125991510
H -2.5229510433 -0.6499344616 -3.3720398451
H -2.8621170433 0.3824768366 -4.7630917711
H -4.1189601807 0.1099591434 -3.5445897274
H -3.1612124600 2.9185606749 -4.4672228808
H -3.0066822071 3.6264106509 -2.8453119519
H -4.4140894076 2.6208757381 -3.2459308161
H -2.4934602970 2.3313818556 -0.9084983192
H -2.0152182392 -0.7278302829 -1.2588661011
H -0.8091639113 2.7485359896 -2.5695988847
H 3.0982128633 1.1309821579 -2.2720163881
H 2.8231039465 -2.2337773295 -1.9348857599
H 2.5249714033 -3.4766753426 0.1806419915
H 1.5998829033 -2.3551030711 2.1834948970
H -0.9494447884 -0.0765388809 4.0578542725
H -0.5212985977 -0.6086643799 6.4553882077
H 1.8049130764 -0.9724147213 7.2475791245
H 3.6946276810 -0.7802239124 5.6476248067
H 3.2616790194 -0.2357091627 3.2659948605
H 1.3127472948 1.3182164911 -0.0137301143
