22
CONF61
C 2.4137571680 0.0809773036 0.0249780700
C 0.9467000737 -0.3027942787 0.2433180487
C -0.0181088559 0.7477878395 -0.3351779661
C -1.5150331761 0.3985461042 -0.3159165646
C -2.1823314979 0.1761839008 1.0317848336
O -1.7973488258 -1.0624050514 1.6575788085
O -1.7785184195 -0.7720762888 -1.0976941676
O 0.2500327650 0.9808905495 -1.7308563250
O 0.8127287587 -0.3942676535 1.6598342251
O 2.7995926900 0.0799708380 -1.3616159311
H 3.0422127980 -0.6076966828 0.6021747419
H 2.5868894191 1.0993438889 0.3900635635
H 0.7582789145 -1.2766362063 -0.2400874541
H 0.1199710917 1.6775678057 0.2425973952
H -2.0174234847 1.2720986861 -0.7663199434
H -1.9152224823 0.9796913739 1.7238037740
H -3.2700276352 0.1849014493 0.8872704469
H -1.9343617752 -1.7603579224 0.9998759624
H -1.2421627753 -0.6870989351 -1.8998471730
H 1.1935378535 0.7862317949 -1.8864043393
H -0.0795169847 -0.7622506985 1.8330369790
H 2.8263545867 -0.8386078327 -1.6623968524
