58
CONF6
C 5.6833895935 -2.4464711468 -0.2057699860
C 5.6434158726 -1.9469194666 1.2396030654
C 6.5596255013 -2.7969381409 2.1232464150
C 6.0394335352 -0.4666255964 1.3459308899
C 5.1767003112 0.5159470729 0.5476275990
C 3.7009239195 0.5090167919 0.9438355302
C 2.8839060466 1.5732794446 0.2142414570
C 1.4091023174 1.5625644756 0.6096706804
C 0.5878038276 2.5934412463 -0.1621510153
C -0.8665287632 2.6478304482 0.2494262751
O -1.5401946695 1.3600774263 -0.0036929574
P -2.2254700682 1.0556678218 -1.4022870842
O -2.7241233830 2.2076223102 -2.1853846607
O -3.3124501833 -0.0668174998 -1.0033092902
C -4.2780949716 0.1118461542 -0.0074283436
C -4.6942369972 -1.0435715400 0.6428821879
C -5.6738245344 -0.9472973576 1.6264155071
C -6.2229995847 0.2905296231 1.9559988138
C -5.7913019592 1.4354842909 1.2915190240
C -4.8167827931 1.3567279791 0.2982603682
O -1.2091234279 0.1822335947 -2.2888669803
C -0.2376550519 -0.6906525340 -1.7794319455
C -0.5282044502 -1.6307524675 -0.7984335177
C 0.4926308383 -2.4726039218 -0.3607908552
C 1.7717160021 -2.3799784969 -0.9037169115
C 2.0343993211 -1.4379981847 -1.8961065841
C 1.0286615345 -0.5849638734 -2.3396655298
H 5.4327327665 -3.5116767515 -0.2569660596
H 4.9765623960 -1.9068086011 -0.8434485852
H 6.6876202032 -2.3143760596 -0.6282288268
H 4.6157137680 -2.0607819396 1.6125413599
H 6.2671082490 -3.8521853629 2.0974397133
H 6.5296667445 -2.4601942926 3.1652961713
H 7.5980100861 -2.7268557367 1.7760186532
H 6.0135346398 -0.1757339129 2.4056633307
H 7.0863006921 -0.3695534576 1.0227898914
H 5.2638824055 0.3093894683 -0.5276371181
H 5.5777467050 1.5279761976 0.6944496906
H 3.2625009512 -0.4749186685 0.7319848927
H 3.6156205071 0.6618658551 2.0296439102
H 3.3096951061 2.5665200642 0.4154185717
H 2.9670006358 1.4111586615 -0.8700070110
H 1.3159977144 1.7612346935 1.6865544745
H 0.9970659757 0.5607723918 0.4355404324
H 0.9990440069 3.5982105042 0.0057993657
H 0.6576698079 2.4046981284 -1.2426427393
H -1.4142299529 3.4333797048 -0.2786597682
H -0.9739331170 2.7928007786 1.3272902228
H -4.2511404247 -1.9969987356 0.3756073594
H -6.0041323132 -1.8456194283 2.1381597139
H -6.9844834815 0.3618268798 2.7254330265
H -6.2163015762 2.4031606706 1.5383655821
H -4.4918395458 2.2479517831 -0.2280654957
H -1.5248397398 -1.7052236798 -0.3791713147
H 0.2788249543 -3.2060071331 0.4101819689
H 2.5608770786 -3.0373956687 -0.5536073950
H 3.0285062524 -1.3561567508 -2.3241729377
H 1.2160956236 0.1622382837 -3.1033304724
