45
CONF132
C 5.9856182429 -1.5812387840 -3.9895928281
C 4.6705573143 -1.8488722666 -3.9785480885
C 3.7699346013 -1.6539895322 -2.8527726932
C 2.4483328367 -1.9813943899 -2.9462639194
N 1.5470564175 -1.6428490587 -1.9430811551
C 1.8150677640 -0.8076169176 -0.7704857188
C 0.5715940538 -1.4535364970 -0.0872909534
C 0.4314290855 -2.2709031399 -1.3950493737
O -0.3036915610 -3.1345393347 -1.8044221705
N -0.5182223920 -0.6118879601 0.2842984941
C -0.9520340917 -0.5135149013 1.5690448335
O -0.5006453108 -1.1777765928 2.4960979723
C -2.0597563184 0.4925860934 1.7882806309
N -2.1752283706 1.3885715265 0.8633729352
O -3.3119183624 2.1778364921 1.0238661235
C -3.0998457682 3.4809228018 0.4848115003
C -2.5554566190 4.4624260115 1.5161437820
O -2.2158492200 5.5778566340 1.1735756619
O -2.5004863127 4.0736573532 2.7839292806
C -2.8363535802 0.4207026811 3.0232129253
C -3.1873881027 -0.7357313856 3.6560634126
S -4.0834882207 -0.3827222423 5.1000498610
C -3.8887305330 1.3456192776 4.7557271966
N -3.2304318812 1.5923005573 3.6518641463
N -4.4398564614 2.2911711213 5.5533942633
S 3.4398993676 -1.2324213647 -0.0566197051
C 4.3420961318 -0.9689595131 -1.6358182508
C 1.8484072343 -2.6705365322 -4.1278330098
O 2.3438069659 -3.6147074139 -4.7055112061
O 0.6835233766 -2.0985142741 -4.4834704372
H 6.5305969231 -1.2085999389 -3.1289839775
H 6.5584967138 -1.7390030884 -4.8969743677
H 4.2214421215 -2.2238545193 -4.8920242958
H 1.7371661373 0.2636116794 -0.9808033556
H 0.8365964130 -2.0988888006 0.7561171611
H -0.9484519160 -0.0189301581 -0.4131642627
H -2.4223641528 3.4498404656 -0.3744221298
H -4.0796871582 3.8465023941 0.1601858852
H -2.8286167360 3.1325255422 2.9666776238
H -2.9712367647 -1.7535312924 3.3668561476
H -4.6560748623 2.0478279596 6.5077756511
H -4.1123658340 3.2367452683 5.4134908655
H 4.4405387418 0.1070208226 -1.8241255834
H 5.3462164815 -1.3555972231 -1.4429697708
H 0.3098051089 -2.6076069781 -5.2237484130
