36
CONF12
C -0.4124526927 -1.9112142818 -0.6995975050
C -0.4998237657 -0.6920021687 0.1940240407
C -0.8244282071 -1.0202727990 1.6757968549
C -1.3098201250 0.3350427113 2.2681557430
C -1.1918784539 1.2890108557 1.0624594083
C -1.5941601340 0.3823913538 -0.1319283802
C -3.0285907133 -0.1523356382 -0.0460509485
C -1.4553683013 1.0609688754 -1.4982988181
C 0.3153209866 1.5172345096 0.8253551234
C 0.8007442954 0.1436277420 0.2764810748
O 1.4301750466 0.2464178559 -1.0121288225
C 2.7817979404 0.7173672938 -0.9483394902
C 3.7374505015 -0.4223821576 -0.6368448381
O 3.5820021805 -1.4897756828 -1.5808868340
H -0.2309981606 -1.6343732294 -1.7419956161
H 0.4073740350 -2.5663938487 -0.3800163460
H -1.3412625961 -2.4898103553 -0.6519255490
H -1.6036475069 -1.7861369433 1.7289445559
H 0.0542898430 -1.4188797392 2.1935995165
H -2.3397705395 0.2678477882 2.6301066849
H -0.6911557981 0.6738924878 3.1049181886
H -1.7694769247 2.2136078060 1.1608360788
H -3.2468764613 -0.6867011413 0.8797202252
H -3.7374225942 0.6797451324 -0.1280059577
H -3.2265754453 -0.8345219307 -0.8803918917
H -0.4661578463 1.4803582577 -1.6754596508
H -1.6595674827 0.3417962480 -2.2999463484
H -2.1955572130 1.8655273282 -1.5835142404
H 0.8304249645 1.8094871740 1.7454660826
H 0.4986216837 2.2956283555 0.0785728433
H 1.5038424935 -0.3446565306 0.9644926914
H 2.8911748610 1.5233706939 -0.2076020582
H 3.0069086058 1.1237344097 -1.9407545317
H 3.5853195197 -0.7916843576 0.3881898343
H 4.7694900903 -0.0652623278 -0.7175247224
H 2.6300547080 -1.6606535404 -1.6289830738
