46
CONF94
C -4.1475239028 1.1801466878 -0.7224207627
C -3.1704899061 0.1820802004 -1.3003532236
C -3.6102498106 -0.3898719021 -2.6301906982
C -2.4036128882 -0.6793655517 -0.3245367857
C -2.1109276234 -2.0881886300 -0.5896007962
C -2.0567589703 -3.0515347308 0.3308001203
Cl -1.7372351122 -4.7170969632 -0.0828603891
Cl -2.2959516043 -2.7898065745 2.0371099335
C -1.6680348303 0.3954614082 -1.1340088248
C -1.1250848344 1.5584080280 -0.4083231971
O -1.4791017919 1.9623651757 0.6822953964
O -0.1423804931 2.1457016122 -1.1390978848
C 0.5101987374 3.2842242395 -0.5374312303
C 1.5652861159 2.8953183994 0.4689149959
C 1.8885988926 1.5620758280 0.7082634249
C 2.8824211734 1.2541544912 1.6361129887
O 3.2287281838 -0.0405021155 1.9626894641
C 2.7472172479 -1.0846239048 1.1801270037
C 1.8932103751 -2.0035026089 1.7769368857
C 1.4589344217 -3.1015847770 1.0374991761
C 1.8645251990 -3.2642429935 -0.2849035050
C 2.7211378293 -2.3308069080 -0.8678542781
C 3.1743908745 -1.2371383805 -0.1355537020
C 3.5607458976 2.2584666526 2.3231475284
C 3.2266602851 3.5853841782 2.0757545535
C 2.2347308750 3.9109412055 1.1549059906
H -5.1291572748 0.7046131854 -0.6236449316
H -4.2535646103 2.0376302987 -1.3964025768
H -3.8361212676 1.5430137464 0.2577519573
H -4.5262946864 -0.9764432452 -2.4989916812
H -3.8279278843 0.4278396112 -3.3249659112
H -2.8527094214 -1.0274715666 -3.0903034689
H -2.5469646830 -0.4071801163 0.7165746318
H -1.9288433203 -2.3943971332 -1.6153229985
H -1.0605117731 0.0517630005 -1.9645111277
H 0.9664258620 3.8137056076 -1.3784667831
H -0.2382716197 3.9353696965 -0.0753714170
H 1.3746315443 0.7680743778 0.1804712056
H 1.5826331340 -1.8565439014 2.8062530324
H 0.7986310789 -3.8286828292 1.4988983162
H 1.5172498041 -4.1173586113 -0.8586357374
H 3.0467908586 -2.4573312433 -1.8956054243
H 3.8466559873 -0.5064949426 -0.5742110486
H 4.3288058910 1.9918586020 3.0413388602
H 3.7482205842 4.3740667722 2.6091271791
H 1.9808878471 4.9504486171 0.9685955279
