44
CONF7
C 4.1152708690 -0.1729579383 -0.3866418410
C 3.1070266155 -0.4815451429 -1.4393286124
N 1.9009054927 -0.9065679725 -1.0484859169
C 1.0356215958 -1.1691965449 -2.0423983333
N 1.2903284930 -1.0551098616 -3.3458736850
C 2.5306743283 -0.6305155349 -3.6122056674
N 3.4751000162 -0.3249460743 -2.7173976255
O 2.7895869817 -0.5177806360 -4.9105246369
C 4.1109283018 -0.0613684894 -5.2995298338
N -0.2346648022 -1.6018743355 -1.7268213003
C -0.8656719066 -1.7687440664 -0.4910417551
O -2.0117729848 -2.1877620517 -0.4372926707
N -0.1171456472 -1.4130338042 0.6047921193
S -0.6435263383 -1.6814030366 2.1990715411
O -1.0016063499 -3.0948507277 2.3615225828
O 0.4484820903 -1.1260001658 3.0132486441
C -2.1278527240 -0.6864672237 2.3887773381
C -3.2948857896 -1.4026410005 2.6597098936
C -4.4741351921 -0.7199109419 2.9178371899
C -4.4698633174 0.6718618715 2.9154508391
C -3.3013346956 1.3683368110 2.6355277974
C -2.0958408316 0.7168728421 2.3489148706
C -0.8699528498 1.5576664449 2.0590355101
C -1.0705996318 2.6207873785 0.9679306086
C -1.1090140950 2.0577383703 -0.4258030113
F 0.0752567240 1.4930822096 -0.7868365186
F -2.0565615559 1.0957907725 -0.5864425640
F -1.3715232752 3.0210438766 -1.3457984657
H 4.9396536578 -0.8910026349 -0.4571077782
H 4.5382150352 0.8208101504 -0.5587224437
H 3.6716432583 -0.2268790926 0.6073936779
H 4.8725089848 -0.7548891249 -4.9372784355
H 4.0882074916 -0.0487633425 -6.3882404014
H 4.2961143236 0.9401031322 -4.9057965789
H -0.8322447431 -1.8078171345 -2.5178191070
H 0.8590696001 -1.1073772320 0.4459757751
H -3.2713155544 -2.4852884523 2.6679804534
H -5.3835913750 -1.2724267714 3.1271048250
H -5.3801252910 1.2206138380 3.1344654847
H -3.3214139484 2.4535077209 2.6500443564
H -0.0031339192 0.9472688783 1.8092809406
H -0.6071938754 2.0899538425 2.9801748198
H -1.9913264736 3.1912079030 1.1112084256
H -0.2382976822 3.3304732861 0.9908833071
