45
CONF2
C 3.9982135202 2.2795634688 -0.8143840651
C 3.5690378741 0.8204939703 -0.7946453129
C 2.5507954430 0.6046455200 0.3310684246
O 2.9170232317 0.5154466591 1.4920248679
N 1.2446683161 0.5836037678 -0.0662975957
C 0.1791712433 0.3372492667 0.8524045417
C -1.0336601265 1.3273298683 0.8928570808
N -1.8928712790 0.2292563169 0.4384409721
C -0.8771766284 -0.7329335831 0.4664240363
O -0.8907660695 -1.9188877079 0.2750385024
C -3.2144670834 0.1379232665 1.0064408998
C -3.0761542608 0.5664889155 2.5155133791
S -1.7278346107 1.8680732609 2.5146056498
C -4.3467828464 1.1806154260 3.0973780000
C -2.6425443405 -0.6486019850 3.3381871485
C -4.1709064932 1.0312530731 0.2336096639
O -3.8688173529 2.0571226785 -0.3206470975
O -5.4306885478 0.5302103221 0.2612311795
O 3.0467565160 0.5213920728 -2.0942757265
C 2.9009715676 -0.8030786713 -2.4466706790
C 3.0554470157 -1.8749549500 -1.5679831611
C 2.8589888954 -3.1713813937 -2.0413167054
C 2.5140197894 -3.4051352018 -3.3660582828
C 2.3606816538 -2.3238883835 -4.2324050467
C 2.5516092147 -1.0266817526 -3.7798413314
H 4.7787411002 2.4279645758 -1.5642365787
H 3.1470629955 2.9217999907 -1.0579292594
H 4.3835149936 2.5571615935 0.1691704535
H 4.4297892757 0.1764129346 -0.5741123739
H 1.0578989967 0.5820961620 -1.0590218228
H 0.6049044529 0.1531594981 1.8434114128
H -0.9775669274 2.1810586634 0.2127070021
H -3.5613694442 -0.8994531571 0.9546742703
H -5.1627294373 0.4510740776 3.0660943480
H -4.6497634740 2.0780286414 2.5520022039
H -4.1817052706 1.4583660502 4.1421115400
H -2.4063392619 -0.3442350627 4.3608812282
H -3.4530839469 -1.3867015316 3.3722782816
H -1.7562626558 -1.1311411372 2.9182217367
H -5.9951124986 1.1589560367 -0.2173740715
H 3.3055737042 -1.7241518666 -0.5245367592
H 2.9693044952 -4.0024557727 -1.3525341216
H 2.3604025096 -4.4181447065 -3.7210577096
H 2.0911256610 -2.4911188054 -5.2703725295
H 2.4409003021 -0.1739262083 -4.4410773976
