53
CONF13
C -3.2379531917 -1.4618324363 -3.0214068144
C -3.4027146910 -1.3692421702 -1.4928269404
C -4.6028288962 -2.2255966985 -1.0791119617
C -3.7129354216 0.1114836485 -1.1553204832
O -4.0862878155 0.3351723554 0.1997286217
C -3.0165438726 0.6796529804 1.0916012051
C -2.3276295916 1.9668093405 0.7102262156
C -0.9619673106 1.9732648842 0.4458685148
C -0.3325309489 3.1612239959 0.0822755712
C -1.0419670512 4.3501082895 -0.0078452629
C -2.4101254266 4.3388722169 0.2619474016
C -3.0535247445 3.1579853352 0.6099044873
O 1.0334973288 3.1939374374 -0.1444183092
C 1.5627633646 2.2611347311 -1.0129635540
C 2.8431580851 1.7918334600 -0.7355000949
C 3.4485802432 0.9031121544 -1.6163292297
C 2.7822509607 0.4770795984 -2.7628322898
C 1.5024560852 0.9577440638 -3.0298774386
C 0.8848152462 1.8511092683 -2.1605120479
C -2.1084976404 -1.7968633103 -0.8043716065
C -0.8965836693 -1.1956045217 -1.1637471418
C 0.3013783466 -1.4923139972 -0.5252194430
C 0.2791315093 -2.4132299620 0.5143103050
C -0.8934566216 -3.0495526533 0.8868157798
C -2.0761899852 -2.7446124154 0.2218234425
O 1.4201031349 -2.8115942283 1.2273506879
C 2.3910394978 -1.9362371835 1.5450505460
F 3.1185231353 -1.5399430226 0.4738179453
F 3.2231609241 -2.5529343510 2.3893074110
Br 1.7113694960 -0.2772352770 2.4409687351
H -4.1745703416 -1.1902354159 -3.5193788885
H -2.9780263139 -2.4836988071 -3.3132822148
H -2.4556479552 -0.7954481505 -3.3961021202
H -4.8193366750 -2.1250203332 -0.0129655564
H -4.4361980188 -3.2816169975 -1.3154505122
H -5.4911084395 -1.8944405957 -1.6262012534
H -2.8627357571 0.7497894163 -1.4376474747
H -4.5776135220 0.4204070880 -1.7571011042
H -2.2781523558 -0.1290334953 1.1626322806
H -3.5020909611 0.7847963129 2.0677307138
H -0.3835155010 1.0572552911 0.5175669157
H -0.5241737550 5.2605394331 -0.2887261982
H -2.9738038999 5.2639184118 0.1935741395
H -4.1215969555 3.1478345860 0.8035272794
H 3.3420634611 2.1239401709 0.1678652490
H 4.4436795144 0.5310646846 -1.3955251186
H 3.2568853145 -0.2208765931 -3.4438587673
H 0.9808569982 0.6419089125 -3.9284258636
H -0.1076939859 2.2376400421 -2.3674792992
H -0.8687612869 -0.4508984565 -1.9515007609
H 1.2154485638 -1.0009468668 -0.8375928316
H -0.8730703424 -3.7686689831 1.6979621534
H -2.9849480668 -3.2424877112 0.5365779407
