66
CONF2
C 2.3150819913 -1.7100655190 -3.0856004260
C 3.3023803965 -0.9148993757 -2.2544976787
O 2.6713362882 -0.4003732373 -1.0523984781
C 1.9323433971 0.7329804928 -1.1869672706
O 1.8796112861 1.3559596314 -2.2409845433
C 1.2596820345 1.0714565918 0.0644404661
C 0.5964202832 2.2566828486 0.1773616103
N 0.0209383117 2.5958893868 1.3795471901
C 0.1400997699 1.8694030085 2.5401002673
C 0.7782130831 0.6644982277 2.5090219767
C 1.2898504390 0.0607161247 1.2059178283
C 0.5312703962 -1.2230804618 0.8544483824
C 1.2310320726 -2.4323548357 0.8088735807
C 0.6065739861 -3.6273193001 0.4777926078
C -0.7536125962 -3.6314162260 0.1731287766
C -1.4644257037 -2.4403857891 0.2036645397
C -0.8392972401 -1.2308077151 0.5414681557
C -1.6868343011 -0.0253671931 0.6210029271
C -2.2607089422 0.6326110011 -0.3954946325
C -1.9957618606 0.3510883487 -1.8214209104
O -1.2029198036 -0.4681479785 -2.2493944725
O -2.7532922049 1.1695340998 -2.5842543385
C -2.6888265148 1.1216605721 -4.0683313513
C -3.1249500516 -0.2528272030 -4.5633503542
C -3.7025525239 2.1844046690 -4.4750777215
C -1.2916412056 1.5032680192 -4.5440071789
C 0.9606596611 -0.0946257320 3.7451008068
O 0.4110190761 0.1151975633 4.8196003050
O 1.8540835865 -1.1040584610 3.5712040647
C 2.0438380518 -2.0099533853 4.6903263553
C 0.9541645487 -3.0633447298 4.7228841635
C -0.4635426477 2.5320774956 3.7410085386
C 0.4091066472 3.2832619547 -0.8965762008
H 2.8330736293 -2.1494732969 -3.9440282264
H 1.5105663754 -1.0697404745 -3.4560670251
H 1.8780152185 -2.5191887647 -2.4926121566
H 3.7303403271 -0.0836541235 -2.8216762186
H 4.1090128233 -1.5501000317 -1.8806114352
H -0.4467612471 3.4876314828 1.4346263858
H 2.3286763704 -0.2462219579 1.3594477177
H 2.2922694968 -2.4232723669 1.0383503827
H 1.1773165168 -4.5507398109 0.4549695445
H -1.2573641140 -4.5565972980 -0.0892014445
H -2.5233275049 -2.4303973122 -0.0367862326
H -1.8991953033 0.3371076630 1.6266390225
H -2.9219963200 1.4678585050 -0.1874262115
H -3.2339840458 -0.2136576172 -5.6515399711
H -2.3942418377 -1.0222193126 -4.3119699461
H -4.0944182045 -0.5198251420 -4.1313952071
H -3.7455632779 2.2478791798 -5.5657831392
H -3.4140840079 3.1625154390 -4.0791481099
H -4.6981525495 1.9297286268 -4.1001866216
H -1.3104278396 1.6062979875 -5.6334751384
H -0.9942865233 2.4651825287 -4.1150416132
H -0.5524683347 0.7474463596 -4.2761601923
H 2.0779364846 -1.4338252218 5.6190189546
H 3.0234505635 -2.4579720661 4.5076668226
H 1.1538988436 -3.7682947699 5.5361158083
H -0.0248511168 -2.6078767700 4.8930075609
H 0.9281742826 -3.6182072120 3.7803804683
H 0.2507564788 2.5736349034 4.5649493823
H -1.3246819524 1.9624156991 4.0999841140
H -0.7872687860 3.5469231687 3.4964759666
H -0.1216707540 4.1555525378 -0.5066758658
H 1.3691173035 3.6012858161 -1.3072110304
H -0.1620389370 2.8624596495 -1.7284313352
