50
CONF120
C 0.9169401347 1.0558505417 -1.6193304887
C 1.6875881223 -0.2269334048 -1.8170365708
C 1.7450132248 -1.1495024812 -0.7675855263
C 2.5245759260 -2.3148777025 -0.8935580474
C 3.2847598886 -2.5567981789 -2.0095432193
C 3.2664320168 -1.6488835356 -3.0883448725
C 2.4109204135 -0.5037715300 -3.0166934048
C 2.3717726630 0.2659813411 -4.2461685653
N 3.2077939726 0.0221289663 -5.2515439061
C 4.0525663130 -1.0289956014 -5.1364666131
N 4.0863339091 -1.9095477698 -4.1453028661
N 4.8929618087 -1.2274383629 -6.1987548266
N 1.4922898943 1.2735370357 -4.4638426631
C 0.9824598198 -0.9449880509 0.5170562741
N -0.4575769954 -1.0994828730 0.2930632667
C -1.3756982509 -0.6126718725 1.2106748555
C -1.0051928364 -0.3737242243 2.5425573806
C -1.9692042942 0.0678424053 3.4540886710
C -3.2976842888 0.2679487496 3.0601369945
C -3.6503833242 0.0375901591 1.7201624884
C -2.7032776618 -0.4012353002 0.7980634679
O -4.9576045507 0.2772393831 1.4165135827
C -5.3695970424 0.0631727941 0.0606180977
O -4.2500345984 0.6667059514 3.9760855583
C -4.3686793066 2.1003881043 4.0670290624
O -1.7068832494 0.3297238397 4.7660399761
C -0.3603161535 0.1491792558 5.2227659699
H 1.4573434532 1.9131307430 -2.0265712157
H -0.0770975149 1.0199408070 -2.0843734513
H 0.7489183968 1.2484731533 -0.5595554205
H 2.5406270953 -3.0219302355 -0.0686422294
H 3.9187070622 -3.4341389153 -2.0844139309
H 5.6865568775 -1.8290217827 -6.0431292468
H 5.0427331907 -0.4417554124 -6.8119232409
H 1.4491724007 1.6246589233 -5.4089501383
H 1.3239647716 -1.6855840460 1.2504473255
H 1.2047563670 0.0448069846 0.9487622359
H -0.7381580559 -0.9975430429 -0.6715970227
H 0.0128943808 -0.5434517404 2.8628030618
H -2.9692306885 -0.5818205613 -0.2365310221
H -4.8231009689 0.7205610684 -0.6258008851
H -6.4319646822 0.3076417086 0.0342285120
H -5.2246762065 -0.9824616198 -0.2348946453
H -5.1415204925 2.3049745535 4.8113768921
H -3.4193809865 2.5455722638 4.3884021927
H -4.6659217808 2.5241812804 3.1002406592
H -0.0419699786 -0.8937378674 5.1105778730
H 0.3309540663 0.8072960424 4.6833825336
H -0.3710728781 0.4166925462 6.2798426418
H 0.6534814186 1.3555251238 -3.9184402201
