23
CONF70
C 2.3593857991 -1.4442379477 -1.1326438514
C 1.1982725825 -0.8816761833 -0.3426391329
C -0.1457349460 -1.1042952778 -1.1028224179
C -1.4482543526 -0.4010285793 -0.5687312559
C -1.8346019925 -0.6455142895 0.9196229643
C -3.3007787675 -0.2616714482 1.3300997586
C -3.8240160371 1.1637017811 1.0477451249
F -4.0034645703 1.3469483138 -0.2841785215
F -2.9374727773 2.0826612732 1.5055452697
F -4.1646898193 -1.1371536136 0.7629369503
F -3.3576212061 -0.4285126443 2.6809555380
F -1.7013728318 -1.9668568123 1.1934381490
F -0.9885445045 0.0565880032 1.7037838774
F -2.4559223628 -0.8583930181 -1.3545254681
F -1.3167067866 0.9294555665 -0.7602165183
F 0.0142418333 -0.6338018648 -2.3716844495
F -0.3719182821 -2.4380168775 -1.1760375536
F 1.3471266357 0.4546091317 -0.1333948806
F 1.0930422311 -1.4942854389 0.8680691840
I 4.2272219844 -1.2109413383 -0.0732882324
H 2.4649560100 -0.9166158796 -2.0781686921
H 2.2192368992 -2.5114385522 -1.2985416347
H -4.7852158276 1.2916100746 1.5646925357
