45
CONF121
C 5.7515296518 1.8330312242 -1.0917840861
C 4.5985930028 1.0359069493 -0.4862522804
C 5.0742390700 -0.0539608980 0.4766560924
C 3.9295653465 -0.8799947292 1.0723403747
C 3.3380336489 -1.8971112567 0.0945610077
C 2.0911812688 -2.6159469437 0.6218375859
C 0.9026431754 -1.6991679873 0.9332380839
C 0.4698702374 -0.8357416775 -0.2634534954
C -0.7681780140 -0.0237724752 0.0117034938
C -2.0157848466 -0.6367868059 -0.0848329069
N -3.0955268906 0.1382913902 0.1916346132
C -2.9864555101 1.4783204587 0.5675288440
N -4.2230951842 1.9570562545 0.7551537211
C -5.0075544463 0.8949595655 0.4838781674
N -4.3970648699 -0.2448924060 0.1355770201
N -1.8027763087 2.0764236437 0.6874265949
C -0.7269517125 1.3356237622 0.4161740888
C 0.5852586444 2.0714232306 0.5185847849
C 0.9798034792 2.6951841826 -0.8274769014
N -2.2612235666 -1.9393021092 -0.3857495416
H 6.4195259328 1.1806314777 -1.6642413592
H 6.3485546134 2.3141661017 -0.3096163352
H 5.3887891483 2.6153857920 -1.7652234023
H 4.0010207814 0.5935750868 -1.2937101462
H 3.9253294184 1.7141146864 0.0555765658
H 5.6413502092 0.4221892107 1.2867700034
H 5.7787921205 -0.7203310901 -0.0410642866
H 3.1493758166 -0.1890819393 1.4186603399
H 4.2777996646 -1.4156198871 1.9649957760
H 4.1055085563 -2.6466161166 -0.1379372198
H 3.1029691090 -1.4095425104 -0.8594524888
H 2.3520535272 -3.1737873900 1.5306078028
H 1.7763266255 -3.3643673277 -0.1183192249
H 0.0546117355 -2.3103108998 1.2651910061
H 1.1351148124 -1.0360579716 1.7749231973
H 1.2850955360 -0.1661395001 -0.5465176778
H 0.3178880007 -1.4812612954 -1.1424877080
H -6.0885384733 0.9364541397 0.5390228246
H 1.3808035671 1.4088442106 0.8747857685
H 1.1254604416 1.9304637167 -1.5976412369
H -1.5349003272 -2.4627373523 -0.8425619796
H -3.2164988590 -2.1710143377 -0.6163190461
H 0.1931003700 3.3736816960 -1.1688474148
H 0.4562424662 2.8630334815 1.2609861586
H 1.9099435259 3.2635982158 -0.7341196541
