47
CONF11
C -8.0036550410 -1.3697824866 -1.2801858082
O -6.5809220856 -1.6711372041 -1.2097170319
P -5.8968717395 -1.9749424344 0.2023551794
S -6.2999661888 -0.7757869256 1.6751428593
O -6.2439136541 -3.5235070395 0.3940985388
C -5.9022156430 -4.1992508885 1.6365016811
O -4.3363412148 -2.0675956437 -0.2318060425
C -3.5058422306 -0.9431936111 -0.2327006796
C -3.6713512301 0.0521741288 -1.1849444385
C -2.7843224089 1.1248355684 -1.1996616206
C -1.7572542094 1.1984642534 -0.2569007656
C -1.6140625394 0.1917914055 0.7022321603
C -2.4852658487 -0.8891533443 0.7085911208
S -0.7015667499 2.6427737367 -0.2624175262
C 0.9222421758 1.9426915588 0.0075401473
C 1.3489332141 0.7974010675 -0.6708180324
C 2.6363411497 0.3153836085 -0.4763359812
C 3.4931310300 0.9957640712 0.3798448893
C 3.0915779038 2.1402613174 1.0536772919
C 1.7940093194 2.6095390486 0.8705886505
O 4.7677432243 0.4610915772 0.5906573599
P 6.0996608614 1.1933938945 0.0227066141
S 5.9343252583 2.0237223694 -1.7245367521
O 7.1764011414 0.0230692527 0.1851333025
C 7.2839776939 -1.0151264110 -0.8285887451
O 6.4692821847 2.1356390849 1.2597427759
C 7.5525859105 3.1011255501 1.1405073642
H -8.5867404741 -2.2246730517 -0.9277192049
H -8.2095028300 -1.1818854401 -2.3334118621
H -8.2273059272 -0.4817075335 -0.6839187369
H -4.8192451998 -4.1834755306 1.7874130696
H -6.4116907356 -3.7188182915 2.4754328577
H -6.2502760192 -5.2247384143 1.5167825721
H -4.4675335127 -0.0180670125 -1.9179679794
H -2.8890249162 1.8985572872 -1.9531026513
H -0.8243255632 0.2501128255 1.4437483335
H -2.3893514422 -1.6799652592 1.4447862124
H 0.6786586514 0.2820246267 -1.3505610239
H 2.9852490190 -0.5715001702 -0.9943428571
H 3.7747532758 2.6465398651 1.7268527735
H 1.4605100901 3.4908244400 1.4085462621
H 7.5376298454 -0.5698238168 -1.7937434816
H 8.0847522591 -1.6719572353 -0.4903407021
H 6.3447156173 -1.5706968678 -0.8991594637
H 8.5003253601 2.5832189521 0.9712258734
H 7.3445021679 3.7961400237 0.3232552871
H 7.5772389502 3.6302452941 2.0925642066
