34
CONF90
C -2.1553861570 -2.2031282373 0.5551357269
C -3.1376609145 -1.0549751332 0.5830970523
O -2.4584894995 0.2292097766 0.8086903206
P -1.6269997213 0.9601274233 -0.3389983952
S -2.2985832017 0.8648172554 -2.1511558602
O -1.3340186051 2.3790778287 0.3155768782
C -2.4175082259 3.3680707428 0.4440793895
C -1.8147616620 4.6103804890 1.0489625290
O -0.1080828864 0.2984000193 -0.3188557669
N 0.4461791465 0.2020079407 0.9684849737
C 1.5655007945 -0.4485092269 0.9522771377
C 2.1069632464 -0.5850209387 2.2768186654
N 2.5744729134 -0.7102997304 3.3273146500
C 2.3171845911 -1.0653124134 -0.1536744343
C 3.0205184973 -2.2514820169 0.1045741823
C 3.7394878959 -2.8713882094 -0.9083197450
C 3.7879431526 -2.3005553474 -2.1779747948
C 3.1133926042 -1.1075645896 -2.4313286441
C 2.3736889407 -0.4895470043 -1.4316775215
H -1.4917020615 -2.1429297963 -0.3127754964
H -1.5505819275 -2.2207350971 1.4663036525
H -2.7141221839 -3.1421142172 0.4910163933
H -3.7109288395 -0.9800656567 -0.3462168046
H -3.8266738784 -1.1315433646 1.4261782352
H -3.1966098189 2.9394318559 1.0823607099
H -2.8250876506 3.5555625211 -0.5545627598
H -1.0277211363 5.0125170836 0.4055951453
H -1.3978454146 4.3997651899 2.0373220785
H -2.5973200175 5.3674322660 1.1556746020
H 2.9910308492 -2.6954288864 1.0948723048
H 4.2678702128 -3.7964156842 -0.7033930978
H 4.3571837902 -2.7801622880 -2.9677088246
H 3.1634637980 -0.6524799028 -3.4150094895
H 1.8652031577 0.4428580363 -1.6367713649
