65
CONF46
C 2.3282133844 3.1759853621 3.9189386273
O 1.2425801462 2.2588492774 3.7342322139
C 1.5557891559 0.9723558869 3.3974688992
C 2.8571917267 0.4775517915 3.2750086961
C 3.0513772737 -0.8545192217 2.9111429554
C 1.9814165520 -1.7104382650 2.6448493219
C 0.6879931955 -1.1957688642 2.7901933689
C 0.4695101099 0.1220407983 3.1670356770
C 2.2064034616 -3.1349215148 2.2083041915
C 2.9826572980 -3.3157017231 0.8825739330
N 2.4084440105 -2.7675732572 -0.3473806023
C 2.5701945871 -1.3213762204 -0.5185285896
C 2.2169982286 -0.9265951048 -1.9523702657
C 0.7933770143 -1.3509777258 -2.3218281562
C 0.6025171706 -2.8431563151 -2.0112245923
C 1.0223555542 -3.1766087871 -0.5823692800
N -0.1570614761 -0.4974243054 -1.5967840275
C -1.4713457837 -0.4596154831 -1.9264340784
N -2.0092250053 -0.9540252106 -3.0340311438
C -3.3489928062 -0.6031008768 -2.9586991244
C -4.3904797068 -0.8601718056 -3.8485669109
C -5.6633474156 -0.3841686773 -3.5294302693
C -5.8995468337 0.3330439960 -2.3498103456
C -4.8690572978 0.5972633554 -1.4429773076
C -3.6085763718 0.1175193099 -1.7676529296
N -2.3875785672 0.1832579191 -1.1098402151
C -2.0745214754 0.9407865343 0.0970292038
C -1.3188483893 2.2176600847 -0.2015076696
C -1.8692114448 3.1755398492 -1.0580023386
C -1.1822179740 4.3487900695 -1.3497204098
C 0.0610100410 4.5413793969 -0.7674638778
C 0.6417082470 3.6184460280 0.0832549712
C -0.0626911507 2.4481175948 0.3582212447
F 0.7382620581 5.6852879111 -1.0489100343
H 2.9327344169 3.2574344463 3.0077024730
H 2.9649170099 2.8708496203 4.7578171014
H 1.8676334549 4.1392096387 4.1405896001
H 3.7176738740 1.1082312771 3.4636774811
H 4.0696551024 -1.2246327305 2.8212928564
H -0.1672694190 -1.8391457251 2.5989205465
H -0.5381299103 0.5120341007 3.2768551547
H 2.7871327972 -3.6662704652 2.9747033430
H 1.2415640931 -3.6491420140 2.1426042236
H 3.1087944263 -4.3979220939 0.7351348089
H 3.9877954616 -2.8900441146 0.9932655211
H 3.6140141517 -1.0578572401 -0.3113862391
H 1.9576311307 -0.7423451730 0.1995815478
H 2.3319324364 0.1553801020 -2.0827922433
H 2.9086696081 -1.4268085011 -2.6390818697
H 0.6234048595 -1.1778755877 -3.3894231909
H -0.4437604107 -3.1254692625 -2.1687110903
H 1.2157987412 -3.4199062339 -2.7141783916
H 0.3234053028 -2.6887296658 0.1268149922
H 0.9420677572 -4.2576656348 -0.4149084745
H 0.0711732421 -0.2953616277 -0.6344346094
H -4.2106111596 -1.4132412451 -4.7655764239
H -6.4877347344 -0.5715271964 -4.2106373935
H -6.9001158147 0.6931231828 -2.1326943092
H -5.0565667064 1.1574148352 -0.5324359516
H -3.0239980797 1.1631967248 0.5934391648
H -1.5011269298 0.3096358581 0.7864589939
H -2.8446370397 3.0057383685 -1.5053509582
H -1.5973599277 5.1019273920 -2.0106043599
H 1.6205272054 3.8063422397 0.5114165425
H 0.3794871256 1.7056961302 1.0167628875
