27
CONF167
C -3.3196338854 -0.2187232459 -0.2246695131
C -4.7668334119 0.2863654173 -0.1538803530
O -5.5765676679 -0.6220082810 0.5924377197
C -2.4172371449 0.7525534291 -0.9390817806
C -0.9456967564 0.2817754224 -1.1761574350
C -0.1699319997 -0.1777997790 0.1014878244
C 1.3864880133 -0.2368437949 -0.0939779803
C 2.1085027769 -1.1261954161 0.9758297899
C 3.6474120318 -0.8678071463 1.0855079658
F 4.1929422302 -1.8297236046 1.8417228741
F 3.8942599657 0.3153618219 1.6572688785
F 4.2135343177 -0.8977667966 -0.1289399455
F 1.9329105140 -2.4254523597 0.6528204670
F 1.5679640584 -0.8960965960 2.1949772974
F 1.6632533539 -0.7419970243 -1.3177715943
F 1.8784091639 1.0207305748 -0.0174504948
F -0.4346354844 0.6745070110 1.1178317090
F -0.6106307123 -1.4141226020 0.4442985871
F -0.9763382139 -0.7581391997 -2.0461798413
F -0.2586654815 1.3038452452 -1.7511948133
F -2.3632749662 1.9553884380 -0.2842176669
F -2.8981510625 1.0236998228 -2.1999182673
H -2.9417919115 -0.3700609292 0.7908836714
H -3.2811250352 -1.1778636218 -0.7529337375
H -4.8068154658 1.2400161315 0.3793761053
H -5.1701024024 0.4353045912 -1.1628210856
H -5.6799810143 -1.4270422003 0.0690939872
