47
CONF35
C -4.6037566304 -3.0442482395 0.6036758035
C -4.4843344113 -1.5488559484 0.8892689140
C -4.6646817273 -0.6991647644 -0.3695920031
C -4.5078186077 0.8046923090 -0.1149264057
C -3.0516098997 1.2549485582 0.0936099126
C -2.9450474355 2.5640148253 0.8871167961
C -3.2210721520 2.3923410948 2.3796599581
C -2.3816397579 1.3911112140 -1.2713310775
O -0.9459055513 1.5308644933 -1.1556203566
C -0.2554313470 0.3643893915 -1.0152212963
O -0.7808028186 -0.7325251950 -1.0105496643
C 1.1796505122 0.6375287406 -0.8883052571
C 2.0510246014 -0.3795323112 -0.7584308618
C 3.4923821385 -0.3006345503 -0.6310372304
C 4.2321158477 -1.4854122285 -0.5218102941
C 5.6167755777 -1.4829176353 -0.4034515564
C 6.2972401202 -0.2634496923 -0.3912190282
C 5.5777709457 0.9367254736 -0.4965126231
C 4.2051724567 0.9147334323 -0.6139817352
O 7.6441151907 -0.1298735317 -0.2825774535
C 8.4230448922 -1.3213685434 -0.1871806248
H -3.8356621944 -3.3644547167 -0.1082083792
H -4.4848280915 -3.6377315112 1.5153444834
H -5.5813975434 -3.2855844428 0.1715719838
H -5.2350555467 -1.2502560326 1.6335879807
H -3.5043870417 -1.3454045436 1.3379105923
H -5.6613370613 -0.8953064343 -0.7864254030
H -3.9415150797 -1.0291407110 -1.1271308314
H -5.1070979591 1.0774923996 0.7625032223
H -4.9304342443 1.3749812188 -0.9551047460
H -2.5132617266 0.4719211908 0.6430198070
H -1.9372368258 2.9763028505 0.7567843952
H -3.6417919223 3.2975433529 0.4561040133
H -4.2212248864 1.9893919722 2.5687334317
H -3.1461330404 3.3476951393 2.9080297958
H -2.4969731229 1.7037068545 2.8284306055
H -2.6026222753 0.5300494195 -1.9082772670
H -2.7121502132 2.3095757673 -1.7684942431
H 1.4823088565 1.6786363337 -0.9111109943
H 1.6233710527 -1.3815027757 -0.7523112072
H 3.7064641417 -2.4360182417 -0.5316717665
H 6.1455686713 -2.4242483997 -0.3226980968
H 6.1273014510 1.8717293847 -0.4839229310
H 3.6719675759 1.8558519958 -0.6949535225
H 9.4604129942 -0.9928026711 -0.1176692301
H 8.2972337152 -1.9492599022 -1.0781865736
H 8.1612866579 -1.8965344634 0.7099392767
