38
CONF9
C 1.8725915796 0.5768165668 -3.0590503116
C 2.1035861034 1.4854113736 -1.8540851559
C 2.3626180332 0.7179533171 -0.5724672971
O 1.1901866742 -0.0466860485 -0.2723605381
C 1.2791950907 -0.7465693203 0.9336310152
C -0.1050472029 -1.1798457530 1.3755242300
N -1.2263569701 -0.8788456761 0.8702996640
C -1.4513159025 -0.0512938065 -0.2256708971
C -1.6668519457 -0.6243666843 -1.4833962278
C -1.9628648465 0.1604407330 -2.5855922062
C -2.0746451519 1.5374784211 -2.4322959283
C -1.9175595914 2.1299814268 -1.1889972988
C -1.6169488626 1.3381266376 -0.0838066322
C -1.4413462123 1.9788951241 1.2617980284
F -1.6485735250 3.3131506731 1.2229962568
F -2.2892624498 1.4723823773 2.1860221935
F -0.1808223091 1.7989741083 1.7558336241
Cl -2.4326790532 2.5395718506 -3.8251952497
N -0.1100939079 -2.0128610616 2.5103873697
C -1.2445342084 -2.4957949877 3.1537013046
C -0.7828857116 -3.2271630187 4.2055725458
N 0.6016748765 -3.2181839067 4.2486894276
C 0.9749865451 -2.4898052111 3.2329672586
H 2.7458205684 -0.0581815452 -3.2451729428
H 1.0081639038 -0.0707387547 -2.8928906540
H 1.6846331234 1.1661213659 -3.9608874544
H 2.9648090168 2.1413378307 -2.0297681109
H 1.2333247863 2.1342586436 -1.6975905704
H 3.2281873332 0.0428654211 -0.6870346742
H 2.5703791801 1.4074184667 0.2615191942
H 1.9207835980 -1.6396063325 0.8312057290
H 1.7087339227 -0.1217301378 1.7373997521
H -1.5726419690 -1.6995778411 -1.5874927122
H -2.1037392229 -0.2925834947 -3.5602582118
H -2.0262942041 3.2011429054 -1.0778062293
H -2.2307207176 -2.2576217730 2.7929378040
H -1.3627186974 -3.7634687568 4.9426443712
H 1.9982276336 -2.2674028154 2.9662240498
