48
CONF38
C -3.1803620052 1.1294861010 -1.4347906943
C -3.8508888053 -0.0030682585 -0.6421688577
C -3.6379000517 -1.3284934469 -1.3881072669
C -5.3575244666 0.2962555246 -0.5619640634
C -3.3215249695 -0.0686135212 0.8189993731
C -1.8162064504 -0.3970040301 0.9559867941
N -1.4813244653 -0.7122392624 2.3444937099
C -1.1468143315 -1.9041050504 2.8801413717
N -1.0308978439 -1.7968364325 4.1967734288
C -1.3215019078 -0.4816367000 4.4153758092
N -1.6105247489 0.2143832249 3.3247453548
O -1.0947283379 0.7407801058 0.5417898815
C 0.2381757872 0.6265292398 0.2186412997
C 0.9767044677 -0.5548624846 0.2593041654
C 2.3185436070 -0.5307593096 -0.1123743507
C 2.9496971237 0.6484134159 -0.5218276908
C 2.1823710717 1.8235599738 -0.5488437093
C 0.8459405770 1.8173460218 -0.1845133503
C 4.3748021285 0.6575920374 -0.9104814091
C 5.1980478921 1.7500932437 -0.6000014341
C 6.5399757069 1.7586554597 -0.9665693942
C 7.0895168383 0.6751685646 -1.6493037074
C 6.2828075953 -0.4171074670 -1.9628772225
C 4.9401463739 -0.4258312289 -1.5991960030
O -4.0586261678 -0.9938873558 1.6150967811
H -3.7058893108 1.2530697123 -2.3876533304
H -3.2317885916 2.0788446746 -0.8910226099
H -2.1318514272 0.9152520205 -1.6526495509
H -4.0930687627 -2.1807601091 -0.8704581770
H -4.1091568773 -1.2655710835 -2.3742697495
H -2.5764117336 -1.5446062062 -1.5471377036
H -5.7609977655 0.4110397772 -1.5730074378
H -5.5403246617 1.2275410298 -0.0138098428
H -5.9017945325 -0.5090378539 -0.0623989265
H -3.4791347874 0.9112561308 1.2864600855
H -1.5605522893 -1.2888001966 0.3707504100
H -0.9992548001 -2.7951427113 2.2829031280
H -1.3179147917 -0.0250551152 5.3973261492
H 0.5437382937 -1.4931406780 0.5819360267
H 2.8869822939 -1.4537197205 -0.0545482030
H 2.6310584693 2.7540108636 -0.8824592895
H 0.2533147384 2.7257871388 -0.2203592489
H 4.7895639750 2.5902234851 -0.0465832778
H 7.1609919130 2.6114269629 -0.7093284219
H 8.1367762900 0.6819819872 -1.9345973648
H 6.6980584061 -1.2631039603 -2.5022658846
H 4.3176839467 -1.2727352206 -1.8718260893
H -4.0379314110 -1.8604823856 1.1866711971
