33
CONF27
C -3.5858734294 -1.2587506005 -1.2174166931
C -2.8400217426 -0.2389539124 -2.1061310401
C -3.5986407982 1.0766747195 -2.0686262477
O -4.6904046792 1.0237722797 -2.8606408912
O -3.3132100654 2.0499776855 -1.4038839999
C -1.3935084382 -0.0693361570 -1.7065112388
C -0.3828122039 -0.2605253715 -2.6531433632
C 0.9589830861 -0.1269364039 -2.3037179857
C 1.3116468039 0.1829058345 -0.9963111941
C 0.3102289391 0.3835743996 -0.0377064978
C -1.0344238345 0.2661156540 -0.4032951750
C 0.6303264349 0.7995451104 1.3561575791
O -0.1411475929 1.5281667875 1.9779622087
C 1.8917872153 0.3275044375 1.9905027817
C 2.5035262351 1.1389564872 2.9548470481
C 3.6540032709 0.7094174246 3.6022150489
C 4.1886260695 -0.5471070614 3.3143023721
C 3.5731609130 -1.3689039275 2.3727068539
C 2.4357191396 -0.9305371139 1.7023945604
H -3.0526705691 -2.2123810165 -1.2413045673
H -4.6033729330 -1.4147476658 -1.5836994364
H -3.6356198268 -0.9126388238 -0.1816005521
H -2.8791474008 -0.5999969752 -3.1389588444
H -5.1747397039 1.8624366874 -2.7688527670
H -0.6499807661 -0.5154909641 -3.6749964130
H 1.7298169526 -0.2669216562 -3.0546864443
H 2.3562064215 0.2963699364 -0.7264770175
H -1.7932959510 0.4327277569 0.3530818593
H 2.0729451762 2.1098099116 3.1773905333
H 4.1354968849 1.3501850070 4.3341053318
H 5.0833087212 -0.8859890412 3.8272881138
H 3.9799925796 -2.3520996977 2.1590237738
H 1.9530953139 -1.5768236357 0.9767037911
