45
CONF14
C 0.5162767712 -2.5784745716 -0.8533643193
C 1.1359128119 -2.1574006114 0.4802114038
C 2.6312735756 -1.8345514971 0.3883312311
C 2.9864427484 -0.7097320672 -0.5941295020
C 2.2662782276 0.6178428478 -0.3382271724
C 2.5811132680 1.2243375534 1.0324777399
C 2.0651336648 2.6524876491 1.2465967467
C 0.5814025416 2.7817532152 1.5210051770
O -0.1563152296 2.4596104499 0.3027238353
C -1.4952907884 2.5664298580 0.3708852743
O -2.0895832141 2.9097435473 1.3764864966
C -2.1541743494 2.2240759419 -0.9413638537
C -3.3969689064 1.3447231090 -0.7547534140
C -3.1177021638 0.0177789942 -0.0427168733
C -2.0832343698 -0.8666831912 -0.7392424673
C -1.9117228050 -2.2164593926 -0.0426496442
C -0.9019865488 -3.1474714197 -0.7230994047
H 1.1576266154 -3.3406352616 -1.3175394176
H 0.5107568317 -1.7266434498 -1.5448604025
H 0.5963752171 -1.2898294014 0.8825453366
H 0.9951912616 -2.9671647771 1.2097715853
H 3.0028939874 -1.5775012089 1.3883791015
H 3.1707953225 -2.7422059926 0.0853679880
H 4.0712181475 -0.5405177081 -0.5534636892
H 2.7662359761 -1.0395061420 -1.6172709668
H 2.5623415144 1.3354991426 -1.1153574935
H 1.1848988665 0.4826653000 -0.4484887068
H 2.1836725094 0.5835781418 1.8307054592
H 3.6722375138 1.2326670459 1.1599861557
H 2.3331918991 3.2875411025 0.3921091431
H 2.5664609168 3.0825887264 2.1227228126
H 0.2573358086 2.0933917425 2.3099499613
H 0.3199567919 3.8024230293 1.8182857733
H -2.4450081982 3.1768997374 -1.4026896161
H -1.4233261314 1.7565924451 -1.6053144314
H -3.8200400948 1.1473904325 -1.7469858849
H -4.1500021992 1.9076528340 -0.1925583444
H -2.7823161305 0.2177767049 0.9846213804
H -4.0621531408 -0.5348123542 0.0459216589
H -2.3788090918 -1.0276649103 -1.7864835625
H -1.1167737885 -0.3482850653 -0.7652185082
H -1.6147725696 -2.0447189743 1.0008085320
H -2.8855746638 -2.7226395829 -0.0021688009
H -0.8547276473 -4.0878003704 -0.1571408903
H -1.2745409484 -3.4047516062 -1.7239446224
