22
CONF152
C 1.9406218555 -1.2412906538 0.1453438495
C 1.0051324721 -0.0858924426 -0.1667867964
C -0.4578328489 -0.4879794203 -0.0248032728
C -1.4341973607 0.6750105739 -0.2495943491
C -1.3357606733 1.7824783343 0.7865327477
O -1.4887427407 1.2985958295 2.1242156060
O -2.7789915427 0.1750155502 -0.1797159762
O -0.7902098569 -1.5531006091 -0.9323141084
O 1.1970220894 0.3648742577 -1.5151097298
O 3.2766887765 -0.7498884759 -0.0522903070
H 1.7341812302 -2.0829614958 -0.5267899389
H 1.7887478948 -1.5640862497 1.1854133493
H 1.2224959919 0.7309069348 0.5396781503
H -0.6184067736 -0.8896316188 0.9817642061
H -1.2457325500 1.1140987188 -1.2426103226
H -0.3572819005 2.2675635213 0.7333406463
H -2.1003900212 2.5385673435 0.5549548076
H -2.3280667003 0.8196359037 2.1517303316
H -2.7741159612 -0.6774997695 -0.6397612880
H -0.4644644750 -1.2837474656 -1.8046427372
H 2.1525817012 0.3553326041 -1.6703519462
H 3.8567221870 -1.5060011644 -0.1982029113
