32
CONF11
C -3.6880088564 -0.6803686325 0.1786410091
C -3.6954186873 0.6557843694 -0.1026967976
C -2.4973026206 1.3787314503 -0.3038874988
C -1.2650659128 0.6882763461 -0.1722428036
C -1.2573370779 -0.7125397949 0.1225730696
C -2.4819044187 -1.4103952701 0.2832421892
N -2.5639521279 -2.7557416453 0.5018045891
C 0.0075859618 -1.4200522553 0.2946309634
O 0.0142714724 -2.6562192914 0.5511466891
C 1.2646338036 -0.6891303143 0.1687543976
C 2.4968129112 -1.3780777721 0.3071115055
C 3.6952089272 -0.6539560699 0.1118883539
C 3.6879160482 0.6813400162 -0.1732714255
C 2.4815017883 1.4097306004 -0.2865629424
C 1.2568008270 0.7111640401 -0.1288249992
C -0.0079409852 1.4180475710 -0.3035391044
O -0.0145793941 2.6534078859 -0.5645093744
N 2.5628769577 2.7535484982 -0.5110630953
N 2.5930992968 -2.6961377536 0.6508289259
N -2.5936099154 2.6970658989 -0.6457583405
H -4.6290310667 -1.2074222142 0.3125654729
H -4.6422318067 1.1822206119 -0.1904344157
H -3.4353290912 -3.1217866396 0.8439020625
H -1.6906182574 -3.2226405463 0.7172951291
H 4.6421485626 -1.1790149660 0.2062367857
H 4.6290614975 1.2089765709 -0.3040110452
H 1.6905756030 3.2212566815 -0.7281792160
H 3.4375362640 3.1227215062 -0.8407318481
H 3.4708466867 -3.1585254960 0.4893296580
H 1.7262700700 -3.2209744353 0.6351293686
H -1.7251784785 3.2195800076 -0.6392887862
H -3.4696379865 3.1611310473 -0.4800786614
