43
CONF25
C 3.6891851484 -3.0836929340 -2.5875296732
O 4.3670832026 -2.5925171310 -1.4386445241
C 3.8648605763 -1.4699540338 -0.8435711936
C 2.7314885960 -0.7942991374 -1.2899778675
C 2.3632564463 0.3293348017 -0.5507693708
C 3.0771307718 0.7836105804 0.5829189196
C 4.2132396232 0.0854623698 1.0005369511
C 4.5929719236 -1.0326463446 0.2852599254
N 2.4795301021 1.9189148846 1.1111365590
C 1.4508637553 2.1150359659 0.3354827485
N 1.3254498270 1.2214393806 -0.6953343668
S 0.2007785934 3.4052360000 0.4950321721
O -0.6547963732 3.2358482666 -0.7548365088
C -0.7315318439 2.5733684059 1.9347459196
C -1.2862706390 1.2642699826 1.4944283035
N -0.4883604493 0.2088796413 1.7052868646
C -0.8830909309 -0.9801554252 1.2564997457
C -2.0631292361 -1.1959295471 0.5467689261
C -2.4621076612 -2.5547746958 0.0563217850
C -2.8760756986 -0.0788411828 0.3358129272
O -4.0645585137 -0.2566478624 -0.3383547682
C -3.9975534941 0.1524310132 -1.7128002453
C -2.5229161377 1.1812877701 0.8288523640
C -3.4459260977 2.3584479495 0.6855981300
H 2.6554242219 -3.3695940356 -2.3497412167
H 3.6864996777 -2.3416551033 -3.3973764528
H 4.2434662230 -3.9668139097 -2.9081604351
H 2.1625333771 -1.1135355802 -2.1534205888
H 4.7746921597 0.4163522624 1.8670159461
H 5.4649077134 -1.6094872415 0.5725760703
H 0.5631666453 1.2321161667 -1.3566164405
H 0.0200084493 2.4553416194 2.7195309828
H -1.4847948557 3.3121295059 2.2174393017
H -0.2169044392 -1.8185057916 1.4613310814
H -1.7099976903 -3.2977859646 0.3322652653
H -2.5804647453 -2.5726155713 -1.0319369786
H -3.4242495800 -2.8556359765 0.4820826372
H -3.2793893770 -0.4666036387 -2.2666637573
H -4.9975788240 0.0116114981 -2.1271471047
H -3.7031024820 1.2053241678 -1.8021566876
H -3.5866685036 2.8558434865 1.6507969752
H -3.0393234506 3.0946365779 -0.0140014744
H -4.4277473120 2.0347694295 0.3370464561
