74
CONF130
C -0.5791487401 -1.0358237274 -0.1047575784
C 0.2557957935 -2.3057998487 -0.2160280505
O -0.6235910796 -3.3523219600 0.2961839748
C -1.5848079421 -2.8198995826 1.1053937462
O -2.3711127552 -3.5069874538 1.7019868060
C -1.4028016014 -1.3159445641 1.1394116208
C -2.6196781012 -0.3900718294 1.2047728945
C -3.6589068546 -0.6793984581 0.1254789578
C -4.5296960878 -1.7560640543 0.2997943898
C -5.4587877980 -2.0877600294 -0.6864839967
O -6.3273004216 -3.1303546721 -0.6136475219
C -6.2086845260 -3.9913380981 0.5182723169
C -5.5397672537 -1.3177538629 -1.8539698978
O -6.4592222255 -1.6380353847 -2.8054949391
C -4.6753845080 -0.2318922332 -2.0107689917
O -4.8574901010 0.4507033834 -3.1911991456
C -4.0338331029 1.5884663029 -3.4203528337
C -3.7341649263 0.0901901336 -1.0365232062
C -2.0992763760 1.0375670113 1.1239185629
C -2.9385274087 2.0567398796 1.6180750733
C -2.5049330808 3.3538422954 1.5175458421
C -1.2829288387 3.6752492140 0.9332622515
O -1.1210242508 5.0379682941 0.9151035950
C -2.1806280058 5.5487456331 1.7415287850
O -3.1551204864 4.5012219483 1.8915080782
C -0.4530976270 2.7082160625 0.4295568755
C -0.8715694619 1.3617646391 0.5283528767
C 0.1027521321 0.3129803655 0.0203745916
O 1.2029554487 0.2361170666 0.9702125103
C 2.4654475921 0.5086737096 0.4595996653
O 2.9448267659 -0.6488911140 -0.2355964389
C 4.2531955552 -0.4056543987 -0.7449327851
C 4.7440971035 -1.6151329115 -1.5231320640
O 6.0959643850 -1.3744936132 -1.9188901492
C 6.9454584649 -1.1352513815 -0.8085180390
C 8.3372069099 -0.8901943582 -1.3260940820
O 6.5319196662 0.0167153887 -0.0757528961
C 5.2062121159 -0.1651485317 0.4207264237
C 4.7982347230 1.0626886533 1.2143560838
O 5.6026958015 1.2252559217 2.3724307545
C 3.3504899592 0.8903203032 1.6534113821
O 2.8958764410 2.1204521956 2.1937741141
H -1.2682298575 -0.9814846809 -0.9588992993
H 0.5281851759 -2.5809108311 -1.2366778389
H 1.1516926859 -2.2664932030 0.4088069183
H -0.7773359316 -1.1221548885 2.0264880809
H -3.1058789120 -0.5248229771 2.1785972749
H -4.4541706158 -2.3493540212 1.2008000612
H -6.4560270942 -3.4624927991 1.4479835338
H -6.9307910986 -4.7921936420 0.3544439545
H -5.1980340455 -4.4111968788 0.5954614226
H -6.3616425314 -0.9919889021 -3.5183247275
H -4.3384742304 1.9908969013 -4.3874248282
H -4.1828636456 2.3482075858 -2.6423847107
H -2.9730798077 1.3081021668 -3.4586457814
H -3.0778045927 0.9420068097 -1.1612038060
H -3.9028386822 1.8146264232 2.0517380129
H -1.7758927945 5.8114544941 2.7306245355
H -2.6444048557 6.4067853455 1.2482233527
H 0.4968940539 2.9687852738 -0.0249654383
H 0.5141066038 0.6286697153 -0.9482092964
H 2.4355556227 1.3593243952 -0.2505153169
H 4.2582524377 0.4763830214 -1.4084773558
H 4.1666242599 -1.7748169555 -2.4372248295
H 4.6711651501 -2.5155741329 -0.8903854744
H 6.8961488365 -2.0095229045 -0.1295806824
H 8.3308799829 -0.0210554804 -1.9882711355
H 8.6832106523 -1.7630002013 -1.8833671010
H 9.0157130306 -0.7026950694 -0.4912749556
H 5.1754178964 -1.0463101180 1.0877599544
H 4.8665089217 1.9515139424 0.5626951063
H 6.5197463745 1.2553777135 2.0728061651
H 3.2994331882 0.0767342557 2.3950897041
H 1.9762878380 1.9875344091 2.4588977189
