40
CONF34
C 5.2429221542 -0.0158365103 1.8194587557
C 4.0969239637 -0.4589548922 0.9428218172
O 3.0870686157 0.5977216067 0.9822969112
P 1.7874850078 0.4949186079 0.0586833474
S 2.0475852396 0.1317429160 -1.8244469282
O 1.0505894211 1.8295994325 0.5110127386
C 0.4107422832 2.7405778878 -0.4377250103
C 1.3762479800 3.8244632195 -0.8556159574
O 1.0130199009 -0.7015804574 0.9060338194
C -0.2330950474 -1.1539447613 0.5824753938
C -0.6320742059 -2.3679448074 1.1341998182
C -1.9094957394 -2.7956469865 0.8038355230
N -2.7024271508 -2.0750440595 -0.0164844036
C -2.2134788064 -0.9284291621 -0.4885549122
N -0.9966535606 -0.4241443639 -0.2085215748
C -3.0838960945 -0.1148216235 -1.4146080575
C -3.4445158394 1.2290047069 -0.7689269520
C -2.3893987023 0.0894832682 -2.7664742863
C -2.4741447057 -4.0787689455 1.3258929971
H 5.6767246647 0.9156815182 1.4464883927
H 6.0186696681 -0.7873246873 1.8141095977
H 4.9100997355 0.1357691486 2.8496579912
H 3.6418702029 -1.3860214805 1.3090465181
H 4.4103350864 -0.5995970164 -0.0971115189
H 0.0445384550 2.1632899152 -1.2912905981
H -0.4431924244 3.1428093835 0.1125618971
H 2.2217900296 3.3983670993 -1.4028016324
H 1.7516888460 4.3684445507 0.0154474793
H 0.8604773414 4.5321205062 -1.5128621079
H 0.0261893565 -2.9355038795 1.7801557745
H -4.0001075696 -0.6946296946 -1.5643875294
H -2.5415719546 1.8225431759 -0.5980382968
H -3.9509267653 1.0858869578 0.1907263961
H -4.1097074610 1.7943486639 -1.4290736944
H -3.0461776121 0.6441863729 -3.4439163423
H -1.4612072337 0.6549650969 -2.6399726702
H -2.1418039402 -0.8686964971 -3.2336572850
H -1.7746299533 -4.5850324594 1.9935120320
H -3.4075649734 -3.8815115823 1.8622517485
H -2.7188994400 -4.7424901891 0.4905058182
