26
CONF18
C -3.5256984781 -0.8354194270 -1.8245390132
O -2.3225776983 -1.0864322105 -1.0353726680
P -2.1771064773 -0.4419211186 0.4147172238
S -3.5934084885 -0.7294936850 1.6989203129
O -1.7777741411 1.0646598942 0.0603988889
C -1.6416002861 2.0594978749 1.1189051047
O -0.7887364308 -1.1470589023 0.9215784480
C 0.4729046675 -0.7714707281 0.5332899095
C 0.8222504987 -0.5714089035 -0.8006163907
C 2.1232459722 -0.2319569313 -1.1339053239
C 3.0631415641 -0.1072258986 -0.1174987566
C 2.7456048806 -0.3075205110 1.2212241513
C 1.4397337514 -0.6347576856 1.5403761815
Cl 0.9910824410 -0.8705809882 3.2056619305
N 4.4443296162 0.2464697507 -0.4605209432
O 4.7052526240 0.4638805578 -1.6402826497
O 5.2672543930 0.3068150706 0.4487113750
H -4.4034536036 -1.1965277790 -1.2833846095
H -3.3884390247 -1.3983845586 -2.7465482503
H -3.6147545294 0.2320891177 -2.0396347008
H -1.3737757133 2.9858031675 0.6124067888
H -2.5910400050 2.1705802108 1.6473790597
H -0.8491376435 1.7641608347 1.8123385473
H 0.0721843921 -0.6885818302 -1.5733354552
H 2.4044551938 -0.0751356746 -2.1669930588
H 3.4960623399 -0.2000792764 1.9934049909
