46
CONF52
C -2.6825487305 1.8712749936 -0.1413611755
C -1.6511619138 0.7912602929 0.1490879992
C -1.6253929892 -0.2514657178 -0.9705037875
O -1.3256310914 -0.0964931397 -2.1310236238
N -2.0232895124 -1.4353333029 -0.3727701909
C -2.3278542073 -1.2693849883 0.9849321597
O -2.7167495428 -2.1101659448 1.7511256187
O -2.1190241643 0.0221646703 1.3078369425
N -2.1535809400 -2.6506983663 -1.0099854662
C -3.2074494616 -2.7687349162 -1.9468961459
C -3.0934874311 -3.7417655278 -2.9454010258
C -4.1377934625 -3.9375364997 -3.8406835425
C -5.2987462885 -3.1692283990 -3.7576246693
C -5.4028522335 -2.2020141553 -2.7616297625
C -4.3675532005 -1.9969882114 -1.8528793927
C -0.2505690009 1.3050560385 0.4132218062
C 0.4984766154 0.8547137009 1.5005704055
C 1.7958078267 1.3108637871 1.7110520077
C 2.3566347055 2.2144182580 0.8123568099
C 1.6245872752 2.6681498719 -0.2836786275
C 0.3276728853 2.2158361558 -0.4775467658
O 3.6126628881 2.7556606554 0.9733313435
C 4.5639151727 2.0482577895 1.6994990220
C 4.9054311948 0.7444192422 1.3500426549
C 5.9165068530 0.1014878798 2.0575329265
C 6.5822069310 0.7573457345 3.0928624139
C 6.2331163431 2.0651711966 3.4208880122
C 5.2168373745 2.7183672595 2.7264575673
H -3.6664883633 1.4166687844 -0.2851433997
H -2.7165641658 2.5698573155 0.6978464140
H -2.4109868616 2.4133480194 -1.0490279052
H -1.2559204763 -2.9856973752 -1.3440009206
H -2.1878403130 -4.3378177995 -3.0162784513
H -4.0380824523 -4.6932743188 -4.6137331620
H -6.1098695436 -3.3220796835 -4.4615510784
H -6.2995548902 -1.5950716634 -2.6831671165
H -4.4714922849 -1.2411813067 -1.0812006849
H 0.0714231920 0.1515309228 2.2057043884
H 2.3593617618 0.9645109110 2.5700413699
H 2.0766747922 3.3731699982 -0.9731318620
H -0.2265777439 2.5712145115 -1.3388938020
H 4.3867651253 0.2457125653 0.5374852190
H 6.1900390764 -0.9146825482 1.7912686914
H 7.3717456048 0.2510970137 3.6384367207
H 6.7485086937 2.5823852590 4.2240506204
H 4.9286847098 3.7356713499 2.9700817166
