46
CONF76
C 5.9076859043 3.0414301224 2.6340496630
C 5.0627301349 1.8826296061 2.1629108237
O 4.0421906573 2.4400161604 1.2811095583
C 3.1630272942 1.6028845401 0.7311287627
N 3.2448373823 0.3020412378 0.9955098346
C 2.3083962785 -0.4460068149 0.3761716407
N 1.3608767772 0.0467125806 -0.4580742405
C 1.3915382087 1.3662787617 -0.6103125864
N 2.2639376003 2.2153759939 -0.0527822391
N 0.4386312965 1.9716362980 -1.4151199490
C -0.6533972619 1.4431259945 -2.0993994641
O -1.4478519213 2.1809338106 -2.6619656393
N -0.7342107920 0.0640766352 -2.1017301650
S -2.1218276986 -0.7508476103 -2.6426271944
O -2.3764319465 -0.3728024144 -4.0335929446
O -1.8620409855 -2.1551042797 -2.2985114429
C -3.4892819699 -0.1532576753 -1.6387829615
C -4.3804151581 0.7336479471 -2.2308112121
C -5.5085210096 1.1397223541 -1.5241648242
C -5.7481642911 0.6389765069 -0.2495235041
C -4.8598287415 -0.2626475201 0.3293110770
C -3.7087288397 -0.6602103767 -0.3511851525
C -2.7259564597 -1.5304153254 0.3663600882
O -1.5646811380 -1.2304427008 0.5535750450
O -3.3102232144 -2.6406689552 0.8271711021
C -2.4502588668 -3.5197162660 1.6021617267
N 2.3025119964 -1.7661290391 0.5911984260
C 3.2563693688 -2.4465265757 1.4551458212
H 5.3035434958 3.7681812053 3.1841115121
H 6.6883835499 2.6651561619 3.3012744387
H 6.3874937959 3.5445599518 1.7900773056
H 5.6483857420 1.1492994451 1.6003668186
H 4.5654920803 1.3724247846 2.9933898524
H 0.4966162700 2.9806749014 -1.4643821865
H -0.1241688147 -0.4337106460 -1.4294545097
H -4.1961154844 1.0907710530 -3.2365329379
H -6.2023253848 1.8377329725 -1.9798469804
H -6.6326182323 0.9453921686 0.2988478664
H -5.0461259063 -0.6528673494 1.3240323192
H -1.6109638527 -3.8523641079 0.9873681202
H -3.0816088304 -4.3605297148 1.8840942374
H -2.0820176868 -2.9946909154 2.4862569974
H 1.5924556266 -2.3025787756 0.1174333852
H 4.2804714504 -2.3243269277 1.0873061396
H 3.2062703513 -2.0598578912 2.4779340181
H 3.0059189077 -3.5079797142 1.4634462664
