22
CONF3
C 2.4847989525 -0.3675652238 0.6147232328
C 1.1664257403 0.3789220361 0.7635233672
C -0.0254799650 -0.4028460627 0.1892695860
C -1.3710573554 0.2713065732 0.4716828906
C -2.5563254680 -0.5186489566 -0.0856263387
O -2.6670653788 -0.3776502573 -1.5079839717
O -1.4136966106 1.6217021487 -0.0305168711
O 0.0803653429 -0.6072933678 -1.2272533212
O 1.3461139188 1.6561417865 0.1441777611
O 2.8328707669 -0.5886507962 -0.7664740490
H 2.4086453352 -1.3545851855 1.0798632833
H 3.2799519764 0.1980861724 1.1181073526
H 0.9784023731 0.4895394460 1.8462969619
H -0.0454607632 -1.3731329372 0.7153362433
H -1.4811404206 0.3371690562 1.5610437574
H -2.4655951571 -1.5737355084 0.2095347155
H -3.4852534600 -0.1185606352 0.3316562675
H -1.8337926016 -0.7076237908 -1.8795819751
H -1.6946987309 1.5523621871 -0.9570252323
H 1.0164225487 -0.7991590441 -1.4137581863
H 0.4507180825 2.0012147917 -0.0231182503
H 2.9948516836 0.2830077688 -1.1538772288
