63
CONF266
C 6.1764178387 -2.4670470981 -4.6193833095
C 6.8160179438 -2.2365806769 -3.2528902128
N 5.8277116825 -1.8437920602 -2.2422412420
C 5.3064039684 -0.4765963839 -2.2568811484
C 4.9542048106 -0.0483599997 -0.8539203700
N 3.9607463078 -0.9781632091 -0.2810208398
C 4.0543882897 -2.3163992578 -0.5758019156
O 3.2895021799 -3.1789795240 -0.1610366492
C 5.2278675558 -2.7812623034 -1.4841227143
O 5.5225695467 -3.9734478367 -1.4703416912
C 3.0414519498 -0.4022537798 0.6607941626
O 3.1262409840 0.7896588013 0.9396796605
N 2.1251183956 -1.2289447980 1.1974683572
C 1.1285768530 -0.6855900405 2.0978671587
C 0.2023875546 -1.7787298689 2.5886865269
C 0.0002634575 -1.9604317521 3.9569131303
C -0.8746073518 -2.9439918110 4.4118036318
C -1.5498777750 -3.7527593581 3.5014801489
C -1.3512074196 -3.5729254481 2.1336210161
C -0.4826015821 -2.5869989699 1.6765566005
C 0.2796644041 0.3827648440 1.3716544909
O 0.0255278876 0.3235794591 0.1740445936
N -0.2131767614 1.3512084027 2.1813540207
C -1.0881893486 2.3663397909 1.6853767193
C -2.4754253461 1.9974324239 1.0689272161
N -2.0797873209 2.7319214740 -0.1427433732
C -0.8059138874 3.0304447965 0.3142040698
O 0.1096863946 3.6409082627 -0.1843631124
C -3.0659283065 3.5507512066 -0.8252109550
C -4.4403658695 3.2139029173 -0.1334762251
S -3.9977535523 2.8323897671 1.6503373406
C -5.0338742392 1.9722726554 -0.8026766623
C -5.4351005946 4.3672136593 -0.1688877623
C -2.7503565948 5.0421032249 -0.7873546588
O -2.2900551953 5.4563949620 0.4024915855
O -2.9495621611 5.7747496307 -1.7312874817
H 5.6887922494 -1.5594377517 -4.9874297303
H 5.4324246765 -3.2672461771 -4.5653521334
H 6.9457858356 -2.7570812511 -5.3407102160
H 7.3045467713 -3.1462217677 -2.8976845106
H 7.5656757363 -1.4400083291 -3.3043019614
H 4.4334216200 -0.3950494460 -2.9192997804
H 6.0883759836 0.1842434706 -2.6403291923
H 5.8466313436 -0.0216857699 -0.2166757036
H 4.5092164354 0.9460766756 -0.8701637794
H 2.1038265376 -2.1996872708 0.9028378653
H 1.6224775991 -0.2168500915 2.9576716874
H 0.5322641609 -1.3338962801 4.6672369939
H -1.0230423373 -3.0812724633 5.4782580687
H -2.2286933889 -4.5219098152 3.8560054807
H -1.8768946030 -4.1996356224 1.4201303658
H -0.3407532943 -2.4404036560 0.6096478933
H -1.1982620199 3.1545821246 2.4355947901
H -2.6283037702 0.9262628050 0.9089377416
H -3.1532759544 3.2897787096 -1.8853866183
H -5.2958678725 2.2091934746 -1.8400698909
H -5.9394830028 1.6635365355 -0.2752032915
H -4.3294918407 1.1356927234 -0.8096277695
H -5.6433560162 4.6381110638 -1.2092551213
H -5.0632409683 5.2496523911 0.3587793604
H -6.3754735110 4.0565552478 0.2943821816
H 0.0426350510 1.3646938840 3.1573370395
H -2.1337366179 6.4157949508 0.3523499063
