39
CONF8
C 4.7425973486 0.1454808954 -2.7659557998
C 3.4755482032 0.6216107042 -2.0589295717
C 3.5935176177 0.5173372084 -0.5385223356
C 2.3568380986 0.9896860090 0.1904783773
C 2.3938792778 0.8621464830 1.7029730306
O 1.0056119760 0.7146001126 2.0547153350
C 0.3072655867 0.2254806908 0.9121725137
C -0.2555295283 -1.1762459041 1.2283769841
N 0.8083920526 -2.0948967644 1.5819478402
C 1.6378797621 -2.7655419343 0.7556628305
N 2.5575141822 -3.4167636459 1.4562511402
C 2.2379256827 -3.0917310934 2.7417490912
N 1.1891263612 -2.2899056633 2.8701975402
O 1.2497518056 0.1133606404 -0.1332485433
C -0.8288222913 1.1918492520 0.5634440794
C -1.5506930992 1.1392946214 -0.6346831162
Cl -1.2201234106 -0.0622253738 -1.8776654981
C -2.5764345963 2.0354358818 -0.9201122038
C -2.8956895778 2.9990942280 0.0256983333
Cl -4.1879474861 4.1321314498 -0.3258077595
C -2.2198852192 3.0825603276 1.2343963389
C -1.1975876515 2.1765024345 1.4840823701
H 4.6453470507 0.2261967464 -3.8528535640
H 5.6094160077 0.7410728442 -2.4589235933
H 4.9538252744 -0.9017965439 -2.5233292205
H 2.6178265142 0.0274097770 -2.3956383264
H 3.2639731400 1.6631834816 -2.3334067095
H 4.4401711217 1.1232455448 -0.1890887232
H 3.7953029355 -0.5214921175 -0.2443657717
H 2.0941184037 2.0186568376 -0.1019699110
H 2.7837944235 1.7500761599 2.2064833739
H 2.9586937343 -0.0286863260 2.0129126582
H -0.9459340993 -1.0999984632 2.0709380281
H -0.7877943012 -1.5709711441 0.3603729545
H 2.7827502703 -3.4572581017 3.6031371528
H -3.1113457035 1.9773172451 -1.8600024747
H -2.4806823849 3.8378310789 1.9662289177
H -0.6557484913 2.2348589610 2.4198132837
H 1.5266873120 -2.7532737047 -0.3201345874
