47
CONF1
C 4.0304142096 -2.4914138995 -3.5674580480
C 3.9559461380 -1.3001971623 -2.6974837754
C 2.9626113455 -0.7544283105 -1.9270536922
C 3.5802690776 0.4033090305 -1.3528087689
N 4.8235052533 0.5438377968 -1.7436216219
O 5.0593226608 -0.5358660942 -2.6072593003
C 2.9925160889 1.3713161397 -0.4094883614
C 2.6821168607 2.6702488916 -0.8168465162
C 2.0385792692 3.5846526936 0.0008891749
C 1.6851465443 3.1885946803 1.2848145802
C 1.9816732019 1.9103427430 1.7477265046
C 2.6360973324 1.0245000935 0.9024700023
Cl 3.0088767415 -0.5796793262 1.4835376521
F 2.9895551442 3.0326391940 -2.0720011249
C 1.6060225674 -1.3074317379 -1.7398031345
O 1.3316571410 -2.4820140050 -1.9527662635
N 0.6715281234 -0.3969395489 -1.3126615010
C -0.6197299183 -0.7909366311 -0.8441501445
C -0.8455256479 -0.8266710505 0.7102942007
N -1.7334409488 0.3298072751 0.5612709587
C -1.6874658126 0.3332237568 -0.8355362362
O -2.2751096086 0.9878145855 -1.6548488960
C -2.8911385567 0.3927722973 1.4157623474
C -3.4217648754 -1.0853078573 1.5467007318
S -1.8814191707 -2.1518134295 1.4629533900
C -4.3378586055 -1.3872910129 0.3590718750
C -4.1403727759 -1.3695212799 2.8630082567
C -2.5054099429 1.0074951206 2.7514258874
O -1.4079446687 0.9650557965 3.2487444164
O -3.5689689246 1.6191743843 3.3272939787
H 4.3071939987 -2.2018623838 -4.5860575279
H 4.7949674737 -3.1810699169 -3.1952266725
H 3.0647890342 -2.9959976845 -3.5661433631
H 1.8161973625 4.5746115004 -0.3790478879
H 1.1685228377 3.8828596494 1.9382593381
H 1.7001831539 1.5993523593 2.7461104271
H 0.9689219620 0.5498268090 -1.1285775498
H -0.9443756661 -1.7044692782 -1.3480205396
H 0.0433777763 -0.6552200159 1.3217089616
H -3.6620449059 1.0115273127 0.9441030488
H -4.6003860720 -2.4481201938 0.3487440206
H -3.8591779499 -1.1498712977 -0.5944707516
H -5.2616501328 -0.8010698514 0.4373968299
H -3.4895989141 -1.2016568970 3.7249128758
H -5.0252422665 -0.7312157357 2.9533084269
H -4.4715721543 -2.4113982124 2.8871651375
H -3.2697943043 1.9585002004 4.1864578661
