47
CONF36
C 5.3473905439 -1.1714027699 -1.5469292967
C 4.0433897790 -0.7874498485 -0.9148854711
C 3.1697470028 -1.7852661728 -0.3909452282
C 3.5519253081 -3.2299374863 -0.4788130692
C 1.9617297934 -1.4331174431 0.1922376140
C 1.5695651997 -0.0931569352 0.2905991139
N 0.3844495280 0.3128896059 0.8854572739
C -0.5124227962 -0.6734710351 1.5314052521
C -1.5890154854 -1.2664467632 0.6165450359
O -0.9363685965 -1.8680534362 -0.4961556579
C -2.6751287614 -0.2652607137 0.1768864645
O -3.2610901673 0.3396756902 1.3288771665
C -3.8109873925 -0.9529221523 -0.5971750143
O -3.3087192101 -1.5193080417 -1.8251310392
C -4.9726873958 -0.0036927761 -0.9076902450
O -5.7784813643 0.2900292695 0.2299130967
C 0.0651479921 1.6458094561 0.9594173319
N -1.0682129920 2.0065549775 1.5391055201
C -1.3996634316 3.3320122486 1.6216156070
O -2.4509160532 3.7152593441 2.1275586002
N -0.5039620405 4.2811796947 1.1052291041
C 0.6955012722 4.0243617761 0.4848722105
O 1.4167406648 4.9112023109 0.0524269290
C 1.0135519574 2.5753334550 0.4010634722
N 2.1378671654 2.2264863519 -0.1630831905
C 2.4389031214 0.9087867849 -0.2300814345
C 3.6595019128 0.5300423664 -0.8266967595
H 5.1891779110 -1.8358396627 -2.4036943923
H 5.9838184792 -1.7126343473 -0.8381275616
H 5.8862747441 -0.2865602365 -1.8903487016
H 4.4999600856 -3.4123520110 0.0401087982
H 3.7044282028 -3.5282788643 -1.5223941591
H 2.7849327072 -3.8705515185 -0.0408806863
H 1.3144317021 -2.2237795011 0.5416258637
H 0.1116974911 -1.4808993462 1.9140670966
H -0.9806059272 -0.1884609382 2.3883194513
H -2.0923539711 -2.0289038339 1.2378717811
H -1.6240895862 -2.0211784555 -1.1699515527
H -2.2275486615 0.4996500821 -0.4821708490
H -2.6127054255 1.0246248882 1.6160612161
H -4.1893698565 -1.8002682491 -0.0116059478
H -3.0909237231 -0.7897128500 -2.4241502291
H -5.6201203050 -0.4950738848 -1.6414612466
H -4.5730601116 0.9179524286 -1.3659769021
H -5.1594584047 0.6052251389 0.9081823040
H -0.7828799656 5.2520036464 1.1904657194
H 4.2906396850 1.3249002174 -1.2115627061
