40
CONF6
C 0.4068788576 2.8600384431 -1.9283148076
N 1.1139577657 2.2359217576 -0.8097530874
C 2.1238802857 3.1548659727 -0.2840731138
C 1.7156450917 0.9705885868 -1.2436279454
C 2.2581611178 0.1229058081 -0.0940684773
C 1.2363684525 -0.0928005458 1.0235763984
N -0.0347352199 -0.6170648361 0.5116385106
C -0.0487950859 -1.8416471296 -0.1831003725
C 0.9377743582 -2.8156147500 0.0123124053
C 0.9135562485 -4.0023916408 -0.7151694592
C -0.1100507741 -4.2573746455 -1.6228257001
C -1.1200935899 -3.3146029473 -1.7988018789
C -1.0766813297 -2.1115639572 -1.1011898948
S -2.2951676481 -0.8488946572 -1.4061928866
C -2.4136679504 -0.2092367129 0.2486477203
C -1.2421254301 -0.1268503040 1.0229495236
C -1.3244375941 0.4452913288 2.2995738910
C -2.5393058473 0.9560002576 2.7380182208
C -3.6993766256 0.8841892836 1.9807806632
C -3.6248605887 0.2704543506 0.7324569850
Cl -2.6060887501 1.6987810969 4.3351521954
H 1.0793995789 3.0999948392 -2.7750157000
H -0.0655279020 3.7899903569 -1.5947669555
H -0.3762214871 2.1865065428 -2.2933199258
H 2.9110028772 3.3846216786 -1.0290047875
H 1.6450966981 4.0948042171 0.0089178493
H 2.6059262283 2.7336474590 0.6033449252
H 2.5312241317 1.1443920004 -1.9747360057
H 0.9370900393 0.3990482904 -1.7645116342
H 2.5950261179 -0.8305757324 -0.5128903711
H 3.1416361376 0.5856033240 0.3599373411
H 1.0140905755 0.8797731722 1.4656564398
H 1.6559580601 -0.7282013948 1.8170330211
H 1.7307198251 -2.6471435101 0.7314594830
H 1.6985031230 -4.7352101024 -0.5577533178
H -0.1316614636 -5.1847755044 -2.1851558901
H -1.9334113598 -3.4998218471 -2.4936546232
H -0.4577350060 0.4877589532 2.9466571894
H -4.6356337669 1.2860585616 2.3483056865
H -4.5163186326 0.1925341216 0.1182135060
