53
CONF33
C -1.4090556096 4.4337144439 -1.4773856485
C -1.2507171014 4.3277086153 0.0260061848
O -0.9980509907 2.9522637237 0.4131177909
C 0.2854660180 2.5189434166 0.3583100176
O 1.2238147916 3.2598909116 0.0818765221
C 0.3731265135 1.0998074302 0.6731229164
C 1.5792634021 0.4656440536 0.6130768000
N 1.6839271463 -0.8448276815 0.9891074754
C 0.6689383516 -1.5507792529 1.5898013240
C -0.5772677685 -0.9974566915 1.6731403539
C -0.9026018334 0.3244628598 0.9834840185
C -1.6969567144 0.0816962340 -0.3010226117
C -1.0959570088 -0.6739067077 -1.3161173097
C -1.7319185743 -0.9384214266 -2.5212699993
C -3.0135855652 -0.4414911718 -2.7456266303
C -3.6420415401 0.3108686955 -1.7611782870
C -2.9834665736 0.5621981983 -0.5588168296
Cl -3.8682538883 1.5281011843 0.6258768842
C -1.6448070896 -1.7052068448 2.3713965560
O -1.5716044912 -2.7931621051 2.9298265705
O -2.8037235250 -0.9956488621 2.3382875230
C -3.9305057800 -1.6106190676 2.9931009920
C 1.0883964994 -2.8870360650 2.1239059156
C 2.8974368819 1.0996840385 0.1916419650
O 3.9270408233 0.1326698291 0.0568239966
C 3.9377195095 -0.5172837066 -1.2262203728
C 4.6577892958 -1.8401627862 -1.0706253779
N 3.8731592536 -2.7469451935 -0.2133282841
H -0.4825616752 4.1563246744 -1.9873861744
H -1.6578976624 5.4647616488 -1.7476032872
H -2.2151796141 3.7804372207 -1.8251258522
H -2.1780885624 4.5864773891 0.5425377368
H -0.4399412067 4.9615709716 0.3949080224
H 2.5883723405 -1.3055308775 0.8624836638
H -1.5233483357 0.9236307710 1.6499178152
H -0.0953017539 -1.0605517703 -1.1434924220
H -1.2304781594 -1.5279733426 -3.2818963375
H -3.5279045069 -0.6357139336 -3.6811887669
H -4.6398638982 0.7044967003 -1.9201299706
H -3.7216335630 -1.7632759070 4.0553771457
H -4.7562307861 -0.9109541492 2.8633150307
H -4.1666909173 -2.5711607386 2.5272527770
H 2.1317859185 -3.0844478264 1.8692399047
H 0.9724784232 -2.9182941317 3.2100649000
H 0.4583840567 -3.6823675107 1.7202930776
H 2.7597224479 1.6711917779 -0.7322952071
H 3.2159748506 1.8065153344 0.9647143883
H 2.9073613534 -0.6860440621 -1.5777159901
H 4.4492102010 0.1231529998 -1.9591294493
H 4.8589547760 -2.2452111886 -2.0746960725
H 5.6267104400 -1.6562108684 -0.5926094009
H 4.4569221455 -3.5102610877 0.1106422254
H 3.1336791659 -3.1752665725 -0.7626021338
