82
CONF50
C -5.3686191566 0.8892866331 -3.6834210885
C -4.4947363013 0.0108676978 -2.8281395283
C -4.1089023807 -1.1966898981 -3.2547578210
C -4.0881745310 0.6225014929 -1.5095720479
C -5.2728382526 1.1184060154 -0.6500619184
C -4.6328591990 1.3284774907 0.7218148055
C -3.6978738609 0.1132494773 0.9049682807
C -3.2458611417 -0.2534229297 -0.5509907692
C -1.7222004923 -0.1501553159 -0.7757020335
C -1.2103970392 1.3165397771 -0.8042622466
C 0.0967244716 1.5310317580 -0.0455846085
C 1.1176253102 0.4664118222 -0.4411365850
C 2.5947748036 0.8726150168 -0.0214954858
C 2.6660287280 1.5810149874 1.3498883080
C 4.0986569741 1.9444967582 1.7573677366
C 5.0505422733 0.7545327642 1.7932156864
C 5.0094756240 -0.0762943232 0.4833780075
C 3.5366958161 -0.3705066454 0.0223384045
C 2.9313806448 -1.5352354089 0.8616665987
C 1.4291649852 -1.4660420123 1.1338633870
C 0.6200309258 -0.9712831295 -0.0650556430
C -0.9488813641 -1.0318487103 0.2440365103
C -1.3341367264 -0.5958616004 1.7025374847
C -2.4974308341 0.4079408109 1.8111417113
C -1.4078924089 -2.4982466722 0.0742372380
C 0.9443943106 -1.8841671252 -1.2701878961
C 5.8222588756 0.6987441324 -0.5787742664
C 5.7846480494 -1.3970467939 0.6656097735
O 4.7082096704 0.0038485829 2.9790348100
C 3.0149875593 1.8702402555 -1.1274948626
C -4.5249359017 -1.0620337753 1.4660261134
O -5.1200544263 -0.8038718814 2.7465833520
H -6.3453611489 1.0469664900 -3.2110588248
H -5.5307123326 0.4530554224 -4.6721702401
H -4.9161604086 1.8813672874 -3.8049388096
H -3.4685009211 -1.8470328879 -2.6680173462
H -4.4262443816 -1.5666285396 -4.2262458060
H -3.5094944721 1.5223979568 -1.7656707456
H -5.7316567743 2.0287362897 -1.0469870759
H -6.0526362244 0.3473657728 -0.6052717764
H -4.0408751072 2.2526095051 0.7092706106
H -5.3616764657 1.4125873552 1.5340424556
H -3.5334752235 -1.2962633803 -0.7248731447
H -1.5285139221 -0.5818866801 -1.7657424269
H -1.0478716099 1.6124222784 -1.8489733978
H -1.9684980681 2.0039327646 -0.4159027985
H -0.0704996127 1.5165501592 1.0351174317
H 0.4708161498 2.5339525895 -0.2779474531
H 1.1387205100 0.4833223129 -1.5412271799
H 2.2247087653 0.9487568509 2.1268800331
H 2.0744671059 2.5028037944 1.3257499539
H 4.5063737535 2.6993375524 1.0781805665
H 4.0938387311 2.4045176963 2.7523934786
H 6.0823447763 1.1277301291 1.9104341194
H 3.6296300947 -0.7214032811 -1.0148509140
H 3.1696543254 -2.4781212415 0.3567469298
H 3.4224229471 -1.5741622793 1.8337935104
H 1.2619603433 -0.8078088519 1.9886454247
H 1.0829695153 -2.4596129026 1.4455958231
H -1.5785595922 -1.4968358842 2.2791499917
H -0.4852784135 -0.1476620942 2.2224741232
H -2.8222461440 0.4593900540 2.8592086855
H -2.1310919955 1.4122028748 1.5819582045
H -2.4120051405 -2.6496870159 0.4705162514
H -0.7481374045 -3.1782179230 0.6225494226
H -1.4214053821 -2.8053954956 -0.9753092817
H 1.9638884087 -1.7016278212 -1.6153040277
H 0.2798089352 -1.6788009428 -2.1159011814
H 0.8669996661 -2.9460442219 -1.0208130456
H 6.8897126555 0.6266647521 -0.3433499332
H 5.5773753211 1.7579975661 -0.6370767244
H 5.6665594851 0.2608739824 -1.5701418978
H 5.8415975126 -1.9269263430 -0.2925047880
H 5.3403855882 -2.0808133846 1.3908072679
H 6.8107640499 -1.1808367607 0.9863518970
H 5.3571831082 -0.7028645195 3.0797414046
H 3.8342804817 2.5277886445 -0.8414014971
H 2.1736665440 2.5203392573 -1.3871964965
H 3.3117224620 1.3351352103 -2.0358706877
H -5.3600902375 -1.2740120545 0.7892972932
H -3.9073759504 -1.9670372652 1.5227326948
H -4.4232910916 -0.8466217328 3.4120393449
