44
CONF1
C 2.3318914092 2.6649706263 0.5641591816
C 2.8165258070 1.2635302358 0.4222526278
N 1.9692478004 0.2794130585 0.7498865859
C 2.4353905683 -0.9651688053 0.5591809039
N 3.6454952234 -1.2806376909 0.0949186186
C 4.4037913123 -0.2161729655 -0.1843485079
N 4.0534250357 1.0686612234 -0.0481139434
O 5.6138337291 -0.5238510204 -0.6377251469
C 6.5108995989 0.5676575106 -0.9666797508
N 1.6221855617 -2.0389814402 0.8537450927
C 0.3023101220 -2.0934698593 1.3143730686
O -0.2734961517 -3.1657662543 1.4011996353
N -0.2491492886 -0.8808832461 1.6583757310
S -1.9125184373 -0.6950261486 1.9883670439
O -2.2609068373 -1.5155934272 3.1505794010
O -2.0749880828 0.7645517629 2.0564479366
C -2.7529745937 -1.3515530539 0.5428335183
C -3.5199042340 -2.4978200938 0.7471250258
C -4.2170646352 -3.0518026887 -0.3178691219
C -4.1286400028 -2.4632317314 -1.5758956641
C -3.3506907321 -1.3267622513 -1.7636561932
C -2.6433602811 -0.7338694872 -0.7131768187
C -1.8608832596 0.5228527625 -1.0017439923
C -2.7719348510 1.7579998494 -0.9316125095
C -2.0061552804 3.0318911850 -1.1556588710
F -1.0493797744 3.2319146001 -0.2102874276
F -1.3686268474 3.0523299844 -2.3567787630
F -2.8170540179 4.1195969239 -1.1262106215
H 1.5649818187 2.7333613045 1.3371306184
H 3.1626394122 3.3391595117 0.7773576364
H 1.8805952295 2.9756810084 -0.3863617304
H 6.7047017253 1.1780282466 -0.0823151329
H 7.4238320648 0.0802913166 -1.3059633084
H 6.0833991103 1.1824814571 -1.7613611892
H 2.0206895189 -2.9496984331 0.6620565892
H 0.3049233821 -0.0334988581 1.4445286674
H -3.5615424673 -2.9483642996 1.7312114513
H -4.8165897819 -3.9423686040 -0.1640907484
H -4.6622967296 -2.8932498934 -2.4172761782
H -3.2823213183 -0.8774255458 -2.7504333354
H -1.4445223462 0.4402245068 -2.0100346672
H -1.0239391687 0.6511571463 -0.3147298898
H -3.5547500721 1.7064124188 -1.6945507242
H -3.2470702650 1.8330291423 0.0500886831
