41
CONF6
C -5.7398002288 0.8096458796 0.8769342360
C -4.3643197930 0.2227726452 0.8504893198
C -4.0858684405 -0.9264210964 0.1028142379
C -2.7946001112 -1.4308442365 0.1303298071
N -1.8409710718 -0.8239351901 0.8620132109
C -2.1961911828 0.2715554338 1.5295475675
N -3.4133343291 0.8327901147 1.5688754932
N -1.2326303340 0.9445080777 2.2772358372
C 0.1278329479 0.7109159213 2.4350224256
O 0.8290307952 1.4925522209 3.0621652064
N 0.5901913523 -0.4546367364 1.8534086001
S 2.2446791163 -0.7779965515 1.6843366033
O 2.2828281232 -1.9645251221 0.8175825414
O 2.8564168005 -0.8232564948 3.0140044841
C 2.9565527362 0.6093535298 0.7874259265
C 3.7310741117 1.5124523232 1.5055509668
C 4.3882243496 2.5354130159 0.8285939539
C 4.2864606758 2.6317190908 -0.5547856611
C 3.5223738227 1.7129232769 -1.2685329474
C 2.8342729069 0.6970979546 -0.6050457793
C 1.9297426824 -0.1871695669 -1.4039970684
O 0.7355777632 -0.2852229502 -1.2091978192
O 2.5947037084 -0.7954188982 -2.3906355723
C 1.7859436838 -1.6357837148 -3.2586916252
C -2.3783130258 -2.6477792128 -0.6282507428
H -6.0954034622 0.9888177578 -0.1426006760
H -6.4374548319 0.1036482689 1.3405281484
H -5.7520011771 1.7448085527 1.4375742922
H -4.8607826009 -1.4093537042 -0.4812400796
H -1.5575959410 1.7832798028 2.7401180776
H -0.0623367158 -0.9261332793 1.1966665347
H 3.8252934675 1.4064753989 2.5792723276
H 4.9877270615 3.2468332161 1.3860600064
H 4.8068333771 3.4217959498 -1.0857157262
H 3.4416937896 1.7880493584 -2.3476203783
H 1.0196157145 -1.0332717695 -3.7511332964
H 1.3188589323 -2.4300089524 -2.6720039874
H 2.4828601002 -2.0490044894 -3.9856990801
H -2.0036038429 -3.4082651220 0.0648327375
H -1.5557691435 -2.3963973804 -1.3061651268
H -3.2078117016 -3.0619838194 -1.2029084713
