47
CONF40
C 5.3456410291 -1.1666830101 -1.6027523567
C 4.0591383386 -0.7801492927 -0.9371831920
C 3.1719628971 -1.7788501077 -0.4384430727
C 3.5216901451 -3.2268294199 -0.5877929744
C 1.9797299039 -1.4243825566 0.1747255673
C 1.6163844829 -0.0812483887 0.3286843876
N 0.4474491132 0.3261915015 0.9534748806
C -0.4709197624 -0.6658911812 1.5593470031
C -1.5610794779 -1.1914147050 0.6194872602
O -0.9159412043 -1.7281238188 -0.5300935887
C -2.6411722458 -0.1495890666 0.2535156031
O -3.2083145040 0.3996318363 1.4361546469
C -3.8051826125 -0.7828169159 -0.5110376533
O -3.2870554359 -1.3438850174 -1.7281382146
C -4.8909579870 0.2317068895 -0.8516925317
O -5.8801829024 -0.3757802089 -1.6985823144
C 0.1609786385 1.6619223072 1.0891894804
N -0.9517271953 2.0224320747 1.7063442763
C -1.2518674638 3.3495993078 1.8475686327
O -2.2809388700 3.7366842356 2.3949687364
N -0.3491137544 4.2999024857 1.3434816809
C 0.8322988131 4.0427708905 0.6901211421
O 1.5622724366 4.9306267525 0.2740226698
C 1.1202165648 2.5919016028 0.5497601041
N 2.2277614595 2.2417925287 -0.0456098595
C 2.5003108538 0.9214612390 -0.1653390240
C 3.7045308548 0.5406690693 -0.7932012505
H 5.9821135944 -1.7444833144 -0.9233976895
H 5.8966942707 -0.2808267882 -1.9235255723
H 5.1616373940 -1.7975573529 -2.4795041617
H 3.6406995302 -3.4895609005 -1.6453147838
H 2.7524771254 -3.8675188850 -0.1538621035
H 4.4786300140 -3.4475870478 -0.1012958267
H 1.3211793618 -2.2146159446 0.5035303604
H 0.1349602156 -1.5031289287 1.9053887784
H -0.9268275725 -0.2075017841 2.4369404803
H -2.0678015936 -1.9857555913 1.1967788193
H -1.6121186686 -1.8869779834 -1.1914719842
H -2.1904826408 0.6334889573 -0.3800848328
H -2.5471260759 1.0498302960 1.7591944719
H -4.2391108311 -1.5828304734 0.1133686175
H -4.0503887377 -1.6367680048 -2.2468669532
H -4.4538956941 1.0530869945 -1.4303486391
H -5.3397810902 0.6355833221 0.0610687339
H -6.4374267019 -0.9371882050 -1.1444816048
H -0.6063281176 5.2722181020 1.4697800120
H 4.3469846743 1.3364449081 -1.1568754627
