55
CONF26
C -6.1406925193 -3.0108912281 1.4842716999
C -5.1575975227 -3.7349016438 0.5896691408
O -4.5931335191 -2.8304246359 -0.4049008418
C -3.5502824071 -2.0714055819 0.0083300040
O -3.0262625915 -2.1427063868 1.1066182839
N -3.1842299894 -1.2291704954 -1.0090038567
C -2.1262734101 -0.3133422484 -1.0225920858
C -1.4253918759 0.0670368782 0.1249043049
C -0.3619374359 0.9588768538 0.0133141787
C -0.0676721297 1.5746540229 -1.2052930648
C -0.7947681330 1.2196514650 -2.3412844990
C -1.7917101422 0.2621913280 -2.2580563421
S 1.2096683566 2.8084454357 -1.2838361108
C 0.9577737738 3.5309147281 0.3252291091
C 1.1431958770 4.8990586808 0.5257508804
C 0.9433072565 5.4392161128 1.7913507890
C 0.5263017128 4.6265759902 2.8451194309
C 0.3271933984 3.2654779005 2.6421007285
C 0.5682670292 2.7118812389 1.3878300187
N 0.4188971565 1.3074056446 1.1560507287
C 1.2494918233 0.4264495588 1.8414990634
O 2.0073642394 0.8367699877 2.7140456589
C 1.2257491877 -1.0447662688 1.4825818091
C 2.5788948107 -1.4579579131 0.8945337021
N 2.8370144370 -0.8203972387 -0.4005731542
C 4.2601402007 -0.9357633581 -0.7488761252
C 4.5252474188 -0.2766907665 -2.0909593097
O 3.7456912289 -0.8840465239 -3.1276817829
C 2.3557922458 -0.7748440600 -2.8057971442
C 2.0408487814 -1.4340942506 -1.4736286126
H -6.9396999943 -2.5554586437 0.8923724746
H -5.6408928958 -2.2337803305 2.0684483419
H -6.5911772845 -3.7273802233 2.1783626193
H -5.6504293169 -4.5046499382 -0.0077212757
H -4.3418132702 -4.1862932888 1.1598485692
H -3.6942204890 -1.3378344427 -1.8742893008
H -1.6793367653 -0.3441179043 1.0913117322
H -0.5745417917 1.6889348922 -3.2945969959
H -2.3392832020 -0.0228355089 -3.1512141635
H 1.4362557569 5.5320542024 -0.3056468231
H 1.0939773116 6.5022298389 1.9485309063
H 0.3525358126 5.0535102848 3.8271905099
H 0.0054455295 2.6215885664 3.4526814575
H 1.0747135847 -1.5903838401 2.4200861889
H 0.4147823361 -1.3173548114 0.8107876401
H 3.3700155532 -1.1533200728 1.5882204455
H 2.6117011845 -2.5609724715 0.8166153829
H 4.8588761416 -0.4366929827 0.0225589660
H 4.5784255897 -1.9962767830 -0.7967681538
H 4.2874030276 0.7983007169 -2.0324472633
H 5.5746477808 -0.3966023598 -2.3748477519
H 2.0692570073 0.2885181315 -2.7724984584
H 1.8043433351 -1.2670438039 -3.6121893131
H 2.2466413011 -2.5207456782 -1.5467726457
H 0.9714871179 -1.3065976912 -1.2687382135
