111
CONF312
C 3.0192810188 -1.2824611432 1.1288866399
N 2.1599449201 -2.0397729339 2.0536301614
C 2.5667719037 -3.3439377524 2.5422386434
C 0.8414666198 -1.7874694797 1.7043341063
C -0.2992276549 -2.5171177481 2.0296802596
C -1.5287833391 -2.0553054424 1.5396961941
O -2.7050530793 -2.7090522899 1.7784617830
C -2.6625784577 -3.9621933526 2.4703723454
C -1.6315546504 -0.9053651718 0.7336417050
C -0.4568688447 -0.1906756108 0.4602417725
C 0.7602534124 -0.6214930792 0.9365404056
C 2.1449037082 -0.0262660477 0.8413839661
C 2.3724565846 1.0390796863 1.9784041404
C 2.7694475725 2.3148011172 1.2367469589
N 3.4025135067 1.8041083494 0.0210955423
C 3.6202131958 2.8255511681 -0.9921630595
C 3.9857160174 2.1967913342 -2.2997542056
C 3.7478593732 0.9155530939 -2.5739448190
C 2.9917168708 -0.0212962917 -1.6569880582
C 1.7500157075 -0.5359180852 -2.4510565599
C 2.0183267132 -1.4743308501 -3.6244355181
C 3.9417430572 -1.1695241047 -1.2547319666
O 5.1735543149 -0.5745345875 -0.7759101240
C 6.3459199585 -1.0866020743 -1.2123912216
C 7.4975557985 -0.3333621027 -0.6229758423
O 6.4316182202 -2.0242430219 -1.9806868420
C 3.3864426061 -2.1044087584 -0.1389306073
O 2.2420123351 -2.7737697637 -0.6296573915
C 4.4542074966 -3.1837331927 0.1314069663
O 4.3949769103 -4.2791835272 -0.3958186327
O 5.4319422333 -2.7898028606 0.9429219057
C 6.4904555185 -3.7616373598 1.1747252016
C 2.4711399286 0.7658183832 -0.4404447701
C -2.9941035120 -0.4792248405 0.1826131549
C -3.9214471304 0.0657392455 1.2935730570
C -3.3751523472 1.1919277735 2.2085641179
C -2.5891368510 2.3345781885 1.5505645604
N -3.4185760350 3.2911741328 0.8127898095
C -4.3393476176 3.9418832201 1.7523003968
C -4.9997864816 3.0164377325 2.7563277089
C -6.1623115149 3.6317105705 3.4883024990
C -6.7908613070 2.7898407566 4.5934095340
C -4.5395290214 1.7775123877 2.9675851889
C -4.1764923140 2.6598175452 -0.2972093271
C -3.3264146663 1.7924521464 -1.1718387887
C -2.8511595495 0.5038713005 -0.9680241357
N -2.0994545499 0.1292318455 -2.0690844690
C -2.0353186788 1.1560256984 -2.9717633453
C -1.3796574098 1.2399754456 -4.2000745007
C -1.4932106489 2.4338489709 -4.9006745637
C -2.2448590727 3.5103851251 -4.3910097097
C -2.8990481242 3.4179371871 -3.1701967127
C -2.7999158648 2.2258489769 -2.4369055867
C -3.7248088060 -1.6929924447 -0.4521071721
O -4.9207627022 -1.8846113269 -0.3991493255
O -2.8804108301 -2.4694134070 -1.1513754817
C -3.4838367444 -3.5939262413 -1.8385399486
H 3.9554905113 -0.9988790362 1.6149731980
H 1.9624001892 -3.6140785504 3.4137437760
H 3.6108197350 -3.3014553865 2.8637684904
H 2.4528278043 -4.1369875343 1.7857332221
H -0.2346613116 -3.4262194374 2.6128056671
H -2.2830318649 -3.8362849105 3.4909145760
H -3.6945022674 -4.3132840141 2.5050107154
H -2.0425766284 -4.6875657785 1.9308309472
H -0.5051027372 0.6954103375 -0.1633708368
H 3.1763844547 0.7127271469 2.6438651175
H 1.4698371675 1.1766056383 2.5778537467
H 3.4574350964 2.9516012775 1.8034330092
H 1.8696957257 2.9147644528 0.9913762034
H 4.4220637081 3.4995389916 -0.6624154168
H 2.7168083917 3.4600555260 -1.1289189011
H 4.4645293210 2.8339941070 -3.0393899465
H 4.0604803571 0.5027404491 -3.5307044542
H 1.2441062591 0.3658211420 -2.8191487575
H 1.0606220339 -1.0189137135 -1.7549938137
H 1.0849308248 -1.6450780358 -4.1706782678
H 2.7408884956 -1.0621471475 -4.3354160662
H 2.3845186598 -2.4498097772 -3.2924468719
H 4.1665539336 -1.7848843838 -2.1306436541
H 8.4359764160 -0.8113877763 -0.9008346860
H 7.4811208071 0.6967415450 -0.9935145400
H 7.3971274256 -0.2927895904 0.4651027703
H 2.5598254175 -3.5976631256 -1.0358299432
H 6.0730735452 -4.6553372244 1.6434736978
H 7.1917621149 -3.2636071389 1.8419813893
H 6.9676101901 -4.0186513097 0.2266061717
H 1.5285455943 1.2561904233 -0.7658994531
H -4.8604878473 0.3698850447 0.8309971663
H -4.1726899036 -0.7771753301 1.9429418653
H -2.6913524435 0.7119165647 2.9243091408
H -1.8081193489 1.9528378042 0.8937956708
H -2.0858544104 2.8967863564 2.3485182344
H -3.7911120640 4.7203271284 2.3079501807
H -5.1136989806 4.4697362634 1.1782476311
H -5.8295680759 4.5948627723 3.9042286691
H -6.9295410682 3.8961011175 2.7454582515
H -7.6116631393 3.3374595033 5.0655551543
H -7.1962865392 1.8519725393 4.1999755719
H -6.0591915140 2.5413738376 5.3691189035
H -5.0359536533 1.1259176759 3.6846642111
H -4.5759695492 3.4739347676 -0.9142114902
H -5.0520384048 2.1088299426 0.0764649168
H -1.6231378645 -0.7554259240 -2.1558065303
H -0.8018122552 0.4066252522 -4.5881043304
H -0.9934224232 2.5387515280 -5.8586276251
H -2.3107516129 4.4289158528 -4.9661051983
H -3.4733273862 4.2578264409 -2.7900218626
H -3.9573720049 -4.2614416510 -1.1145010150
H -4.2242505544 -3.2422589164 -2.5609625029
H -2.6607480284 -4.0972029397 -2.3440293489
