24
CONF2
C -1.6823519303 2.0509515797 -1.3252320670
C -0.3801690502 1.5722861688 -1.2483815331
C -0.0351941725 0.4509898327 -0.4649648731
C -1.0920716750 -0.1271246834 0.2154117363
C -2.3863893922 0.3546892180 0.1399872894
C -2.7320421419 1.4456857104 -0.6209710609
O -3.2079377097 -0.4512919675 0.9030202908
C -2.3906654709 -1.4500482805 1.4386377980
O -1.0782449391 -1.2573322250 1.0060079050
F -2.4512301979 -1.4305473977 2.7777599983
F -2.8290819940 -2.6621709258 1.0463286812
C 1.3290231914 -0.0631647872 -0.3964025484
C 2.1845915322 -0.2351920700 -1.4629417582
N 3.3739588448 -0.7233550746 -0.9818469194
C 3.3170805456 -0.8709821646 0.3702081846
C 2.0554789000 -0.4695967946 0.7763982943
C 1.6210319045 -0.3894485337 2.1148306759
N 1.2718710018 -0.2941389137 3.2155776754
H -1.8918477727 2.9226174522 -1.9350320929
H 0.4134828291 2.0839167503 -1.7822049135
H -3.7507710715 1.8093227046 -0.6701732981
H 2.0188698261 -0.0787683048 -2.5177319362
H 4.1692491184 -0.9607027330 -1.5496886480
H 4.1533594269 -1.2265943593 0.9514032256
