47
CONF83
C -7.1116539815 0.2064246942 -1.1001246324
O -6.9634502688 0.8716216056 0.1946653292
P -6.2502181817 0.1269259423 1.4093370533
S -6.1486181676 1.2313688262 2.9990388724
O -7.0518375477 -1.2517912529 1.4773003531
C -6.7021040620 -2.2478799889 2.4809713560
O -4.8186167875 -0.4193410662 0.8465011997
C -3.6681588922 0.3686204216 0.8529584768
C -2.5860972127 -0.0822863276 1.6004823504
C -1.4069285953 0.6499518892 1.5947548319
C -1.3114130152 1.8145085191 0.8270623440
C -2.4049209654 2.2503870989 0.0779233867
C -3.5957742626 1.5291334106 0.0948844670
S 0.1719085779 2.8144598781 0.8472947076
C 1.4526358017 1.6238543844 0.4682167948
C 1.2488999363 0.5758582761 -0.4335827994
C 2.2921699658 -0.2892216455 -0.7386799074
C 3.5344553910 -0.0887882202 -0.1515749832
C 3.7579313613 0.9508762172 0.7405325078
C 2.7068680747 1.8062773091 1.0557283039
O 4.5485015779 -1.0060705147 -0.4443740245
P 5.8791215596 -0.5801693236 -1.2681044802
S 5.6215038706 0.7328037258 -2.6776416254
O 6.4436930906 -2.0138718855 -1.6905916825
C 5.8935130958 -2.7036056304 -2.8491260250
O 6.8594807523 -0.1933157816 -0.0677204801
C 8.1711866993 0.3746954451 -0.3507273503
H -7.4731242138 0.9762916321 -1.7805961932
H -7.8390280935 -0.6033135212 -1.0171633203
H -6.1458390460 -0.1755650141 -1.4406361403
H -6.8241215606 -1.8255472405 3.4817101056
H -7.3979388106 -3.0723303929 2.3303997014
H -5.6740644599 -2.5866540285 2.3292702687
H -2.6791605639 -0.9890292431 2.1886306702
H -0.5617094484 0.3144680172 2.1866985444
H -2.3286375373 3.1475880774 -0.5271745327
H -4.4472573893 1.8578616056 -0.4914630592
H 0.2803657978 0.4331795175 -0.9007487959
H 2.1519470867 -1.1072837206 -1.4372500508
H 4.7325601113 1.0805847533 1.1985370193
H 2.8652984751 2.6102575670 1.7672626099
H 6.0532572836 -2.1055668431 -3.7495326574
H 6.4396306795 -3.6439546145 -2.9152590012
H 4.8272857283 -2.8952681841 -2.7006827790
H 8.0610170908 1.3047397620 -0.9137398230
H 8.6193906283 0.5707954529 0.6225945642
H 8.7780493218 -0.3426793933 -0.9092154734
