24
CONF117
C 2.7152771494 0.0500919657 0.3652698806
C 1.5286297747 -0.3891781604 -0.4832384841
C 0.1972363903 0.0747602115 0.1249722291
C -1.0092096177 -0.3804981515 -0.6862128999
C -2.3316598883 -0.0591636117 0.0488219003
C -2.4789645788 1.4000567292 0.4014717902
O -2.7705403750 1.7485235993 1.5329054209
O -2.4603209985 -0.8767406617 1.1927204402
O -0.9591176968 0.3010956582 -1.9382518935
O 0.1782414205 1.4983357142 0.2813912867
O 1.5494200543 -1.8141578025 -0.6534123827
O 3.9521777405 -0.3613853108 -0.2209295815
H 2.7451240501 1.1399070582 0.4385829498
H 2.6052924566 -0.3640905429 1.3819837339
H 1.6325201467 0.0238310170 -1.4941350231
H 0.1034159965 -0.3412245006 1.1364585584
H -0.9643772393 -1.4689043816 -0.8200342374
H -3.1463815882 -0.2697140832 -0.6699266852
H -2.3895896293 2.1202875174 -0.4292895785
H -2.6453031355 -0.2740004574 1.9343196561
H -1.5897087878 -0.1133571407 -2.5403645624
H 0.2255572970 1.8868615866 -0.6047916602
H 1.4379007287 -2.2209034280 0.2184052236
H 3.8743805309 -1.3104326178 -0.3910226837
