119
CONF227
C -12.5580372131 1.3143549878 1.3385308721
C -11.4829162863 0.6267363138 0.4913493302
C -11.4961362317 -0.8890992612 0.6979947021
C -10.0650497163 1.1983136339 0.7235211586
C -9.9725693502 2.6640684648 0.2537168696
O -10.2177883996 3.5859200539 1.0274343382
N -9.6260846897 2.8847995571 -1.0372691854
C -9.6449375416 4.2629171987 -1.5692694917
C -9.3342985930 4.0603161643 -3.0378256497
C -8.0358853220 4.5489361888 -3.6185611578
C -9.3457701831 5.1891607787 -4.0161826439
C -9.8324756560 2.6677166448 -3.3615730528
C -9.4019227788 1.8922262523 -2.1053097861
C -7.9604685084 1.4654087943 -2.2134568268
N -7.4131540471 0.9968486516 -3.3224793484
C -6.1275896854 0.6737506498 -2.9837955867
C -5.8832985324 0.9506011018 -1.6502173112
N -7.0765332220 1.4673405186 -1.1776674130
C -4.6847764760 0.8069001082 -0.8462918874
C -3.6667333443 -0.0716112534 -1.2722717384
C -2.5254095787 -0.1813810141 -0.5153184128
C -2.3433394741 0.5351107686 0.6782916528
C -3.3451255256 1.3942108817 1.1112565056
C -4.5002904058 1.5282652169 0.3460944842
C -1.0410922553 0.1826010822 1.2509266767
C -0.4136435574 -0.7533551634 0.4153433098
C -1.3167311561 -1.0551610250 -0.7574642072
F -1.6508213645 -2.3914386192 -0.8216997042
F -0.7076961972 -0.7750423304 -1.9630146940
C 0.8267620171 -1.2776230833 0.6995774964
C 1.4942837679 -0.8586167651 1.8658226314
C 0.8642292289 0.0795014409 2.6990292758
C -0.3930250498 0.6017448965 2.4064637861
C 2.8303348593 -1.3872852345 2.1989951709
C 3.7650673730 -1.6119695266 1.1831513245
C 5.0071204889 -2.1062652771 1.5550986254
C 5.3504114347 -2.3810838228 2.9010734062
C 4.4102040130 -2.1611695725 3.9075897514
C 3.1678762398 -1.6681720435 3.5436833723
N 6.6534430579 -2.8417155277 2.9806026366
C 7.0827029178 -2.8453220167 1.7377901477
N 6.1393791862 -2.4179063500 0.8353315111
C 8.4452705971 -3.2780181939 1.2822769257
C 9.4091589834 -3.5940443461 2.4357778832
C 10.6934963506 -4.2116715648 1.8339279206
C 11.4063086195 -2.9974700748 1.1562005162
C 10.3956644156 -1.8644816133 1.4016856992
C 9.8851217451 -2.1797188329 2.8111941842
N 9.1858013785 -2.1751687169 0.5965995005
C 8.9319318780 -1.8625557108 -0.6874368223
O 7.9658985055 -2.3347067502 -1.3074905105
C 9.8466751497 -0.8663179491 -1.4046597672
C 9.0944041355 0.4592648983 -1.6488800648
C 8.5503388455 1.0270809026 -0.3367472266
C 10.0088698040 1.4662126141 -2.3442454215
N 10.2625393713 -1.4820900132 -2.6544910142
C 11.5411473359 -1.9181120618 -2.8348572965
O 12.4828545551 -1.6904492292 -2.0970134753
O 11.6294300521 -2.6325525221 -3.9905811311
C 12.9576820811 -3.0945412204 -4.2971849135
N -9.6972429579 1.1129096554 2.1276360587
C -8.4468043536 1.5218657779 2.4792243451
O -7.5187865944 1.6911020504 1.6980720095
O -8.3379374378 1.6770687233 3.8147680359
C -7.0304638151 2.0826429503 4.2667748971
H -12.4909930078 1.0196164589 2.3925748362
H -12.4912254354 2.4038645104 1.2800364601
H -13.5495608414 1.0067476370 0.9936467637
H -11.7160869060 0.8312179724 -0.5624721353
H -12.4915178475 -1.2935638163 0.4902824144
H -10.7804411888 -1.3889864001 0.0373676243
H -11.2367297815 -1.1439456185 1.7302708059
H -9.3552661884 0.5781225859 0.1646134105
H -10.6405845681 4.6975009105 -1.4072218672
H -8.9155953791 4.8930684772 -1.0496814412
H -7.3730716352 5.1145244998 -2.9713200405
H -7.5380858886 3.9086326876 -4.3389749438
H -9.7276240642 4.9903654146 -5.0125589888
H -9.5587118734 6.1846597049 -3.6386164221
H -10.9270395339 2.6554994069 -3.4384676721
H -9.3958291628 2.2415540957 -4.2655715451
H -10.0358207534 1.0113184094 -1.9481641710
H -5.4300076634 0.2938795083 -3.7170208897
H -7.2829652964 1.6874172420 -0.2035199132
H -3.7918631420 -0.6624115910 -2.1735293787
H -3.2353452964 1.9659303679 2.0276308497
H -5.2730901678 2.2085133202 0.6848709567
H 1.2727209329 -2.0253780944 0.0515196631
H 1.3895788543 0.4272890817 3.5826888777
H -0.8460957438 1.3331602235 3.0683512238
H 3.5325605262 -1.3722072306 0.1508709272
H 4.6492683144 -2.3821288270 4.9422083852
H 2.4119920060 -1.5218910908 4.3081624342
H 6.3238910885 -2.3470575365 -0.1598652758
H 8.3389139823 -4.1163771301 0.5809324537
H 8.9357135214 -4.1717298520 3.2281544223
H 11.3121719677 -4.6388821406 2.6279111625
H 10.4682740207 -5.0140728810 1.1252217334
H 12.3593412649 -2.7627736792 1.6405074576
H 11.6045240720 -3.1396637971 0.0912089858
H 10.7548419635 -0.8506472697 1.2294739775
H 10.6955851768 -2.1851408003 3.5447283907
H 9.0772606637 -1.5257544339 3.1452587717
H 10.7617342258 -0.6669728983 -0.8422613842
H 8.2448466884 0.2257636166 -2.3053223117
H 9.3658294375 1.2402855347 0.3653351573
H 8.0229496398 1.9674113788 -0.5211675154
H 7.8499976677 0.3429663331 0.1528918381
H 10.8506222144 1.7358799973 -1.6957321919
H 9.4587360342 2.3822956118 -2.5800377133
H 10.4153814999 1.0628969002 -3.2752962492
H 9.5366592322 -1.8941299823 -3.2235585727
H 13.3274750479 -3.7555024070 -3.5086810434
H 12.8637074262 -3.6367456905 -5.2382120461
H 13.6427915676 -2.2497654316 -4.4071709747
H -10.4164620522 1.3495163108 2.7955086861
H -6.7635935270 3.0514618786 3.8366176334
H -7.1122780501 2.1544630832 5.3509891089
H -6.2810542151 1.3382403744 3.9850364014
