28
CONF3
C 4.3137110637 -0.5289798377 1.7272218028
C 4.6343939947 0.3249194484 0.6726521798
C 3.7473120505 0.4899788508 -0.3865397743
C 2.5313681864 -0.1983197866 -0.4111723861
C 2.2166243416 -1.0510618016 0.6457172156
C 3.1019374064 -1.2140262254 1.7103796212
C 1.6143103785 -0.0143737159 -1.6067403288
N 0.2495365493 -0.4732297383 -1.4128805990
C -0.6341922348 0.1802000545 -0.6196504005
N -0.2985853477 1.3762066340 -0.1046965921
C -1.1946409833 2.0256776203 0.6612258699
N -2.4204957311 1.6473126753 1.0121108381
C -2.7633080968 0.4480750769 0.4989250493
C -1.9149732723 -0.3148201982 -0.3157487507
N -2.6308950082 -1.4521101895 -0.6237332831
C -3.8387619582 -1.3264066915 -0.0043992481
N -3.9637927981 -0.2051464868 0.6825240285
H 5.0018543730 -0.6546913858 2.5572634447
H 5.5745088421 0.8683200681 0.6789136950
H 3.9980455076 1.1637888120 -1.2023311142
H 2.8406158945 -1.8776077335 2.5292082645
H 1.6018214970 1.0434316931 -1.8884384493
H 2.0188454603 -0.5697619414 -2.4604023821
H 0.0332694943 -1.4179736059 -1.6863188915
H -0.8589836932 2.9897342961 1.0436171201
H -2.3457414284 -2.2249648186 -1.2066310143
H -4.5968889372 -2.0950345098 -0.0895990837
H 1.2718681985 -1.5864333867 0.6450948544
