41
CONF135
C -4.0958675836 -1.7250180950 2.6822206529
C -4.0342872422 -0.2042690134 2.5284641744
N -3.5574982520 0.2464439189 1.2212797451
C -4.5535726199 0.5045138584 0.1897903315
C -4.7323221733 -0.6630010397 -0.7814210872
O -5.5996683994 -0.1918575641 -1.8108910047
C -2.2157752815 0.2801586566 0.9328565703
C -1.2420880771 -0.0921965575 1.8915754721
C 0.1023319072 -0.0237989333 1.5941679104
C 0.5545326116 0.4050343843 0.3380780425
C -0.4040268412 0.7725560382 -0.6253967903
C -1.7472332971 0.7087808198 -0.3403746875
N 1.9314363291 0.4199211893 0.1553645385
N 2.3273140328 0.7983538492 -0.9870430383
C 3.7257719733 0.8016470432 -1.1387188059
C 4.6459049874 0.4301176620 -0.1417568966
C 6.0013598265 0.4695950325 -0.4045513712
C 6.4386292673 0.8806795882 -1.6640695005
C 5.5490346319 1.2541212314 -2.6661939923
C 4.1922157330 1.2121916165 -2.3959580770
N 7.8816418170 0.9200768093 -1.9404253347
O 8.6441851883 0.5865965256 -1.0380803749
O 8.2386649436 1.2835732991 -3.0570604491
H -4.3836380549 -1.9883627475 3.7049228942
H -3.1269740657 -2.1842505110 2.4678245426
H -4.8343800687 -2.1583307687 2.0022035079
H -3.3997551294 0.2337741798 3.3067776918
H -5.0313491139 0.2223392701 2.6769581349
H -4.2951754461 1.4031221670 -0.3826726722
H -5.5102114514 0.7145748190 0.6765423376
H -3.7532745977 -0.9656301361 -1.1814858749
H -5.1661806503 -1.5253729416 -0.2533807721
H -5.7387053549 -0.9024277865 -2.4449329447
H -1.5361633462 -0.4449122830 2.8709091478
H 0.8426769513 -0.3116125234 2.3337416026
H -0.0684653990 1.1067622267 -1.6001323851
H -2.4500685413 0.9973742384 -1.1115624391
H 4.2770493822 0.1150781449 0.8263657161
H 6.7314616987 0.1886255298 0.3442922596
H 5.9288210717 1.5675321116 -3.6301918214
H 3.4636496285 1.4946552056 -3.1480354452
