35
CONF4
C -2.6581887314 -2.0807065930 -0.6074229866
C -2.2784813262 -2.3093448019 -1.9255555853
C -1.1256871692 -1.7122634978 -2.4205628779
C -0.3808856762 -0.9054114668 -1.5787642591
C -0.7120752956 -0.6613591771 -0.2486410733
C -1.8820373996 -1.2711183931 0.2131364546
C 0.1110402252 0.2144060695 0.7043194821
C 1.6402146336 -0.0434601510 0.5546124735
N 1.9556721395 -1.4614340718 0.5895111664
C 2.5001062504 -2.2524363236 -0.3600957216
N 2.5265643932 -3.5126079781 0.0457939916
C 1.9580501795 -3.4410854619 1.2766301076
N 1.5946030111 -2.2200602257 1.6547148935
C -0.1215408395 1.7080458192 0.4896804224
C 0.2279525463 2.5892515295 1.5178659019
C 0.0894162430 3.9626641485 1.3604974185
C -0.4034889536 4.4427217221 0.1586157006
C -0.7663296524 3.6020601784 -0.8783051424
C -0.6216910231 2.2292777288 -0.7028891293
F -0.5439182491 5.7771867083 -0.0026750099
O -0.2518942726 -0.0622683871 2.0530338573
F 0.7260203614 -0.3150873030 -2.1192751719
H -3.5594852100 -2.5368960693 -0.2127122648
H -2.8737325980 -2.9469409312 -2.5702810244
H -0.7941745546 -1.8586527059 -3.4423801787
H -2.1712822052 -1.0938308933 1.2419667891
H 2.1340856540 0.4598882897 1.3922486069
H 2.0229313456 0.3621628864 -0.3811468188
H 2.8532047428 -1.8688628420 -1.3075832623
H 1.8092651832 -4.2998402228 1.9176079467
H 0.5869813368 2.1905522298 2.4595082821
H 0.3490740428 4.6552160598 2.1531469083
H -1.1614958904 4.0175535605 -1.7981958461
H -0.9222699197 1.5672549769 -1.5060595947
H 0.1434776727 -0.9245752946 2.2796555490
