21
CONF86
C 0.9068696061 -1.1955193488 -0.0554012489
C 0.0047501599 0.0490417523 0.0470581480
C 0.7499160865 1.3138456609 -0.4210665556
O 2.0089055605 1.5223920727 0.2310750070
C -1.2621637164 -0.1149626602 -0.7996519033
O -0.8963086236 -0.3443693988 -2.1773526440
C -0.4216339338 0.2471337045 1.5050473035
O -1.1080614693 -0.9230641511 1.9742084344
O 1.5563750013 -1.3356230956 -1.3249540792
H 0.3083716459 -2.0892391148 0.1698407798
H 1.7032588236 -1.1237325827 0.6924866993
H 0.9755932300 1.2224262383 -1.4856251461
H 0.0937155653 2.1863327309 -0.2860817396
H 1.8443945399 1.9088794559 1.0988817615
H -1.8431086557 -0.9631968466 -0.4203750500
H -1.8785567871 0.7939775038 -0.7219113174
H -1.6683414924 -0.6985853567 -2.6342743346
H 0.4705725361 0.4297818631 2.1211040358
H -1.0756251398 1.1307643083 1.5727498839
H -1.3243661814 -0.7790641652 2.9031109035
H 0.8554435514 -1.2372182632 -1.9888689380
