24
CONF7
O 4.8370697929 0.2111531803 -0.3050135484
S 3.5052994187 0.9008384566 -0.9634944399
O 3.5665012563 2.3029288933 -0.6081400006
O 3.3175517025 0.3915757802 -2.3156882125
C 2.1972700379 0.0499774007 0.1503387102
F 2.4972217625 -1.2622642352 0.1854281060
F 2.3096026643 0.5710323133 1.3810075112
C 0.7543427490 0.2578541785 -0.4086397757
F 0.6481628572 1.5377609961 -0.8269906287
F 0.5823903281 -0.5736506169 -1.4578363612
C -0.3621634912 -0.0246139793 0.6569742799
F -0.4178033069 1.0222514499 1.5084267089
F -0.0218313075 -1.1397793783 1.3439200743
C -1.7804782539 -0.2387923257 0.0217374310
F -1.8334688025 -1.4807307277 -0.5097119361
F -1.9582687284 0.6714292278 -0.9616848207
C -2.9477336653 -0.0846746503 1.0550037941
F -2.6100589855 -0.7067887325 2.2087931703
F -3.1469365122 1.2270248186 1.2980513724
C -4.3063860240 -0.6909075702 0.5713474204
F -4.2616728953 -2.0269306795 0.5698486997
F -4.5958313080 -0.2579379450 -0.6636137061
F -5.2747673912 -0.2961397840 1.4078411056
H 5.0062020549 -0.6315812601 -0.7610336169
