48
CONF29
C 2.0937473568 0.8408952903 1.5625520628
C 1.7244236305 -0.6015298309 1.2664477661
N 0.3319967040 -0.9165755187 1.6151207190
C -0.6503994452 0.1252390102 1.2774213122
C -0.1453924780 1.5291382550 1.5598870479
N 1.1498045284 1.7522064426 0.9251937041
C 1.5881938676 3.1493988852 1.0367671332
C 0.8818023819 4.0866870513 0.0573994537
C 1.2600228836 3.8726579515 -1.4105522223
N 0.8461335338 2.5784297539 -1.9269263349
C 1.6698525910 1.4898336377 -2.0248992485
O 2.8918369095 1.4011224550 -1.9323824351
N 0.7612608203 0.4501357575 -2.2934696755
C 1.0223868061 -0.8857360420 -2.4593556515
C -0.0271740707 -1.7292402480 -2.6375791670
C -1.3616671481 -1.2174067929 -2.6561063633
C -1.6170448466 0.1147709104 -2.4880888126
C -0.5242175040 0.9897709096 -2.2775109803
N -0.4955473901 2.2866679607 -2.0460921689
C -0.0763982657 -2.2309456722 1.3994121441
C 0.8671433665 -3.2714150438 1.2475053987
C 0.4302611917 -4.5743413160 1.0683803199
C -0.9089370664 -4.9305464309 1.0112785542
C -1.8352975134 -3.8981211934 1.1424329922
C -1.4439173390 -2.5796186714 1.3260905707
Cl 1.6527293141 -5.8389199867 0.8846855191
H 3.0983656992 1.0146127364 1.1616862316
H 2.1332330198 1.0029013082 2.6594040482
H 1.9099668772 -0.8111889499 0.1989153012
H 2.3932949608 -1.2372953547 1.8542213768
H -0.9387157935 0.0466448234 0.2163273705
H -1.5503850765 -0.0222757946 1.8808460235
H -0.0794538843 1.6945110993 2.6550225272
H -0.8892719850 2.2269067780 1.1623878771
H 2.6657162184 3.1775237222 0.8297940244
H 1.4500634314 3.5264381509 2.0691832625
H 1.1607472298 5.1161380010 0.3108767803
H -0.2062655751 4.0255944453 0.1659370015
H 2.3455839008 3.9240769330 -1.5404669782
H 0.8018655524 4.6475225481 -2.0342497374
H 2.0664618904 -1.1756358860 -2.4378864800
H 0.1568833047 -2.7884397851 -2.7664951250
H -2.1855414856 -1.9074859902 -2.8025570531
H -2.6221110210 0.5199286739 -2.4915440293
H 1.9301821956 -3.0807309225 1.2646545554
H -1.2158890862 -5.9585057836 0.8638787727
H -2.8951444147 -4.1290220234 1.0934104859
H -2.2141554054 -1.8258909904 1.4107751711
