31
CONF140
F 0.8974145393 -1.7450352918 1.0969268545
C 1.4993035866 -0.9251117740 0.2078562822
F 2.0171968302 0.1316972673 0.8732906483
C 0.4714301929 -0.4255639919 -0.8526267405
F 0.9997645868 0.6480315812 -1.4785929388
F 0.2693559636 -1.4127602837 -1.7508085182
C -0.9139756172 -0.0253491889 -0.2307971516
F -0.6902547970 0.6571262460 0.9204763874
F -1.5988872633 -1.1545724487 0.0509134381
C -1.7798786833 0.8784166777 -1.1672188164
F -1.2575947875 2.1231413282 -1.1776762261
F -1.7280993637 0.3681874115 -2.4210027062
C -3.3082044641 1.0013784566 -0.8165866809
F -3.8121635755 1.9114749737 -1.6837908170
F -3.9121644752 -0.1855633955 -1.0348965008
C -3.6864324870 1.4748278101 0.6201427134
F -3.0240217046 2.5934150451 0.9416534623
F -3.4069822539 0.5242584789 1.5215043092
F -5.0015944854 1.7239235305 0.6585228473
S 2.9671156560 -1.8907914749 -0.5616240405
O 3.5322700421 -0.9932417145 -1.5643090369
O 2.4643147057 -3.2316622555 -0.8365235364
N 4.0400222253 -2.0195182499 0.6887685217
C 4.8783022200 -0.9034501333 1.1607361986
C 6.2776694953 -1.4037455506 1.4914889568
H 3.7881860191 -2.7416509364 1.3539469642
H 4.9167742576 -0.1674650110 0.3533512846
H 4.4188996545 -0.4214466928 2.0327197785
H 6.7513624581 -1.8383847514 0.6079006093
H 6.2531889598 -2.1623482084 2.2802558676
H 6.8923192462 -0.5716012811 1.8470354196
