40
CONF20
C -2.5375789103 -1.9639419499 1.9817225417
C -1.0398423678 -1.7694014107 1.6924803578
C -0.2607829663 -2.9284819798 2.3244705970
C -0.8514621980 -1.6680892408 0.1725246259
C -1.2071438146 -0.4859278205 -0.4879855359
C -1.0785891581 -0.3666354738 -1.8673098320
C -0.5934377881 -1.4342216557 -2.6211387113
C -0.2475311095 -2.6180794116 -1.9778464030
C -0.3770636217 -2.7341188854 -0.5935879873
N -0.6574292508 -0.4974603682 2.3426464976
C 0.5458246220 0.1121364075 2.0762593044
O 1.5084611849 -0.4799772735 1.5822741180
N 0.6236659798 1.4397806435 2.4577577322
C 1.6788701569 2.2659129407 1.8698922067
C 1.5149830885 2.4661428500 0.3786216084
C 2.3889606001 1.8462588406 -0.5194218617
C 2.2392587841 1.9824353785 -1.8955270512
C 1.1982094172 2.7513990955 -2.4069876629
C 0.3128675688 3.3870434888 -1.5414132981
C 0.4864889778 3.2344105929 -0.1715604402
Cl -0.6539623171 4.0641793970 0.8972743739
H -2.8807004946 -2.8902635322 1.5145827419
H -3.1256939172 -1.1356869997 1.5727650394
H -2.7106615021 -2.0288150878 3.0612881526
H -0.6501925843 -3.8895037487 1.9777810899
H 0.8029934905 -2.8662695730 2.0895137877
H -0.3867344257 -2.8853104139 3.4098458780
H -1.5766405385 0.3609637619 0.0837543395
H -1.3505936055 0.5655354412 -2.3535255643
H -0.4856899323 -1.3417731543 -3.6973834352
H 0.1331934354 -3.4580802363 -2.5512987036
H -0.0895838599 -3.6648448920 -0.1179350778
H -1.4290334711 0.1095487881 2.5800775848
H -0.2489752004 1.9205231484 2.6260613316
H 2.6442656026 1.7916196381 2.0598204169
H 1.6683286901 3.2289663173 2.3887837214
H 3.1936867657 1.2390570518 -0.1172246687
H 2.9316561411 1.4849504330 -2.5666625130
H 1.0675007508 2.8616648360 -3.4786021080
H -0.4998931220 3.9943547610 -1.9237415937
