24
CONF1
C -2.0132359379 1.7623766972 0.4155684546
C -3.0338447839 1.7314431359 1.3668818939
C -3.5338492414 0.4844637999 1.7644275539
C -3.0472898834 -0.7003379568 1.2299679550
C -2.0375083815 -0.6503030740 0.2785669356
C -1.5210025216 0.5840662302 -0.1186284812
O -0.5597963617 0.6684509655 -1.1088494968
C 0.7339200421 0.3656657453 -0.7830447328
C 1.1751537923 0.2415159817 0.5298528900
C 2.5092258691 -0.0496868072 0.7907051287
C 3.4134981003 -0.2123308326 -0.2573664319
C 2.9738486918 -0.0821012141 -1.5726026013
C 1.6430790580 0.2012593818 -1.8311670831
Br 1.0496276435 0.3621401372 -3.6293734684
Br 5.2498294159 -0.6118078097 0.0333834473
Br 3.0362718884 -0.2138447664 2.6105092680
Br -1.3789791936 -2.2598749128 -0.4925360418
Br -4.9261861852 0.4242164610 3.0693364998
O -3.4736644864 2.9119408260 1.8490452673
H -1.6026119203 2.7139858393 0.0959487175
H 0.4784214236 0.3716202567 1.3496440237
H 3.6704047234 -0.2089426728 -2.3921186382
H -4.1798493146 2.7616221859 2.4985847635
H -3.4573682827 -1.6519273974 1.5452344203
