47
CONF120
C -0.6345767983 1.3178778964 3.1245248884
C -1.0067531884 1.8093360188 1.7441510685
C -2.4144325134 2.2275093708 1.4783035176
C -1.9393412001 0.8648848188 0.9634918251
C -1.8198672025 0.6822876913 -0.4854954153
O -1.7115898344 1.5410612447 -1.3354224582
O -1.8529260523 -0.6560187612 -0.7915523618
C -1.7250837110 -0.9513826232 -2.2003456166
C -2.2593427258 -2.3048876655 -2.3621157393
N -2.6598279026 -3.3755792723 -2.5252382461
C -0.2890132442 -0.8833025724 -2.6831863861
C -0.0087681028 -0.3270579988 -3.9289232350
C 1.3070592573 -0.3067006687 -4.3848181463
C 2.3349368194 -0.8197154011 -3.6021939049
C 2.0356346815 -1.3638261069 -2.3546468967
C 0.7251179156 -1.4113932769 -1.8878786734
O 3.0831552897 -1.9147390376 -1.6471056500
C 3.0544130313 -1.8452786445 -0.2595543803
C 2.8222826242 -0.6360912309 0.3909776891
C 2.8777853994 -0.5979755049 1.7807253720
C 3.1666076768 -1.7516403438 2.5091928745
C 3.4044957630 -2.9498438382 1.8397113150
C 3.3468174496 -3.0045041796 0.4485140771
C -3.4437885956 2.2805391494 2.5359474462
C -4.7457728445 2.1584403809 2.2850635175
Cl -5.9680242951 2.2705294215 3.5207874208
Cl -5.3692851817 1.8670867887 0.6863567404
C 0.1063967479 2.5342632084 1.0262427292
H 0.2402959328 0.6629770469 3.0618393351
H -1.4464841085 0.7588942092 3.5970889170
H -0.3788003248 2.1681048783 3.7667421303
H -2.5373903417 2.9495133889 0.6719765773
H -2.2661996148 -0.0112258838 1.5125173495
H -2.3475869559 -0.2634362723 -2.7845843077
H -0.8087815745 0.0886600478 -4.5329693906
H 1.5370479102 0.1270372589 -5.3524708202
H 3.3652532180 -0.8005181046 -3.9410958590
H 0.5002915978 -1.8514064689 -0.9218955335
H 2.6090018464 0.2583077138 -0.1856475841
H 2.7045257391 0.3423766118 2.2948114152
H 3.2102702135 -1.7141471723 3.5926693574
H 3.6319660474 -3.8515036996 2.3995786736
H 3.5260423327 -3.9297432510 -0.0890399597
H -3.1449767850 2.4494100955 3.5667565901
H 0.4186186600 3.3950204987 1.6272884833
H -0.2017291081 2.8925553657 0.0429139370
H 0.9723266554 1.8752451441 0.9050531288
