51
CONF55
C -3.0095414025 -0.7685416250 2.2919805237
N -2.1614749891 -1.8403637591 1.7632299102
C -1.5335752550 -2.5325899536 2.9030026341
C -0.6569341821 -3.6936003755 2.4557605514
C 0.4319367206 -3.1884672204 1.5140041201
C -0.2092243130 -2.4227716307 0.3627236318
C -1.1277298818 -1.2989502429 0.8523907291
C -1.7514962628 -0.5663154092 -0.3539244467
C -1.5989147722 0.9556706136 -0.2962826081
N -0.1854199702 1.3432383135 -0.2080382940
C 0.2110879402 2.3394532568 0.7008825469
C -0.6631384185 3.3491714454 1.1245917456
C -0.2529056517 4.2947909327 2.0607334668
C 1.0453926875 4.2800776115 2.5616525039
C 1.9392239464 3.3086831230 2.1168092905
C 1.5208445622 2.3386690130 1.2110861359
S 2.6144884377 1.0132900418 0.7452386176
C 2.0713529286 0.8145393711 -0.9364878031
C 0.7032446973 0.9638975399 -1.2261198525
C 0.2661923279 0.7250501840 -2.5301875791
C 1.1628877180 0.3044558912 -3.5207661005
C 2.5189266498 0.1615255829 -3.2227713935
C 2.9639509133 0.4416921736 -1.9322183572
S 0.4602411163 -0.0109593008 -5.1240375892
C 1.9071837239 -0.4652850183 -6.1371145629
H -3.7277041891 -1.1926984923 3.0013398285
H -3.5782823902 -0.2842821511 1.4937572455
H -2.4232158957 0.0094398084 2.8206332683
H -2.3349999085 -2.8904989537 3.5604872370
H -0.9187870264 -1.8227078774 3.4960065977
H -0.2225704264 -4.1771329696 3.3382913245
H -1.2764040462 -4.4399932254 1.9414265513
H 1.0406228153 -4.0170841131 1.1346739038
H 1.1043921402 -2.5156508625 2.0648199166
H 0.5588344771 -1.9769726974 -0.2819395965
H -0.7994185718 -3.1089447975 -0.2611839218
H -0.4969255110 -0.5744800116 1.4123348434
H -2.8171477631 -0.8051161683 -0.4358827023
H -1.2905498712 -0.9411188714 -1.2730128245
H -2.1052882184 1.4313990407 -1.1486043838
H -2.0809705680 1.3265930610 0.6101404745
H -1.6670377691 3.4013529865 0.7188624444
H -0.9541252311 5.0576341018 2.3836853351
H 1.3676558057 5.0215959691 3.2848142811
H 2.9588356901 3.2855395506 2.4891914579
H -0.7804232444 0.8587022658 -2.7813860586
H 3.2343810019 -0.1578225364 -3.9694700235
H 4.0182539675 0.3375811404 -1.6943303585
H 2.3786251434 -1.3779226239 -5.7646840326
H 1.5151637229 -0.6466458621 -7.1404322599
H 2.6304853944 0.3528737310 -6.1756759554
