31
CONF27
C -2.3147302988 -1.7795392885 0.2861680817
C -3.3258187917 -1.3200936406 -0.5483608012
C -3.3681346671 0.0308089897 -0.8698015300
C -2.4292200108 0.9290661452 -0.3753210027
C -1.4161383309 0.4568397201 0.4473264732
C -1.3423378607 -0.9022921439 0.7844562321
C -0.2697404288 -1.3900485768 1.6706554664
N 0.9834320945 -1.1000124456 1.6412985173
O 1.3153526329 -0.2546783354 0.6170003912
C 2.7284579488 0.0267104360 0.6400475915
C 2.9945941752 1.0130685618 -0.4789948087
O 2.5927331198 0.5087256951 -1.7532644812
C 1.4445549090 1.2729713682 -2.1723229557
C 1.6885883007 2.6083472845 -1.4976017620
O 2.2628440617 2.2101645225 -0.2392455308
C -0.6258406157 -2.3831133685 2.7598968336
F 0.2987560768 -2.4634276404 3.7307941131
F -0.7774812377 -3.6388475201 2.2537995912
F -1.8028143416 -2.0556897393 3.3430374056
Cl -4.6428432745 0.6199988875 -1.9238219269
H -2.2838456477 -2.8351739779 0.5307390422
H -4.0674495296 -2.0060552501 -0.9407911322
H -2.4853550975 1.9819519775 -0.6268835135
H -0.6878953007 1.1562871095 0.8387691527
H 3.2986624326 -0.8930580222 0.4690155356
H 3.0110148459 0.4689524216 1.6020446662
H 4.0774080624 1.2131049680 -0.5230701404
H 1.4481705284 1.3229275635 -3.2633410978
H 0.5187968652 0.8043156542 -1.8133481719
H 0.7769220393 3.1735435836 -1.2923363385
H 2.3993582348 3.2242452568 -2.0655910131
