31
CONF12
C 3.4986870636 0.4936681127 -2.8970063367
O 2.8062751461 0.7447774245 -1.6436779937
C 2.2513403744 -0.3278861321 -1.0730787610
O 2.1927947381 -1.4346511384 -1.5612736408
C 1.5861144582 0.0366133171 0.2224889617
C 2.2809890906 0.3608811687 1.3906215255
C 1.6091331625 0.7297878740 2.5556589875
C 0.2298394800 0.7622456689 2.5654431104
C -0.4709742989 0.4262699575 1.4042617676
C 0.1980629570 0.0668355911 0.2337767970
O -1.8319257783 0.4948594836 1.4931263806
C -2.5941798477 0.0213724250 0.4381368750
C -2.8175780842 -1.3467264222 0.2754886115
C -3.6405997920 -1.8104709691 -0.7438177531
C -4.2357838595 -0.8787964772 -1.5860710710
C -4.0324108892 0.4880429370 -1.4364392703
C -3.2022995705 0.9317843417 -0.4143194669
Cl -5.2783274220 -1.4553508173 -2.8721990376
Cl -2.0632183243 -2.4843595258 1.3592760289
N 3.7326891520 0.2661110396 1.4249258565
O 4.3283556306 0.7911041486 2.3618756784
O 4.2889831479 -0.3535026611 0.5168932766
H 4.3083585774 -0.2209881269 -2.7317853057
H 3.8919848946 1.4610983225 -3.2043866066
H 2.7988512565 0.1042698293 -3.6393316222
H 2.1741018888 0.9628298957 3.4494713666
H -0.3182498168 1.0301728649 3.4613286184
H -0.3503379993 -0.1737098458 -0.6702426924
H -3.8133129897 -2.8723868204 -0.8690837327
H -4.5091846881 1.1953359629 -2.1042516102
H -3.0181782820 1.9907685708 -0.2683089432
