42
CONF10
C 0.3546190147 4.3711413756 -3.5284567811
C -0.3440043824 4.2752304804 -2.3294112154
C -0.3471695038 3.0805062819 -1.6091944878
C 0.3493066274 1.9688616868 -2.0814733726
C 1.0431155768 2.0709870208 -3.2925499376
C 1.0484349213 3.2611931737 -4.0102800629
C 0.3881633070 0.6451981937 -1.3450985740
C -0.5992419848 0.4772787256 -0.2103772540
C -0.3803352224 1.1082276850 1.0189803523
C -1.2260519635 0.8845891882 2.0989204997
C -2.3001300733 0.0181541973 1.9341820698
C -2.5659129751 -0.5956290264 0.7163756134
C -1.7075119508 -0.3593262315 -0.3514805879
Cl -3.3413637331 -0.3231275024 3.3086165163
C 1.7851248647 0.3282130489 -0.7916104848
O 2.7102581643 1.1082536562 -0.8140339896
C 1.9707051561 -1.0378101084 -0.1202889364
C 0.9636665457 -2.1468749259 -0.4320805221
O 0.6946569210 -2.5604811231 -1.5449684886
C 0.4164909379 -2.6412670194 0.8469783444
C -0.5176358757 -3.6487158828 1.0609008063
C -0.8959000822 -3.9124605029 2.3735754058
C -0.3523338061 -3.1870183464 3.4438060041
C 0.5862354010 -2.1827229093 3.2277947748
C 0.9622827506 -1.9221902186 1.9145612845
C 1.9289395525 -0.9200465594 1.4221235186
O 2.5914922939 -0.1546816525 2.0894886729
H 0.3547827193 5.3009207447 -4.0887439990
H -0.8944467101 5.1304895473 -1.9494299995
H -0.9054630511 3.0198948620 -0.6811916054
H 1.5818233996 1.2072944592 -3.6739121706
H 1.5910217048 3.3225225857 -4.9487243414
H 0.1844555027 -0.1502379568 -2.0752526794
H 0.4709586024 1.7714958981 1.1467208354
H -1.0403851614 1.3604636130 3.0549686683
H -3.4138033260 -1.2621318323 0.6069436113
H -1.8902455710 -0.8571420719 -1.2991857940
H 2.9762582771 -1.3782714457 -0.4004381100
H -0.9417531545 -4.2010381507 0.2289010165
H -1.6263914774 -4.6886716261 2.5772140409
H -0.6716918103 -3.4155382715 4.4553885296
H 1.0089790662 -1.6174810816 4.0517427497
