44
CONF21
C -4.5792830614 1.7418068831 2.2725955321
N -3.4227190134 1.4336005108 1.4224941216
C -3.7724552403 1.4661264876 -0.0160019302
C -4.5701251138 0.1559109907 -0.2707921108
C -4.0321432965 -0.8184456105 0.8092526156
C -2.9811910194 0.0291097363 1.5806085873
C -1.5866882055 -0.0913629956 0.9523982927
C -1.6605878561 0.2316844663 -0.5366101599
C -2.4595416400 1.4977567341 -0.8099515696
O -0.3103479506 0.4569290223 -1.0620711574
C 0.4100638487 -0.6263279167 -1.3966488272
O -0.0051438536 -1.7674762628 -1.3649857202
C 1.8304758535 -0.2332777953 -1.7661339632
C 2.3868347379 -1.1600923395 -2.8518809462
O 1.6197270188 -1.0928429212 -4.0555507001
C 2.6908494293 -0.2660163078 -0.5155803641
C 3.3862107893 0.8763218389 -0.1117688750
C 4.1983638291 0.8475768223 1.0193504440
C 4.3226354287 -0.3247194896 1.7612543992
C 3.6299313596 -1.4674101875 1.3658836230
C 2.8184368503 -1.4395208605 0.2350643249
H -5.4486827843 1.0823416481 2.1115116004
H -4.2842613142 1.6614134027 3.3240192707
H -4.8977338297 2.7727444296 2.0860337002
H -4.3572408441 2.3640435779 -0.2393351380
H -5.6419815967 0.3298217646 -0.1442938438
H -4.4187319533 -0.2154134807 -1.2887878539
H -3.5838150335 -1.7196641301 0.3801875278
H -4.8320585178 -1.1419857995 1.4804988963
H -2.9291049266 -0.2303960837 2.6427592637
H -1.1895677853 -1.1016367208 1.0979379580
H -0.9115228328 0.6200124150 1.4419174932
H -2.0854306463 -0.6133586670 -1.0856949287
H -1.8774860776 2.3720608941 -0.4975568039
H -2.6630374371 1.5845519636 -1.8829821373
H 3.4380948750 -0.8979333382 -3.0323567818
H 2.3407860402 -2.1990260454 -2.5142065917
H 4.7329986688 1.7430555307 1.3211083035
H 4.9545445767 -0.3478071960 2.6435781449
H 3.7200279862 -2.3843271419 1.9402432861
H 2.2758733911 -2.3322106342 -0.0610255505
H 3.2901995496 1.7924440049 -0.6877068093
H 1.8149577970 0.7931292150 -2.1471303345
H 1.7549011565 -0.2190185032 -4.4438237296
