65
CONF654
C 1.3194456350 3.9038476279 -0.1878719156
C 1.4794476662 2.4708208687 0.3137000197
C 1.2240549561 2.3259029585 1.8308255390
C 2.1971330323 3.1412991460 2.6783401264
C 1.3182666053 0.8551195395 2.1746356616
O 2.3074972328 0.3011341664 2.6155600865
O 0.1657803687 0.2190103989 1.8915689431
C 0.0979091469 -1.2160698767 2.1774949669
C -0.2129474728 -1.4447688133 3.6495218517
C -1.5575304431 -0.8458614966 4.0986225357
C -2.5867084393 -0.9177940914 3.0134422454
C -2.3632868180 -1.3265238260 1.7498770068
C -0.9953283024 -1.7899126831 1.2828899962
C -0.7900840566 -1.5169834017 -0.2240726751
C -1.9271780354 -2.1741083777 -1.0392001353
C -3.2652540159 -1.7687416279 -0.4912273374
C -3.4426606197 -1.3738407395 0.7793199223
C -1.8460807352 -3.7100870996 -1.1226388207
C 0.6127010865 -1.9430725275 -0.6858450274
C 0.8581434145 -1.8650218173 -2.1966221582
C 0.8423700578 -0.4626346193 -2.7736966382
C 0.8921917128 -0.4264391238 -4.2897961980
C 0.8412422419 1.0147957695 -4.8092760194
C 1.3891941364 1.9920472239 -3.7583209518
C 2.3952866052 1.3871956698 -2.8186433505
O 3.4445515043 1.9096215950 -2.4988169125
O 2.0604326538 0.1995197619 -2.2756032959
O -0.5044003020 1.4475505965 -5.0675937329
C -1.4347628677 0.5919842336 4.6364600779
H 1.4327348774 3.9432015884 -1.2755819286
H 0.3282975464 4.2970441403 0.0642287371
H 2.0705365173 4.5708258623 0.2445371579
H 0.7809054474 1.8150719734 -0.2207660541
H 2.4902240025 2.1063512771 0.0933304833
H 0.1935924586 2.6451509110 2.0309687990
H 2.0515639028 2.9372638795 3.7431301426
H 3.2322851826 2.8967470591 2.4216447512
H 2.0425136705 4.2102487536 2.5142959397
H 1.0691847552 -1.6536225195 1.9355482362
H -0.2294963625 -2.5318722385 3.7930197615
H 0.6030559317 -1.0533119353 4.2650630282
H -1.9221953316 -1.4562026019 4.9384713250
H -3.5938357933 -0.5982005751 3.2831590407
H -0.9387167172 -2.8799651762 1.4264450757
H -0.8938560076 -0.4329960892 -0.3695245684
H -1.8673207139 -1.7903224439 -2.0671609749
H -4.1189381881 -1.8290616472 -1.1635753271
H -4.4337087016 -1.0896706426 1.1292434236
H -1.9000811020 -4.1627943305 -0.1276274806
H -2.6878642499 -4.0962774506 -1.7062872260
H -0.9222336778 -4.0465204951 -1.6027273043
H 1.3616552942 -1.3185636232 -0.1850459651
H 0.8011022630 -2.9731174252 -0.3562371298
H 1.8309813003 -2.3130365655 -2.4330262151
H 0.1098347312 -2.4494245273 -2.7413942976
H -0.0205286128 0.1062429402 -2.4014332153
H 1.8222885850 -0.9118612631 -4.6116358761
H 0.0566147701 -0.9973126687 -4.7072428347
H 1.4351268065 1.0960246700 -5.7285009831
H 1.8147664283 2.8888037751 -4.2088754011
H 0.5375692823 2.2997362106 -3.1342227581
H -0.8348320917 0.9398276331 -5.8197524090
H -1.0950801422 1.2768716253 3.8551858680
H -0.7218299726 0.6293974047 5.4669109994
H -2.4037413171 0.9473357786 5.0024016449
