73
CONF454
C 0.1854439663 2.1442195968 1.5801528170
C -1.0496382613 2.4758803114 0.7702057423
O -0.8797505491 1.8479891480 -0.5194706381
C -1.9685719918 1.9994487826 -1.3993511147
O -3.1676485696 1.4285186823 -0.8887525155
C -3.4833751825 0.0834220314 -1.2571255772
C -4.9691026935 -0.0676320154 -0.9373159451
O -5.7662213973 0.7408563841 -1.8015184832
C -5.4333950460 -1.5053766689 -1.1013449639
O -6.7789333276 -1.6601480893 -0.6561650864
C -4.5542401079 -2.4124617636 -0.2450836856
C -4.8779511981 -3.8890506887 -0.3879361979
O -4.7906585814 -4.3449416689 -1.7375258780
O -3.1882145700 -2.2526953765 -0.6672663665
C -2.6800497601 -0.9456845168 -0.4609700486
O -1.3628327872 -0.9514977649 -0.9628256577
C -0.3499231079 -1.3501373879 -0.1425886054
C -0.5630627171 -2.0142748699 1.0658845331
C 0.5436178810 -2.3501177480 1.8373826215
O 0.3493413580 -3.0121926155 2.9876651241
C 1.8629261960 -2.0321192511 1.4135595422
C 3.0086853753 -2.4871891941 2.1533773112
O 2.9128286818 -3.1211048552 3.2235418317
C 4.3513030168 -2.1960682101 1.5369796493
C 4.3006439974 -0.9152851538 0.7145582171
O 3.2460191884 -1.0189850532 -0.2948139064
C 2.0208602421 -1.3600909678 0.1747305078
C 0.9296428986 -1.0292568271 -0.6057080298
C 5.5818963608 -0.6092282992 -0.0006989778
C 6.0608163046 -1.4552236282 -1.0043610446
C 7.2605907257 -1.1862141615 -1.6498469458
C 8.0058262543 -0.0616120248 -1.2837948990
O 9.1947761199 0.2519221217 -1.8750844460
C 7.5406386045 0.7915032596 -0.2830315201
C 6.3319518972 0.5157361279 0.3446415684
C -2.2778796581 3.4812052883 -1.6659078542
O -1.1863927659 4.1061998715 -2.3476703101
C -2.4553376460 4.2176616399 -0.3430987130
O -2.6742624730 5.6172085444 -0.5409410755
C -1.2534322106 3.9769902216 0.5679730283
O -1.4722213991 4.5694376256 1.8499379086
H 0.1079145630 2.5808012596 2.5784965199
H 1.0795057061 2.5422158227 1.0886395805
H -1.9449997419 2.0641060201 1.2599412538
H -1.6676606005 1.4978782104 -2.3280168522
H -3.3080954848 -0.0775619714 -2.3311836898
H -5.1252853582 0.2288531435 0.1132610719
H -5.3337553588 -1.8030779053 -2.1563970369
H -7.3103813230 -1.0053975732 -1.1286529491
H -4.6590078042 -2.1303420921 0.8163460294
H -5.9068195439 -4.0591749441 -0.0608936472
H -4.2034948039 -4.4590653422 0.2667961050
H -3.8756505367 -4.2270696012 -2.0236677301
H -2.6904357336 -0.6797077181 0.6092923488
H -1.5476573280 -2.3082023457 1.4057664209
H 1.2597726504 -3.1961090535 3.3554188415
H 4.6241822489 -3.0456212887 0.8953568290
H 4.0322114403 -0.0751207694 1.3702985323
H 5.4880936113 -2.3308863708 -1.2955545802
H 7.6231719581 -1.8452115704 -2.4343142758
H 9.4096052593 -0.4140198032 -2.5419745801
H 8.1253803103 1.6642794829 -0.0116470486
H 5.9686106130 1.1870471873 1.1177288980
H -3.1989787850 3.5524765802 -2.2596913621
H -1.2408843660 3.8743578676 -3.2827102717
H -3.3527024692 3.8360695215 0.1575657066
H -1.9865842010 5.9195178599 -1.1525864220
H -0.3484619850 4.3970162830 0.0993190097
H -1.7739495635 5.4736981725 1.6857036195
H 0.2903864429 1.0593182953 1.6769246610
H 5.1079699477 -2.1127844624 2.3218645723
H -5.5669379581 1.6653033895 -1.6032585637
H 1.0540092010 -0.4797450522 -1.5303472657
