49
CONF58
C -5.0248913476 -1.9778105110 -0.3277018942
C -4.2929293085 -0.7454885275 -0.7816461918
C -3.6036908715 0.0040440234 0.0947595771
C -2.8413978104 1.2280479349 -0.2038464255
C -1.5812204303 1.5345645277 0.6194850240
C -2.8210843163 2.4332859497 0.6972624372
C -3.5652613406 2.4026406899 2.0142470000
C -2.8003803043 3.7999842730 0.0519434036
C -0.3632815672 1.9517038804 -0.0858311371
O -0.2968463259 2.4409206386 -1.1969518551
O 0.7332582309 1.7143709581 0.6983378601
C 2.0390902500 1.9925498051 0.1303880713
N 2.8104294782 0.7914440392 0.0933471886
C 3.5697723065 0.2924942826 1.1652421826
O 3.7329619657 0.8612539659 2.2262377906
C 4.0996705965 -1.0261414671 0.7246134225
C 3.6456787739 -1.2811958274 -0.5146032793
C 2.7899010433 -0.1458353083 -0.9531119170
O 2.1807362771 -0.0117384146 -1.9956733538
C 3.9661361477 -2.4942093552 -1.3075642393
C 5.1403656681 -3.2396570746 -0.6538300044
C 4.9790498272 -3.3251068769 0.8695242634
C 4.9691994626 -1.9315103249 1.5166662138
C -4.4167209516 -0.4590415954 -2.2504784936
H -4.6557215172 -2.8633815621 -0.8608774498
H -4.9127814207 -2.1464806874 0.7464759517
H -6.0947200123 -1.8989057746 -0.5596226114
H -3.5977117933 -0.3190460600 1.1342194531
H -2.7159454267 1.4793227701 -1.2527478035
H -1.4126530201 0.9161918591 1.4947419590
H -3.4979257193 1.4340449742 2.5132610637
H -3.1574491814 3.1624426965 2.6895555178
H -4.6242249388 2.6313753319 1.8479827716
H -3.8305027940 4.1459275362 -0.0884196920
H -2.2884224347 4.5222366688 0.6984484730
H -2.3039599015 3.7897465243 -0.9193725884
H 1.9247768492 2.3900986731 -0.8792716707
H 2.5261846478 2.7112799879 0.7917706393
H 4.1959341301 -2.2160388606 -2.3428970291
H 3.0750553311 -3.1363513800 -1.3570819490
H 5.2216966081 -4.2431610381 -1.0818373080
H 6.0728747436 -2.7105194584 -0.8880218307
H 5.7854392854 -3.9249549398 1.3016372001
H 4.0346781406 -3.8328666314 1.1033621564
H 4.6198406888 -1.9740774190 2.5549773769
H 5.9850680529 -1.5129024457 1.5543734168
H -4.0448647279 -1.3113070885 -2.8330920817
H -5.4733603443 -0.3375577041 -2.5204944840
H -3.8798506092 0.4353140511 -2.5692075239
