66
CONF18
C -4.2336198954 4.0853087874 -0.5920377265
C -2.7198371665 4.0049713306 -0.5597776678
O -2.2761254799 2.7755693471 0.0589674275
C -2.2177238769 1.6820642916 -0.7551006060
O -2.5293165469 1.7273975238 -1.9339849365
C -1.7487336906 0.5095915062 -0.0173221736
C -1.7135778586 -0.7040169510 -0.6333505462
N -1.3880463100 -1.8225078163 0.1001724040
C -1.1334391417 -1.8256573291 1.4542084035
C -1.1144865383 -0.6443923361 2.1313560778
C -1.2546810929 0.6930902135 1.4112363737
C 0.0328821790 1.5308634898 1.4486403079
C 0.0309008039 2.7246520026 2.1704274658
C 1.1330362915 3.5687225476 2.1917368171
C 2.2751846318 3.2351226989 1.4675802912
C 2.2960036241 2.0610415332 0.7325787737
C 1.1899627360 1.1960753284 0.7112492016
C 1.2569521974 -0.0352477444 -0.0675418015
C 1.8377197720 -0.1872794625 -1.2678056033
C 1.7735626651 -1.4911815786 -1.9492710662
O 1.1915635168 -2.4784904332 -1.5289226178
O 2.4307303213 -1.4247982969 -3.1280702174
C 2.4854941074 -2.5872403408 -4.0386646741
C 3.2969021001 -2.0479114310 -5.2113006719
C 3.2139947187 -3.7461259210 -3.3660931924
C 1.0777383459 -2.9658774550 -4.4891524696
C -0.9374435687 -0.6485385997 3.5841362791
O -0.6751964676 -1.6125193262 4.2841878336
O -1.1141477102 0.6023074366 4.0985536007
C -0.8369962173 0.7525130041 5.5107823789
C 0.6520139417 0.9144675347 5.7486608036
C -0.9064614788 -3.1893786945 2.0329386213
C -2.0083523467 -0.9787427337 -2.0758749353
H -4.6472638141 3.9863351270 0.4157214828
H -4.6447411578 3.2962060007 -1.2258378806
H -4.5440737322 5.0530190077 -0.9992664446
H -2.2900812313 4.7911883945 0.0674609226
H -2.2979859480 4.0702079385 -1.5668472606
H -1.1630317705 -2.6591829660 -0.4149594082
H -1.9970375839 1.2855645099 1.9530932581
H -0.8668532163 2.9938825696 2.7176015145
H 1.1007827637 4.4875434943 2.7692057311
H 3.1453496912 3.8833738674 1.4823534997
H 3.1901205180 1.7762798867 0.1866415691
H 0.7950879776 -0.9173822982 0.3599360589
H 2.3072233271 0.6339984161 -1.7994083108
H 4.2881038757 -1.7297402881 -4.8768899504
H 3.4175902196 -2.8271809177 -5.9690024357
H 2.7916607901 -1.1920617731 -5.6673696717
H 3.3790650867 -4.5389608827 -4.1024943443
H 2.6352674606 -4.1504540621 -2.5354134237
H 4.1892456471 -3.4157651933 -2.9960380244
H 0.5541188085 -2.0857888955 -4.8750417609
H 1.1473775691 -3.7024213588 -5.2957846565
H 0.5001052075 -3.3962356315 -3.6707369696
H -1.2377544275 -0.1102206588 6.0508811425
H -1.3882059660 1.6516385458 5.7995674123
H 1.0445224972 1.7504297161 5.1621766606
H 0.8391524331 1.1113269609 6.8092062618
H 1.1855176532 0.0034383091 5.4674431971
H -0.9668401904 -3.9526269808 1.2519180495
H -1.6448926517 -3.4107661919 2.8068822040
H 0.0687976843 -3.2459958800 2.5200342726
H -1.8230483168 -2.0304607530 -2.3126508420
H -3.0452833563 -0.7321679308 -2.3168654089
H -1.3884537094 -0.3508703083 -2.7186576361
