52
CONF463
C -4.2256510091 -1.3072932450 -0.8400872223
C -3.2753369573 -1.4476782795 0.3482501018
C -2.0635167749 -2.3433392201 0.0757024455
C -1.2053344577 -1.8598050541 -1.0938979157
C 0.1601204165 -2.5518439202 -1.2180314238
C 0.7751670602 -2.2910074172 -2.6018536611
C 2.1542922498 -2.9096592751 -2.8188380806
C 1.1043439818 -2.1678722304 -0.0877209798
O 1.5166097550 -0.7703133350 -0.2325751712
P 1.1345975107 0.3117939021 0.8657637342
O 0.0231613701 -0.0342403026 1.7772931757
O 2.5664601998 0.6078277194 1.5377337664
C 2.7047643984 1.5979882846 2.5201347134
C 2.0413779530 1.4933501883 3.7358430407
C 2.2575949994 2.4767617531 4.6969215641
C 3.1253597433 3.5354478467 4.4449118558
C 3.7822855346 3.6160306170 3.2200123795
C 3.5728936730 2.6454982311 2.2461831425
O 0.9573567955 1.6658461545 0.0000216203
C -0.1949363863 1.8079521660 -0.7830559183
C -0.0537513466 1.7369099132 -2.1619142537
C -1.1839860982 1.8793311092 -2.9606528256
C -2.4318807404 2.0882143705 -2.3797208617
C -2.5483460280 2.1669906912 -0.9945299291
C -1.4266110983 2.0310112693 -0.1822568112
H -5.1202708635 -0.7402737290 -0.5630238636
H -3.7504063420 -0.7811987957 -1.6741966270
H -4.5520387826 -2.2891621570 -1.2027150851
H -3.8243058567 -1.8500777197 1.2083736289
H -2.9105282189 -0.4571690764 0.6481948972
H -2.3990618943 -3.3716289739 -0.1227327796
H -1.4622681596 -2.3763425201 0.9914338658
H -1.7483687482 -2.0121999001 -2.0345234204
H -1.0510414320 -0.7756915486 -1.0140512781
H 0.0126089834 -3.6390789023 -1.1067230743
H 0.8243449900 -1.2070646756 -2.7619508661
H 0.0773997391 -2.6806048504 -3.3528531139
H 2.4659244899 -2.8050443379 -3.8623065150
H 2.9177796946 -2.4258398299 -2.2020945238
H 2.1519702062 -3.9792797132 -2.5788652156
H 2.0279746634 -2.7521800583 -0.1189531458
H 0.6321566386 -2.3033989955 0.8890640136
H 1.3660128284 0.6643608754 3.9112734356
H 1.7445159473 2.4085963420 5.6506906228
H 3.2903082193 4.2953500941 5.2012823414
H 4.4596306241 4.4391785669 3.0171899649
H 4.0675025209 2.6875225469 1.2824013013
H 0.9283821262 1.5619050300 -2.5866780796
H -1.0874843496 1.8208925646 -4.0398993329
H -3.3122484140 2.1915435965 -3.0051160395
H -3.5196108442 2.3292341800 -0.5384704278
H -1.4959115103 2.0697498705 0.8985093393
