46
CONF51
C -4.3854114228 -2.1839639693 1.2377874173
C -3.6718308770 -1.6025695790 2.4359712265
C -2.1872628975 -1.7259395403 2.5674440723
C -2.8247955717 -0.3394125915 2.3020665303
C -2.5321829363 0.3160949994 1.0167973932
O -2.4510585366 -0.2207031066 -0.0719829222
O -2.3110077681 1.6429068567 1.2095959429
C -1.8049369471 2.3793220199 0.0509848933
C -0.3247602638 2.1574490112 -0.0909706706
C 0.1693217121 1.2781746872 -1.0528097524
C 1.5393000583 1.0458441946 -1.1378888063
C 2.4299644256 1.6788032348 -0.2734928350
C 1.9284212065 2.5642594918 0.6768147688
C 0.5621336448 2.8081739792 0.7717730490
O 1.9399397002 0.1031863473 -2.0646213623
C 3.2020682512 0.1995294903 -2.6292857793
C 3.9549818071 -0.9669989777 -2.7039742235
C 5.1942275912 -0.9348809332 -3.3391155068
C 5.6759106045 0.2526640965 -3.8849611235
C 4.9069200601 1.4130259385 -3.8018499811
C 3.6633049021 1.3940384553 -3.1779730505
C -1.3558868607 -2.3775415843 1.5371264268
C -0.0598900053 -2.1173365388 1.3786826453
Cl 0.9304224545 -2.9052607867 0.1816542467
Cl 0.7819342855 -0.9225510663 2.3241383492
C -4.4750157965 -1.6857443737 3.7176294216
H -5.3332944001 -1.6584556308 1.0811163973
H -3.8011526483 -2.1094172897 0.3214867132
H -4.6122128404 -3.2383822400 1.4310539894
H -1.7952675292 -1.8021816679 3.5799657685
H -2.8306281380 0.3323415637 3.1534778654
H -2.0283982694 3.4216467889 0.2848582694
H -2.3491191226 2.0694971114 -0.8436020320
H -0.5031536476 0.7593573803 -1.7272003342
H 3.4941966820 1.4811196596 -0.3388841745
H 2.6168731230 3.0631694034 1.3517630045
H 0.1801812856 3.4997682964 1.5167703654
H 3.5645278910 -1.8815315129 -2.2695305335
H 5.7855467300 -1.8431095268 -3.4009175672
H 6.6434831828 0.2747006967 -4.3754375519
H 5.2716723977 2.3399733917 -4.2334385604
H 3.0553086566 2.2908134304 -3.1166026207
H -1.8010345268 -3.1124090665 0.8733185396
H -3.9252644576 -1.2652558027 4.5644349489
H -4.7083962743 -2.7319788581 3.9435352391
H -5.4186776288 -1.1402358773 3.6113154796
