39
CONF66
C -1.1044560839 0.3349565083 -4.8939134493
C -1.6468208245 0.0703069720 -3.4915610238
C -0.5640934839 0.2757693091 -2.4347292981
N -1.0667753523 -0.0113706321 -1.0800296555
C -0.7373262219 -1.3297257700 -0.5269354120
C 0.6633141990 -1.3683553530 0.0487731415
O 0.6606701011 -0.5064220382 1.2191429611
C 1.8929054889 -0.2320166428 1.7198722757
C 2.6245496499 0.8783020992 1.2805311352
C 3.8629411793 1.2079103917 1.8159944303
C 4.3740422842 0.3975094594 2.8214055222
C 3.6892023491 -0.7106292071 3.3025728216
C 2.4545799317 -1.0086427835 2.7401826070
Cl 1.5612303114 -2.3868822905 3.3306076899
Cl 5.9353051928 0.7919086331 3.5126359990
Cl 1.9405640431 1.8841332305 0.0291039278
C -1.6040260617 1.0104691411 -0.3846524147
O -1.6330891154 2.1799196673 -0.7493090997
N -2.2074999506 0.6636515967 0.8824667915
C -3.2271458541 -0.2388433657 1.1338145768
C -3.4932296300 -0.1202706498 2.4706585217
N -2.6646809726 0.8241656139 3.0495939389
C -1.9172041694 1.2830706193 2.0680235697
H -1.8832860321 0.1907534431 -5.6479221295
H -0.7335483271 1.3617592058 -4.9822998480
H -0.2771203172 -0.3437257987 -5.1279682998
H -2.0282810922 -0.9555111048 -3.4193666540
H -2.4853193317 0.7431247504 -3.2754821141
H 0.2812205323 -0.3941117756 -2.6235165338
H -0.1891910390 1.3023322125 -2.4636279255
H -0.8086752494 -2.0648582653 -1.3347482614
H -1.4509762316 -1.6203565570 0.2443301484
H 1.4092280191 -1.0065084936 -0.6686811010
H 0.9142204188 -2.3931613279 0.3479688510
H 4.4076303879 2.0730371672 1.4589872068
H 4.1001855457 -1.3268810893 4.0924705091
H -3.6691883895 -0.8354845296 0.3501906819
H -4.2391427540 -0.6526482961 3.0444934411
H -1.1407131449 2.0333263470 2.1409224879
