63
CONF90
C 1.2163830718 -0.2411911712 1.2442270928
C -0.0181042031 -1.1279329794 1.1081489081
N 0.0854101162 -1.9891595693 -0.0743994817
C 1.2518231103 -2.8697294774 0.0462852095
C 2.5426684341 -2.0603670451 0.1283945695
C 2.4727296292 -1.1075253797 1.3215155530
N 3.6912919847 -0.3056668050 1.4646005399
C 4.5578290510 -0.3366455625 2.5523907703
C 4.5388218189 -1.0672140308 3.7319414862
C 5.5836525001 -0.8587922263 4.6378421008
C 6.6099442890 0.0497739215 4.3699974137
C 6.6308732383 0.7867169738 3.1824570475
C 5.5952358020 0.5794935485 2.2861880513
N 5.3221420321 1.1328844067 1.0495922021
C 4.1543860334 0.6065027122 0.5193980881
O 3.6430679472 0.8925318822 -0.5617325642
C -1.1310722863 -2.7871329422 -0.2806679931
C -2.3767348426 -1.9439482746 -0.5528478998
C -2.1964090394 -0.9639269140 -1.7100323333
C -3.3701300448 0.0211964824 -1.8332332792
C -3.4384552560 0.9293429739 -0.6140523260
C -2.4062883206 1.8347696134 -0.3463499721
C -2.4350855672 2.6484978062 0.7812837663
C -3.5204378187 2.5430048390 1.6362551436
C -4.5665336802 1.6677216679 1.4096220372
C -4.5130939832 0.8603024109 0.2737853495
F -3.5566603507 3.3347484280 2.7427320896
C -3.3414904093 0.8514032375 -3.1061860036
C -4.5415653925 1.3792370982 -3.5961282043
C -4.5738111283 2.1779434574 -4.7342985829
C -3.3760968747 2.4434614387 -5.3773270803
C -2.1659417432 1.9447309121 -4.9325328400
C -2.1591588396 1.1455639030 -3.7897092183
F -3.3930787632 3.2213994818 -6.4940646970
H 1.1306162056 0.3732811376 2.1475407561
H 1.2829356666 0.4280800888 0.3802318494
H -0.9007911726 -0.4874024757 1.0131021178
H -0.1474455027 -1.7344636895 2.0294875687
H 1.1680337021 -3.5218048993 0.9413609060
H 1.2843989496 -3.5270291415 -0.8302515277
H 2.6762134601 -1.4855072135 -0.7933356124
H 3.3976337144 -2.7367062620 0.2397418294
H 2.4084910644 -1.7133383380 2.2331700682
H 3.7483863241 -1.7754516965 3.9532325693
H 5.5923982013 -1.4174446580 5.5680504434
H 7.4064256338 0.1883024449 5.0937047446
H 7.4246848903 1.4940941699 2.9671851802
H 5.8722293593 1.8273763675 0.5693760480
H -1.3263461291 -3.4479075860 0.5881602371
H -0.9457607498 -3.4401457970 -1.1439366512
H -3.2042213356 -2.6293560212 -0.7753700383
H -2.6731129249 -1.4011560117 0.3523147459
H -1.2639195511 -0.4084970047 -1.5651499300
H -2.0895847235 -1.5206370105 -2.6503322516
H -4.3004778306 -0.5609830105 -1.8523862608
H -1.5638084549 1.9120028458 -1.0279924503
H -1.6372101184 3.3513925761 0.9962033943
H -5.3978788383 1.6169606826 2.1045637914
H -5.3220259123 0.1607020528 0.0827109560
H -5.4705723074 1.1608973142 -3.0758957280
H -5.5031040950 2.5838241106 -5.1195478817
H -1.2509485890 2.1734575551 -5.4684641718
H -1.2113460164 0.7505021667 -3.4405687405
