61
CONF564
C -3.1865781368 4.2064743403 2.7907632421
C -2.3047658203 2.9864130233 2.5343043497
C -2.6203742852 1.8329239363 3.4873835863
C -1.7574958149 0.5995343421 3.2303255840
C -2.1322760252 -0.1297481614 1.9557840954
O -3.2327545528 0.1080348818 1.4040189878
N -1.2846743245 -1.0464221103 1.4386275143
C 0.0641424702 -1.3034130027 1.9673558495
C 1.1328140697 -0.7474226182 1.0529660691
C 2.2517297383 -1.5114880774 0.7245303910
C 3.2172456428 -1.0166917633 -0.1485013967
C 3.0701469274 0.2465317553 -0.7248284070
C 1.9702515168 1.0305657037 -0.3554412938
C 1.0131310703 0.5390301169 0.5190318443
C 4.0256929478 0.7298894013 -1.7483407413
C 5.3877037744 0.8204260018 -1.4479211324
C 6.2960152439 1.3264137115 -2.3721108113
C 5.8536589735 1.7548573913 -3.6213395946
C 4.5069240124 1.6521183807 -3.9480112913
C 3.5893634523 1.1324712004 -3.0291750064
C 2.1896576737 0.9846536756 -3.4359531310
N 1.4237708826 -0.0679488133 -3.1295992445
N 0.2707101943 0.2688414578 -3.6755778880
N 0.2768442325 1.4392048645 -4.2897739401
N 1.4970724981 1.9101868617 -4.1570106036
C -1.6608023092 -1.9053416003 0.2867378725
C -2.8733274451 -2.8266725583 0.5810443958
C -3.1270990095 -3.7509062032 -0.6120974514
C -2.6124059363 -3.6392870504 1.8500735655
C -1.8384673558 -1.1446607547 -1.0355796310
O -1.2530099206 -1.4972533314 -2.0484700232
O -2.6881792251 -0.1312800262 -1.0491740168
H -3.0620850381 4.5687765525 3.8174236449
H -4.2444259857 3.9583445447 2.6501313704
H -2.9397717398 5.0280095603 2.1111243267
H -1.2475078604 3.2614996471 2.6469271440
H -2.4320398890 2.6494160181 1.4981692856
H -3.6806203651 1.5678904751 3.4156173112
H -2.4412152836 2.1602868877 4.5186267095
H -0.7051753346 0.8995952063 3.2017105727
H -1.8500042449 -0.1216744400 4.0542437320
H 0.1499935719 -0.8805688154 2.9690836653
H 0.1916682293 -2.3852894249 2.0751610245
H 2.3575675454 -2.5129404919 1.1330191514
H 4.0635208145 -1.6379931449 -0.4266625301
H 1.8533041986 2.0233544999 -0.7803692420
H 0.1538129914 1.1563313279 0.7678698883
H 5.7283568123 0.5131385781 -0.4636797864
H 7.3475608017 1.3953900081 -2.1121193766
H 6.5565770252 2.1551629476 -4.3444741262
H 4.1580402093 1.9513954220 -4.9310470279
H -0.5699968705 -0.2962890525 -3.5237349616
H -0.7978700377 -2.5543498627 0.1139057357
H -3.7596793332 -2.2030940363 0.7340754785
H -2.2394558323 -4.3547849178 -0.8334285984
H -3.3983996077 -3.1959219255 -1.5153236783
H -3.9512670311 -4.4306512472 -0.3776397437
H -1.7245783327 -4.2707183342 1.7273731402
H -2.4624624034 -2.9982258896 2.7238942429
H -3.4674587498 -4.2908254103 2.0531876013
H -3.0510530965 -0.0052996049 -0.1019439676
