31
CONF3
C -2.9886140449 -0.7646189961 1.1730349804
C -2.0985268570 0.1544617906 0.3632729558
C -2.3812169856 0.1279047036 -1.1614387453
C -0.9936271971 0.1391662055 -1.7429406140
C -0.5198325336 0.3378049468 -3.0294236482
C 0.8545859591 0.2458814585 -3.2641526918
C 1.7343316833 -0.0296757244 -2.2189372657
C 1.2541891590 -0.2272948196 -0.9307776598
C -0.1130274246 -0.1561291873 -0.7058098458
O -0.7136914346 -0.3609481322 0.4908494202
O 2.1307030901 -0.5416874022 0.1001617185
C 2.2044173647 0.3887422316 1.1252663799
O 1.7030318258 1.4893925347 1.0886099514
N 2.9263931307 -0.1224518649 2.1540388876
C 3.5886902195 -1.4188474456 2.1551059862
C -2.0785658354 1.5782832024 0.9019292758
H -2.9237150208 -1.7900263431 0.7991020788
H -4.0284868792 -0.4305430315 1.1035474260
H -2.6922630333 -0.7547335321 2.2256349487
H -2.9871479336 0.9861827351 -1.4673115987
H -2.9185484056 -0.7857061306 -1.4483355743
H -1.2025485549 0.5623304355 -3.8429947734
H 1.2458830452 0.4021524953 -4.2632916543
H 2.8048796869 -0.0816656414 -2.3861026627
H 3.1212163188 0.5358971764 2.8879776018
H 4.4056599063 -1.4675042835 1.4250216677
H 3.9995704983 -1.5949013212 3.1518271250
H 2.8756339363 -2.2159528582 1.9287034630
H -1.7375402227 1.5830359732 1.9402649542
H -3.0808525485 2.0164770209 0.8533252349
H -1.3909805104 2.1949740946 0.3152790964
