44
CONF46
C -4.2956961812 -2.6647530813 0.3251311839
C -2.8927931829 -2.2999393154 -0.0969689667
C -2.6230649024 -2.3537248057 -1.5918333418
O -1.5681348576 -1.3974745056 -1.7650003758
C -1.6901785496 -0.4275926803 -0.7232122251
O -2.6726169624 -0.9014931625 0.1748918228
C -2.2002661189 0.9245306256 -1.2737294376
N -3.3544882491 0.7481026696 -2.1276931742
C -3.3732717074 0.4005496810 -3.4360978355
N -4.6163588384 0.2055360398 -3.8434804946
C -5.3364086882 0.4469691197 -2.7109448707
N -4.6203683364 0.7730114151 -1.6426817615
C -0.3405604631 -0.2515247020 -0.0318209374
C -0.2765571645 -0.3433475844 1.3610888692
C 0.9098231189 -0.1851729023 2.0600251372
C 2.0801610637 0.0748631055 1.3560271710
C 2.0630220638 0.1766807084 -0.0318061909
C 0.8562768003 0.0203339289 -0.7031825472
Cl 0.9258636875 0.1714818050 -2.4543912183
O 3.2406872645 0.1572641987 2.0889443574
C 4.2924222967 0.9191611409 1.6110260655
C 5.5588956333 0.3491526169 1.6388770600
C 6.6612185943 1.1017397831 1.2493971174
C 6.4745334559 2.4131729466 0.8294519712
C 5.2078618377 2.9878389657 0.8009216811
C 4.1095540944 2.2366315219 1.1995145586
Cl 7.8598740322 3.3633067882 0.3307918389
H -5.0159076005 -2.0206078239 -0.1871825386
H -4.4190702218 -2.5401582152 1.4037554279
H -4.5025349554 -3.7097877427 0.0741417103
H -2.1409884324 -2.8967260271 0.4446182232
H -2.2575817856 -3.3233640145 -1.9397440056
H -3.5157670017 -2.0597114481 -2.1637464433
H -2.4792080788 1.5627510831 -0.4318598808
H -1.4092310595 1.4077992475 -1.8509654284
H -2.4713480938 0.3001800050 -4.0248702501
H -6.4164489786 0.3911688787 -2.6712770575
H -1.1962746515 -0.5436603679 1.8978977648
H 0.9432586581 -0.2612810255 3.1406658564
H 2.9737146987 0.3667441263 -0.5862033055
H 5.6734403272 -0.6769771505 1.9697077734
H 7.6554473601 0.6712510664 1.2670809243
H 5.0830940086 4.0154227680 0.4802468458
H 3.1159750815 2.6716525152 1.1929665305
