28
CONF116
O -3.2080997778 2.1679881019 0.3584595081
C -2.6152888764 0.9878657082 0.9082322067
C -2.0860273852 0.1427736269 -0.2188060875
O -0.9687158878 0.8113092871 -0.8630864462
C -0.0185581043 -0.1419812982 -1.2953574686
C -0.5686017537 -1.5210602026 -0.9357343181
C -1.5198988762 -1.2148073965 0.2156246840
O -2.5025715976 -2.2342945107 0.3277115035
N 1.2888430455 0.1375461312 -0.6154638215
C 1.3769220510 0.8599584716 0.5393784785
C 2.5529813470 1.0955792477 1.1683151992
C 3.7787068089 0.5803877766 0.6221918756
O 4.9078058480 0.7265949883 1.0917507037
N 3.6001100613 -0.1486948701 -0.5624955473
C 2.4148312895 -0.4181412750 -1.2129581486
O 2.3532079278 -1.0945748515 -2.2337347997
H -3.5417272185 2.6990353402 1.0916058391
H -1.7992186427 1.2381529160 1.6019413766
H -3.3616109206 0.3889281915 1.4537897560
H -2.8776316930 -0.0219858881 -0.9652728680
H 0.1747749256 -0.0230025880 -2.3641735719
H 0.2159967784 -2.2358235048 -0.6838141743
H -1.1501449478 -1.9096431682 -1.7786870203
H -0.9661831198 -1.1013247013 1.1601863410
H -2.9325251829 -2.1482781849 1.1877047135
H 0.4361057558 1.2466394285 0.9116117211
H 2.5870586962 1.6768587938 2.0794915213
H 4.4294600524 -0.5460049714 -0.9884111402
