63
CONF152
C 3.8439588049 0.4977083102 0.1257961385
C 2.7021621068 0.9016581263 -0.8014885140
N 1.4207110408 0.3563360658 -0.3324719558
C 1.1148871905 0.9030249743 0.9971885294
C 2.1791344475 0.4991006417 2.0134475119
C 3.5504278745 0.9837930913 1.5450891677
N 4.6169564316 0.6354330136 2.4832841404
C 5.0510031499 -0.6305945301 2.8686885546
C 4.6394304621 -1.9130538604 2.5261515647
C 5.3099137984 -2.9899889096 3.1140694880
C 6.3582521978 -2.7940789747 4.0150434200
C 6.7764444932 -1.5070555332 4.3626953972
C 6.1112868706 -0.4414107702 3.7797287403
N 6.2828851492 0.9238256314 3.9138313750
C 5.3777453941 1.6108760675 3.1265477106
O 5.2661668395 2.8304032630 3.0151213672
C 0.3605563686 0.6768271636 -1.2990251768
C -0.9486196363 -0.0634265262 -1.0394401731
C -1.9479105107 0.1671872893 -2.1721050479
C -3.2931116120 -0.5445437881 -1.9455122709
C -4.0429471951 -0.0907159438 -0.7036188277
C -3.9910560664 1.2216481140 -0.2254787683
C -4.7315038301 1.6154583840 0.8874030073
C -5.5251728420 0.6717033370 1.5143072916
C -5.6057070940 -0.6406663044 1.0811695026
C -4.8560908395 -1.0094052941 -0.0318302377
F -6.2500177800 1.0452837138 2.6036576590
C -4.1700157596 -0.4289609012 -3.1824825725
C -4.7639436395 0.7862456532 -3.5379829489
C -5.5356944139 0.9017183676 -4.6902564312
C -5.7056791313 -0.2236729611 -5.4797101393
C -5.1398831572 -1.4463579990 -5.1675128404
C -4.3686998550 -1.5364113878 -4.0098337988
F -6.4636808485 -0.1228738658 -6.6055759712
H 4.7826441652 0.9363787275 -0.2302296935
H 3.9539846666 -0.5919985864 0.1085228592
H 2.8954947637 0.5193335384 -1.8100441287
H 2.6595070017 2.0085317391 -0.8716318482
H 1.0418572681 2.0100738888 0.9571925251
H 0.1441468255 0.5250209987 1.3299299884
H 2.1731760155 -0.5901619962 2.1267011473
H 1.9435093157 0.9393984893 2.9885750272
H 3.5382080259 2.0806484482 1.5343679526
H 3.8295029969 -2.0891049422 1.8297424385
H 5.0036080392 -3.9993800761 2.8596546246
H 6.8579258257 -3.6515882158 4.4534933054
H 7.5900219539 -1.3432824780 5.0613940507
H 6.9648149707 1.3867016495 4.4935851261
H 0.7290982266 0.3946204406 -2.2939188568
H 0.1661778794 1.7687015416 -1.3288493466
H -0.7433977728 -1.1378653624 -0.9453549869
H -1.3951170164 0.2621577948 -0.0939965845
H -2.1132177729 1.2420493686 -2.3220157380
H -1.5275661406 -0.2091256960 -3.1132153758
H -3.0760048548 -1.6115499895 -1.8115202871
H -3.3619000497 1.9583157337 -0.7143034907
H -4.6909973875 2.6320254829 1.2636853744
H -6.2348852158 -1.3521477354 1.6051890627
H -4.9065623568 -2.0352214695 -0.3870956481
H -4.6300005061 1.6594315399 -2.9064307490
H -6.0004740646 1.8407474704 -4.9712312909
H -5.3007110311 -2.3041166432 -5.8117463785
H -3.9150287776 -2.4885698046 -3.7493430705
