54
CONF257
C -6.2170643219 -2.1816321499 0.3536251398
C -5.1761235319 -1.1268449483 0.7063873934
C -4.9142046057 -0.0862025671 -0.4454625142
N -3.5511087777 0.3738379093 -0.2468307236
C -2.6960185012 -0.3489157677 0.7146625760
S -3.5165113678 -1.9650180109 0.9601127006
C -1.5166614982 -0.2026761091 -0.2964712968
C -2.5316869098 0.5684842157 -1.1708540034
O -2.5020781243 1.1382123226 -2.2353864969
N -0.3189215259 0.4608388108 0.1080489694
C 0.8987463213 -0.1371727974 0.0634654192
O 1.0795820373 -1.2911596626 -0.3079229204
C 2.0538035176 0.7474901640 0.5736033163
C 1.9962017323 2.1829498343 0.1058399929
C 1.8333598991 2.4886691171 -1.2489325386
C 1.7927001617 3.8140568838 -1.6669337711
C 1.9129233475 4.8465883701 -0.7373837506
C 2.0721762338 4.5477398121 0.6127275214
C 2.1135411404 3.2199693868 1.0327034273
C 3.3505688321 0.0619106991 0.1663701118
O 3.9168191299 0.1976830415 -0.8879133856
O 3.7873149540 -0.7401316422 1.1732080803
C 4.9349552744 -1.5144586809 0.9176255731
C 4.8070883039 -2.6999013412 0.2094032260
C 5.9409079571 -3.4858462828 0.0207882126
C 7.1709297852 -3.0819358771 0.5374479584
C 7.2714265157 -1.8866326582 1.2459946297
C 6.1455469335 -1.0891302916 1.4407789298
C -5.0749042230 -0.7256288365 -1.8211590348
O -4.2273825349 -1.3778253535 -2.3852963073
O -6.3069153560 -0.4995549301 -2.3080158736
C -5.5872709945 -0.3682105519 1.9694886295
H -7.1752344755 -1.6958520096 0.1435079254
H -6.3584445201 -2.8536983895 1.2043497791
H -5.9241154934 -2.7790236485 -0.5143066974
H -5.6439742497 0.7238627108 -0.3422901679
H -2.5468668254 0.1835774709 1.6587201834
H -1.2668850992 -1.1578522830 -0.7679995313
H -0.3740321967 1.4260044025 0.4041067048
H 1.9881834163 0.7200732314 1.6674515788
H 1.7329921053 1.6872913137 -1.9745983164
H 1.6634457709 4.0422315445 -2.7202097319
H 1.8784854803 5.8805357614 -1.0659479528
H 2.1631616311 5.3466497859 1.3419059397
H 2.2378483620 2.9867664708 2.0864816403
H 3.8394891489 -2.9949732724 -0.1825031615
H 5.8599126591 -4.4169417725 -0.5308121543
H 8.0505033667 -3.6995937481 0.3884133802
H 8.2275425515 -1.5701314675 1.6502280293
H 6.1998557420 -0.1540715928 1.9882249245
H -6.3921784463 -0.9701775542 -3.1557658742
H -5.6820753671 -1.0634492157 2.8070014003
H -6.5571476781 0.1139182265 1.8022459919
H -4.8622063798 0.4053009322 2.2363614238
