45
CONF57
C 7.7619955877 0.2515448510 -2.0546887732
C 6.5458005442 -0.0787027828 -1.1906252699
C 6.1466950799 1.0859973121 -0.2825323472
C 5.0016134872 0.7716247757 0.6842695505
C 3.6645818731 0.4795624538 0.0014285127
C 2.5272169089 0.2677522683 0.9999724731
C 1.1841382505 -0.0001013444 0.3251766141
C 0.0514964657 -0.2204189331 1.3424438437
C -1.2890707222 -0.4312688637 0.6895310064
C -1.6270622338 -1.7074037543 0.2304375199
N -2.8392878451 -1.8203680315 -0.3857418912
C -3.6892855484 -0.7395611189 -0.5655090928
N -4.7922758545 -1.1748924920 -1.1998345230
C -4.5490447109 -2.4936144415 -1.3686400033
N -3.3859619536 -2.9565595948 -0.9030378963
N -3.3817949619 0.4866928318 -0.1492548623
C -2.2009412506 0.6286245300 0.4655191868
C -1.8522108479 2.0178458749 0.9473956882
C -2.8367000952 3.1088376863 0.5459843570
N -0.8643163413 -2.8161282867 0.2985554963
H 8.6312719662 0.4891458953 -1.4312683559
H 7.5619991867 1.1208577516 -2.6912072214
H 8.0328936121 -0.5859149230 -2.7055092363
H 6.7593881717 -0.9600151113 -0.5704944417
H 5.7050688675 -0.3526340917 -1.8394514813
H 5.8702125816 1.9495537093 -0.9043711707
H 7.0272915647 1.3936718695 0.2977249644
H 4.8679864795 1.6231064755 1.3651313664
H 5.2819734295 -0.0856574395 1.3128624049
H 3.7516372193 -0.4119139227 -0.6327096021
H 3.4101364058 1.3141087908 -0.6676237096
H 2.4366260118 1.1542741165 1.6434599325
H 2.7765383339 -0.5728086454 1.6630417912
H 0.9215855706 0.8458986275 -0.3234092207
H 1.2657113558 -0.8783416049 -0.3285489483
H 0.3016649378 -1.0761837253 1.9834677344
H 0.0044471897 0.6386589192 2.0169200706
H -5.2484011676 -3.1627954089 -1.8560776322
H -0.8482269845 2.2688780100 0.5833172979
H -2.9256689747 3.1822796422 -0.5413051065
H -2.4904742949 4.0730210727 0.9292992179
H -0.0548721936 -2.8159152790 0.8965733118
H -1.2979115959 -3.7074753930 0.1099655853
H -1.7634065047 1.9847885578 2.0419432978
H -3.8333387138 2.9151298657 0.9498137165
