66
CONF70
C -0.3132207419 -3.1014198623 2.0609512222
C -1.4638846928 -2.2539815019 2.5508803203
O -1.2965312004 -0.9264373636 1.9833834524
C -2.2320472418 -0.0044508747 2.3356884192
O -3.1546245793 -0.2773143997 3.0953364622
C -1.9758050867 1.2801334806 1.6929599742
C -2.7685149699 2.3584902062 1.9581021706
N -2.5566122278 3.5265433285 1.2609830883
C -1.7463699189 3.6383336057 0.1532643287
C -0.9232708887 2.5993525872 -0.1694496130
C -0.7760644022 1.4024779261 0.7637829103
C 0.5243859311 1.5027207443 1.5660826389
C 0.6333439375 2.5468843330 2.4893967446
C 1.7804697083 2.7365893140 3.2483205004
C 2.8576748230 1.8626124160 3.0990276448
C 2.7719392878 0.8228689999 2.1886092573
C 1.6207589871 0.6245910206 1.4017037931
C 1.5703302941 -0.4788046734 0.4502237076
C 2.6297101609 -1.1299137151 -0.0640678219
C 2.5199273492 -2.2525195164 -1.0053452690
O 3.4972669163 -2.8854783497 -1.3844297155
O 1.2528296847 -2.4854156910 -1.3928723399
C 0.8990261981 -3.6035692001 -2.3039543400
C -0.6116871163 -3.4520553467 -2.4328584829
C 1.5735078218 -3.4115105920 -3.6571924687
C 1.2521310189 -4.9338381141 -1.6494997127
C -0.1389552740 2.6311961895 -1.4001005515
O -0.0991615351 3.5381190709 -2.2229729190
O 0.5795688958 1.4849850226 -1.5466161956
C 1.3615642752 1.3433288433 -2.7616196134
C 0.5056753856 0.8194276304 -3.8967942896
C -1.9003188823 4.9264355208 -0.5955966841
C -3.8957041898 2.4234116950 2.9417388006
H 0.6447576819 -2.6928689741 2.3958486184
H -0.3052548699 -3.1593956210 0.9685934888
H -0.4168279379 -4.1146968795 2.4603042182
H -1.4724032598 -2.1707516111 3.6424853455
H -2.4310224534 -2.6537286309 2.2280691935
H -3.1564573247 4.3092969289 1.4759079653
H -0.7413315578 0.5082602227 0.1457839825
H -0.2031242894 3.2279332697 2.6148356782
H 1.8324666490 3.5557516646 3.9588017314
H 3.7538175778 1.9872535422 3.6985325066
H 3.6012944537 0.1292639345 2.0965087018
H 0.5883700044 -0.8048037630 0.1316976374
H 3.6530326094 -0.8645508770 0.1820624314
H -1.0024621810 -4.2362180212 -3.0869681198
H -1.0921078013 -3.5408085213 -1.4538379232
H -0.8634527428 -2.4784727002 -2.8641032339
H 1.1616212299 -4.1424928775 -4.3598378035
H 2.6524615922 -3.5547234409 -3.5935823511
H 1.3638125987 -2.4090569081 -4.0435634106
H 2.3314440212 -5.0677957361 -1.5661689058
H 0.8021677491 -4.9953334476 -0.6535447337
H 0.8447578656 -5.7449240389 -2.2608623622
H 2.1427191446 0.6277737159 -2.4916948071
H 1.8200907489 2.3047121935 -3.0080022515
H -0.2782845986 1.5342282718 -4.1600762078
H 1.1331207597 0.6515968898 -4.7779469358
H 0.0420578077 -0.1321463152 -3.6194090091
H -2.3275005640 4.7452839572 -1.5855833999
H -0.9314211954 5.4031816626 -0.7523017432
H -2.5561864330 5.6103554070 -0.0510500292
H -4.2209578071 3.4572981434 3.0824980202
H -4.7474455749 1.8357999766 2.5864771506
H -3.5990909794 2.0029877652 3.9030620916
