51
CONF29
C -1.6650462719 -0.5494383622 0.4036110531
C -0.8100912379 -1.8006279068 0.5797223511
N 0.5829810119 -1.4419406993 0.8348657682
C 0.6968911752 -0.6448879767 2.0598762036
C -0.0943871826 0.6505375403 1.9339267142
C -1.5642897090 0.3484951266 1.6530529566
C -2.3831027562 1.6102838319 1.4375417573
O -1.8466939649 2.6585256476 1.1183393143
C -3.8729047124 1.5412134138 1.5717638323
C -4.6127855021 2.6824549280 1.2335636571
C -5.9941050207 2.6966184193 1.3355782687
C -6.6315858474 1.5482096290 1.7834349541
C -5.9405839948 0.3984226799 2.1295500809
C -4.5555749037 0.4038514722 2.0203944091
F -7.9754798166 1.5514116568 1.8869429967
C 1.4562272580 -2.6085572187 0.8481684655
C 2.9157741075 -2.2477125732 0.5514024627
N 3.0280112715 -1.5007965293 -0.7082283605
C 3.0907770704 -0.0967748894 -0.6429748710
O 3.2098464193 0.4854249430 0.4230526973
C 3.0264830638 0.5968152008 -1.9354046156
C 3.0485822171 1.9930820919 -1.9831163269
C 2.9884826497 2.6522172050 -3.1987001216
C 2.9078780756 1.9125809773 -4.3827925391
C 2.8835484837 0.5277432950 -4.3570437906
C 2.9404724306 -0.1343800230 -3.1262786064
N 2.9146508960 -1.5126205495 -3.0503094021
C 2.9126197071 -2.2463326193 -1.8804914259
O 2.8250727706 -3.4638838845 -1.8897418806
H -1.3030845703 0.0160954882 -0.4638676521
H -2.7037466280 -0.8369005274 0.2059523656
H -0.8540659810 -2.4055285437 -0.3339160996
H -1.2326317602 -2.4170207184 1.4034041503
H 1.7500066057 -0.4027230279 2.2258912050
H 0.3373583595 -1.2252142827 2.9373834352
H 0.3214335034 1.2524552665 1.1204768593
H 0.0031232008 1.2373501841 2.8535833164
H -4.0728533990 3.5579715452 0.8899943030
H -6.5800924857 3.5715202687 1.0775530650
H -6.4838408199 -0.4726106414 2.4776331245
H -4.0129543236 -0.4936419580 2.2939336837
H 1.4279932186 -3.1511048066 1.8145108586
H 1.1182942211 -3.3076811919 0.0758963373
H 3.5017223747 -3.1656348770 0.4635747428
H 3.3469363243 -1.6168255543 1.3295030252
H 3.1108699743 2.5308038854 -1.0436047653
H 3.0025023118 3.7355806409 -3.2340793956
H 2.8617512556 2.4253434401 -5.3381564950
H 2.8192266441 -0.0429567108 -5.2786408979
H -1.9768461504 -0.2095502954 2.5057300515
H 2.8306262977 -2.0666037593 -3.8886730784
