57
CONF91
C -4.3497360025 -1.9987984598 1.3773201584
C -4.1347437016 -0.8853510031 0.3449187602
C -2.7034728499 -0.4115918151 0.2643470006
C -1.9423740224 -0.5105121248 -0.8561136317
C -2.3831645657 -1.2541543578 -2.0642207474
C -2.7800562529 -2.5957236987 -1.9943447984
C -3.1630945742 -3.2870837712 -3.1403111621
C -3.1564210430 -2.6492344607 -4.3787178293
C -2.7526717307 -1.3171565644 -4.4638686884
C -2.3596749261 -0.6310814723 -3.3199243075
C -0.6166669797 0.1453045293 -0.9787837524
C 0.4837499116 -0.5610156003 -1.4749594598
C 1.7462553881 0.0173533472 -1.5650468531
C 1.9224795370 1.3485464987 -1.1758760221
C 0.8238222607 2.0838117352 -0.7173195018
C -0.4229343810 1.4877537630 -0.6230440506
O 3.1026754696 2.0310030981 -1.2512758984
C 4.3313623695 1.2830014729 -1.3048205727
C 4.6120830162 0.5039104298 -0.0274100606
N 4.5563261225 1.3183675923 1.1865729007
C 5.6461047617 2.2938398969 1.2379516890
C 4.6065160272 0.4522369794 2.3655177621
C -2.1638549105 0.1718724741 1.5189191095
C -0.9683899215 -0.3151704626 2.0663488447
C -0.4641533274 0.1985999248 3.2555013693
C -1.1461979888 1.2129760646 3.9261196696
C -2.3424086030 1.6967799732 3.4010372097
C -2.8515777192 1.1742592957 2.2154043526
H -3.7518034315 -2.8823988555 1.1321001166
H -5.4025985895 -2.2950919656 1.4088695642
H -4.0596399972 -1.6659916255 2.3788258732
H -4.4765961703 -1.2126882621 -0.6395274563
H -4.7624934153 -0.0280804650 0.6245316710
H -2.7706932075 -3.1014720435 -1.0338294558
H -3.4605908989 -4.3287336858 -3.0659918174
H -3.4555344005 -3.1876846276 -5.2725388325
H -2.7412283919 -0.8126880152 -5.4253496949
H -2.0359489751 0.4034399147 -3.3916254382
H 0.3571443738 -1.5962509637 -1.7796766156
H 2.5736087583 -0.5726887909 -1.9407749776
H 0.9675204244 3.1234750630 -0.4402753953
H -1.2651966307 2.0684585354 -0.2607910957
H 4.3366134838 0.5969220416 -2.1610016275
H 5.0957337240 2.0413258340 -1.4881180143
H 5.6019083220 0.0181983483 -0.1588069207
H 3.8758181503 -0.3009135808 0.0782477016
H 5.5682596024 3.0070422779 0.4122404326
H 6.6431973400 1.8139340607 1.1908163135
H 5.5819578223 2.8585559836 2.1732289279
H 4.5205673744 1.0597886783 3.2723354018
H 5.5476043994 -0.1281710271 2.4283715205
H 3.7696817574 -0.2539229692 2.3429323478
H -0.4347793550 -1.1047198441 1.5461197905
H 0.4621293725 -0.1960113758 3.6625249087
H -0.7518112919 1.6181328608 4.8527221656
H -2.8822840418 2.4860316495 3.9156136420
H -3.7803292819 1.5694601526 1.8149049872
