29
CONF5
C -0.0950078660 1.5853387664 -1.5331683704
C -0.3168004214 0.5925567054 -0.4119593658
C -0.8022241601 1.2318401417 0.9110745952
C -0.4918770713 0.1538311284 1.9889056283
C 0.0768484692 -1.0072807618 1.1515447663
C 0.9036026802 -0.2640006167 0.0634358426
C 2.0600144190 0.5707538276 0.6198434852
C 1.4965387579 -1.1920528406 -1.0029237823
C -1.0999071916 -1.5867829032 0.3403994224
C -1.3392082300 -0.5164584312 -0.7607007551
O -2.6899187500 -0.0262874039 -0.7642815964
H 0.6434658297 2.3438687422 -1.2526937369
H -1.0311986522 2.1032063104 -1.7687221191
H 0.2539152952 1.0901738495 -2.4469341952
H -1.8648239803 1.4758670414 0.8511511536
H -0.2661878325 2.1664904759 1.1028510820
H 0.2358173295 0.5114860038 2.7233470727
H -1.3845860821 -0.1530505254 2.5415812675
H 0.6326673796 -1.7503832327 1.7321242958
H 2.7817545583 -0.0811494483 1.1251680493
H 2.5909784691 1.0754650252 -0.1946038558
H 1.7452301412 1.3338754050 1.3329753764
H 1.9219915239 -0.6068806590 -1.8256159201
H 2.3119869878 -1.7802946980 -0.5677069783
H 0.7809211758 -1.8966210508 -1.4301166924
H -2.0013798733 -1.6967487909 0.9495847364
H -0.8707906699 -2.5665411608 -0.0892959084
H -1.1098642714 -0.9166237625 -1.7564947026
H -3.0719579751 -0.1935976344 -1.6287689006
