54
CONF8
C -1.8619349013 1.6277876259 0.0772385915
C -1.6879660188 0.1245201977 -0.1841405114
C -1.0540993376 -0.1060174182 -1.5495581146
C 0.3897097253 0.4249617262 -1.6154031213
C 1.2756113945 -0.0770135948 -0.4526501591
C 0.5962109910 0.0249680074 0.9386431277
C -0.8038389501 -0.5692820865 0.8718342126
C -1.6583492156 -0.5584318609 2.1446773602
C -3.1189442924 -0.6617409074 1.6286862456
C -3.0426059552 -0.6295938983 0.0836935616
C -4.2319449313 0.0551198574 -0.5702547700
O -4.8169379654 1.0029463906 -0.0670108146
C -4.6860810464 -0.4559088896 -1.9202458269
O -5.6818703017 0.3788410905 -2.4776185608
O -2.9042822087 -1.9467798684 -0.4667073541
C 1.4401124921 -0.6873713042 1.9954958069
C 2.8713413165 -0.1312971321 2.0439758762
C 3.4711727988 -0.1613956459 0.6754246351
C 4.5679577585 -0.9010887971 0.4104691429
C 5.1509662388 -1.0112676209 -0.9194254326
O 6.1544138081 -1.7126116434 -1.1389142650
C 4.5111295570 -0.2302896658 -1.9724789659
C 3.4080727465 0.4963511944 -1.7332897636
C 2.7236316523 0.5860075548 -0.4049057345
C 2.6552606169 2.0985383218 -0.0683919956
O 0.9320240944 0.0577623749 -2.8946223832
H -2.4711103993 2.0822686257 -0.7095008293
H -0.8965009318 2.1374915664 0.0755455337
H -2.3436158105 1.8321409180 1.0361396886
H -1.0255368033 -1.1812305053 -1.7608058616
H -1.6204018039 0.3805640915 -2.3526784419
H 0.3774493339 1.5197241587 -1.6289918902
H 1.4426049990 -1.1506861427 -0.6417902383
H 0.5089270486 1.0777639717 1.2321450083
H -0.6973184125 -1.6132971560 0.5459343005
H -1.4042328816 -1.3816792366 2.8167083456
H -1.5085453396 0.3745057613 2.6996000250
H -3.6115537302 -1.5859337051 1.9463969410
H -3.7306409312 0.1701998234 1.9841155532
H -3.8153011686 -0.5268648436 -2.5879197974
H -5.0612309350 -1.4824187157 -1.7879965866
H -5.8919254955 1.0325733818 -1.7879095587
H -3.5725840330 -2.5104996780 -0.0554523836
H 1.4759845284 -1.7605678352 1.7625128653
H 0.9752661492 -0.5802355053 2.9811181543
H 2.8369491831 0.9001839892 2.4171240624
H 3.4882199565 -0.7120596491 2.7356117813
H 5.0613439720 -1.4554931214 1.2058462080
H 4.9808039739 -0.2383124229 -2.9525335833
H 2.9905436981 1.1108816721 -2.5221597188
H 2.1387328879 2.6398999682 -0.8653050282
H 3.6705066040 2.4990617562 0.0099745137
H 2.1395886724 2.2928269832 0.8723312245
H 0.9648172316 -0.9085222643 -2.9294306759
