44
CONF16
C 0.8145031162 2.4704931849 2.5904350809
C 0.6373133262 1.1854856391 1.7861099192
C 0.6144330308 1.4764049121 0.2745979080
C 0.4905420620 0.2101597063 -0.5441704112
C -0.5693716010 -0.7191665895 -0.4076254078
C -0.4289688008 -2.0525066990 -0.8839179052
C 0.6735534089 -2.4023050751 -1.6489047842
C 1.6683408564 -1.4781747401 -1.9272123342
C 1.5648509921 -0.2025838184 -1.3386890617
O 2.5784037391 0.7092563320 -1.4931995258
C 3.6572668210 0.3934424002 -2.2378753812
C 3.8311837959 -0.7888859603 -2.8632136509
C 2.8324102037 -1.8347513849 -2.7535051785
O 2.9532338421 -2.9337795248 -3.3018499458
C 4.6721762878 1.4877726147 -2.3196219962
O 5.7017232053 1.3731932517 -2.9463360871
O 4.3069894792 2.5761447653 -1.6306396620
C -1.4102005674 -3.0924210865 -0.5207108959
O -1.3620269354 -4.2433482366 -0.9771519151
C -2.3893008311 -2.6766098504 0.4519402111
C -2.5416715323 -1.3610438324 0.7642865559
N -1.7473071410 -0.3648894481 0.2485716389
C -2.3689053856 0.9692233398 -0.0335791851
C -3.7685741491 0.8426673646 -0.6218724780
C -3.5151260498 -0.9528595656 1.8292819902
O -3.3362629219 -0.0141727397 2.5753165565
O -4.5685082452 -1.7803077316 1.8907359910
H 0.8413906208 2.2604574097 3.6637963726
H 1.7475109965 2.9771550810 2.3205173812
H -0.0119322351 3.1646474878 2.4023207347
H 1.4579849080 0.4897193214 1.9981459045
H -0.2886623572 0.6842672240 2.0880483683
H -0.1770744531 2.1974869268 0.0606672330
H 1.5467535577 1.9759435325 0.0070733920
H 0.7597494381 -3.4159430223 -2.0241115003
H 4.7299298551 -0.9564767295 -3.4432768310
H 5.0101967909 3.2423243267 -1.7254066655
H -3.0189017608 -3.4238648116 0.9171677609
H -2.3629588541 1.5871587129 0.8680691259
H -1.7391426687 1.4365290613 -0.7871926264
H -4.5089015807 0.4727586531 0.0911013477
H -4.0924360404 1.8384714626 -0.9381820931
H -3.7634232308 0.1873170904 -1.4979133547
H -5.1207832941 -1.5143900768 2.6464534948
