23
CONF4
C -0.9243620312 0.1529183210 1.0601027593
C -1.2383488221 -0.2789073318 -0.2225227132
C -2.5313467320 -0.7263751674 -0.5023904499
C -3.4951005951 -0.7393651623 0.4926036459
C -3.1803754568 -0.3135702826 1.7812469608
C -1.8899284423 0.1330623845 2.0613692657
Br -1.3823390089 0.7299230721 3.7895845202
Br -4.5459656099 -0.3674106648 3.0975019475
Br -2.9705091842 -1.3250377144 -2.2468733649
O -0.3366944742 -0.2610613054 -1.2561128101
C 0.9975205927 -0.1096196432 -0.9562026437
C 1.6028517045 1.1035122857 -1.2507824690
C 2.9662329450 1.2782063608 -1.0359920156
C 3.7241308469 0.2276269706 -0.5145440599
C 3.1162884557 -0.9909824778 -0.2207577468
C 1.7577896858 -1.1631109077 -0.4448298285
Br 0.9472773585 -2.8350227708 -0.0746659936
Br 5.5847942865 0.3910460558 -0.1893296477
Br 3.7294570653 2.9587738976 -1.4654427266
H 0.0756152420 0.5041716333 1.2841563812
H 3.7083980525 -1.8069981340 0.1733859291
H 0.9975446727 1.9069432866 -1.6532095918
H -4.4950373844 -1.0889171409 0.2695473851
