37
CONF1
C 8.3163043259 -0.8816190892 0.2212931912
C 7.7620469287 0.2145455552 0.8732360617
C 6.3911933560 0.3950938797 0.8209548460
C 5.5374784468 -0.4700499117 0.1268942383
C 6.1528469546 -1.5455678688 -0.5165645907
C 7.5156475049 -1.7759287224 -0.4806302479
F 5.3757906337 -2.4193116507 -1.1928896354
C 4.0560614045 -0.2667041934 0.1733559514
O 3.4857660836 -0.0087666221 1.2258493010
N 3.4160878121 -0.3769704816 -1.0385680136
C 2.0265783544 -0.2829534937 -1.3458394608
O 1.6726046103 -0.4474129536 -2.4976650726
N 1.2401748600 -0.0040708482 -0.2681661989
C -0.1510385445 0.1421977008 -0.2510322304
C -0.9541429356 0.0324935225 -1.3885674680
C -2.3285432911 0.1837588211 -1.2581324328
C -2.9300930859 0.4170941952 -0.0192022558
C -2.1015725024 0.5832104392 1.0945193553
C -0.7284336812 0.4368103479 0.9890764759
Cl -2.7805302426 1.0318713018 2.6307390791
O -4.3004113517 0.6136027424 0.0818786602
C -5.0773180078 -0.4796993679 0.3444378473
C -6.5548147576 -0.0524655372 0.4094911044
F -6.9186989621 0.4939585860 -0.7783731737
F -6.7122738486 0.8781381015 1.3850187146
F -4.9510466311 -1.4489915511 -0.6050084526
F -4.7516930180 -1.0792230184 1.5251013270
Cl -3.3054515711 0.1283910996 -2.6953422856
F 5.8644782835 1.4634638403 1.4310020627
H 9.3882423791 -1.0405010217 0.2590061499
H 8.3700944733 0.9282161944 1.4157486222
H 7.9249031703 -2.6397687579 -0.9900869938
H 1.7436093597 0.0991823285 0.6136153714
H -0.1107711781 0.5636986968 1.8710454044
H -7.1904826158 -0.9212597719 0.6243360249
H -0.5174857368 -0.1570777352 -2.3573850824
H 3.9654671635 -0.6002590032 -1.8560144348
