24
CONF92
C 2.6385681595 1.0110585133 0.5929610206
C 1.2681163239 0.4148983192 0.8897892881
C 0.5014350758 0.0925917165 -0.4025315343
C -0.8927771458 -0.4733323734 -0.1091427927
C -1.6854142439 -0.6895673861 -1.4173928357
C -3.0946002232 -1.1035896309 -1.0884286327
O -4.0523605334 -0.4840186936 -1.5129551181
O -1.6725607420 0.4705124475 -2.2183616401
O -0.7803179660 -1.7675700048 0.4941800399
O 1.2467673680 -0.8158916412 -1.2129248107
O 0.5189326669 1.3058604256 1.7315085671
O 3.3577800872 1.2836652673 1.7978698213
H 3.2395754194 0.3051418644 0.0150402647
H 2.5094188784 1.9300812690 -0.0035688797
H 1.3971572072 -0.5009322788 1.4813882175
H 0.3894551676 1.0135905131 -0.9873793510
H -1.4374570705 0.2242902128 0.5393309927
H -1.2092823373 -1.5349593670 -1.9452121072
H -3.2120333903 -1.9884977897 -0.4389420278
H -2.6043306533 0.7143353140 -2.3571484009
H -0.7642798942 -1.6588530301 1.4530978914
H 1.2140874400 -1.6762963708 -0.7678974052
H 0.3570638388 2.1212088978 1.2345189855
H 2.7670560484 1.8062735044 2.3578934583
