34
CONF1
C 2.1382371084 -0.6777749540 -0.7560844188
C 2.9639342369 -1.4079353208 0.2789898730
O 4.0885612362 -0.5277315020 0.5751772179
P 3.8820657136 1.0081698704 0.9908041617
O 3.1347070577 0.8496465598 2.4180141885
O 5.0934663241 1.8350113993 0.9770045037
O 2.7249393906 1.5688154092 -0.0075926127
C 1.6414709377 0.6404751768 -0.1855778097
C 0.6285800525 1.0666819327 -1.2388554300
O 1.2529607047 1.6237920324 -2.3855911260
C 0.0600525823 -0.3179931233 -1.6698519741
O 0.9271452411 -1.3337666033 -1.1128915730
N -1.2923603692 -0.5831416288 -1.2610272599
C -2.2745189976 -1.1685581388 -2.0462982523
N -3.4014510868 -1.3746876632 -1.4165063718
C -3.1568465122 -0.9151215711 -0.1359250195
C -1.8563562627 -0.4263492128 -0.0065919317
N -1.3049164031 0.0880155802 1.0956137582
C -2.1680042042 0.0836435377 2.1191785071
N -3.4338929726 -0.3495568832 2.1449379910
C -3.9605605975 -0.8558324270 1.0160637625
N -5.2432685842 -1.2756474027 1.0186060540
H 2.7622634280 -0.4825652249 -1.6430104620
H 3.4044058412 -2.3348816699 -0.0924848823
H 2.3866058208 -1.6055835769 1.1899023866
H 3.2996377969 1.6125258665 2.9879156433
H 1.1147999152 0.4688858594 0.7612600409
H -0.1557248543 1.7213654556 -0.8402216316
H 1.8895692843 2.2833719954 -2.0790727616
H 0.0870283321 -0.3674115655 -2.7661712630
H -2.0782580272 -1.4083251667 -3.0844041841
H -1.7919061005 0.4853434898 3.0590985788
H -5.6153230149 -1.7374914272 0.2074976344
H -5.7470445147 -1.2960433969 1.8880947631
