46
CONF17
C -3.8980030181 -1.5618462088 1.0399779028
C -2.4975524121 -2.0178086210 1.3774462595
C -1.3970314963 -1.9418276932 0.3435861154
C -1.3707040424 -1.0227986724 1.5912534578
C -1.5238472229 0.4342193445 1.4301659930
O -2.3218417078 1.0216053568 0.7253915144
O -0.5928649896 1.0801317959 2.1828101007
C -0.5250422896 2.5116068484 1.9940398713
C 0.0823097758 2.8875304437 0.6647393618
C 0.8393210642 1.9701836145 -0.0609752204
C 1.4006239491 2.3546225587 -1.2764886909
C 1.2235684200 3.6424251153 -1.7760643063
C 0.4670110034 4.5491538670 -1.0416578212
C -0.1049472746 4.1803892739 0.1731399206
O 2.1039425592 1.4772322452 -2.0773443924
C 2.7096751944 0.3738778074 -1.4907710092
C 3.6368196313 0.5299762083 -0.4632710308
C 4.2707153259 -0.5972268898 0.0494511612
C 3.9886332459 -1.8624609196 -0.4654280482
C 3.0668446013 -1.9980103425 -1.5004075029
C 2.4175557501 -0.8783398739 -2.0169633496
C -1.6110154186 -1.3744462867 -0.9883737476
C -1.2053609788 -1.9354569448 -2.1275718822
Cl -1.4698512201 -1.1831479856 -3.6802851555
Cl -0.3767047592 -3.4660175556 -2.2280539459
C -2.4596443811 -3.2225208235 2.2941650539
H -4.4281537697 -1.2893175953 1.9587783223
H -3.9194308089 -0.7050385304 0.3690181366
H -4.4387214890 -2.3913687955 0.5717916411
H -0.6595221689 -2.7369156427 0.3945862153
H -0.6234004499 -1.3032112813 2.3255307403
H 0.1035550349 2.8607298177 2.8183445984
H -1.5223180331 2.9490666481 2.0977563875
H 0.9821756123 0.9609398020 0.3081904813
H 1.6682787433 3.9137540745 -2.7274820714
H 0.3188529249 5.5536873640 -1.4255182329
H -0.7024684045 4.8928238722 0.7342344571
H 3.8530719899 1.5198921798 -0.0745200068
H 4.9952940293 -0.4837370657 0.8497618191
H 4.4892717736 -2.7372168196 -0.0635656122
H 2.8446775026 -2.9787189915 -1.9084984711
H 1.6945586289 -0.9642785162 -2.8214112978
H -2.1316239558 -0.4260744588 -1.0724231535
H -2.9588563920 -2.9905347012 3.2413089910
H -1.4334564463 -3.5322424832 2.5106440226
H -2.9843923133 -4.0632845497 1.8279860100
