47
CONF115
C -2.3027702794 -2.8830190449 0.4303566036
O -3.7000791197 -2.5179789137 0.6003668743
P -4.6669145846 -2.1832060055 -0.6357919337
S -4.0427275816 -2.7784427222 -2.3754422767
O -6.0933823262 -2.6817334945 -0.1222428372
C -6.3719330090 -4.1094761288 -0.1084175589
O -5.0026460482 -0.6002592907 -0.4884046754
C -3.9875208118 0.3324678277 -0.7299515903
C -3.0963237961 0.6495259997 0.2899482952
C -2.1184521195 1.6075627065 0.0581562153
C -2.0268429287 2.2241013951 -1.1931147090
C -2.9341842249 1.8990751913 -2.2029420091
C -3.9280072529 0.9532542747 -1.9689406638
S -0.8118344920 3.4973142579 -1.5151719389
C 0.6835978746 2.7765710560 -0.8483705526
C 1.5766644700 3.6124137142 -0.1746625310
C 2.7795970538 3.1044851839 0.3054754028
C 3.0683563831 1.7609965335 0.1190394282
C 2.1904078187 0.9146258791 -0.5497945441
C 0.9989504283 1.4289486741 -1.0438012521
O 4.2959793499 1.2854633266 0.5826195711
P 4.3884495002 0.1900104179 1.7908435261
S 3.0966264600 0.4156148753 3.2154221836
O 5.9454560357 0.3029678028 2.1308375527
C 6.4579626535 1.4977164356 2.7850535215
O 4.2998693348 -1.2467041658 1.1051024032
C 5.1809657177 -1.5910357645 -0.0089675902
H -2.2220707194 -3.7825034875 -0.1832702746
H -1.9315115376 -3.0728732365 1.4375201589
H -1.7480088525 -2.0608602813 -0.0281601499
H -7.3807608285 -4.2051652337 0.2912442508
H -6.3263236704 -4.5100613731 -1.1244428919
H -5.6593691866 -4.6269974681 0.5400365602
H -3.1807519310 0.1626002863 1.2553292495
H -1.4269380015 1.8728988597 0.8509188669
H -2.8609665201 2.3743857238 -3.1755198747
H -4.6377710512 0.6841879001 -2.7430779502
H 1.3307008161 4.6569312139 -0.0134329593
H 3.4804374575 3.7378805948 0.8384985508
H 2.4412104553 -0.1309590081 -0.6951998141
H 0.3154329360 0.7782158752 -1.5787929514
H 6.3013608922 2.3708127239 2.1461078162
H 5.9635335532 1.6347427693 3.7503092497
H 7.5233967243 1.3205331400 2.9273768011
H 6.2086044485 -1.6845816249 0.3475856649
H 4.8175331088 -2.5484764180 -0.3804955568
H 5.1129963056 -0.8319707973 -0.7926936593
