55
CONF297
C -5.6604126781 -1.5071541556 2.4126139873
C -5.1336171260 -2.4315374202 1.3360994342
O -4.7937380936 -1.6878382120 0.1280022892
C -3.5780414079 -1.0927490658 0.1222095003
O -2.7466571045 -1.1965986733 1.0087150239
N -3.4397154500 -0.3695777084 -1.0327130267
C -2.3312354474 0.3761337255 -1.4489660833
C -1.0926627327 0.3443991447 -0.8013821908
C -0.0325714120 1.0816436351 -1.3207933499
C -0.2109312407 1.9317621853 -2.4129721208
C -1.4530108783 1.9750167990 -3.0457387416
C -2.4939329671 1.1862626449 -2.5843905047
S 1.1384265063 2.9665210980 -2.9383164110
C 1.8328421284 3.3020314403 -1.3296209178
C 2.3968463624 4.5447108301 -1.0411711564
C 2.9359972111 4.7746843994 0.2205119930
C 2.8840102234 3.7843883689 1.2010047186
C 2.3091073583 2.5494728848 0.9184079245
C 1.8060919252 2.3004279865 -0.3547045453
N 1.2563238736 1.0275460109 -0.7078122200
C 2.1022448208 -0.0754882248 -0.7572587724
O 3.2319559035 -0.0154776317 -0.2844880343
C 1.6176847652 -1.3146865759 -1.4840197009
C 2.1066415524 -2.5872754376 -0.7997909038
N 1.4985515453 -2.7628875728 0.5243574347
C 2.2886948807 -3.6931268821 1.3422123950
C 1.6560158377 -3.8414306001 2.7153888430
O 0.3112126143 -4.3255822026 2.6190659340
C -0.4692731395 -3.4319071610 1.8146805014
C 0.1270216106 -3.2822453738 0.4261590630
H -5.9629211481 -2.1021116408 3.2801041037
H -6.5322718868 -0.9528188846 2.0537955074
H -4.8923309166 -0.7982434846 2.7324478168
H -5.8986966375 -3.1352424093 1.0022609877
H -4.2521807193 -2.9858433913 1.6688012899
H 1.9043782579 -3.4527274825 -1.4570141905
H -1.6087153103 2.6305929412 -3.8962749383
H -3.4556883504 1.2199236190 -3.0873003750
H 2.4076603465 5.3233096213 -1.7971362059
H 3.3796232649 5.7396177208 0.4433003936
H 3.2891525121 3.9743676938 2.1893420394
H 2.2622660416 1.7689667150 1.6693635613
H 0.5376857110 -1.3235933301 -1.6249830206
H 2.0595001919 -1.2579703859 -2.4886929689
H 3.1912730501 -2.5200506071 -0.6701800805
H 2.3608649593 -4.6903219093 0.8643864759
H 3.3052260023 -3.2974975175 1.4563429540
H 2.2102744514 -4.5692891771 3.3149482512
H 1.6615809314 -2.8688151685 3.2342567938
H -1.4746472643 -3.8578499677 1.7553836739
H -0.5279588334 -2.4471068491 2.3041741741
H -0.4981765825 -2.5919807138 -0.1503909712
H 0.1126237785 -4.2637979945 -0.0879951944
H -0.9377264138 -0.2607837267 0.0805547267
H -4.2500424752 -0.3462924955 -1.6362171306
