30
CONF7
N 5.4597133711 -0.6455131108 0.9062304952
C 4.1465522700 -0.3471203262 0.7154783144
N 3.6945412563 0.7325323929 1.4057037356
C 2.4026270623 1.0248481153 1.2800244779
N 1.9025630355 2.0894564480 1.9282160798
C 1.5460413954 0.2248160995 0.4521664378
N 0.2328645551 0.4979600987 0.3517279114
C -0.5167270864 -0.2729752968 -0.4117746643
C 0.1016319613 -1.3457570627 -1.1637072290
N -0.6316562909 -2.1011471106 -2.0201605595
N 1.3963108638 -1.6312565462 -1.0528753036
C 2.1435092242 -0.8640848657 -0.2276760068
N 3.4549726102 -1.1577565494 -0.0958968172
C -1.9600760203 0.0377366584 -0.4931775719
C -2.3672013315 1.3710094647 -0.6400327051
C -3.7175661354 1.6967960404 -0.6838253479
C -4.6841002043 0.6980203225 -0.5755866920
C -4.2899773808 -0.6285465475 -0.4177455801
C -2.9387916551 -0.9594973775 -0.3793479656
H 5.8896851856 -1.3057616741 0.2793906203
H 6.0474624144 0.0503448470 1.3349253508
H 2.4840755745 2.6062122063 2.5669743503
H 0.9132771133 2.2721868765 1.8904995973
H -0.1245184778 -2.6970762436 -2.6567443908
H -1.5359315178 -1.7744162388 -2.3199562802
H -1.6128654874 2.1464181423 -0.7262805839
H -4.0176507453 2.7328584436 -0.8071266077
H -5.7385314026 0.9530460341 -0.6107735332
H -5.0363789490 -1.4100662336 -0.3152099353
H -2.6438548114 -1.9932668956 -0.2277811023
