51
CONF48
C 0.7792497890 2.5450190897 -0.2842168542
C -0.5550005108 1.8603485281 -0.2591979840
C -1.3153940270 1.8541059955 0.8450854498
C -2.6486279541 1.2186298644 0.9525628056
C -2.8116614734 -0.2834438042 1.3192423095
C -3.2562321742 0.8353440727 2.2625806271
C -2.5121456397 1.0851653341 3.5537545826
C -4.7582853451 0.9788639784 2.3966749527
C -1.6081840720 -1.0961478831 1.5314381109
O -0.5662457086 -0.7477217248 2.0564439220
O -1.7975659142 -2.3440052499 1.0153359434
C -0.6486096353 -3.2468465579 1.0589008414
C 0.1581095459 -3.1366404488 -0.1849879931
C 0.2239969914 -4.0737966634 -1.1677758721
O 1.0530631033 -3.6530117146 -2.1692553573
C 1.5194955743 -2.4077081445 -1.8166109518
C 1.0031850198 -2.0518750146 -0.6093409380
C 2.4323456871 -1.7795676498 -2.8123815849
C 3.0407896190 -0.4745337790 -2.3618256132
C 3.8654697688 -0.4223797297 -1.2335529237
C 4.4730596404 0.7707622222 -0.8545660339
C 4.2712878440 1.9294471296 -1.6035945661
C 3.4502755103 1.8876227098 -2.7264141783
C 2.8356089014 0.6935464797 -3.0986644620
C -0.9399998836 1.1631145112 -1.5305237602
H 0.9947027043 3.0508365290 0.6608169910
H 0.8271543058 3.2815024243 -1.0967520744
H 1.5779207600 1.8188504602 -0.4839741335
H -0.9363499382 2.3580133759 1.7320287495
H -3.3624726754 1.5035072264 0.1812478951
H -3.6097456843 -0.8025757228 0.7996178052
H -2.7089830623 2.1085582694 3.8932576450
H -2.8717822761 0.3992006156 4.3284933177
H -1.4365785577 0.9489891076 3.4502385201
H -5.1495601681 0.2672495840 3.1320669775
H -5.0066346285 1.9906243813 2.7368541798
H -5.2642997588 0.8044761349 1.4426978786
H -0.0574807495 -3.0212866992 1.9496370286
H -1.0821693896 -4.2448636990 1.1465976420
H -0.2262268858 -5.0468588791 -1.2945080173
H 1.1908858342 -1.1323362212 -0.0758163957
H 1.8858399531 -1.6236101153 -3.7508574348
H 3.2340646332 -2.4958517315 -3.0422005101
H 4.0370837064 -1.3254608139 -0.6541123763
H 5.1118614821 0.7950963492 0.0231379156
H 4.7487504177 2.8591149075 -1.3098115698
H 3.2819856672 2.7859144366 -3.3126300607
H 2.1954355586 0.6651750885 -3.9763134463
H -1.8767131389 0.6091309143 -1.4403363129
H -0.1501114200 0.4588648828 -1.8233865626
H -1.0345603619 1.8834472201 -2.3533975266
