27
CONF37
C 2.6696289083 -0.2565447629 0.4908610872
C 4.1931148103 -0.1249956015 0.4743097425
C 4.7111488379 0.5369461908 1.7438474969
O 6.1425448601 0.6513402308 1.7586564521
C 2.1696882683 -0.9160003444 -0.7957317973
C 0.7007202505 -1.2608192056 -0.8166994590
C -0.2758757245 -0.0538398650 -0.6578170277
C -1.7471979133 -0.3225142209 -1.1169541532
C -2.7896436932 0.7062282592 -0.5678740400
F -2.3681011509 1.9618744095 -0.7770770165
F -2.9991013171 0.5273411512 0.7415898673
F -3.9538880932 0.5304402911 -1.2101129036
F -2.1419313953 -1.5505497473 -0.7051341769
F -1.8045491910 -0.2725353665 -2.4672561376
F 0.1980457352 0.9877949423 -1.3885199670
F -0.3008928011 0.3184158953 0.6496213513
F 0.3966117585 -2.1591245543 0.1733435805
F 0.3903651867 -1.8680631602 -2.0129785936
H 2.3609477359 -0.8526353641 1.3576857752
H 2.2238982400 0.7378735661 0.6049002018
H 4.6536181919 -1.1155443243 0.3710994713
H 4.5018768473 0.4709415670 -0.3954167983
H 4.4519238588 -0.0698093715 2.6183599930
H 4.2448618090 1.5256588937 1.8712816249
H 6.3930072287 1.2451100010 1.0398069119
H 2.6827047805 -1.8724797673 -0.9542678632
H 2.3781541959 -0.2832731967 -1.6639156933
