58
CONF48
C -4.5010786623 2.9730792423 -1.8792124072
C -3.8008119458 1.8386772055 -2.5370366157
C -2.3983695912 1.6381478807 -2.6764082324
C -2.3054633519 0.4332893946 -3.3655860578
N -3.5575582740 -0.0149216423 -3.5906420357
N -4.4884683314 0.8501796480 -3.1067850854
C -3.9574236189 -1.1969357293 -4.3254595021
O -1.2207921076 -0.2530741609 -3.8038189457
C -0.3194754334 -0.7043036243 -2.8330812544
C -0.7054818437 -0.9571681000 -1.5219844719
C 0.2491961611 -1.4196183474 -0.6220236527
C 1.5649601004 -1.6228828168 -1.0258827079
C 1.9256688129 -1.3755377503 -2.3476237013
C 0.9843583436 -0.9153188478 -3.2620170924
C -1.2710423372 2.4170833894 -2.2431308692
N -1.3940026707 3.3437216296 -1.3628113540
O -0.1516696616 4.0105649532 -1.1957994116
C 0.0131028889 4.3051932019 0.2002560843
C 0.3216059763 3.0447709840 0.9640155060
C -0.6460469611 2.4311344581 1.7596246763
C -0.3849940101 1.2153923543 2.3761026347
C 0.8514019332 0.5904346846 2.1993538897
C 1.8275828263 1.2028111487 1.4061672936
C 1.5599582048 2.4192702527 0.7974770798
C 1.0558440957 -0.7342125077 2.8469718276
O 0.2149329824 -1.2806032079 3.5325331287
O 2.2718395247 -1.2447965238 2.5603807073
C 2.6969466058 -2.5482020174 3.1185706557
C 2.7379079649 -2.4752058251 4.6413484545
C 4.1029739435 -2.7056697140 2.5509141410
C 1.7841196074 -3.6603908044 2.6122441267
H -5.5721109781 2.9144639335 -2.0835450408
H -4.3382518361 2.9552933041 -0.7970473912
H -4.1076629007 3.9291374786 -2.2372888599
H -4.7657747281 -1.6946333429 -3.7855251729
H -3.0975843448 -1.8644031405 -4.4066595378
H -4.3065408323 -0.9292913520 -5.3284606490
H -1.7271936347 -0.7785926429 -1.2049446889
H -0.0437723195 -1.6141440212 0.4045789906
H 2.3053053698 -1.9588575711 -0.3083722258
H 2.9493317793 -1.5320188892 -2.6722536351
H 1.2457136528 -0.7078659363 -4.2937842737
H -0.2918152270 2.1927411482 -2.6776068938
H -0.8904644981 4.7936630351 0.5859552932
H 0.8525334439 5.0068422547 0.2332373806
H -1.6162800195 2.9040365285 1.8774796143
H -1.1322420240 0.7249220874 2.9902190252
H 2.7847506653 0.7165013139 1.2626139960
H 2.3110635428 2.8860655063 0.1665423959
H 1.7367829126 -2.3899855794 5.0643148165
H 3.2081882346 -3.3847502209 5.0279299166
H 3.3374111483 -1.6181076656 4.9628990463
H 4.5401412548 -3.6444400302 2.9018391009
H 4.7428978100 -1.8796272672 2.8733582887
H 4.0787600477 -2.7226877902 1.4573587691
H 0.7796008499 -3.5734616248 3.0270221570
H 2.2049868262 -4.6265250949 2.9080596176
H 1.7244332645 -3.6384020468 1.5194212289
