111
CONF153
C 3.0927215417 -1.1837106214 1.2838015222
N 2.1882855155 -1.9124232421 2.1857752317
C 2.6187224543 -3.1242160993 2.8554439342
C 0.8952026125 -1.7615243564 1.7126126737
C -0.2345151931 -2.5160543570 2.0203455052
C -1.4556423561 -2.1170161803 1.4624905484
O -2.6165261346 -2.8052459195 1.6778345485
C -2.5780621471 -3.9696743524 2.5101896137
C -1.5664031034 -0.9914609176 0.6210880051
C -0.3953339999 -0.2833007027 0.3184772037
C 0.8201600712 -0.6666820567 0.8455139312
C 2.1843689383 -0.0189428128 0.7884479167
C 2.2660966664 1.1823782055 1.8043086299
C 2.6487629460 2.3891473185 0.9472021722
N 3.4058079861 1.7841909239 -0.1481920587
C 3.6557166658 2.6934367226 -1.2571693479
C 4.1664057669 1.9425527892 -2.4481757064
C 4.0065068655 0.6284410385 -2.5864454026
C 3.2316978987 -0.2349222784 -1.6179226605
C 2.1427656350 -1.0038990217 -2.4260616199
C 1.3213410067 -0.1464283958 -3.3877024351
C 4.2250150718 -1.2509977414 -1.0067227340
O 5.3678591495 -0.5235221072 -0.4949299095
C 6.6065772329 -0.9514478080 -0.8295412884
C 7.6483929679 -0.0510553110 -0.2424576272
O 6.8233826993 -1.9227058691 -1.5265183860
C 3.6554602864 -2.1015102457 0.1660387999
O 2.6168297390 -2.9436670818 -0.2944375085
C 4.8323778844 -2.9384056590 0.7157679709
O 5.6222607011 -2.5640605972 1.5576121803
O 4.9029426208 -4.1216926032 0.0937353034
C 6.0200429037 -4.9671973828 0.4732373986
C 2.5684859982 0.6448682168 -0.5499566574
C -2.9494317307 -0.5470561086 0.1390957001
C -3.8231349683 -0.0680550999 1.3242223095
C -3.2061447638 0.9755850583 2.2901206322
C -2.4347812353 2.1498437311 1.6710247240
N -3.2856596724 3.1726260051 1.0556483429
C -4.1367974862 3.7709815720 2.0920650622
C -4.7643659995 2.7813097363 3.0524066142
C -5.9101129991 3.2980059279 3.8805837468
C -7.2192436274 3.3814576958 3.0809593164
C -4.3145965258 1.5245219250 3.1497348462
C -4.1269576844 2.6351288823 -0.0424066936
C -3.3677010542 1.8086804368 -1.0341112612
C -2.8846220024 0.5081418499 -0.9543049885
N -2.2642384661 0.1915813239 -2.1517872585
C -2.3127848496 1.2588791190 -3.0090140618
C -1.8366608923 1.3967912993 -4.3131290894
C -2.0375322659 2.6204521510 -4.9380616021
C -2.6994362495 3.6758950763 -4.2815043343
C -3.1815289093 3.5283052179 -2.9887223044
C -2.9943489973 2.3027276151 -2.3309604938
C -3.7033058829 -1.7284084736 -0.5234643815
O -4.8987280311 -1.9157133887 -0.4481928150
O -2.8789217862 -2.4867219452 -1.2659450762
C -3.5063925732 -3.5794196006 -1.9832908987
H 3.9558291068 -0.7982572980 1.8317600210
H 2.6992066917 -3.9853912268 2.1720393130
H 1.9030489401 -3.3771562961 3.6432571244
H 3.5899608349 -2.9531283034 3.3266735476
H -0.1683410804 -3.3881340413 2.6569712001
H -2.2517050159 -3.7163993889 3.5255214491
H -3.6016011783 -4.3450637260 2.5367075731
H -1.9155032791 -4.7339510175 2.0876371580
H -0.4506972626 0.5753079218 -0.3434408393
H 3.0312059170 0.9866950430 2.5607765673
H 1.3129914824 1.3305021736 2.3170607446
H 3.2510134473 3.1304233861 1.4836035038
H 1.7390312817 2.8952695028 0.5654664151
H 4.3894454727 3.4492198778 -0.9471217408
H 2.7355325648 3.2507663662 -1.5411842070
H 4.6803540178 2.5170768962 -3.2151013045
H 4.4049896662 0.1151008143 -3.4612778814
H 1.4710841015 -1.4980639012 -1.7222489266
H 2.6415191132 -1.7982077011 -2.9958069030
H 0.5607329304 -0.7720653889 -3.8654545257
H 0.7953711112 0.6651502305 -2.8747463511
H 1.9363347192 0.2975391086 -4.1755863934
H 4.5645641157 -1.9347919772 -1.7932650181
H 7.4117220113 0.1811324238 0.7983356874
H 8.6292649320 -0.5186203108 -0.3201012552
H 7.6506635884 0.8915577771 -0.8009227861
H 2.9826664456 -3.5450464110 -0.9581689740
H 5.9229333143 -5.8628521395 -0.1380530984
H 5.9541128418 -5.2129556569 1.5354528924
H 6.9607301335 -4.4525878174 0.2645616363
H 1.6284542936 1.0362391641 -0.9887678519
H -4.7701889955 0.2910196082 0.9214629428
H -4.0697168152 -0.9486090887 1.9216195669
H -2.4953372008 0.4318436712 2.9298223118
H -1.7039557654 1.8034310328 0.9402438160
H -1.8717923961 2.6432752725 2.4744732785
H -3.5381179309 4.4869354772 2.6786829213
H -4.9192458572 4.3645815544 1.6013506353
H -6.0558377442 2.6458939698 4.7490518202
H -5.6601636730 4.2969135645 4.2649650148
H -7.1126289890 4.0288058999 2.2048821325
H -7.5157198577 2.3870445757 2.7320046600
H -8.0274713910 3.7843182336 3.6994606892
H -4.7960787338 0.8376806038 3.8474381888
H -4.5423545341 3.4984739255 -0.5759151039
H -4.9941254069 2.0836318098 0.3517362774
H -1.8263266550 -0.6958113500 -2.3464586264
H -1.3305227451 0.5808497826 -4.8180833963
H -1.6786450389 2.7652698659 -5.9523528831
H -2.8360674480 4.6197119249 -4.8003853391
H -3.6936286440 4.3502501249 -2.4970184467
H -4.2561837020 -3.1936848184 -2.6781466481
H -2.6977753464 -4.0710263994 -2.5224550624
H -3.9733106488 -4.2688995195 -1.2758924793
