22
CONF1
C 2.5341938763 -1.0603290529 0.0537806219
C 1.2772593124 -0.4830850651 0.0319109444
C 1.1426417326 0.9046067805 0.0035067313
C 2.2648883039 1.7131484774 -0.0027216995
C 3.5332406047 1.1363576227 0.0192284007
C 3.6678039646 -0.2500479277 0.0473524063
Br 5.3670847080 -1.1044880734 0.0773039874
Br 5.0359968255 2.3028492432 0.0093785268
O -0.0889238015 1.5192776586 -0.0191767082
C -1.1793613374 0.6789946148 -0.0116401873
C -2.4362970346 1.2562401895 -0.0334226387
C -3.5699081528 0.4459615913 -0.0268611790
C -3.4353458519 -0.9404422136 0.0013653806
C -2.1669927570 -1.5172340605 0.0232302477
C -1.0447442945 -0.7086961596 0.0168038248
O 0.1868228966 -1.3233715860 0.0392719703
Br -4.9381033670 -2.1069297144 0.0114510288
Br -5.2691894680 1.3004020767 -0.0567911142
H 2.6200635407 -2.1404164565 0.0756509393
H 2.1410913652 2.7895215079 -0.0247996941
H -2.5221661645 2.3363263765 -0.0553567718
H -2.0431935235 -2.5936057686 0.0453607366
