39
CONF137
C -3.0065715580 3.3883143175 -0.5719717127
C -2.7329502379 2.7250148806 0.7749710837
C -1.3452891419 2.0855405488 0.8470142960
N -1.2033101530 0.9781643821 -0.1103537723
C -1.5562678782 -0.3509910394 0.3932518603
C -0.4546609313 -0.9662854593 1.2384113849
O 0.6528182378 -1.2267336916 0.3506395355
C 1.8012126355 -1.5943430298 0.9796916911
C 2.1108199010 -2.9414675736 1.1991801787
C 3.3069523776 -3.3334713431 1.7875778240
C 4.2080370064 -2.3472261493 2.1678204218
C 3.9480534249 -0.9970577086 1.9709807565
C 2.7437542242 -0.6382828764 1.3784253958
Cl 2.3931917308 1.0431421294 1.0949992834
Cl 5.7170365958 -2.8201730607 2.9119255780
Cl 0.9655120636 -4.1571495051 0.7046452197
C -0.4136072818 1.1913729213 -1.2093795002
O 0.2704728368 2.1774330883 -1.4003450009
N -0.4884670909 0.1662273698 -2.2099947451
C 0.5908959753 -0.2871829626 -2.9437883015
C 0.0675052468 -1.1413017771 -3.8731839071
N -1.3078055558 -1.2046650483 -3.7612329189
C -1.6113578909 -0.4159095075 -2.7614894728
H -2.9617739064 2.6601538184 -1.3878656734
H -3.9990655061 3.8471996126 -0.5898717308
H -2.2650943098 4.1649644743 -0.7830945497
H -3.5023098961 1.9708647171 0.9883551256
H -2.7979977031 3.4673467748 1.5801038286
H -0.5745746109 2.8263405317 0.6204698833
H -1.1514034483 1.7041086372 1.8567166927
H -1.7803284364 -1.0343862535 -0.4271906125
H -2.4631397515 -0.2593310253 1.0017596092
H -0.8046746356 -1.9094116535 1.6802875555
H -0.1292530382 -0.2921879360 2.0415899613
H 3.5266058763 -4.3818459668 1.9422708102
H 4.6634269158 -0.2403609440 2.2658478011
H 1.5931321304 0.0387232667 -2.7167521438
H 0.5985430144 -1.7155287236 -4.6183981340
H -2.6080672524 -0.1796178491 -2.4120236117
