27
CONF64
C 3.2326600456 -1.3470037523 0.6505698573
C 4.0097651597 -0.9771089098 -0.6172265202
C 4.4842371912 0.4718680630 -0.6556420871
O 5.2007335959 0.8553368097 0.5235311912
C 2.0198788873 -0.4705373925 0.9918207879
C 0.9034515950 -0.5366060464 -0.0275165391
C -0.4038381579 0.1672464091 0.4484179778
C -1.6606561930 -0.0456918834 -0.4587048021
C -2.8169587946 0.9748804189 -0.2023720368
F -3.1091435332 1.0402706164 1.1047895719
F -3.9082458244 0.5685090225 -0.8675065451
F -2.4864710993 2.1959992724 -0.6381723678
F -2.1550844712 -1.2832238106 -0.2304691374
F -1.3209962684 0.0569925651 -1.7634312052
F -0.1482902377 1.4995544889 0.5417527842
F -0.7174996943 -0.2918544507 1.6881889628
F 0.5814020895 -1.8355512698 -0.3225223682
F 1.2803177881 0.0628559045 -1.2020242190
H 2.9134037661 -2.3922948579 0.5876392628
H 3.9089834224 -1.2745882936 1.5083443019
H 4.8818982167 -1.6423098390 -0.6843960374
H 3.4105218358 -1.1687227721 -1.5145917121
H 3.6326783120 1.1565535907 -0.7121717029
H 5.0923742725 0.6401643093 -1.5570078259
H 2.3089616052 0.5793404013 1.1037919899
H 1.6095367990 -0.7953213279 1.9519708397
H 6.0087172838 0.3317308015 0.5639794400
