45
CONF28
C 5.0332527218 2.3727923242 -2.7620136677
C 3.5970065515 2.1394935908 -2.2977268533
C 3.1750356075 0.6745196172 -2.4256163207
C 1.7062869136 0.4030172077 -2.0902118724
C 1.3322547004 0.7153978903 -0.6422069372
C -0.1178649179 0.3388945809 -0.2905358776
C -0.4732622672 0.7858065403 1.1383231690
C -1.9319134797 0.5348021131 1.5135975638
C -2.2607749668 0.9792351901 2.9388204482
C -3.7393797367 0.8340922814 3.3117829835
C -4.2435686693 -0.6084445501 3.2800867969
C -0.3814270523 -1.1387390877 -0.4909566344
C -1.3302773597 -1.5808614089 -1.4139252808
C -1.5791360339 -2.9386386562 -1.5968309951
C -0.8776933801 -3.8822301470 -0.8543440244
C 0.0725474347 -3.4557990769 0.0702855274
C 0.3165869726 -2.0987066070 0.2485994277
H 5.7356250898 1.7694945445 -2.1764766809
H 5.3258007641 3.4220463852 -2.6572634365
H 5.1558068590 2.0935195705 -3.8141372781
H 3.4964810370 2.4679521344 -1.2562914115
H 2.9107204146 2.7640263693 -2.8858270848
H 3.3706372990 0.3416961043 -3.4537738467
H 3.8140704625 0.0568871093 -1.7786268189
H 1.0634000218 0.9884436759 -2.7631884806
H 1.4843902943 -0.6517594523 -2.2935787638
H 1.4622430672 1.7859380178 -0.4411155399
H 2.0191940435 0.1877581390 0.0348045940
H -0.7775389549 0.8843999176 -0.9813339398
H 0.1826931484 0.2682899668 1.8522337989
H -0.2475161010 1.8566093741 1.2350069749
H -2.5857174345 1.0651742551 0.8055071684
H -2.1510822904 -0.5325554786 1.3942288983
H -1.9616549284 2.0286036786 3.0652584280
H -1.6512760772 0.3981348159 3.6454524151
H -4.3443387758 1.4496164696 2.6326659585
H -3.8917317294 1.2463285507 4.3169506478
H -4.2253281088 -1.0227102742 2.2677643355
H -5.2736457836 -0.6737983328 3.6436585371
H -3.6230843379 -1.2524976793 3.9134150132
H -1.8820049257 -0.8483141298 -1.9973678626
H -2.3221286646 -3.2585065317 -2.3209040790
H -1.0684193602 -4.9413990661 -0.9937987631
H 0.6258089383 -4.1843758900 0.6550360792
H 1.0609239838 -1.7836329558 0.9744484771
