56
CONF565
C -0.9004940576 -3.7186208348 -1.7005631515
C -0.4471350698 -3.3793443843 -0.2799873075
C -0.3747311415 -4.5989695959 0.6377346624
N -1.2677056839 -2.3060532672 0.3100685677
C -2.6361322383 -2.3320426455 0.4933643190
C -3.5646941263 -3.3666077229 0.3398840513
C -4.8955555994 -3.0956184641 0.6322747161
C -5.3053242910 -1.8271028322 1.0794326420
C -4.3886650549 -0.7984866518 1.2314280221
C -3.0410155843 -1.0364096585 0.9235733297
C -1.8656728729 -0.2238487331 0.9923658098
C -0.7987622231 -1.0265323094 0.6030017661
C 0.6103593829 -0.6902971794 0.4879628972
C 1.0587161751 0.4982769308 0.0664164195
C 2.4974187967 0.8964316980 0.0100969713
C 2.8928682596 1.2926324414 -1.4211473055
C 4.2780891727 1.9166492388 -1.5157740752
C 4.5754719207 2.4512997855 -2.9154088800
C 3.8092636296 3.7021469020 -3.2506217279
O 3.2207454439 4.4047707543 -2.4551110958
O 3.8716549356 3.9818795665 -4.5699093340
O 5.2326356439 0.8824659493 -1.1844082997
O 3.3143387445 -0.1561856547 0.5225569584
C -1.8221585276 1.1636484052 1.4684247472
C -0.9384930337 1.5601003859 2.4835199097
C -0.9059907045 2.8724284216 2.9405356011
C -1.7824238811 3.7861444131 2.3778215041
C -2.6825650328 3.4414244376 1.3856288526
C -2.6927026075 2.1240503940 0.9345446742
F -1.7593794786 5.0720025320 2.8228427183
H -1.8844540494 -4.1931651623 -1.7174313399
H -0.9390003836 -2.8150831595 -2.3161741601
H -0.1832151581 -4.4128398869 -2.1481314086
H 0.5592699252 -2.9615855544 -0.3574550744
H 0.3283599251 -5.3244036461 0.2178623236
H -1.3444751512 -5.0915992753 0.7425564708
H -0.0224583063 -4.3105715958 1.6323401938
H -3.2765126129 -4.3573273233 0.0127206362
H -5.6312435760 -3.8858380728 0.5193519569
H -6.3522638036 -1.6553398742 1.3094682977
H -4.7062106419 0.1786481983 1.5828694386
H 1.3389237540 -1.4387425593 0.7883464717
H 0.3569898672 1.2663910531 -0.2524200402
H 2.6133028984 1.7985055162 0.6432775379
H 2.8453488907 0.4070245578 -2.0688865400
H 2.1619554064 2.0185743575 -1.7930804164
H 4.3587875161 2.7372067720 -0.7895696883
H 5.6412717686 2.7060198776 -2.9954009906
H 4.3814385165 1.6865391639 -3.6754449521
H 3.3926081455 4.8144236837 -4.7240388145
H 6.0845096540 1.3003719283 -1.0032621960
H 4.2075598621 0.0034811811 0.1736088530
H -0.2670931638 0.8277874956 2.9199440878
H -0.2253033700 3.1827677042 3.7261160457
H -3.3516546311 4.1881107653 0.9716795137
H -3.3784017709 1.8404112365 0.1422645538
