21
CONF3
C 0.8667049567 0.5503358759 -0.8397374574
N 1.1192605497 -0.4926976671 0.1863035204
C -0.0211118211 -0.7886459544 1.0701972009
N -1.2741866885 -0.5236603177 0.3777292589
C -1.4451963342 0.8800656177 -0.0439699175
N -0.1210989126 1.4632053244 -0.3047312013
N 0.3569480988 2.4156626867 0.6355142473
O 1.5640284972 2.5790016980 0.6872632806
O -0.4863954722 3.0398032955 1.2573730777
N -1.6680683103 -1.5066484095 -0.5649434296
O -1.0906634375 -2.5815736177 -0.5130365340
O -2.5917313863 -1.2152738375 -1.3069466131
N 1.9327117650 -1.5384337631 -0.2125179644
O 2.5585608926 -1.3649731910 -1.2548812885
O 2.0099865510 -2.5127805844 0.5234972627
H 0.4472033294 0.1114889130 -1.7548558608
H 1.7891643419 1.0740519115 -1.0826197073
H 0.0028737668 -0.1252408258 1.9406237972
H 0.0382198976 -1.8213750063 1.4087131867
H -1.9366478122 1.4535740138 0.7430390371
H -2.0505619850 0.9041138378 -0.9520139011
