30
CONF31
C 3.6521774809 1.0322960511 -0.1743986159
C 3.2743570463 -0.3324576508 -0.7481281683
C 2.4363936765 -1.1900035638 0.2072801282
C 1.1196036787 -0.5545120360 0.6668612349
C 0.1717507497 -0.1916894910 -0.4769750224
C -1.1717682290 0.3540030836 -0.0024956112
C -2.0296356446 -0.6598564302 0.7952416295
C -3.5111768575 -0.3451807142 0.4481893517
C -3.4662998284 0.9080491534 -0.4473281552
C -2.1046904898 0.8028617315 -1.1358169771
H 4.3227663514 1.5726192594 -0.8494910521
H 2.7705887274 1.6610848654 -0.0140354240
H 4.1618176593 0.9245481155 0.7898590255
H 4.1882316656 -0.8851833138 -0.9983520204
H 2.7369917061 -0.1967048592 -1.6947772352
H 2.2150346841 -2.1492047542 -0.2796359127
H 3.0417111771 -1.4253460690 1.0930307585
H 1.3243924050 0.3446309907 1.2633841108
H 0.6147027903 -1.2554340503 1.3434347469
H -0.0060698349 -1.0812201892 -1.1003424510
H 0.6468468509 0.5530813423 -1.1290521252
H -0.9831400890 1.2295516125 0.6372765098
H -1.8367417058 -0.5948280556 1.8699739902
H -1.7726091471 -1.6814669729 0.4901103535
H -4.1287696664 -0.1965017033 1.3385701382
H -3.9516573790 -1.1796077724 -0.1075468304
H -3.4927418144 1.8156399156 0.1685102475
H -4.3070735843 0.9605423148 -1.1457372454
H -2.1363973531 0.0255230238 -1.9126006739
H -1.7785957088 1.7347661820 -1.6093504170
