33
CONF10
O -3.8145561964 3.6154095527 -1.3759604414
C -3.4104442246 2.3673097905 -1.0411040813
C -4.3260277898 1.3282606775 -0.8575256963
C -3.8479784891 0.0709201731 -0.5169689878
O -4.7184321743 -0.9388008655 -0.3670641930
C -2.4531258831 -0.1618298514 -0.3475264046
C -1.9478030995 -1.4867463421 -0.1214946379
O -2.6913212923 -2.4813115771 0.0085829738
C -0.4488602622 -1.6285209341 -0.0982679384
C 0.2048662182 -0.3541143896 0.4190587878
O -0.2265953814 0.7865588212 -0.3886674333
C -1.5671964493 0.9310127273 -0.5300385188
C -2.0327212529 2.1862670376 -0.8781671826
C 1.7042843378 -0.3928725303 0.3831281532
C 2.3900340482 -0.4837471849 -0.8287594956
C 3.7795013707 -0.5490710061 -0.8470070192
C 4.4974608718 -0.5346486374 0.3436193395
O 5.8590235487 -0.6069867252 0.3054565094
C 3.8120077739 -0.4422006947 1.5637990241
O 4.5968193205 -0.4258641840 2.6858743484
C 2.4250381121 -0.3657644209 1.5792586208
H -4.7792077234 3.6402503101 -1.4490768840
H -5.3918599425 1.4861509443 -0.9865284119
H -4.1664705365 -1.7493099802 -0.1737321511
H -0.1674937923 -2.4794494785 0.5280697409
H -0.1095647637 -1.8374905221 -1.1223235306
H -0.1374325671 -0.1641924409 1.4458387426
H -1.3482127349 3.0163209365 -1.0046216301
H 1.8425942572 -0.4953658317 -1.7656419792
H 4.3241879390 -0.6148768947 -1.7834929222
H 6.1969763915 -0.5915962333 1.2127148377
H 4.0459059862 -0.3573506380 3.4764905273
H 1.9066052843 -0.2863502961 2.5320777384
