26
CONF26
C -3.6620115038 -1.2290333237 0.6716295645
N -3.0898512701 0.1129233516 0.8190771531
C -1.8235392594 0.2879537872 0.1029917263
C -0.6632357537 -0.2849114478 0.9372470369
O -0.7269283257 0.2525374120 2.2550475676
C 0.6588288536 0.0457006841 0.2938039962
C 1.3705016387 1.1911731599 0.6429753999
C 2.5601361589 1.5047833528 -0.0133698168
C 3.0382997489 0.6823091805 -1.0235019524
O 4.2005940584 0.9069861763 -1.7233595819
C 2.3257284706 -0.4700258632 -1.3829131412
O 2.7805187260 -1.2980972694 -2.3698963559
C 1.1477052136 -0.7827619547 -0.7194986540
H -3.0221639762 -1.9667860520 1.1667984287
H -3.7807188264 -1.5363052806 -0.3814846528
H -4.6410702395 -1.2641746718 1.1583938869
H -3.7566849050 0.8013998507 0.4930141940
H -1.8171426096 -0.1864214916 -0.8944745076
H -1.6412331916 1.3615319828 -0.0286677466
H -0.7610090320 -1.3832404007 0.9783491649
H -1.6800348307 0.3592488940 2.4225950389
H 1.0012211635 1.8318411741 1.4347880765
H 3.1228601108 2.3928288233 0.2642488946
H 4.6296206041 1.7040267521 -1.3903218083
H 3.6110759559 -0.9380980539 -2.7108147997
H 0.6185331266 -1.6887075678 -1.0026570218
