61
CONF28
C -7.1622095391 0.8436131401 -2.7991403693
C -6.2754286107 0.0929357309 -1.8075279126
C -4.8459057610 -0.0836236853 -2.3207532783
C -3.9457404706 -0.8460381901 -1.3553121830
C -2.5328457784 -1.1053968876 -1.8907329949
C -1.7437669979 -1.3733855630 -0.6040441959
N -2.2653152672 -0.3671451661 0.3211243457
C -3.6894660123 -0.1201565826 -0.0177129062
C -2.0359739872 -0.6919352068 1.7263948425
C -0.2468923283 -1.2468459488 -0.8388005887
O 0.4191678449 -2.2120795137 -1.2594066945
N 0.2709710644 -0.0399597645 -0.5841785337
C 1.6471160846 0.3562797566 -0.8356618135
C 2.5221310842 0.2771221139 0.4256751124
C 3.0954430009 -1.1061579455 0.7376496772
C 3.9035552940 -1.0481316409 2.0403774393
C 3.0792885278 -0.3959330867 3.1639369587
C 2.4454931259 0.9325237808 2.7230229712
O 1.7251282890 0.7785057641 1.5126230229
S 3.6730228052 2.3265777588 2.6736798376
C 2.4672296874 3.7075136127 2.6979634708
O 2.0456279881 -1.2818172822 3.5992022715
O 5.0879771717 -0.3047994249 1.7568501992
O 2.1081764335 -2.1210566688 0.9328136722
C 1.6553883522 1.7835634218 -1.4323989676
C 0.7940200572 1.8949170627 -2.6820452147
O 3.0026923846 2.1878564334 -1.7012473359
H -6.7612285129 1.8430095206 -3.0013921313
H -7.2191852251 0.3080630369 -3.7533315099
H -8.1811117542 0.9606724901 -2.4170601788
H -6.2577798544 0.6310753893 -0.8507135224
H -6.7055287921 -0.8957693740 -1.5993220444
H -4.4009899251 0.9030866310 -2.5163750730
H -4.8720180852 -0.6140031228 -3.2827015337
H -4.4054468643 -1.8200197966 -1.1387230184
H -2.4839178288 -1.9389664108 -2.5951704962
H -2.1381842465 -0.2052741952 -2.3800113555
H -1.9255040872 -2.4085778409 -0.2617515032
H -4.3526850823 -0.4983755905 0.7731499070
H -3.8689797899 0.9606085770 -0.1116327473
H -0.9645149312 -0.8396983833 1.9054754152
H -2.5704583009 -1.6072324066 2.0388161856
H -2.3701620530 0.1370831553 2.3584602872
H -0.3712221943 0.6244262988 -0.1624585856
H 2.0619314495 -0.3276479096 -1.5885515002
H 3.3817002358 0.9428578984 0.2705959850
H 3.7784715812 -1.3796966317 -0.0812965343
H 4.1444491330 -2.0769460111 2.3442547749
H 3.7248496059 -0.2142374932 4.0313564117
H 1.6973260708 1.2156434462 3.4703449192
H 3.0412254273 4.6358313453 2.6498691444
H 1.8082735413 3.6492929705 1.8281353650
H 1.8787523342 3.6919113057 3.6192214624
H 1.6410430396 -1.6515571850 2.7952145432
H 5.6385616843 -0.3040691987 2.5503572097
H 1.6210765736 -2.2564732373 0.0931684711
H 1.2979335787 2.4816327693 -0.6639143837
H 0.8840920426 2.9012083312 -3.0998469431
H 1.1230100833 1.1694582655 -3.4361383639
H -0.2600110821 1.7055212224 -2.4631752506
H 3.3177686968 1.6781171667 -2.4604716508
