46
CONF85
C 2.3866201748 1.3318909432 4.4087169752
C 3.0178907445 0.6156398226 3.2395591276
O 2.1427226585 0.8373513953 2.0930648240
C 2.4789404565 0.2763223640 0.9332507445
N 3.5759683291 -0.4509054897 0.8319072204
C 3.7871419619 -0.9680226757 -0.4092264488
N 2.9747520945 -0.7950504593 -1.4717522699
C 1.9061003120 -0.0380699667 -1.2146852734
N 1.5988796673 0.5381997588 -0.0516628550
N 1.0517685698 0.1392642103 -2.2906525230
C -0.1783421176 0.7878532408 -2.3878523010
O -0.8290391986 0.7273217884 -3.4202136764
N -0.5657732929 1.4880028562 -1.2643642962
S -2.1329693233 2.1183020413 -1.0975013837
O -2.1807814950 2.5687404257 0.3000672915
O -2.3769574323 3.0679655915 -2.1844414262
C -3.2643356638 0.7350526838 -1.2915737933
C -3.9738591218 0.6403700540 -2.4826161963
C -4.9351069128 -0.3559078309 -2.6240696694
C -5.1940724653 -1.2272554040 -1.5716456917
C -4.4903835076 -1.1145599455 -0.3758510586
C -3.5046566361 -0.1397913582 -0.2246778586
C -2.6914482772 -0.1374980686 1.0317475296
O -1.4904631660 -0.3115572846 1.0570820971
O -3.4652162133 0.0092821930 2.1106925807
C -2.7660017197 -0.0283847012 3.3852000732
N 4.8899420123 -1.7089656311 -0.5716442650
C 5.2664947087 -2.3368897712 -1.8296108001
H 2.3015959688 2.4040405761 4.2114726340
H 1.3920582367 0.9298363867 4.6213321525
H 3.0131816353 1.1915044486 5.2940771429
H 4.0102772956 1.0104484386 3.0013519169
H 3.0994102949 -0.4615556163 3.4127136247
H 1.3227962454 -0.3413150076 -3.1389013028
H -0.0243986392 1.3156014322 -0.3986130651
H -3.7815838922 1.3454883151 -3.2819825682
H -5.4867141507 -0.4390809615 -3.5541511195
H -5.9511008633 -1.9973042232 -1.6758755897
H -4.6926195103 -1.7939339517 0.4453952860
H -2.2752293082 -0.9957367238 3.5119866019
H -3.5380334557 0.1180516172 4.1385642235
H -2.0263575067 0.7744333722 3.4232886049
H 5.4843568827 -1.8188417020 0.2347121482
H 6.1891485442 -2.8948572592 -1.6655033694
H 4.4889589639 -3.0265111389 -2.1729676861
H 5.4364378423 -1.5889692080 -2.6112035944
