44
CONF12
C -3.6436184691 1.3447286994 -1.4528140953
N -3.9262726509 0.3619042510 -0.4213786342
C -3.7069960579 -1.0494300045 -0.7647970563
C -4.1191406257 -1.7379301604 0.5525191542
C -3.7749325931 -0.6866064077 1.6463608174
C -3.2002112347 0.5016481289 0.8482779761
C -1.6730777428 0.3739990434 0.6617941850
C -1.3312306383 -0.9831538644 0.0530837559
C -2.2325942743 -1.3366924748 -1.1213276547
O 0.0409846490 -0.9653896477 -0.4635363017
C 1.0309430967 -1.0980417057 0.4310121008
O 0.8594352737 -1.3340730345 1.6128337346
C 2.3857802726 -0.8873180717 -0.2212357605
C 3.5142680620 -1.4482371412 0.6687045659
O 3.6291390429 -0.8014974978 1.9216298059
C 2.5753589276 0.5766081973 -0.5626328313
C 2.2770376017 1.5779469315 0.3643949444
C 2.4863092918 2.9158181636 0.0479152958
C 2.9977703387 3.2715882498 -1.1967664017
C 3.2976163439 2.2799708155 -2.1255706438
C 3.0842637144 0.9420185630 -1.8096253480
H -4.2797244505 1.1444978578 -2.3223820536
H -3.9001250074 2.3413606888 -1.0764444848
H -2.5976562051 1.3803971060 -1.8038207829
H -4.3488442670 -1.3363321490 -1.6061878692
H -5.1916140226 -1.9449929699 0.5433505765
H -3.5971947648 -2.6884776185 0.6980317328
H -3.0637913553 -1.0617388862 2.3882542787
H -4.6780672974 -0.3759474040 2.1763517576
H -3.4329667941 1.4682491141 1.3103989959
H -1.1625244262 0.4880104024 1.6236490413
H -1.3057305804 1.1668294678 -0.0006716417
H -1.3769443514 -1.7595054082 0.8230478806
H -1.9378473620 -0.7450608370 -1.9955049046
H -2.1030490982 -2.3918604528 -1.3880443572
H 2.3850063388 -1.4556826786 -1.1598082573
H 3.3552135667 -2.5316753286 0.7920316176
H 4.4665362038 -1.3004375538 0.1490713174
H 2.7944110355 -0.9702320460 2.3817185291
H 2.2519741044 3.6834514175 0.7786589780
H 3.1607602776 4.3161305906 -1.4417626877
H 3.6939903640 2.5473717562 -3.1000483986
H 3.3143635568 0.1715762256 -2.5407186835
H 1.8848685219 1.3086131760 1.3396158429
