50
CONF2
C 2.8243379966 0.5568232703 2.8257853749
Si 2.3231600999 0.4523446331 1.0374059081
O 0.9599203372 1.3547112998 0.8415716831
Si 0.0706227964 2.3362464721 -0.1371712623
O -0.8841901110 1.4054104637 -1.1077501872
Si -2.3199330453 0.5916673631 -1.0479168513
O -2.3664185119 -0.3454488418 0.3097187815
Si -1.6136413866 -1.7086595197 0.8627470831
O -0.3892329505 -2.1001962388 -0.1665396377
Si 1.2317450250 -2.0308572624 -0.4467459138
O 1.9692833336 -1.1287980393 0.7214139770
C 1.4920734494 -1.2685620290 -2.1276032484
C 1.9183071898 -3.7562150161 -0.3277487195
C -0.9830243444 -1.3605450196 2.5798035794
C -2.8381850004 -3.1108307053 0.8270535881
C -2.4153836625 -0.4619564070 -2.5807374343
C -3.7359944293 1.7961936542 -0.9286264729
C -0.9727171897 3.4021788094 0.9791285289
C 1.1737911047 3.3314716962 -1.2591050758
C 3.6795170864 1.0309307559 -0.1046339267
H 3.6986141568 -0.0729692710 3.0220552880
H 2.0099192322 0.2216837169 3.4771714461
H 3.0780114074 1.5866623987 3.0992047379
H 2.5565907852 -1.2235065185 -2.3813231060
H 1.0828192987 -0.2523542580 -2.1583015883
H 0.9837569457 -1.8597693458 -2.8974737194
H 1.7569180665 -4.1642963807 0.6763497228
H 1.4293423907 -4.4211870512 -1.0476465200
H 2.9946379098 -3.7659391512 -0.5305498143
H -0.4019767772 -2.2042575226 2.9677163722
H -0.3440220472 -0.4719883102 2.5828662201
H -1.8214318994 -1.1815567174 3.2622405379
H -2.3867672612 -4.0337805740 1.2072646698
H -3.1792573061 -3.2961823654 -0.1977199364
H -3.7152364096 -2.8819265299 1.4417831624
H -2.3749912891 0.1594043530 -3.4821372476
H -1.5794675607 -1.1680211163 -2.6136334037
H -3.3494838739 -1.0337357483 -2.6036672053
H -4.6944619411 1.2664724681 -0.9603084149
H -3.6929090974 2.3639305445 0.0065914948
H -3.7130071409 2.5074058858 -1.7613366486
H -0.3368444185 4.0311826310 1.6119173053
H -1.6323183752 4.0574414824 0.4003196692
H -1.5955671631 2.7844046631 1.6360372373
H 0.5744804569 4.0226964230 -1.8621143837
H 1.7263587593 2.6786142096 -1.9429917508
H 1.8985532567 3.9194385201 -0.6862360720
H 3.9332640073 2.0789160156 0.0882827702
H 4.5816322347 0.4287096449 0.0514155577
H 3.3888058653 0.9385987869 -1.1558261601
