50
CONF12
C 1.1521159690 -0.8765118907 -0.2368606361
C 2.6534716078 -1.3034645826 -0.3334731801
C 3.4825246910 -0.0643160048 -0.4576188024
C 4.7028667088 0.2394742668 -1.0053014502
N 4.9685835760 1.5927324655 -0.8067445798
C 3.9164801514 2.1766945000 -0.1341258672
C 3.6586396226 3.4677907192 0.3272947312
C 2.4510978807 3.6681614551 0.9939905905
C 1.5147932427 2.6392937604 1.2064609854
C 1.7724858209 1.3496281205 0.7495997890
C 2.9816062707 1.1490062731 0.0795804924
C 0.9417661703 0.1459049774 0.8783024863
C 0.1182761014 -0.0797795871 1.9152369648
C -0.6514204219 -1.3493297548 2.0786409071
C 0.0144536389 -2.4547342554 1.2502856513
N 0.1837983556 -1.9783076904 -0.1250546315
C 0.4216133343 -3.0699798550 -1.0685130903
C -2.1329825300 -1.2877788783 1.6440826979
O -2.8993832943 -2.2028214161 1.9156145632
N -2.4804201965 -0.1979669402 0.9124429265
C -3.6386014714 -0.2170418879 0.0147167580
C -3.8940758769 1.1929070106 -0.5140324908
C -4.1728378827 2.2192332546 0.5813617498
C -3.3660813695 -1.2236652508 -1.1204613311
O -2.1170318424 -0.9812027898 -1.7581273970
H 0.9289509067 -0.3558767086 -1.1833246631
H 2.9302131895 -1.8694880237 0.5668311088
H 2.7942892551 -1.9638370744 -1.1940491030
H 5.4187651617 -0.3839326564 -1.5219772408
H 5.8005779375 2.0631177298 -1.1151390361
H 4.3538150911 4.2876379378 0.1795869047
H 2.2172900651 4.6645473964 1.3549359186
H 0.5802603131 2.8680052477 1.7093222938
H 0.0220706831 0.6792986188 2.6886473905
H -0.6638554318 -1.6555480105 3.1309315782
H -0.6291010938 -3.3396180568 1.2398760733
H 0.9756478675 -2.7344457582 1.7179129172
H 1.3015106931 -3.6872258840 -0.8193590676
H 0.5543134705 -2.6630243673 -2.0767971139
H -0.4577640859 -3.7220411730 -1.0845637065
H -1.7087811924 0.3878472615 0.6184240655
H -4.5041489501 -0.5671078789 0.5918387979
H -3.0339803685 1.5000196800 -1.1236328352
H -4.7489138456 1.1388707924 -1.1982018747
H -5.0322083270 1.9187636080 1.1902740941
H -4.3906409012 3.2008483076 0.1502839855
H -3.3173836126 2.3305125848 1.2540415394
H -4.1448582306 -1.1283496778 -1.8860708690
H -3.4106403521 -2.2425841355 -0.7105622491
H -1.4171659803 -1.2803162662 -1.1415259489
