37
CONF21
C -1.6522795722 -0.2004461723 -1.6208810509
Si -0.2752664300 -0.2701020903 -0.3570958446
C -0.8008549231 -1.5139001209 1.0012421485
N -2.1824853360 -1.3128685276 1.4224101598
C -3.2622929460 -2.0674562109 1.1487801332
N -4.3618828484 -1.4969723270 1.6383583935
C -3.8770646034 -0.3635731454 2.2113213473
N -2.5609884897 -0.2034103745 2.1016451126
C 1.3118238443 -0.9513850209 -1.1014488357
C 1.3212600188 -2.2311647160 -1.6808575547
C 2.4724799603 -2.7643298106 -2.2529109522
C 3.6230490658 -1.9930939538 -2.2364269407
F 4.7538576492 -2.5041715568 -2.7879962566
C 3.6706522333 -0.7256951046 -1.6829159275
C 2.5046359878 -0.2142999056 -1.1172923023
C 0.0459535203 1.4137695374 0.4014078587
C 0.8848748478 1.5493682227 1.5189200209
C 1.1350604459 2.7903327280 2.0963896565
C 0.5266500082 3.9018714476 1.5361705801
F 0.7589371165 5.1180766210 2.0938449774
C -0.3088590177 3.8271611131 0.4357124858
C -0.5420619130 2.5727934696 -0.1243784160
H -1.3918932476 0.4595925230 -2.4546591284
H -2.5814689716 0.1641978498 -1.1685255387
H -1.8403455756 -1.2003502747 -2.0274100173
H -0.7305961763 -2.5323552549 0.6047770572
H -0.1470771757 -1.4540638625 1.8784630726
H -3.2008188208 -3.0028191394 0.6078034091
H -4.4965753987 0.3615867654 2.7242957437
H 0.4157364846 -2.8330946895 -1.6945532558
H 2.4835886149 -3.7524761210 -2.7004384258
H 4.5953825775 -0.1585657143 -1.6963464214
H 2.5325496493 0.7802778317 -0.6815179250
H 1.3585518478 0.6738165002 1.9565613170
H 1.7818506065 2.8993461923 2.9604090700
H -0.7636238262 4.7259296053 0.0329733204
H -1.2004580053 2.5084728558 -0.9858312770
