60
CONF15
C -2.8895044963 2.7835253164 -2.7558967449
C -4.1396884281 1.9089815661 -2.8423915196
C -5.3266047766 2.4415631932 -2.0355812838
C -5.0553564794 2.5462078914 -0.5185870492
C -4.5922179426 1.2615486991 0.0477802586
C -3.3933940259 0.8521038545 0.5769446056
C -3.5110897419 -0.5721925798 0.8092203978
C -2.7014224079 -1.5726642588 1.3564442376
C -3.2180125649 -2.8610274106 1.4461150613
C -4.5173537548 -3.1633562640 1.0134636561
C -5.3470058579 -2.1793347988 0.4793597392
C -4.8078159571 -0.9095654586 0.3973393948
O -5.4557975888 0.2053572602 -0.0822206444
C -2.2520608531 1.7404457912 0.8347216617
O -2.4079530444 2.8720634222 1.2945695341
C -0.8906666458 1.2518090212 0.4897225273
C 0.2166439478 1.8476567074 1.0986335497
C 1.4905418188 1.4607090364 0.7290329344
C 1.7225982206 0.4801124375 -0.2552296826
C 0.5886894138 -0.0376966792 -0.9065457243
C -0.6947274306 0.3106944113 -0.5270767659
I 0.8052407087 -1.3289092813 -2.5685109766
O 2.9937248401 0.2217123045 -0.6329294726
C 3.6054972747 -1.0781484521 -0.3603850358
C 3.4788509802 -1.4968901518 1.0919555844
N 2.1112240773 -1.8992866817 1.4189184031
C 1.7183299403 -1.5483379967 2.7900679993
C 2.4469215375 -2.2939051950 3.9130656767
C 1.8727490511 -3.3036545905 1.0603001728
C 0.4020388487 -3.6916145087 1.1033817277
I 3.1468437067 2.4111822683 1.6453157993
H -2.0950009527 2.3945812575 -3.4004042634
H -3.1093299212 3.8104037672 -3.0691441361
H -2.4903437264 2.8252746299 -1.7371922103
H -3.8986309010 0.8900129976 -2.5090059646
H -4.4490700094 1.8222285909 -3.8907276121
H -6.1958986074 1.7949150861 -2.1969347674
H -5.5990787969 3.4414760694 -2.3941400318
H -4.2979207029 3.3027814308 -0.3050430820
H -5.9748181709 2.8563473672 -0.0066592665
H -1.6956287630 -1.3536007757 1.6991012964
H -2.6022042434 -3.6521558949 1.8614174870
H -4.8867482574 -4.1798669320 1.0994920384
H -6.3573413906 -2.3917772165 0.1479476750
H 0.0592346209 2.6069940558 1.8555034885
H -1.5487273682 -0.1073225772 -1.0475595935
H 3.1788306537 -1.8294678289 -1.0311522246
H 4.6533750551 -0.9212414592 -0.6270176488
H 3.7788275383 -0.6563450262 1.7276831917
H 4.2144751550 -2.3054687986 1.2656503770
H 1.8806425770 -0.4692223713 2.9036099173
H 0.6375333381 -1.7054667448 2.8878128097
H 2.1216750362 -1.9086796994 4.8847501234
H 2.2340706728 -3.3670873812 3.8912875494
H 3.5313492436 -2.1577657262 3.8428405669
H 2.4632372416 -3.9899307221 1.6966822922
H 2.2392645853 -3.4464344138 0.0368976563
H -0.1931214535 -3.0109188159 0.4857340317
H -0.0004769882 -3.6752818587 2.1207228858
H 0.2758911197 -4.7069243609 0.7148628556
