55
CONF9
C 5.0124193192 -1.3250013411 2.4025236838
C 4.8689999423 -0.3528307151 1.2169600957
C 5.3548652692 1.0377984249 1.6194571882
C 3.4609891853 -0.3936384363 0.6706398178
C 2.6365506713 0.6698155912 0.6363991821
C 1.2570004105 0.6195722490 0.1788773818
C 0.4960086701 1.7280557930 0.1529853810
C -0.9413872594 1.7365160355 -0.2515261545
C -1.5283475854 0.3249050703 -0.2937282679
C -0.5921035647 -0.6443439204 -1.0702904470
C 0.7096846608 -0.7365447021 -0.2196167756
C 1.8389221257 -1.5577477184 -0.8561195760
C 2.9907794836 -1.7219894263 0.1335405506
C -1.2419299538 -2.0409234658 -1.1301742581
C -2.6891110059 -2.0248912692 -1.6154283906
C -3.5480072764 -1.1453737222 -0.7122528979
C -3.0484666610 0.3171710203 -0.6809968171
C -3.4079445324 1.0161993510 -1.9987361447
C -3.7458788244 0.9946399210 0.5063780937
O -3.7609960591 0.5485722876 1.6321467423
O -4.3342491083 2.1699906231 0.1821395382
C -4.9680475092 2.8505520326 1.2856817439
C -0.2459060897 -0.1532807970 -2.4839423772
H 6.0412104301 -1.3241192342 2.7767265166
H 4.3493061565 -1.0209589865 3.2199123380
H 4.7587468850 -2.3511407407 2.1229402295
H 5.5285894834 -0.7221812126 0.4145767948
H 5.2982661082 1.7441018081 0.7857316937
H 4.7609808218 1.4368476295 2.4490303393
H 6.3965679827 0.9889474915 1.9507945003
H 2.9822425044 1.6372761750 0.9909428328
H 0.9401146710 2.6783138068 0.4468039440
H -1.5153086164 2.3572209188 0.4514228314
H -1.0466932932 2.2338723236 -1.2273378540
H -1.5207313692 -0.0493184791 0.7404479343
H 0.4378976592 -1.2544233692 0.7158392638
H 1.4736919720 -2.5410427862 -1.1697612446
H 2.2144411045 -1.0414304264 -1.7472650496
H 3.8331965178 -2.2394770251 -0.3453354523
H 2.6714081348 -2.3719825722 0.9623779627
H -1.2250219020 -2.4776731224 -0.1209509477
H -0.6438799635 -2.6995236905 -1.7701054988
H -3.0875072687 -3.0461544135 -1.6078383828
H -2.7427677009 -1.6881412351 -2.6577535758
H -4.5962281070 -1.1592485514 -1.0365005999
H -3.5188205732 -1.5435428774 0.3083864221
H -4.4947979825 1.0868912485 -2.0941136862
H -3.0426424519 0.4502936425 -2.8554006309
H -3.0084617860 2.0295508039 -2.0612014134
H -4.2344912013 3.0762372683 2.0642588429
H -5.7593211956 2.2292633594 1.7127835715
H -5.3800856716 3.7672278674 0.8637650517
H 0.3549968703 -0.9030845805 -3.0069658886
H 0.3343714190 0.7737360804 -2.4520350772
H -1.1331162691 0.0264406817 -3.0909593339
