44
CONF1
C 4.8564863694 1.8781784935 -2.2148239123
C 3.7870524592 1.2132743047 -1.3545082259
C 2.6091168924 0.5704767822 -2.1785695787
N 1.4587983775 0.5868332313 -1.3085707525
C 1.2958138279 1.7268320574 -0.4008111491
S 2.9510768425 2.5323709667 -0.3105232499
C 0.8407566436 0.7163521344 0.7105974394
C 1.0498475482 -0.3635824439 -0.3809626164
O 0.9769391918 -1.5683496235 -0.4386709734
N -0.4295763795 0.8429133779 1.3477308128
C -1.5940992237 0.6946618739 0.6735839899
O -1.6445548111 0.4813813729 -0.5375344683
C -2.8667262002 0.7490414775 1.5311511021
C -3.3136485717 -0.6791162897 1.7750043765
C -4.3874221672 -1.2159776109 1.0654842574
C -4.7864633646 -2.5354532697 1.2566596739
C -4.1034075590 -3.3360011843 2.1725731578
C -3.0247509679 -2.8139512283 2.8898452536
C -2.6353771450 -1.4976264796 2.6847404625
O -4.4457182106 -4.6364960706 2.4119719850
N -2.6258010241 1.4454966580 2.8024968179
C 2.3101520230 1.3317831105 -3.4606855472
O 3.0202877595 0.8405441543 -4.4912628516
O 1.5457890692 2.2661435868 -3.5442531174
C 4.4102400673 0.1412070304 -0.4600479922
H 4.4443791982 2.6707319373 -2.8449760609
H 5.3330789276 1.1272294109 -2.8531084528
H 5.6276252364 2.3145878670 -1.5738835227
H 2.8685804002 -0.4638121152 -2.4257360016
H 0.5398414723 2.4551508775 -0.7028091000
H -0.4901584640 1.0242542807 2.3418522473
H -4.9251314854 -0.5959387614 0.3538841808
H -5.6281513440 -2.9413027301 0.7013839570
H -2.5004559668 -3.4475959772 3.5979304181
H -1.7926904240 -1.1005800052 3.2420974744
H -5.1985784486 -4.8793001692 1.8564395844
H -2.5831909772 2.4470054896 2.6386431932
H -3.4162761736 1.2868892476 3.4186105527
H 3.6620921216 -0.3666919294 0.1546586222
H 4.9142913986 -0.6073553779 -1.0823866125
H 5.1474384587 0.5947960249 0.2073635847
H 2.8352809345 1.3817460017 -5.2789840036
H -3.6198041903 1.2357475971 0.8943045521
H 1.6194913857 0.6102611352 1.4714113822
