53
CONF16
C -0.1288299103 -2.6629619610 -0.6405895506
N 0.6791939992 -2.2027445158 -1.7657467552
C 1.9842908470 -2.8701929097 -1.8054288472
C 2.7022871455 -2.5515661257 -3.1137507120
C 2.8508521875 -1.0409361179 -3.2940342866
C 1.4944251794 -0.3480017646 -3.1405743947
C 0.7968288128 -0.7323491183 -1.8286925476
C 1.4829068848 -0.0786001917 -0.6038926369
C 0.9475609043 1.3254529268 -0.3098319150
N -0.4961606560 1.3233985738 -0.0312352117
C -1.3000075149 2.3699519392 -0.5212969639
C -0.7763709978 3.6335118020 -0.8206278750
C -1.5967444287 4.6318601577 -1.3404666606
C -2.9564808492 4.4063090944 -1.5311892139
C -3.4991384347 3.1677484821 -1.1958441656
C -2.6738367370 2.1567891332 -0.7142026450
S -3.3430253806 0.5347084868 -0.4048666597
C -2.3319645789 0.0939700334 0.9844862036
C -0.9937995671 0.5314611582 1.0096108659
C -0.1863225042 0.1267118956 2.0772743192
C -0.7037466865 -0.7402704926 3.0330765469
C -2.0191792338 -1.1876006466 3.0058992890
C -2.8417580201 -0.7357928170 1.9790542873
S 0.3817055003 -1.2946323149 4.3529381552
O -0.1275322757 -2.5922867371 4.8551486354
O 1.7784873260 -1.2219099787 3.8624298140
C 0.1731784737 -0.0641517366 5.6537658528
H 0.3523055322 -2.5326689844 0.3473164858
H -0.3438762869 -3.7309320442 -0.7611096634
H -1.0803977456 -2.1187570534 -0.6239611726
H 2.6223133738 -2.5790745419 -0.9461187505
H 1.8148107436 -3.9507402574 -1.7210861031
H 2.1180206566 -2.9658592439 -3.9460419115
H 3.6827131355 -3.0416346675 -3.1231715412
H 3.5583630745 -0.6564264735 -2.5482012024
H 3.2772250384 -0.8109640397 -4.2771024965
H 0.8446999969 -0.6384442255 -3.9758023780
H 1.6115580381 0.7416102707 -3.1854190635
H -0.2344036012 -0.3541354116 -1.8631893889
H 2.5612748474 0.0232653621 -0.7627782896
H 1.3681196593 -0.7169237940 0.2759132302
H 1.0898636839 1.9463677035 -1.1978287831
H 1.5191887468 1.7966088375 0.5033234865
H 0.2724857731 3.8422691879 -0.6450305582
H -1.1650894843 5.5983396207 -1.5802617237
H -3.5962625677 5.1868318284 -1.9287604959
H -4.5592807517 2.9751676209 -1.3289227368
H 0.8413767679 0.4594200215 2.1520964113
H -2.3953223646 -1.8688584976 3.7599528903
H -3.8771744688 -1.0571870743 1.9305725199
H 0.8238813694 -0.3697933104 6.4778749480
H 0.4720463208 0.9083933950 5.2563857417
H -0.8752588615 -0.0637506641 5.9599379085
