32
CONF4
C -1.7216023078 -2.3822959887 -1.5718786981
C -1.3909096859 -1.1978180446 -0.7181699859
C -2.3465465895 -0.5640504253 0.0602283122
C -1.9376642300 0.5364277851 0.8290182578
N -0.6692570524 0.9592086496 0.8084876806
C 0.1855839871 0.2741668344 0.0146612261
N -0.1093921202 -0.7824417159 -0.7482163267
N 1.4696120712 0.7678575725 0.0470130172
C 2.6440297140 0.3804256837 -0.6037947332
C 2.7458686033 -0.6736535594 -1.5245401563
C 3.9774566402 -0.9605270739 -2.1100987105
C 5.1177430859 -0.2242124459 -1.8043919144
C 5.0153000589 0.8241301580 -0.8894800714
C 3.7985172450 1.1244222632 -0.2958855245
C -2.8593736897 1.2920370007 1.6960418072
C -3.9985569681 0.5852906138 2.4099408726
C -4.3046967168 1.5038589961 1.2764431407
H -2.7772857376 -2.6481791718 -1.4954966267
H -1.4798009179 -2.1677715319 -2.6181460345
H -1.1126914820 -3.2410930367 -1.2701893185
H -3.3709819982 -0.9164922148 0.0666197935
H 1.5627866213 1.5612111328 0.6659310282
H 1.8727363475 -1.2570277957 -1.7750091537
H 4.0362860981 -1.7800634252 -2.8204941774
H 6.0694779388 -0.4599651550 -2.2689140354
H 5.8897149319 1.4147810424 -0.6335630785
H 3.7305742399 1.9431931297 0.4154877983
H -2.3882434378 2.1095072417 2.2309651808
H -4.0953361887 -0.4825924869 2.2432755672
H -4.2134269125 0.9205178219 3.4188718264
H -4.7316972767 2.4758068884 1.4987134027
H -4.6082242659 1.0653411464 0.3314134360
