37
CONF24
C -4.4446363573 -1.9670188640 -0.4710797505
C -3.9687564081 -0.6172007650 0.0167912137
O -2.7220625128 -0.3305502361 -0.6389411834
C -2.2159470330 0.9302691610 -0.3598110053
C -0.9088414049 1.1723382421 -1.1645080438
C 0.1159869612 0.7640080937 -0.1311182312
C 1.4687204518 0.5038366543 -0.2406178375
C 2.1670708032 0.2201402184 0.9329189110
C 1.5503092216 0.1871638957 2.1772452361
C 0.1847530711 0.4512264750 2.2845046789
C -0.5027005976 0.7322626675 1.1157152699
O -1.8374400187 1.0278078481 1.0483138509
O 3.5542183536 -0.0011760460 0.8599789683
S 3.9896641865 -1.5964432466 0.5765185296
O 3.6038913322 -2.4075726504 1.7298684054
O 3.5596767287 -1.9741672237 -0.7690636477
C 5.7629042565 -1.2947595966 0.5972503486
C -0.8336191033 0.3685297413 -2.4597565172
C -0.7745213828 2.6785339811 -1.4480603622
H -5.3946705352 -2.2240509779 0.0064592876
H -3.7125928615 -2.7408861747 -0.2253214297
H -4.5897296486 -1.9579513713 -1.5548054637
H -4.6953287000 0.1738641954 -0.2296329570
H -3.8198841735 -0.6177960166 1.1039372162
H -2.9794918799 1.7085313420 -0.5093436600
H 1.9902081767 0.5098939256 -1.1916038382
H 2.1417150266 -0.0564457487 3.0520552187
H -0.3218666801 0.4280856118 3.2422588034
H 6.0326043797 -0.9002718427 1.5778176351
H 6.2391768236 -2.2613324900 0.4202810176
H 6.0014675579 -0.5902943175 -0.2006940509
H -0.8669374493 -0.7037953349 -2.2629849608
H -1.6637667786 0.6260543156 -3.1245423313
H 0.1008248180 0.6004296346 -2.9808244614
H 0.2084578550 2.8920836683 -1.8775620386
H -1.5414467556 3.0056503045 -2.1587966662
H -0.8774094212 3.2610033341 -0.5271190615
