33
CONF3
C -1.5377812569 0.9869653823 2.5363274794
C -1.9719728231 0.2542854295 1.3044545439
C -3.1384485016 -0.5060100769 1.2607845460
C -3.4554779476 -1.1442691768 0.0616609015
C -4.6808423808 -1.9916998940 -0.0922178017
N -2.6751128458 -1.0227451504 -1.0179247006
C -1.5788623489 -0.2678439028 -0.8647648710
N -0.7641973800 -0.1891781207 -1.9833620085
S 0.3530820458 1.0812178174 -2.3063137166
O 0.7070775138 0.8130141225 -3.7056393575
O -0.2138572530 2.3620971837 -1.8869136751
C 1.7484492284 0.7100600780 -1.2738319922
C 2.6780691102 -0.2345660604 -1.7029391929
C 3.7811008857 -0.5116994938 -0.9157367654
C 3.9702849614 0.1558602348 0.3067480932
N 5.1022710857 -0.0780223868 1.0639399656
C 3.0233555373 1.1099472458 0.7155909450
C 1.9173494706 1.3856654634 -0.0682864457
N -1.1751347950 0.3696712332 0.2359049240
H -2.1951947148 0.7822998032 3.3834985732
H -1.5338336553 2.0642536140 2.3402791781
H -0.5128540165 0.7034063045 2.7943042588
H -3.7789317453 -0.5996025720 2.1301244813
H -5.2639268296 -2.0304065689 0.8299705982
H -4.3956050686 -3.0083809035 -0.3796581970
H -5.3072607699 -1.5958951848 -0.8973661541
H -1.1336492621 -0.6064338012 -2.8292899272
H 2.5397233031 -0.7369889840 -2.6539454118
H 4.5147159409 -1.2392490012 -1.2504137468
H 5.5782749698 -0.9509369103 0.9044693144
H 5.0540398192 0.1798871999 2.0361088693
H 3.1666324355 1.6416778879 1.6519003260
H 1.1785168903 2.1136192838 0.2432587660
