60
CONF281
C 7.0191646327 1.2599364133 -4.0118362123
C 7.1191818703 1.0358084619 -2.5054830273
N 5.9766966625 1.5966778797 -1.7773682645
C 6.0882306864 2.9915271179 -1.3395335746
C 6.7041341450 3.1350115505 0.0517741837
C 4.8771000482 0.8096202260 -1.5962131368
O 4.7874495702 -0.3296960111 -2.0731304319
N 3.8504410023 1.3739497420 -0.8419699772
C 2.6544584445 0.7059242431 -0.5206743280
C 2.0936592748 0.8966694976 0.7365275270
C 0.8628326685 0.3359460517 1.1008010522
C 0.1989467120 -0.4934991710 0.1687238284
C 0.7664277592 -0.6935830509 -1.0946058902
C 1.9651943737 -0.0888500916 -1.4443649759
O -0.9577424007 -1.0872679787 0.5595592649
C -1.6265090840 -1.9605480448 -0.3627591589
C -2.8506145226 -2.5030214341 0.3543387018
C -3.8971038805 -1.4264494930 0.6300908060
N -5.0964548825 -2.0844053448 1.1631675590
C -6.3452816951 -1.2771078718 1.1819884844
C -7.3687889946 -2.0890731398 1.9807074975
C -6.8552292217 -1.0925728130 -0.2506053124
C -6.1438458362 0.0925060371 1.8492959084
O -3.4014454885 -3.5066611360 -0.5025939653
C 0.3659706427 0.6620922904 2.4704584528
O 1.1557062639 1.0751424979 3.3171591212
C -1.0944925909 0.5368091127 2.8082882565
H 6.9529732296 2.3272111432 -4.2464669643
H 6.1343873954 0.7591156543 -4.4150248249
H 7.9049990330 0.8558056064 -4.5121495605
H 8.0229939703 1.5114609494 -2.1091090907
H 7.1836369257 -0.0323860822 -2.2840777938
H 6.7138248179 3.5097540061 -2.0745280303
H 5.1068666968 3.4748480451 -1.3883741226
H 6.0863071770 2.6534406401 0.8166763484
H 6.8039825437 4.1939628430 0.3091102585
H 7.6985427609 2.6795269763 0.0804304000
H 4.0899433608 2.1278959598 -0.2164010951
H 2.6017882081 1.5164039721 1.4689966726
H 0.2694097118 -1.3148174246 -1.8288259363
H 2.3636286630 -0.2338042666 -2.4398876202
H -1.9269309110 -1.4099387447 -1.2646721830
H -0.9653965097 -2.7892775811 -0.6472155382
H -2.5297072826 -2.9537133442 1.3095643749
H -3.4709152981 -0.6636596678 1.2983866833
H -4.1433221526 -0.9407662510 -0.3216972705
H -4.8976742802 -2.3635696937 2.1213841263
H -8.3260878729 -1.5608948549 2.0178262273
H -7.0248844869 -2.2428234624 3.0102779891
H -7.5285569125 -3.0683587380 1.5176360435
H -7.8196340972 -0.5753907308 -0.2351015398
H -6.9888516062 -2.0647076098 -0.7363775638
H -6.1688732486 -0.4920175762 -0.8549081278
H -7.0964488720 0.6287449392 1.9134085267
H -5.4466534758 0.7148653958 1.2791647860
H -5.7491669612 -0.0288913808 2.8647461736
H -4.3327245057 -3.5645833251 -0.2215521986
H -1.2920434371 1.0991359323 3.7224508824
H -1.3464264382 -0.5165990263 2.9701591061
H -1.7270719030 0.8891423464 1.9898235765
