47
CONF66
C -2.7776549717 4.5203807299 1.8027023935
C -2.5138981152 3.2477286621 1.0246270823
C -1.3768464965 2.3543208242 1.4298538527
C -1.2368814083 3.2757712601 0.1881612855
C -1.0005893026 2.6712170643 -1.1290106543
O -0.2365721455 3.1212886493 -1.9596983629
O -1.6976992764 1.5125464471 -1.3233809697
C -1.3068510695 0.7493650777 -2.4909066600
C -2.4675673876 -0.0766573582 -2.8233830912
N -3.3635800621 -0.7454516230 -3.1117928444
C -0.0873777837 -0.0955875841 -2.1889329293
C 1.0359560924 -0.0222683918 -3.0091617068
C 2.1591174416 -0.7793628578 -2.6870458997
C 2.1724538816 -1.5971879367 -1.5618084029
C 1.0342372858 -1.6627695903 -0.7565760637
C -0.1004358514 -0.9198672281 -1.0667645114
O 0.9701206242 -2.4008962330 0.4031377368
C 1.8725114212 -3.4442310480 0.5884020495
C 2.6882684632 -3.4022441928 1.7113798095
C 3.5451049836 -4.4722296297 1.9630967004
C 3.5845483187 -5.5610234800 1.0954035747
C 2.7566185454 -5.5847328694 -0.0266964080
C 1.8903063564 -4.5269166546 -0.2857838257
C -0.5191778045 2.6059083550 2.5892977004
C 0.3273390374 1.7154230834 3.1100386715
Cl 1.3072579535 2.0688648957 4.5098463593
Cl 0.5739118278 0.1162786974 2.4651778057
C -3.7821171000 2.5969242449 0.5154589797
H -1.8617354469 5.0490622548 2.0748876516
H -3.3334666861 4.2894346192 2.7178792439
H -3.3870578985 5.1975366909 1.1958189687
H -1.5057483554 1.3108656755 1.1596310253
H -0.6228489461 4.1586002900 0.3302464497
H -1.1075414158 1.4214091322 -3.3330365023
H 1.0363671030 0.6256876784 -3.8793439699
H 3.0448590863 -0.7227404050 -3.3114180495
H 3.0571838313 -2.1709707745 -1.3105704685
H -0.9715104088 -0.9809488203 -0.4218014956
H 2.6457400146 -2.5432957303 2.3731328395
H 4.1854370101 -4.4490557927 2.8392256798
H 4.2551104007 -6.3907964166 1.2933052136
H 2.7776199121 -6.4345527046 -0.7016788464
H 1.2362086786 -4.5361297882 -1.1519861884
H -0.5554303377 3.5790062054 3.0694063703
H -4.4765892624 2.4817637282 1.3542910582
H -3.6060600213 1.6149715178 0.0779165462
H -4.2610401387 3.2355616221 -0.2345013973
