41
CONF35
C -4.7578512277 0.8781003178 -2.2030916165
C -4.3448639423 1.7246683378 -1.0010719731
N -3.6254824052 0.9430994150 0.0144766474
C -4.4487547137 0.3391409603 1.0655884919
C -4.4222621977 1.1316994160 2.3722916741
O -4.9462775122 2.4534234361 2.2173433508
C -2.2938327278 0.6936559742 -0.0909865588
C -1.5242956364 1.2048791788 -1.1730364216
C -0.1768776239 0.9484223835 -1.2587243003
C 0.4917478041 0.1709279818 -0.2916590434
C -0.2648947947 -0.3456877069 0.7854928147
C -1.6090469744 -0.0929951520 0.8852169720
N 1.8417289085 -0.0162104405 -0.4914070627
N 2.4449793285 -0.7414616505 0.3695725376
C 3.8192702271 -0.8759334205 0.1438345940
C 4.4853779260 -1.7867866377 0.9833952249
C 5.8449996530 -1.9998654422 0.8585841541
C 6.5486848945 -1.2859145067 -0.1115036375
C 5.9138443596 -0.3665321910 -0.9520154638
C 4.5551358792 -0.1623882620 -0.8249892924
N 7.9807997036 -1.4997960250 -0.2488768540
O 8.5243141045 -2.3147210922 0.5000504966
O 8.5880100030 -0.8574850845 -1.1087893862
H -3.8858259519 0.4461877052 -2.7023078103
H -5.2980779728 1.4984942891 -2.9244412014
H -5.4165253536 0.0621530988 -1.8901756821
H -5.2301405897 2.1427782179 -0.5150832957
H -3.7288152941 2.5741918380 -1.3095579188
H -4.1387796899 -0.6947968424 1.2540671519
H -5.4774147424 0.3012311653 0.6947140135
H -5.0656677778 0.6216485397 3.0967410872
H -3.4044745993 1.1675495173 2.7832468360
H -4.2786319192 2.9849570707 1.7662097129
H -1.9899265773 1.7930209843 -1.9523229791
H 0.3985022008 1.3419799502 -2.0912853628
H 0.2255472541 -0.9450704150 1.5436643868
H -2.1458435102 -0.4993148569 1.7322285524
H 3.9100240526 -2.3239399636 1.7300214901
H 6.3612946016 -2.7043153791 1.4981334812
H 6.4907052297 0.1770258456 -1.6899110426
H 4.0495985931 0.5511379229 -1.4636372853
