46
CONF11
C 4.7443829078 2.5039964866 3.4242612267
C 5.2874953817 2.5210145711 2.0116835302
O 4.2469673184 2.8780261882 1.0515958197
C 3.4106711226 1.9278621067 0.6301278149
N 3.5615606359 0.6776652875 1.0449818840
C 2.6587173642 -0.1902281718 0.5325862519
N 1.6790410327 0.1477979327 -0.3332247752
C 1.6465601098 1.4412030559 -0.6548900098
N 2.4750849973 2.3922631161 -0.2174137683
N 0.6659412520 1.8844542231 -1.5275997361
C -0.3714259879 1.2040258624 -2.1627466992
O -1.1785844202 1.8078104622 -2.8532052898
N -0.3921923915 -0.1595566839 -1.9574852870
S -1.7012136150 -1.1224965722 -2.4415595606
O -1.8455320936 -1.0232751121 -3.8952973927
O -1.4271486160 -2.4242092686 -1.8162840293
C -3.1725867980 -0.4188199117 -1.6840428646
C -4.0453313449 0.2837250300 -2.5062258151
C -5.2487739961 0.7470771104 -1.9836056196
C -5.5786270745 0.4846142807 -0.6585575129
C -4.7063641833 -0.2342851644 0.1535123999
C -3.4835518295 -0.6841853128 -0.3445370179
C -2.5306816590 -1.3423926821 0.6020882391
O -1.4160453317 -0.9237996563 0.8393465201
O -3.0906258580 -2.4007571068 1.1950991644
C -2.2607713815 -3.0714096430 2.1826684351
N 2.7408700890 -1.4701112210 0.9119361222
C 1.8535010808 -2.5142169698 0.4171168654
H 3.9940502773 1.7195790395 3.5496499561
H 5.5667096720 2.3106592861 4.1203290375
H 4.2989442510 3.4701416622 3.6778122665
H 6.0314665798 3.3098284628 1.8824374507
H 5.7237337951 1.5613767210 1.7257540586
H 0.6768069041 2.8779031499 -1.7197326752
H 0.2339344969 -0.5288538764 -1.2201174819
H -3.7870674472 0.4549666615 -3.5439713045
H -5.9296751776 1.3021551512 -2.6196222598
H -6.5211503769 0.8355180575 -0.2518095804
H -4.9631502856 -0.4382983034 1.1874440363
H -2.8655471325 -3.8992667848 2.5485937484
H -2.0140861948 -2.3806427628 2.9918995008
H -1.3463993684 -3.4365570807 1.7095636686
H 3.4949099994 -1.7118583035 1.5354443251
H 2.1058127120 -3.4438100406 0.9288113853
H 0.8072000686 -2.2658919661 0.6229778142
H 1.9721702506 -2.6587416860 -0.6628501508
