47
CONF73
C -4.4342797341 1.7474627152 2.2521330212
O -3.5687165971 1.8891275912 1.0971904252
C -2.2678095005 1.9840331376 1.3642438554
C -1.3535836193 2.1060373782 0.3712390004
C -1.7465716726 2.1071347526 -1.0554480449
C -1.5284767710 3.2231060675 -1.8697709625
C -1.9074861717 3.2245562128 -3.2080471752
C -2.5130718150 2.0995903977 -3.7635077093
C -2.7282792473 0.9695525956 -2.9804441979
C -2.3392346824 0.9871477743 -1.6493671812
O -2.6205468455 -0.1478541760 -0.8829049457
C -1.5874606063 -0.8409059954 -0.3471630113
C -0.2739584629 -0.7037383420 -0.7772924767
C 0.6445359642 -1.4858559153 -0.0923416823
N 0.3284432305 -2.3284689599 0.8854400181
C -0.9759137672 -2.3925607113 1.1750359946
N -1.9583379150 -1.6920824401 0.6155506690
O 1.9516272530 -1.3483789126 -0.4562461033
C 2.8897245030 -2.2101077589 0.0959208841
C 3.8085892475 -1.7101811294 0.9996596226
C 4.8079621619 -2.5496975185 1.4865680716
C 4.8856304021 -3.8778821960 1.0714977241
C 3.9672380276 -4.3776535659 0.1594502178
C 2.9591050192 -3.5413298250 -0.3403604359
C 2.0156300503 -4.0249085799 -1.2836231372
N 1.2450453683 -4.4133819192 -2.0567325633
C 0.0745481969 2.2228846051 0.6837133470
O 0.9519518178 2.3415488768 -0.1587366506
O 0.3395231910 2.1671060140 2.0098128928
C 1.7392262644 2.2339226908 2.3660230655
H -4.1855284727 0.8307127681 2.7938610256
H -5.4482464599 1.6889573076 1.8589731809
H -4.3309819741 2.6194903449 2.9040218481
H -1.9750109826 1.9653648275 2.4117239243
H -1.0645360968 4.1016102170 -1.4327941673
H -1.7348780460 4.1066257622 -3.8158849858
H -2.8139312587 2.0959623771 -4.8059864586
H -3.1869564970 0.0751714271 -3.3886488319
H 0.0284774636 -0.0291670030 -1.5669691560
H -1.2614660097 -3.0895365265 1.9615564021
H 3.7348373518 -0.6749105431 1.3134521343
H 5.5294321180 -2.1602648865 2.1969374920
H 5.6659504186 -4.5248762876 1.4561668433
H 4.0172273143 -5.4067899147 -0.1778284667
H 2.2864332087 1.4061010082 1.9076770497
H 1.7636931370 2.1526479848 3.4522200298
H 2.1704311676 3.1846781986 2.0428280225
