43
CONF56
C 6.6785841287 0.6953559612 1.8372404040
C 5.2537752636 1.1849514010 1.9722782445
O 4.3105623713 0.0693917784 1.8481106725
C 3.9926603040 -0.3190424396 0.6078852243
O 4.3671225401 0.2128553550 -0.4147536808
C 3.1231974533 -1.5758000545 0.6626885096
C 4.0184903541 -2.8004333366 0.7933573552
O 2.3889959036 -1.7269965819 -0.5510584435
C 1.3849928459 -0.8357299502 -0.8199105331
C 0.7281028400 -1.0306605752 -2.0393790066
C -0.3127847432 -0.1933068064 -2.4117390892
C -0.6883632058 0.8369620517 -1.5600832445
C -0.0464465624 1.0470073668 -0.3531222069
C 0.9995443873 0.2066448822 0.0263060485
O -1.6933173605 1.7299347495 -1.9702724705
C -2.9695688940 1.4572117402 -1.6021505126
C -3.9384622585 2.4121131656 -2.0412456803
N -5.2060401726 2.2754224422 -1.7578420956
C -5.5658414669 1.1777888499 -1.0229980488
C -6.9227663501 0.9890893768 -0.6931958184
C -7.2721360151 -0.1171875536 0.0433811893
C -6.3237233098 -1.0624921795 0.4762434522
C -4.9962519544 -0.8848792619 0.1585154306
C -4.5882972129 0.2345317351 -0.5947920682
N -3.2683200478 0.3995620838 -0.9030205799
Cl -8.9584351184 -0.3743160537 0.4663332105
H 6.8633939033 0.2875793950 0.8399819257
H 6.8959967429 -0.0728773224 2.5846361654
H 7.3615096208 1.5353865024 1.9976368484
H 5.0018917460 1.9365137087 1.2201401000
H 5.0557246406 1.5840359141 2.9684779492
H 2.4414731506 -1.5134602331 1.5200749907
H 4.6020032393 -2.7367226969 1.7146742085
H 3.4002690200 -3.7006187539 0.8275435290
H 4.6999159065 -2.8625532533 -0.0597395215
H 1.0447930098 -1.8424544239 -2.6856353911
H -0.8308690445 -0.3349853828 -3.3544268412
H -0.3570154235 1.8615652066 0.2928469601
H 1.4901630621 0.3859190915 0.9755792851
H -3.6165982805 3.2728994078 -2.6244825086
H -7.6568918375 1.7143332749 -1.0253102843
H -6.6429101041 -1.9215661181 1.0553131281
H -4.2481226693 -1.6009725635 0.4821289877
