44
CONF28
C 0.7917667489 -0.9367188089 -3.9900885732
C 1.7058844645 -0.6626864184 -2.8457254309
N 1.2949111618 -1.0343653821 -1.6205656027
C 2.1555159706 -0.7836145383 -0.6295806298
N 3.3664656998 -0.2291445065 -0.7682656119
C 3.6652556096 0.0867618693 -2.0269764080
N 2.8824750305 -0.0938929121 -3.1038069315
O 4.8383753178 0.6441869318 -2.3036843085
C 5.7510309860 0.8834363794 -1.2012015567
N 1.8054691242 -1.1058494237 0.6647923941
C 0.5949565337 -1.5650600541 1.1948163017
O 0.4683628268 -1.7125094129 2.4003947308
N -0.3960651433 -1.8060509551 0.2736252864
S -1.9743859804 -2.2541832968 0.7248369522
O -2.7045866085 -2.2535690140 -0.5515924940
O -1.9170129722 -3.4907156866 1.5105012741
C -2.5539097731 -0.9231799278 1.7859042439
C -2.9007839220 -1.2955576081 3.0851629945
C -3.4120881712 -0.3444017056 3.9564788199
C -3.5717518947 0.9682359837 3.5214222876
C -3.2174861596 1.3222700788 2.2257663676
C -2.6969201622 0.3928281281 1.3185482884
C -2.3090098593 0.8892845976 -0.0544375562
C -1.0143525264 1.7148948714 0.0126421275
C -0.6617986162 2.3332191703 -1.3125494149
F -1.5806756231 3.2495953033 -1.7155959512
F 0.5342724453 2.9747156823 -1.2612299966
F -0.5699451210 1.4182328378 -2.3129747395
H 0.8248869299 -0.1144404639 -4.7077650534
H 1.1361526781 -1.8405384723 -4.5069334666
H -0.2281710907 -1.1022477725 -3.6421310234
H 6.0161985895 -0.0600019196 -0.7192566194
H 6.6261022175 1.3401628162 -1.6610006738
H 5.2968448100 1.5620464987 -0.4761282640
H 2.5028033681 -0.8990970712 1.3694243260
H -0.1890264871 -1.6148930016 -0.7230592039
H -2.7684423396 -2.3218811065 3.4047905245
H -3.6840701151 -0.6302536918 4.9667352811
H -3.9759933108 1.7196251840 4.1919072254
H -3.3485526770 2.3488334725 1.8946242893
H -3.1201150485 1.5253807389 -0.4242908955
H -2.1906746305 0.0718615696 -0.7649265411
H -1.1052549397 2.5342278098 0.7321105275
H -0.1666583301 1.0950532112 0.3182265118
