22
CONF3
Cl 5.2724850619 -0.0583516848 0.4317340426
C 3.5416716793 -0.0301611837 0.2593420125
C 2.8275820247 0.9989336346 0.8630880673
C 1.4468071022 1.0326342723 0.7322769013
Cl 0.5691084454 2.3178064055 1.5294775662
C 0.7525007443 0.0618327385 0.0046056383
C 1.4871713195 -0.9666260545 -0.5834110837
C 2.8706416479 -1.0186302552 -0.4636277397
Cl 3.7361647155 -2.3220751294 -1.2262053331
C -0.7219380254 0.0769153987 -0.1358012031
C -1.4889193776 -0.8292273821 0.5950547292
C -2.8738658991 -0.8501593225 0.4835603827
Cl -3.7801084340 -1.9987060423 1.4264030082
C -3.5138928508 0.0456960640 -0.3753172035
Cl -5.2454860617 0.0539518560 -0.5415806131
C -2.7675048150 0.9506009197 -1.1222368977
C -1.3857880689 0.9549552192 -0.9972967343
Cl -0.4677251377 2.0794435720 -1.9722193951
H 3.3477729194 1.7587777931 1.4333869213
H 0.9698858594 -1.7323564932 -1.1507356473
H -3.2638831995 1.6371414052 -1.7971529545
H -0.9955119505 -1.5216163247 1.2680777201
