54
CONF5
C -2.7945761972 -0.8847259038 1.5516761047
C -2.4606237832 -0.0253292721 0.3087425083
C -3.0629731449 1.3908356961 0.4580301920
C -4.5866783111 1.4197725548 0.3933148437
C -5.1017876941 0.7833683161 -0.8674065092
O -6.1809767209 1.1055985830 -1.3747924520
C -4.2867955572 -0.2840960390 -1.4224198983
C -3.1145292885 -0.7029443969 -0.8897557997
C -2.4473247917 -1.9132578860 -1.4586883714
C -0.9845674127 -1.6154289230 -1.7751411375
C -0.2580375592 -1.1691164760 -0.5112847198
C -0.8987170717 0.0938009223 0.1106966018
C -0.1209296452 0.3903114199 1.4020468595
C 1.3665629289 0.6226828864 1.1220034585
C 2.0583924809 -0.5484348969 0.4300222231
C 1.2399294753 -1.0093485330 -0.8025310416
C 1.6155054614 -0.0076509813 -1.9252484359
C 2.9723242114 0.6159470722 -1.5260760607
C 3.3927370001 -0.1393795739 -0.2514481561
C 4.3707564461 0.5106524152 0.6897189883
O 4.5366428908 0.0863985573 1.8260721965
C 5.1908303822 1.6799675538 0.2091744072
O 6.1534563360 2.0800097307 1.1605361224
C 2.2919355839 -1.7245856309 1.3404968935
O 1.8780802221 -1.8390771176 2.4764819676
O -0.6408392981 1.5642842001 2.0505545930
H -2.4936390322 -0.3578690263 2.4612222642
H -2.2817219335 -1.8503033550 1.5253277064
H -3.8689277602 -1.0810436693 1.6079361992
H -2.6682772516 2.0148836862 -0.3546050882
H -2.7247348977 1.8309182833 1.3941474624
H -4.9700263518 2.4424062005 0.4624464551
H -5.0229429664 0.8609291411 1.2339944236
H -4.7057222854 -0.8100947239 -2.2782131324
H -2.9894747016 -2.2590974996 -2.3432875415
H -2.4860263996 -2.7211214944 -0.7129693794
H -0.9289409269 -0.8304671031 -2.5401692395
H -0.5010352842 -2.5091385576 -2.1863537844
H -0.3550686700 -1.9846697122 0.2231256110
H -0.7421185430 0.9349060874 -0.5804601483
H -0.2277908471 -0.4723334168 2.0738367231
H 1.8699645546 0.8346174295 2.0728842660
H 1.4505281606 1.5209922671 0.4978501853
H 1.6173189959 -1.9994489852 -1.0974555095
H 1.6731223563 -0.5237975180 -2.8866604462
H 0.8563608104 0.7729330747 -2.0261459198
H 3.7264398999 0.5173874200 -2.3105868198
H 2.8520104881 1.6832422184 -1.3213400451
H 3.8980408708 -1.0713290137 -0.5571293624
H 4.4928440090 2.5035741874 -0.0165272669
H 5.6704241360 1.4048842472 -0.7429860530
H 5.9914487607 1.5299799341 1.9465113083
H 2.8752704301 -2.5463798046 0.8659133787
H -0.1351234799 1.6851858116 2.8649188567
