27
CONF333
C 2.7008371052 -0.7907260907 0.6803079125
C 4.1692418587 -0.5251677773 0.3348042457
C 4.3746007112 0.5754094731 -0.7028889858
O 3.6724038294 1.7797419429 -0.3873934382
C 1.8762722960 -1.1449379492 -0.5595236505
C 0.5058045894 -1.7206371685 -0.2836538095
C -0.5379609898 -0.8168260266 0.4484967361
C -0.7576382414 0.5945165316 -0.1797120517
C -2.0397342833 1.3375931165 0.3148583143
F -1.9901336726 2.6109454789 -0.1043479469
F -2.1032636002 1.3279695190 1.6538437358
F -3.1447114852 0.7712406827 -0.1807314326
F -0.8458607050 0.4908194202 -1.5271568551
F 0.3089454329 1.3725255376 0.1249488937
F -0.1317566625 -0.6434830532 1.7324657250
F -1.7283377698 -1.4670033890 0.4647949278
F 0.6112953762 -2.8443351969 0.4960168235
F -0.0684791222 -2.1138560308 -1.4627159432
H 2.6473674341 -1.6111125040 1.4030210547
H 2.2809673750 0.0951899680 1.1629268271
H 4.7035101386 -0.2594647891 1.2568047689
H 4.6420084238 -1.4431392288 -0.0411457929
H 3.9858864603 0.2650521177 -1.6786651444
H 5.4503841898 0.7677604373 -0.8334234829
H 2.3860672161 -1.9218855594 -1.1438463067
H 1.7535568411 -0.2757353231 -1.2127137260
H 4.0310648088 2.1300339280 0.4356704516
