39
CONF91
C 8.3041307881 0.9922789139 -2.2192000893
C 7.8826479029 0.4714086237 -0.8464383421
C 6.3756837101 0.5784954782 -0.6131260637
C 5.9581906760 0.0718183828 0.7682569686
C 4.4510844606 0.1668521038 1.0556152977
C 4.1405115627 0.0883591553 2.5586482782
C 4.4828237685 1.3674635899 3.3202958549
C 3.7309225944 -0.9442427864 0.3017226917
O 2.2785375356 -0.7715199468 0.3807631584
C 1.7298305088 0.0616164121 -0.5099230247
O 2.3149025419 0.6115224662 -1.4174474233
C 0.2801056218 0.2770259975 -0.1951576925
C -0.0340218781 0.6572461073 1.1054978901
C -1.3363201923 0.9827965726 1.4485087875
C -2.3596273658 0.9136082945 0.4987770151
C -2.0527087113 0.4999681586 -0.8095582813
C -0.7314849321 0.1886614652 -1.1544368473
Br -0.3081259523 -0.4380241692 -2.8963769758
Br -3.4312779483 0.3615734157 -2.1015228184
Br -4.1314609051 1.3669262113 0.9797992863
Br -1.6570928084 1.5165572243 3.2433003155
H 8.0301166335 2.0466307704 -2.3372804797
H 9.3855890906 0.9072623542 -2.3656955534
H 7.8106896330 0.4285985203 -3.0188579718
H 8.1898945382 -0.5772615962 -0.7380447187
H 8.4085227037 1.0305791546 -0.0610147735
H 6.0656102072 1.6275093510 -0.7190111427
H 5.8537056533 0.0216472492 -1.4024905212
H 6.4991735987 0.6488149270 1.5275699640
H 6.2782949045 -0.9732702091 0.8949127348
H 4.0836836504 1.1299837798 0.6711400499
H 4.6877691537 -0.7645466532 2.9839687259
H 3.0736473906 -0.1271092924 2.6931385831
H 5.5445877367 1.6208397849 3.2394939482
H 3.9058565171 2.2136291557 2.9307155898
H 4.2483832674 1.2625988321 4.3841301308
H 3.9099505519 -1.9148935696 0.7721725949
H 4.0153498338 -0.9860118938 -0.7515184505
H 0.7526823815 0.7147743763 1.8480261093
