27
CONF20
C -3.4011456603 1.0884499909 0.7204652082
C -4.8523422459 1.0431219815 0.2571098847
O -5.5533306564 1.9661697894 1.0916151155
C -2.5147990991 0.1994775056 -0.1191506234
C -1.0465200099 0.1431210074 0.4035322372
C -0.0141182056 -0.5186502931 -0.5725676841
C 1.3153193106 -0.9569220773 0.1371861599
C 2.4994279957 -1.1985114121 -0.8597459843
C 3.6807297621 -2.0254981630 -0.2539167581
F 4.7217967999 -1.9696923645 -1.0960008669
F 3.3361239492 -3.3067389039 -0.0889228171
F 4.0531471922 -1.5141457709 0.9280717652
F 2.9945596057 -0.0049598363 -1.2499758093
F 2.0497668031 -1.8698788489 -1.9452579665
F 1.6912019604 0.0060780191 1.0096779162
F 1.0849979631 -2.1027619418 0.8186750264
F -0.5699265889 -1.6117659551 -1.1386807186
F 0.2917966150 0.3737507929 -1.5431153973
F -0.6350487481 1.4125041303 0.6503819563
F -1.0478406424 -0.5442227380 1.5755424973
F -2.4760677236 0.6388419487 -1.4173980663
F -3.0015989409 -1.0788608054 -0.1386555793
H -3.0301369584 2.1147686548 0.6588819433
H -3.3363196961 0.7662039088 1.7646760833
H -4.9178915966 1.3343046810 -0.8010390346
H -5.2516323429 0.0255715218 0.3651304701
H -6.4840480243 1.9458111574 0.8467304073
