41
CONF36
C 0.5956534581 -3.5863182583 0.2376199128
C -0.0027168916 -2.2375073749 0.4160159199
C -1.3228138361 -1.8809194142 0.4306324729
C -1.3987820969 -0.4480430350 0.5348654679
C -0.0777383185 0.0488981475 0.5694708070
N 0.7847626370 -1.0667217287 0.4816107713
C 2.1828275889 -1.0547900365 0.5700285199
O 2.7968682870 -1.9652447875 1.1091978977
C 2.8826614897 0.0838042237 -0.0744527749
C 2.4423038287 0.6047822861 -1.2951257795
C 3.1633437327 1.6059157214 -1.9312475457
C 4.3150077746 2.0909268240 -1.3193279623
C 4.7747209742 1.5879353185 -0.1058252550
C 4.0577624185 0.5690084929 0.5057208865
Cl 5.2194712102 3.3723294853 -2.1059372505
C 0.1730067480 1.3986386419 0.7698412200
C -0.9134932872 2.2685715052 0.8655146075
C -2.2305410374 1.7862600103 0.7833473239
C -2.4820291047 0.4223429289 0.6298598216
O -3.3378555589 2.5853120978 0.8606121184
C -3.1331953525 3.9934759421 1.0268076528
C -2.5038958700 -2.7788827612 0.3185630298
C -3.1392406150 -2.7660735438 -1.0563778551
O -2.6674876445 -2.2603608070 -2.0520358999
O -4.3187096649 -3.4205823405 -1.0484250832
H -0.1794636285 -4.2850341304 -0.0824161265
H 1.0465175271 -3.9607550553 1.1608783081
H 1.3796422800 -3.5715167927 -0.5253122093
H 1.5403496779 0.2196634990 -1.7591765801
H 2.8360002366 2.0035964787 -2.8848534054
H 5.6756318189 1.9830281530 0.3491608529
H 4.4015756307 0.1540392034 1.4472668014
H 1.1766080891 1.7967064371 0.8512282211
H -0.7171107189 3.3230946907 1.0102092269
H -3.5061308499 0.0629377604 0.6010534718
H -2.6099866651 4.2093186280 1.9659619836
H -4.1298684232 4.4350280125 1.0548404300
H -2.5691307017 4.4127655319 0.1852319353
H -3.2768659725 -2.5020815664 1.0459233466
H -2.2482334612 -3.8207982209 0.5413333058
H -4.6794260208 -3.4127496486 -1.9516420938
