22
CONF152
C 2.2800502192 0.0031467149 0.4083448726
C 0.8249264470 0.3094008040 0.1031776964
C -0.1096678130 -0.7535253871 0.6763926647
C -1.6074202966 -0.3703582334 0.7263532995
C -2.2812544378 -0.0851846869 -0.6162814779
O -1.9590265405 1.2195157255 -1.1123578434
O -1.7977425391 0.7362147498 1.6123681337
O 0.0571505557 -2.0031372805 0.0023762504
O 0.6314883953 0.3451873829 -1.3267514357
O 3.0588947224 1.0143729557 -0.2500726109
H 2.5388102777 -0.9937566876 0.0298560341
H 2.4365630440 0.0293339339 1.4957374869
H 0.5684972411 1.2880467664 0.5372434018
H 0.1919030426 -0.9172982844 1.7187653577
H -2.1166404071 -1.2349421193 1.1718888017
H -2.0259502856 -0.8674445530 -1.3444219031
H -3.3658524674 -0.0969472845 -0.4686682550
H -1.0344939677 1.1672657500 -1.4204031377
H -1.7696142932 1.5291912314 1.0542407521
H 0.1224890987 -1.8065583925 -0.9433351104
H 1.4001153029 0.8072997373 -1.6954776731
H 3.9567755004 0.6801773536 -0.3589753046
