73
CONF16
C -3.0325098053 -1.9528818086 -1.7727229047
C -2.5870702896 -1.3663355610 -0.4243564641
C -3.8025371443 -1.1574249234 0.4369933570
C -4.0604547925 -1.7880279235 1.5830871053
C -5.2876653221 -1.5905253054 2.4254102115
C -4.8929692248 -1.1785209397 3.8504677726
C -6.2196163582 -2.8336701414 2.4227281264
C -5.5395198449 -4.1087775748 2.9284854451
C -6.8175959906 -3.0667672178 1.0348924070
C -1.8156506913 -0.0373980377 -0.5530480807
C -1.3899077645 0.5094971285 0.8424389734
C -0.0419896750 1.2468488235 0.6513426484
C 0.1062112270 1.3338124460 -0.8647294557
C -0.5043702406 -0.0075360816 -1.3850189762
C -0.6726855659 0.1237285541 -2.9049868043
C 0.6504535219 0.4788376714 -3.5955058295
C 1.3155311835 1.7320988585 -2.9963142635
C 1.4276486903 1.6443738134 -1.4962413361
C 2.5588945890 1.8302283986 -0.7796887341
C 3.8759519159 2.0883500153 -1.3100418407
C 4.9972096528 2.3541503274 -0.5966323555
C 6.3368770987 2.5051191540 -1.2770534643
C 7.3869526999 1.5803854541 -0.6503612323
C 7.4995337342 1.8473216831 0.8408978221
C 6.1420820902 1.6452864108 1.5265765001
C 5.0551133933 2.4700826552 0.8748160645
C 4.2491856698 3.2715912432 1.5822908132
O 8.6841676513 1.7968510095 -1.2281299575
C 0.3972708127 -1.1975894985 -1.0297645607
H -3.6770849441 -2.8227195618 -1.6090243381
H -2.1815396035 -2.2755972033 -2.3768083296
H -3.6013122718 -1.2139395970 -2.3493443541
H -1.9390634781 -2.0961719726 0.0804201911
H -4.5302911155 -0.4354046779 0.0547916369
H -3.3253975128 -2.5018183050 1.9622809180
H -5.8685231553 -0.7693820661 1.9822645495
H -5.7797698918 -1.0684301669 4.4846347043
H -4.2348922417 -1.9220280575 4.3121546449
H -4.3571263738 -0.2239361754 3.8398020162
H -7.0434987165 -2.5949489958 3.1111874953
H -4.7429754250 -4.4254232521 2.2458718857
H -6.2664810017 -4.9256030880 2.9878528573
H -5.1036121145 -3.9785827137 3.9236636355
H -6.0327784267 -3.3225206254 0.3137984645
H -7.5393685796 -3.8903442646 1.0556627639
H -7.3316613511 -2.1714738659 0.6678709504
H -2.4965672226 0.6894368075 -1.0228423796
H -1.2868720981 -0.3189098002 1.5519151382
H -2.1618519221 1.1693264038 1.2487230510
H -0.0262114980 2.2333837806 1.1250309760
H 0.7775236309 0.6660439768 1.0873169007
H -0.5960320812 2.1101081637 -1.2172184351
H -1.0643882358 -0.7992924329 -3.3431151517
H -1.4106121890 0.9138788226 -3.1062687832
H 0.4734183859 0.6431717110 -4.6646809892
H 1.3460752931 -0.3657474096 -3.5213163500
H 0.6846626575 2.6021929664 -3.2355573692
H 2.2830206189 1.9036308099 -3.4738626934
H 2.4839769780 1.7744783341 0.3030520158
H 3.9982392277 2.0280115333 -2.3898142112
H 6.7026795120 3.5362994128 -1.1575975497
H 6.2444347473 2.3021857289 -2.3502449072
H 7.0806658120 0.5326768117 -0.8077524864
H 8.2484596049 1.1806649935 1.2822019562
H 7.8419975102 2.8801716010 0.9873610085
H 6.2110635784 1.8874800671 2.5912415679
H 5.8657396115 0.5836858413 1.4482386035
H 4.3417640762 3.3439729796 2.6627095140
H 3.4908457258 3.8801073739 1.0990787704
H 8.6210785015 1.6060181069 -2.1725321027
H 0.0335220487 -2.1125154801 -1.5091314108
H 0.4231484730 -1.3750472960 0.0495803151
H 1.4270538442 -1.0301980156 -1.3583792975
