47
CONF86
C -5.1136086517 -3.6373664003 2.3798834966
O -5.5408206677 -3.4161593266 1.0064829471
P -4.5659223128 -2.6735101315 -0.0185679557
S -2.7781439724 -3.3672077432 -0.2851578470
O -5.4304439726 -2.6693434762 -1.3575077293
C -6.8013135364 -2.1625979561 -1.3546387453
O -4.6451355188 -1.1570737847 0.5858380365
C -3.7332608628 -0.1721382382 0.2058331319
C -3.7714204345 0.3663556633 -1.0725619513
C -2.8653223342 1.3683376497 -1.4097509358
C -1.9538085319 1.8346990322 -0.4621574823
C -1.9462237521 1.2966381867 0.8285106111
C -2.8284089738 0.2781059687 1.1604359106
S -0.8587495847 3.1784281151 -0.9033608788
C 0.7509578459 2.5270077847 -0.4725652089
C 1.0672404257 1.1720924933 -0.5992464645
C 2.3475084121 0.7254322207 -0.2948485271
C 3.3094606080 1.6439607711 0.1086571903
C 3.0163430188 2.9950210517 0.2240542838
C 1.7274704585 3.4356768768 -0.0554041377
O 4.5903626847 1.2180238023 0.4671359887
P 5.6402967171 0.6291234427 -0.6358219667
S 5.6135719168 1.5066439775 -2.3616565510
O 5.3559009322 -0.9362899301 -0.7390727795
C 5.3241417680 -1.7654587280 0.4636693468
O 6.9820070932 0.6676001869 0.2319028188
C 7.5993956106 1.9460149313 0.5503738564
H -4.2125443273 -4.2560935655 2.3940167745
H -5.9387558961 -4.1588298437 2.8636302022
H -4.9292694675 -2.6798692281 2.8742084424
H -7.4441954084 -2.8378961943 -0.7866831762
H -6.8300416419 -1.1555481797 -0.9304307624
H -7.1033075202 -2.1388049313 -2.4010264299
H -4.4866322357 -0.0002900491 -1.8011629607
H -2.8675679273 1.7816927863 -2.4126550921
H -1.2446723320 1.6660977136 1.5691307403
H -2.8295051224 -0.1614349694 2.1520878122
H 0.3183360033 0.4606058212 -0.9299745238
H 2.5966178349 -0.3271096968 -0.3809251204
H 3.7860846359 3.6886362085 0.5448295557
H 1.4839826033 4.4877381376 0.0531993269
H 4.9626752428 -2.7391089911 0.1347821328
H 6.3297946389 -1.8520447970 0.8796766742
H 4.6385224601 -1.3378078640 1.1999648567
H 7.8777941556 2.4641918778 -0.3710231717
H 6.9126371791 2.5575723451 1.1416279612
H 8.4879716231 1.7062871437 1.1333143339
