50
CONF29
C 3.0977014517 2.1330289544 1.9538494222
C 3.4675325409 0.6936075328 1.5490575150
C 3.5941707558 -0.1457532299 2.8259481092
C 4.8326982023 0.6947129037 0.8357203080
C 2.3991581331 0.1481068989 0.5989998514
C 2.1562528127 0.8002767401 -0.6166632029
C 1.1932290310 0.3557688555 -1.5113463320
C 0.4341356920 -0.7572748853 -1.1740798702
C 0.6530635676 -1.4418394718 0.0078013547
C 1.6372543567 -0.9876648300 0.8827616329
O -0.5766532640 -1.2326313618 -2.0196428907
P -1.7388892765 -0.2300146522 -2.5302516153
O -1.3774096055 0.7030546342 -3.6072564104
O -2.3400468556 0.4185201062 -1.1757104602
C -1.7563129035 1.5213830654 -0.5358475958
C -1.5460019104 2.7174083936 -1.2092397697
C -0.9776555492 3.7792385913 -0.5107323723
C -0.6436064990 3.6485888609 0.8339855157
C -0.8862008610 2.4454642944 1.4918022155
C -1.4441076469 1.3717700613 0.8081754901
O -2.8860129900 -1.2639437644 -2.9336803810
C -3.3552840900 -2.2523853842 -2.0540586561
C -4.4303584872 -1.9618808829 -1.2273536624
C -4.9289384733 -2.9663122002 -0.4032825640
C -4.3564871768 -4.2352749513 -0.4146792654
C -3.2806256869 -4.5040547447 -1.2566187188
C -2.7709556162 -3.5100579964 -2.0861578705
H 2.1316944411 2.1510627249 2.4680292488
H 3.0224617078 2.7926226537 1.0848621531
H 3.8583663141 2.5432707719 2.6271852709
H 3.8923127064 -1.1758930585 2.6052968310
H 4.3613483725 0.2905345251 3.4729312058
H 2.6563440864 -0.1669213075 3.3907108923
H 4.8222312292 1.3241007233 -0.0586138162
H 5.1089174802 -0.3194363319 0.5300859412
H 5.6094092378 1.0771842668 1.5069551451
H 2.7287514310 1.6828828084 -0.8822303059
H 1.0127509836 0.8737628674 -2.4472131412
H 0.0458340611 -2.3101812825 0.2412302185
H 1.7916299881 -1.5346166412 1.8049943527
H -1.8011310189 2.7992850796 -2.2588928796
H -0.7997279663 4.7170479738 -1.0270237973
H -0.2005824871 4.4819263086 1.3689066476
H -0.6362918528 2.3363595403 2.5421551184
H -1.6227504847 0.4186569629 1.2927267199
H -4.8599511262 -0.9669189077 -1.2360090555
H -5.7707532260 -2.7536374847 0.2474823860
H -4.7510053405 -5.0148995991 0.2281832503
H -2.8349100122 -5.4932661076 -1.2729910164
H -1.9345997636 -3.6947683304 -2.7502624536
