47
CONF136
C -3.0405178652 -0.2115158951 2.4991060565
C -2.4231822496 -0.7074418497 1.2111614758
C -3.2565062744 -1.4914011464 0.2234212516
C -2.9221443983 -0.0295851235 -0.0687311481
C -1.9823995140 0.2692220294 -1.1579667314
O -1.2448897535 -0.5078506848 -1.7248675293
O -2.0160053703 1.6077306040 -1.4505917992
C -0.9917196356 2.0440378661 -2.3899157648
C -1.4979036210 3.2860847128 -2.9697921048
N -1.8720016154 4.2701828774 -3.4433309223
C 0.3278688394 2.2383479778 -1.6803072585
C 1.3652258381 1.3360658627 -1.9095353861
C 2.5469680453 1.4500131362 -1.1923512292
C 2.6769385005 2.4756541778 -0.2568924541
C 1.6579059436 3.3808886658 -0.0207284460
C 0.4747009802 3.2581419092 -0.7395941973
F 3.8301356773 2.5734076244 0.4322396765
O 3.5932564380 0.5928351805 -1.4440380050
C 3.9238810015 -0.3275396559 -0.4569308639
C 3.0625995314 -0.6573307086 0.5854082661
C 3.4649806804 -1.6181640998 1.5113436176
C 4.7038503419 -2.2423151510 1.3963751538
C 5.5491553911 -1.9005614000 0.3407845610
C 5.1662263555 -0.9414338237 -0.5900353296
C -4.6518053169 -1.8509467845 0.4865157023
C -5.2249242107 -3.0068366010 0.1498480819
Cl -4.4020436917 -4.3038164270 -0.6723310507
Cl -6.8973658899 -3.3542507242 0.5069618032
C -0.9653347779 -1.0846696544 1.3444787482
H -4.0679691935 0.1339603241 2.3699115336
H -2.4494864028 0.6224086530 2.8912363837
H -3.0343073773 -1.0129359271 3.2460574256
H -2.6876304343 -2.1936835991 -0.3781729937
H -3.7072534681 0.7045481666 0.0778958714
H -0.8894978436 1.3038544031 -3.1911975378
H 1.2608438689 0.5279066699 -2.6254597233
H 1.7996782895 4.1675482144 0.7121310011
H -0.3348144145 3.9588563380 -0.5605562725
H 2.0924364982 -0.1805733429 0.6743930004
H 2.7954280314 -1.8779613483 2.3255514514
H 5.0092350372 -2.9890023871 2.1215960460
H 6.5178215361 -2.3802208617 0.2411217383
H 5.8140440844 -0.6625584417 -1.4143843399
H -5.2848492228 -1.1293627380 0.9939342069
H -0.3773534077 -0.2122686707 1.6527755045
H -0.5494854825 -1.4752625742 0.4143816941
H -0.8617891818 -1.8522056934 2.1187109277
