65
CONF2
C 2.7594919852 1.9323358682 2.1609970637
C 1.4928376784 1.2012314563 1.6968568094
C 0.2803519961 1.6064725877 2.5459219565
C 1.6884870082 -0.3007529543 1.7123845907
C 1.9934098573 -0.9769253532 2.9002003898
C 2.1635407984 -2.3566307967 2.9374198393
C 2.0408010633 -3.1065323765 1.7700000507
C 1.7405046322 -2.4681963044 0.5723897415
C 1.5627295719 -1.0903484701 0.5689364999
O 1.2760030038 -0.4560474788 -0.6567434540
P -0.1582157544 -0.6075614904 -1.3570274761
O -0.4417430434 -1.8303219860 -2.1333274200
O -1.1342184933 -0.3287465549 -0.1097111979
C -2.4453766246 -0.8311361988 -0.0393017180
C -3.3607292125 -0.4809465154 -1.0258910432
C -4.6723067208 -0.9291592118 -0.9243112122
C -5.0502891969 -1.7106243715 0.1652131436
C -4.1150599227 -2.0433958562 1.1383802364
C -2.7830536668 -1.6173787047 1.0628620362
C -1.7767883881 -2.0129529180 2.1236604080
C -2.1817427703 -1.4839695960 3.5059269801
C -1.5871676825 -3.5357422268 2.1521614357
O -0.1824401016 0.6962817528 -2.2916061662
C 0.1560851625 1.9641014960 -1.7659466465
C -0.8304637282 2.6731455454 -1.0920040917
C -0.5295465222 3.9274470953 -0.5744036778
C 0.7491138296 4.4526648084 -0.7452683840
C 1.7113593650 3.7289872569 -1.4407386853
C 1.4440473366 2.4609113689 -1.9711800349
C 2.5053542213 1.7006134630 -2.7386739103
C 2.8300116931 2.4192762521 -4.0568205111
C 3.7724173286 1.4937871743 -1.8993582372
H 2.6170028255 3.0147492863 2.0744934285
H 2.9882951454 1.7035771976 3.2074421260
H 3.6233240946 1.6495135232 1.5512520938
H 1.2945530959 1.5053426619 0.6658344253
H 0.4257852362 1.3325520003 3.5966471220
H 0.1327799690 2.6903123353 2.4930269353
H -0.6296121310 1.1171044296 2.1859783371
H 2.0932983245 -0.4039369087 3.8174048571
H 2.3940444576 -2.8467706033 3.8779378042
H 2.1745843954 -4.1831042411 1.7880820306
H 1.6381102214 -3.0232274624 -0.3542637884
H -3.0464609391 0.1367435715 -1.8613233568
H -5.3924607136 -0.6634234351 -1.6910945259
H -6.0732225751 -2.0615436779 0.2558370583
H -4.4211214600 -2.6561090821 1.9812434711
H -3.1122596839 -1.9481287069 3.8499120524
H -1.3981587753 -1.7141652284 4.2357945599
H -2.3259668611 -0.3992463893 3.4867374539
H -0.8215760632 -3.8032416533 2.8875304911
H -2.5182169895 -4.0425932287 2.4282565858
H -1.2674533826 -3.9096374015 1.1743071640
H -1.8168269924 2.2390440358 -0.9714419007
H -1.2907649640 4.4867720896 -0.0405507716
H 0.9954907482 5.4299326127 -0.3425288623
H 2.7011317057 4.1548409166 -1.5756904511
H 2.1028349633 0.7149074994 -2.9870445225
H 1.9313743365 2.5435110532 -4.6690463028
H 3.5623937024 1.8416491206 -4.6302402100
H 3.2537716780 3.4110158445 -3.8652264205
H 4.4929542144 0.8862549985 -2.4564231901
H 4.2517622133 2.4493779309 -1.6620903034
H 3.5429865627 0.9826150412 -0.9598842448
H -0.8161964711 -1.5614204407 1.8633750431
