19
CONF5
C -1.5362578499 -0.4094181398 0.1584646142
N -0.4326373685 -1.1998576597 -0.4157461267
C 0.8948861262 -0.9983703899 0.1386762135
N 1.2750599751 0.4173922918 0.0416211268
C 0.1717430839 1.3922511377 0.2831389368
N -0.9150001324 0.6752349441 0.9024644685
N -1.0719250326 0.8621792488 2.2397997138
O -1.9104760294 0.1666243712 2.7718678281
N 2.1491026504 0.7856907205 -0.9821623692
O 2.1552885789 1.9779446585 -1.2674592717
O 2.8715506548 -0.0770373704 -1.4583145289
N -0.5336450063 -1.8268727022 -1.5938481424
O -1.6587448669 -1.8532323351 -2.0672278242
H -2.1565209228 -0.0351788256 -0.6655620106
H -2.1533524209 -0.9971097800 0.8470017905
H 0.8982222503 -1.2825004668 1.1956931561
H 1.6102772810 -1.6076193144 -0.4139996402
H -0.1560829164 1.8220628674 -0.6711652610
H 0.4985113423 2.1878170350 0.9567574377
