78
CONF196
C -0.6589214598 -0.4524136482 -0.8872503097
C 0.4833243545 -0.5993205775 -1.8816866923
O 0.1104550947 -1.7889070577 -2.6605858122
C -0.7460059288 -2.5708411335 -1.9518074470
O -1.1189382387 -3.6401366044 -2.3743878619
C -1.0350527947 -1.9024696446 -0.6293859989
C -2.4222196692 -2.0179456073 0.0083486411
C -3.5603702487 -1.6815355496 -0.9500571692
C -4.0707817122 -0.3847548175 -1.0395582919
C -5.0847953514 -0.1046738979 -1.9527483318
O -5.6681456472 1.1209954592 -2.1347763105
C -5.1931222975 2.2036367511 -1.3252778184
C -5.6032947217 -1.1062514240 -2.7799939537
O -6.6015712945 -0.8466428134 -3.6758418541
C -5.0969531540 -2.4074697384 -2.6792980739
O -5.6666689981 -3.3197903388 -3.5179440347
C -5.1479886101 -4.6548543244 -3.4777976083
C -4.0826130031 -2.6899923490 -1.7625969310
C -2.4356808849 -1.1182235915 1.2373603157
C -3.4315356640 -1.3755802873 2.2027476573
C -3.4956305456 -0.5492808765 3.2959896694
C -2.6244954563 0.5254342895 3.4551956281
O -2.9441938663 1.2162838003 4.5976492620
C -3.8824411522 0.3712037061 5.2950358505
O -4.3913870186 -0.5776655061 4.3330976466
C -1.6568524051 0.8085645647 2.5267588319
C -1.5585773506 -0.0358878736 1.3978321282
C -0.4264992201 0.2598711447 0.4299202155
O 0.8153290418 -0.2112002345 1.0322933275
C 1.7637109430 0.7735212542 1.2645331895
O 2.3519872456 1.1373198361 0.0032692525
C 3.3289777928 2.1602204527 0.1758263283
C 3.8723660841 2.5896705014 -1.1742454906
O 4.9101291244 3.5620605086 -0.9417977190
C 5.9606666775 3.0878791651 -0.1090816169
O 5.4913157009 2.6178343246 1.1474839685
C 4.4842031719 1.6038134899 0.9999995250
C 3.9805675055 1.1968322417 2.3681511784
O 4.9749217665 0.5332641755 3.1512178616
C 2.8285536037 0.2042346645 2.2013580335
O 2.2038457175 -0.0583031173 3.4528005158
C 6.8162173582 2.0540387117 -0.7983212093
C 7.5250956197 1.0247637346 -0.2384761260
C 8.3138452511 0.3117748376 -1.1820761812
C 8.2072844577 0.8121169540 -2.4504541456
S 7.1301078502 2.1686040472 -2.5075221455
H -1.5011930732 0.0414140593 -1.3889411228
H 1.4388228457 -0.8029443766 -1.3929016420
H 0.5845065039 0.2278337020 -2.5851910849
H -0.3013816026 -2.3353379822 0.0709009886
H -2.5665706544 -3.0526433856 0.3398413050
H -3.6932655783 0.3916190245 -0.3859320644
H -5.7720324968 3.0763180057 -1.6281526923
H -4.1268962441 2.3852660217 -1.5040021049
H -5.3610006534 1.9983447302 -0.2616153319
H -6.8240287195 0.0933134801 -3.6014579366
H -5.7093506566 -5.2108441787 -4.2292785498
H -4.0804756729 -4.6694643488 -3.7276607717
H -5.3027864031 -5.1088829680 -2.4918270948
H -3.6820789812 -3.6916227571 -1.6814382585
H -4.1263202596 -2.1991846960 2.0731905251
H -4.7058277654 0.9784738344 5.6753961987
H -3.3571105634 -0.1716303376 6.0925997935
H -0.9879086586 1.6537349190 2.6505915463
H -0.3465743767 1.3425955286 0.2749036361
H 1.3115667460 1.6765460061 1.7155385818
H 2.8914107775 3.0312617784 0.6914151333
H 3.1151286208 3.0897378775 -1.7821683423
H 4.2605026692 1.7158735811 -1.7172044849
H 6.5513694149 3.9802746890 0.1240861449
H 4.9001688221 0.7258563523 0.4829683709
H 3.6073955299 2.0887720619 2.8965580020
H 5.6149655534 1.1944805823 3.4432078292
H 3.2191991790 -0.7232381319 1.7517655791
H 2.9055259452 -0.3088977201 4.0691862807
H 7.4767576863 0.7884313867 0.8181422689
H 8.9335073458 -0.5409543997 -0.9304331368
H 8.6858072425 0.4631720792 -3.3559875490
