32
CONF21
C 2.0569034605 -3.6626536247 1.0203341104
O 1.5181107757 -2.5376368286 0.2673819446
C 2.2578152009 -1.4473396288 0.2366100137
N 3.4124083343 -1.3047357646 0.8181698206
C 4.0792136008 -0.1209615852 0.7139717204
C 3.5824968013 0.9439379260 0.0180413329
C 2.3344386906 0.8175559721 -0.6158447482
N 1.7034663636 -0.4114824169 -0.4845698929
N 0.5176432161 -0.3981366707 -1.1478615447
C 0.5191452205 0.8409308413 -1.6300041265
N 1.5758706843 1.6324721266 -1.3499036768
S -0.9333389245 1.4576675580 -2.4985123619
O -1.6207144411 0.3003242223 -3.0682248090
O -0.5236316334 2.6052213209 -3.3060161920
N -1.9312972151 2.0764718019 -1.2653219532
C -2.4150816625 1.1435088084 -0.3107978441
C -1.7460963910 0.8758939833 0.8871137796
C -2.2121957960 -0.0228520820 1.8264293264
C -3.3964529914 -0.7032277928 1.5542159209
C -4.1028037737 -0.4755862615 0.3764838184
C -3.6045771690 0.4440991997 -0.5286851752
F -4.2932331650 0.6932979845 -1.6565892453
F -0.5947515834 1.5428329358 1.1217738569
F 4.2418181699 2.1059411033 -0.0767812156
H 1.3040800058 -4.4419790006 0.9209595554
H 3.0069156172 -3.9768091217 0.5841030453
H 2.1900437551 -3.3766777743 2.0653313467
H 5.0403269086 -0.0478995940 1.2148627793
H -1.5055225352 2.9090943795 -0.8598908642
H -1.6521262116 -0.1871945285 2.7396681764
H -3.7775077510 -1.4186011978 2.2744236060
H -5.0313655824 -0.9906329870 0.1591300884
