47
CONF122
C -4.8399827533 0.6844852022 0.4005632123
C -3.5719937277 0.3635539271 1.1613788942
C -3.5587568516 0.7341336090 2.6220278654
C -2.7668683233 1.5858873884 1.6079281076
C -1.3002080152 1.5798295509 1.5890771652
O -0.5453062436 0.7274182680 2.0065962144
O -0.8489880375 2.7292363743 0.9892296331
C 0.5884901043 2.7927795904 0.8259687373
C 0.8852273761 4.2031350765 0.5721496482
N 1.1636624905 5.3032841935 0.3588743970
C 1.0699287353 1.9262246454 -0.3205745315
C 0.4250556143 1.9840376630 -1.5561262315
C 0.8760537674 1.1759795709 -2.5947238096
C 1.9628604548 0.3242463261 -2.4172376372
C 2.5933521369 0.2811552489 -1.1751010051
C 2.1523074214 1.0768331544 -0.1211724814
O 3.7113925336 -0.4869572973 -0.9321584528
C 3.8499981910 -1.7046953514 -1.5859869183
C 5.0964904817 -1.9954480160 -2.1278616766
C 5.3034216973 -3.2392712602 -2.7198659768
C 4.2725342601 -4.1746797357 -2.7738295158
C 3.0292844967 -3.8654737334 -2.2230620525
C 2.8100553695 -2.6303565924 -1.6204909167
C -2.8840534359 -0.0873657040 3.6283281794
C -3.1803207285 -0.1044838266 4.9279747794
Br -2.2713705411 -1.2594970946 6.1422418655
Br -4.5119769596 0.9882476800 5.7396501304
C -2.8665457058 -0.8767248768 0.6671277891
H -4.6142418327 0.8448125467 -0.6590074537
H -5.3277959282 1.5806567173 0.7929749399
H -5.5399255235 -0.1545153168 0.4782941785
H -4.4447106498 1.2527723190 2.9750291311
H -3.2100863564 2.5464202276 1.3695363095
H 1.0842759505 2.4984366487 1.7583168553
H -0.4202970125 2.6485387720 -1.7023021337
H 0.3847951365 1.2151052218 -3.5615075393
H 2.3170760104 -0.2961160513 -3.2331139135
H 2.6504178875 1.0172173590 0.8412026754
H 5.8866011193 -1.2533753561 -2.0802598015
H 6.2747175408 -3.4724090925 -3.1447338411
H 4.4366000608 -5.1408299496 -3.2394695694
H 2.2241928078 -4.5930090520 -2.2525657632
H 1.8479767485 -2.3872526829 -1.1811639759
H -2.0880595830 -0.7508262693 3.3094413781
H -3.5217166294 -1.7433090182 0.8056522205
H -1.9215796622 -1.0720339360 1.1737757026
H -2.6619829926 -0.7757963639 -0.4039780911
