44
CONF1
C -4.9179712424 0.5893358960 1.7986285571
N -3.5792061118 0.2645223278 1.2902399885
C -3.1720859666 1.1703378737 0.1919194139
C -3.9829325492 0.6983751255 -1.0475916451
C -4.2427623421 -0.8046312141 -0.7665405049
C -3.5540776539 -1.0486635736 0.6055011297
C -2.0832095952 -1.4559563344 0.4425741886
C -1.3632418369 -0.4431880894 -0.4351995049
C -1.6621339070 0.9935078506 -0.0188103191
O 0.0728493743 -0.7130394842 -0.3014440496
C 0.8745754193 -0.3157720913 -1.2966273651
O 0.4880676804 0.2020451136 -2.3294701872
C 2.3318303314 -0.5924209400 -0.9664525531
C 3.2262504812 -0.2998745395 -2.1793932803
O 2.9081198907 -1.1159257995 -3.3057104314
C 2.7712545369 0.2255695200 0.2299420097
C 2.5120829169 1.5990858027 0.2800551831
C 2.9476844353 2.3606888641 1.3606277269
C 3.6520537185 1.7589080863 2.4018933207
C 3.9169022118 0.3920319415 2.3563251645
C 3.4778939550 -0.3702923057 1.2761973544
H -4.8970613419 1.5839676101 2.2560499062
H -5.7086153731 0.5845205845 1.0295927148
H -5.1936578626 -0.1357960366 2.5713509429
H -3.3850613321 2.2091229078 0.4635330628
H -4.9224391103 1.2520067591 -1.1237040518
H -3.4300545024 0.8656793812 -1.9767878967
H -3.8348459776 -1.4571479152 -1.5442890765
H -5.3140126960 -1.0114075610 -0.6977893008
H -4.0756670325 -1.7970032809 1.2104802162
H -2.0097212449 -2.4539895221 -0.0031637730
H -1.6121318882 -1.4830896729 1.4314557719
H -1.6242480486 -0.5946685169 -1.4864961263
H -1.1421460309 1.2115616567 0.9213683914
H -1.3000630154 1.6889474227 -0.7832343698
H 3.1619566542 0.7676181310 -2.4326685246
H 4.2613886254 -0.5262448327 -1.9070802433
H 1.9602904493 2.0756982548 -0.5267006630
H 2.7353360220 3.4249831293 1.3901893232
H 3.9909335006 2.3522759504 3.2453331517
H 4.4632622031 -0.0842147932 3.1647225370
H 3.6822234486 -1.4369348357 1.2447191600
H 2.4130843040 -1.6568718287 -0.7157530294
H 2.0416068627 -0.8233152707 -3.6204896505
