39
CONF232
C 7.5362400544 2.9315859056 0.2568159787
C 6.7022027755 1.6890083379 0.5610978063
C 6.8964254562 0.5937140719 -0.4879870710
C 6.1768731429 -0.7220876009 -0.1656181557
C 4.6634798332 -0.6221904047 0.0898031373
C 4.0562948945 -1.9915403126 0.4314905132
C 4.5082629835 -2.5570691414 1.7767410265
C 3.9737405952 -0.0155642868 -1.1259195277
O 2.5468685126 0.1774222411 -0.8922785123
C 2.2108839956 1.3140965942 -0.2518458537
O 2.9848736571 2.1752480675 0.0911439485
C 0.7392533094 1.3354982209 0.0292006052
C 0.1711449301 0.1742653743 0.5433719492
C -1.1555829304 0.1472558841 0.9400013888
C -1.9563655064 1.2854903668 0.8092992450
C -1.3989864101 2.4544406760 0.2598120266
C -0.0509373455 2.4798241572 -0.1248980772
Br 0.6868940840 4.0268591151 -0.9323316030
Br -2.4786649337 3.9924089307 0.0381381523
Br -3.7621438286 1.2392276273 1.3608248173
Br -1.8191276022 -1.4814372330 1.6558712194
H 7.2621950739 3.3544753061 -0.7158082170
H 7.3850805803 3.7089902632 1.0113862832
H 8.6051247765 2.6932145577 0.2269455176
H 6.9728196080 1.2916035008 1.5491672161
H 5.6441613810 1.9708417014 0.6174483475
H 6.5865189621 0.9750011917 -1.4701638399
H 7.9687785418 0.3777802334 -0.5840955007
H 6.6423853089 -1.1563723678 0.7266043085
H 6.3478056786 -1.4402779145 -0.9806338086
H 4.4947737168 0.0551778266 0.9381750662
H 4.3013886222 -2.6990301684 -0.3732125654
H 2.9637999665 -1.9014130727 0.4356512985
H 4.3043174899 -1.8476225760 2.5863182162
H 3.9765129105 -3.4852732256 2.0055854459
H 5.5782169555 -2.7824965974 1.7910863267
H 4.0175525751 -0.6955392230 -1.9824190644
H 4.4063844564 0.9497879103 -1.3967729811
H 0.7812018607 -0.7135098964 0.6465239275
