63
CONF220
C 2.2289277553 0.7856376426 1.0690881625
C 0.8541671288 1.1406485405 1.6285036883
N -0.1518765672 0.1528708298 1.2211169904
C 0.2116695806 -1.1757013275 1.7281583058
C 1.5569269429 -1.6304858377 1.1714103655
C 2.6315348080 -0.6098259391 1.5429304238
N 3.9604684945 -0.9992643139 1.0626588158
C 5.0636206064 -1.2673831161 1.8664568766
C 5.2306710686 -1.2606720037 3.2440848616
C 6.4963620294 -1.5845374128 3.7429177302
C 7.5556908618 -1.9038547790 2.8906873991
C 7.3893759142 -1.9118439722 1.5027886753
C 6.1351636988 -1.5907920462 1.0100670037
N 5.6456255146 -1.5081763159 -0.2797648556
C 4.3077728766 -1.1441733846 -0.2781667231
O 3.5869765069 -0.9860938546 -1.2617907098
C -1.4893608884 0.5212506753 1.7008081494
C -2.0498973789 1.7934052005 1.0620448208
C -1.9461860631 1.8440383071 -0.4641061754
C -2.6257844688 0.6592634469 -1.1690345287
C -4.1160987695 0.6061722685 -0.8720419811
C -4.9594949376 1.6531687652 -1.2585877020
C -6.3227607411 1.6194621915 -0.9844672993
C -6.8295684099 0.5151751282 -0.3183467690
C -6.0367733917 -0.5460814262 0.0771957864
C -4.6729043583 -0.4881478004 -0.2076152309
F -8.1625800156 0.4742645184 -0.0460498146
C -2.3880870853 0.6277304137 -2.6708802483
C -2.4077570070 -0.6074419276 -3.3286881912
C -2.2365853548 -0.7016342435 -4.7059244127
C -2.0448053609 0.4697324806 -5.4194435722
C -2.0146562457 1.7129493440 -4.8150437545
C -2.1881753278 1.7815716104 -3.4330995982
F -1.8734620993 0.3925986766 -6.7675880854
H 2.9654979443 1.5225558013 1.4081261445
H 2.1994617965 0.8086756361 -0.0249890632
H 0.5616618597 2.1272174922 1.2561725783
H 0.9099016095 1.2110833000 2.7354109800
H 0.2540651794 -1.1794153363 2.8377904214
H -0.5694259970 -1.8854427085 1.4315219619
H 1.4971974341 -1.7209052219 0.0821708544
H 1.8144831148 -2.6119709962 1.5848431127
H 2.7093971258 -0.5843922568 2.6363047735
H 4.4171352140 -1.0155139364 3.9174442887
H 6.6535956181 -1.5864768699 4.8165508369
H 8.5257417391 -2.1505223827 3.3096767629
H 8.2074636293 -2.1591565340 0.8346358194
H 6.1620743666 -1.6782074186 -1.1282700599
H -1.4985116480 0.6421094529 2.8029335087
H -2.1567143388 -0.3204187471 1.4780738001
H -3.1023612693 1.8706318690 1.3637079014
H -1.5529039580 2.6781669938 1.4756071334
H -2.3907251351 2.7859819991 -0.8053023695
H -0.8921726254 1.8605938432 -0.7652634503
H -2.1856002022 -0.2613658426 -0.7696236440
H -4.5519728212 2.5098015101 -1.7876560109
H -6.9828774209 2.4276241859 -1.2809566859
H -6.4744895609 -1.3938068011 0.5934153630
H -4.0343984453 -1.3138463904 0.0935335001
H -2.5600755118 -1.5152858376 -2.7508586456
H -2.2462388219 -1.6583016987 -5.2172508703
H -1.8562618796 2.6058237833 -5.4103759595
H -2.1610828938 2.7559702935 -2.9576504863
