29
CONF6
C -4.3254584161 0.0842197262 0.1467788914
C -3.3260572928 -0.4142017626 0.9801432157
C -2.1439273153 -0.9058404839 0.4388516083
C -1.9440046559 -0.9002584760 -0.9433745463
C -2.9430273461 -0.3894905355 -1.7705326290
C -4.1318617673 0.0946666528 -1.2306113503
C -0.6644746227 -1.4586586953 -1.5242332539
O 0.4892729043 -1.1392561932 -0.7555616391
C 0.8120208594 0.2561850144 -0.8199542917
C 2.0009679445 0.5037781843 0.0598337425
C 1.8718092160 1.2127263788 1.2531113707
C 2.9764703501 1.4245914001 2.0737713628
C 4.2202091713 0.9198613215 1.7088956381
C 4.3562082770 0.2038098123 0.5212230341
C 3.2527855321 -0.0010543365 -0.2980573261
H -5.2482908066 0.4670096401 0.5706292735
H -3.4706731766 -0.4210468974 2.0560935222
H -1.3575712981 -1.2883910318 1.0828343872
H -2.7894249248 -0.3681574932 -2.8465549844
H -4.9021832770 0.4892879049 -1.8857458769
H -0.5469634606 -1.1143143072 -2.5655725179
H -0.7055818428 -2.5543746992 -1.5371379802
H -0.0426071344 0.8640810103 -0.4890726685
H 1.0375480864 0.5257404760 -1.8660731681
H 0.8979472450 1.5996774289 1.5405958153
H 2.8646829149 1.9807898605 2.9990872049
H 5.0826888248 1.0832325089 2.3471945459
H 5.3252190506 -0.1921717570 0.2340855873
H 3.3542775480 -0.5624410480 -1.2223470745
