47
CONF28
C -7.0397406320 -2.2939254188 1.5427169074
O -6.6922172131 -1.2332770480 0.6251155217
P -5.1457323955 -0.9155197183 0.3333900052
S -3.9637422603 -2.4131561608 0.0407429855
O -5.2830960945 0.1744404379 -0.8366435833
C -5.4760712414 -0.2740817422 -2.1986271601
O -4.8069712886 0.0484325371 1.5956419084
C -3.4978664714 0.3708877014 1.9482634243
C -2.6684557299 1.0574661531 1.0676594336
C -1.3880855979 1.4027430953 1.4747676043
C -0.9344155082 1.0454305001 2.7475406379
C -1.7808726509 0.3587292842 3.6185170472
C -3.0715119365 0.0265087221 3.2211704922
S 0.6932747627 1.5103311333 3.3198140390
C 1.7246795511 1.0151517915 1.9465126946
C 1.5121034004 -0.1805916175 1.2551292685
C 2.3601065019 -0.5442062906 0.2199233053
C 3.4400921488 0.2696094518 -0.1030027564
C 3.6769145902 1.4517187970 0.5873469413
C 2.8051963845 1.8286732919 1.6036013712
O 4.2872144170 -0.1820440952 -1.1083424248
P 4.8743608217 0.7953919464 -2.2889167029
S 3.6358909298 2.0410115044 -3.0610217496
O 5.5357420540 -0.3364086306 -3.2181898826
C 4.6803635013 -1.1592518263 -4.0422802350
O 6.1784661969 1.4765756739 -1.6554246150
C 7.1761595179 0.6629387706 -0.9882614592
H -6.5760511478 -3.2340707271 1.2298884453
H -8.1266121397 -2.3741614015 1.5064185578
H -6.7191378577 -2.0365013016 2.5572932975
H -5.4518556418 0.6262267254 -2.8131984902
H -4.6727362190 -0.9571549633 -2.4897687158
H -6.4467374641 -0.7692409115 -2.2990228842
H -3.0311977930 1.3273276328 0.0821850167
H -0.7349410702 1.9463303219 0.8005345529
H -1.4242898998 0.0695533232 4.6013294035
H -3.7394416069 -0.5168403807 3.8799301430
H 0.6754103983 -0.8194185799 1.5166004778
H 2.2001991819 -1.4611735854 -0.3362515273
H 4.5128143897 2.0883162353 0.3186878178
H 2.9633316033 2.7663171302 2.1260059108
H 5.3482818419 -1.7769886126 -4.6432616192
H 4.0469815410 -1.7937460315 -3.4143937557
H 4.0612381413 -0.5302565958 -4.6887851664
H 7.9032857426 1.3652775100 -0.5797518204
H 6.7201042295 0.0827959464 -0.1799305684
H 7.6595669012 -0.0061697869 -1.7046060763
