49
CONF90
C -4.5512761656 -0.4138154182 -0.5381197759
C -3.7151410173 -1.1481448706 0.4889499151
C -2.5277398313 -0.4466034886 1.1710685649
C -2.3239936342 -1.6016418901 0.1575312791
C -1.7752479591 -2.8872992558 0.7441584029
C -1.7193158956 -1.3058866461 -1.1987376371
C -2.1033012968 0.9163964539 0.8626868080
O -2.2416149971 1.5533553841 -0.1608631286
O -1.4465857849 1.4481284432 1.9584633723
C -0.8466855647 2.7387549711 1.7167382411
C -0.5514912401 3.2864605969 3.0414507539
N -0.2936324355 3.7467828684 4.0686402402
C 0.4146342207 2.6290372735 0.8813888709
C 1.3370388452 1.6249339817 1.1695861627
C 2.4750257786 1.5099115606 0.3822159711
C 2.7134827773 2.3896250513 -0.6735893274
C 1.7850064843 3.3881963611 -0.9427675710
C 0.6307565398 3.5119124474 -0.1722923997
O 3.3902876734 0.5403009374 0.7421223709
C 3.9753768594 -0.2268002577 -0.2533249724
C 5.2993844775 -0.6057587887 -0.0559688057
C 5.9119313528 -1.4397570141 -0.9871768255
C 5.2110631523 -1.8842662018 -2.1064756680
C 3.8845950051 -1.4960790409 -2.2870390127
C 3.2551995987 -0.6687767985 -1.3611563154
C -4.5827384415 -1.9817122565 1.4143884017
H -5.2823665497 0.2254315731 -0.0313229496
H -5.1062215924 -1.1478643701 -1.1336706880
H -3.9693254795 0.2115813603 -1.2110667936
H -2.3578603920 -0.7260888740 2.2056123195
H -0.6805694384 -2.8514165271 0.7531141301
H -2.1145675958 -3.0717921275 1.7636367345
H -2.0784769740 -3.7372404081 0.1215558024
H -2.0333963691 -0.3523545932 -1.6189558525
H -1.9977524842 -2.1033625206 -1.8971397609
H -0.6260897939 -1.2968513648 -1.1210659126
H -1.5641585340 3.4034934950 1.2212208892
H 1.1748901136 0.9271648986 1.9846498313
H 3.6124390898 2.2884004599 -1.2722471023
H 1.9623280111 4.0746750027 -1.7642020796
H -0.1012429595 4.2811023410 -0.3965163342
H 5.8315611780 -0.2478624088 0.8191545160
H 6.9450698007 -1.7371190738 -0.8370018639
H 5.6937286518 -2.5306901686 -2.8318702231
H 3.3276366297 -1.8449906940 -3.1510763468
H 2.2199214948 -0.3728263356 -1.4948423250
H -5.3831872637 -1.3586028807 1.8271026282
H -5.0485211330 -2.7994736013 0.8524414559
H -4.0288559274 -2.4105665905 2.2502815090
