50
CONF1
C 5.2705243128 -0.6606893440 -0.8605216772
C 4.0106957847 0.1637960712 -1.1240851835
C 3.1279782834 0.2957663577 0.1204875967
C 2.0100886081 1.3511699013 0.0013173943
C 1.2644724112 1.3131721712 1.3385713669
C 0.4031269745 0.0199551557 1.3477179924
C -1.0372147334 0.3988560482 0.9755104450
N -2.1410514394 -0.5125630874 1.3515358025
C -2.3669656915 -0.7049023280 2.7789641470
C -3.2275255115 -0.0774925701 0.5770909340
C -4.5866399686 -0.2856324844 0.8025983592
C -5.4961831524 0.2195960432 -0.1322778628
C -5.0659854212 0.9153053286 -1.2600369878
C -3.6969182471 1.1208610050 -1.4803114900
C -2.7857302965 0.6431373079 -0.5541987760
C -1.2848861261 0.5872537618 -0.5408467267
C -0.7680270464 -0.6665430940 -1.2715144173
C 0.7157891936 -0.5538927468 -0.9912879070
C 1.0396092533 0.9689099465 -1.1389446968
C -0.3517177988 1.6820122152 -1.0949826309
O -0.7567395021 2.1706248710 -2.3804861107
N 0.9791012251 -0.9840555592 0.4041065330
C 2.4526825409 -1.0448174390 0.5281955976
O 2.8363496944 -1.3716674063 1.8575777720
H 5.0235941742 -1.6733702846 -0.5228415061
H 5.8834214793 -0.1914253243 -0.0830432064
H 5.8807482193 -0.7526924091 -1.7644124548
H 4.2956678839 1.1704494925 -1.4564515718
H 3.4415280612 -0.2848198400 -1.9477863141
H 3.7736386922 0.6024262397 0.9539113803
H 2.4467345934 2.3393855909 -0.1793033647
H 1.9890290245 1.2926286911 2.1584757121
H 0.6422650630 2.1997487744 1.4875119027
H 0.4104625510 -0.4182508480 2.3495950282
H -1.2370794271 1.3690102261 1.4693501744
H -3.1423099112 -1.4595791814 2.9352274354
H -1.4523985002 -1.0710018147 3.2511203499
H -2.6757674631 0.2291018349 3.2786399979
H -4.9422614205 -0.8196519321 1.6774927050
H -6.5591350255 0.0700510967 0.0337982693
H -5.7918501676 1.3027712702 -1.9679024498
H -3.3530846472 1.6571877660 -2.3582893326
H -0.9852474935 -0.5937093122 -2.3439017825
H -1.2040684261 -1.5938028800 -0.8936944193
H 1.3220491599 -1.1788486166 -1.6547712329
H 1.5012482083 1.1801828632 -2.1090565426
H -0.3513853079 2.5696502978 -0.4556058425
H -0.6580505001 1.4580793030 -3.0251558749
H 2.7701784212 -1.8448734099 -0.1596916643
H 2.4272393326 -2.2218068110 2.0726056487
