44
CONF13
C -4.1078887457 -0.6966759943 2.0468845929
N -4.2640871371 -0.1078838775 0.7231681273
C -3.5841781740 1.1782098416 0.4864180467
C -3.9711313938 1.4481528626 -0.9816524044
C -4.1225608329 0.0259362690 -1.5959665385
C -3.8112845504 -0.9211737831 -0.4189410368
C -2.3035638156 -1.2462375377 -0.3379741980
C -1.4958985997 0.0459465592 -0.3213418809
C -2.0541043170 1.0644301143 0.6607018412
O -0.1121809734 -0.2303420413 0.0991923933
C 0.7513917650 -0.6443892296 -0.8336601547
O 0.4720988208 -0.8109257378 -2.0084711608
C 2.1303347680 -0.8807681838 -0.2380630419
C 3.0892275540 -1.4403488644 -1.2988514620
O 2.6626113554 -2.6987797086 -1.8181711848
C 2.6912176214 0.3871456130 0.3693701399
C 3.2607436626 0.3725286869 1.6439364226
C 3.8182778328 1.5302528662 2.1820372434
C 3.8116219617 2.7154287733 1.4501440714
C 3.2460491859 2.7372566336 0.1763087205
C 2.6912335752 1.5796523039 -0.3614213081
H -4.5036605200 -0.0015519939 2.7957809825
H -4.6949089265 -1.6206325999 2.0981435732
H -3.0723152554 -0.9429840288 2.3332486763
H -3.9709372843 1.9407513196 1.1718710774
H -4.9199013871 1.9889743867 -1.0235559650
H -3.2183815035 2.0529222774 -1.4957055071
H -3.4489952525 -0.1432280161 -2.4412175241
H -5.1450852069 -0.1362895029 -1.9459660174
H -4.3817319406 -1.8557285818 -0.4662754495
H -2.0090129890 -1.8656757092 -1.1915937624
H -2.0937177268 -1.8162327659 0.5744484435
H -1.4448306369 0.4734961069 -1.3265175012
H -1.8200451123 0.7542040363 1.6853659448
H -1.5836178210 2.0402767022 0.4960153443
H 3.2154204221 -0.7018052364 -2.1032375797
H 4.0636092336 -1.6062413585 -0.8298821633
H 3.2645932161 -0.5504105438 2.2172474635
H 4.2552286297 1.5059499857 3.1756762157
H 4.2435571829 3.6182978135 1.8703889392
H 3.2355499498 3.6578507954 -0.3991331134
H 2.2483516477 1.6051280898 -1.3542141479
H 2.0099651859 -1.6294015733 0.5549868123
H 1.8552368864 -2.5247434178 -2.3222192803
