55
CONF116
C 3.3495545929 -0.8852416219 -5.5739033698
O 4.1592822423 -0.9510475377 -4.4039014624
C 3.5254918016 -0.9244956546 -3.1972692510
C 4.3560665819 -0.9940594378 -2.0753392189
C 3.8023646580 -0.9734997950 -0.8072707741
C 2.4193685211 -0.8812060144 -0.6193245091
C 1.6035547499 -0.8219165517 -1.7471090914
C 2.1418151589 -0.8408225762 -3.0297826370
C 1.8759908314 -0.8251756474 0.7828841749
S 0.5733318596 -2.1436968636 0.9703856526
C -0.2943410924 -1.6042734138 2.4317677316
C -0.2622853348 -2.4068680803 3.5755558530
C -1.0066300144 -2.0740651055 4.6998788578
C -1.7687678513 -0.9088877260 4.7018328301
C -1.7947271457 -0.0918698730 3.5804713536
C -1.0767115724 -0.4325703526 2.4305375297
N -1.1657673328 0.4007782847 1.2886638994
C -2.4909006965 0.6826578375 0.7174297689
C -2.8544914513 -0.3895325372 -0.3294942411
N -4.1475364149 -0.2308011936 -0.9808710632
C -5.2795106150 -0.3544755261 -0.0732190205
C -4.2413276595 0.9710674349 -1.8009822585
C -0.0730845657 0.8448937976 0.5857027175
O -0.1725403184 1.4864008347 -0.4491909634
C 1.2928372795 0.5333808228 1.2121244286
O 2.2443522771 1.5210446215 0.8002181071
C 1.9883072858 2.7807847388 1.2510727277
C 2.9394469981 3.7612567214 0.6347279213
O 1.0998661597 3.0388800318 2.0271696718
H 2.7752045613 0.0495529685 -5.6099623202
H 2.6632479466 -1.7400054533 -5.6327691984
H 4.0414290005 -0.9179350431 -6.4165505671
H 5.4282340386 -1.0657334490 -2.2215467876
H 4.4574854345 -1.0235523570 0.0579658165
H 0.5280339581 -0.7549542529 -1.6322978562
H 1.4741587174 -0.7890697311 -3.8805435098
H 2.6902792828 -1.0568131223 1.4779107105
H 0.3488895826 -3.3030546824 3.5644496173
H -0.9790273365 -2.7137313557 5.5755672473
H -2.3312974615 -0.6244714326 5.5848954133
H -2.3603214516 0.8338465655 3.5928527517
H -2.4549733179 1.6760343459 0.2642448937
H -3.2189727970 0.6876819331 1.5316999348
H -2.0738299278 -0.3856282076 -1.0991667881
H -2.8261964563 -1.3743305982 0.1564256853
H -6.2050418912 -0.4399216719 -0.6541778161
H -5.4021787844 0.5046874529 0.6150000824
H -5.1737631029 -1.2631624943 0.5293973873
H -5.1374576664 0.9131906020 -2.4295502178
H -4.3054470970 1.9092443696 -1.2176032448
H -3.3671428813 1.0397500428 -2.4563921020
H 1.2010232618 0.5601710114 2.3029721203
H 2.6297364737 3.9276781106 -0.4021132049
H 2.8994462929 4.7024125420 1.1814746215
H 3.9554708735 3.3614755753 0.6150515371
