51
CONF52
C 2.5403763509 -2.6924891749 -0.4784008501
C 2.4291839896 -1.2016015103 -0.2919648622
C 1.3134735881 -0.5242617745 -0.8200477488
C 1.2124249832 0.8611000714 -0.7235153772
C 2.2158604523 1.5957309293 -0.0997906540
C 3.3136574199 0.9410239911 0.4383071264
C 3.4280055218 -0.4537225263 0.3617077787
C 4.6105454927 -1.0897365009 0.9941218464
C 5.9024220916 -0.6648365879 0.6604617270
C 7.0175785883 -1.2284226727 1.2745451980
C 6.8591527693 -2.2213384217 2.2386026326
C 5.5776617080 -2.6453596948 2.5857749708
C 4.4636235346 -2.0851888150 1.9685419606
C 0.2479946616 -1.3353330002 -1.5169312058
O -0.9165236762 -0.5520605858 -1.8626316738
C -1.8012420781 -0.3270099490 -0.8597416963
O -1.6593638330 -0.7512163478 0.2697624358
C -2.9293215220 0.4885339842 -1.3535196011
C -3.7706499730 1.2415040914 -0.3178024762
C -4.3778794261 0.0936155580 -1.0997073086
C -4.6980682063 -1.1623696051 -0.3221415332
C -5.3499410946 0.3715549773 -2.2248196695
C -4.1146654377 2.6358983208 -0.5920524160
C -4.2811998960 3.5947265849 0.3247815307
C -4.1320395641 3.3586301223 1.8099747493
F -2.8555837214 3.0183994740 2.1312872421
F -4.9190616004 2.3323584683 2.2250122186
F -4.4543292065 4.4289548119 2.5546843775
Cl -4.6708409010 5.2337199156 -0.1460389210
H 3.5498784798 -3.0463747329 -0.2686225275
H 2.2886896582 -2.9787222238 -1.5047378097
H 1.8527452146 -3.2325601788 0.1843541591
H 0.3505184878 1.3721595636 -1.1391276559
H 2.1335338548 2.6755151190 -0.0260316412
H 4.0893235076 1.5049049727 0.9477287497
H 6.0301368078 0.1045969393 -0.0955369460
H 8.0121307343 -0.8927527404 0.9968877960
H 7.7280834602 -2.6603995563 2.7186595827
H 5.4443741640 -3.4111841344 3.3438230800
H 3.4670320426 -2.4100792610 2.2524621100
H -0.0624876050 -2.1854404282 -0.9017963919
H 0.6124753129 -1.7152893399 -2.4767492168
H -2.7481676451 0.9925176954 -2.2970143209
H -3.5135946358 0.9808623232 0.7030522723
H -4.6504913964 -2.0350553369 -0.9829949225
H -4.0114731193 -1.3171293546 0.5107017406
H -5.7171287191 -1.0910950874 0.0722837017
H -5.4078412406 -0.5047734729 -2.8785650247
H -5.0606752087 1.2276418420 -2.8374928525
H -6.3497049395 0.5569541007 -1.8171427716
H -4.2386076270 2.9214452551 -1.6326006101
