50
CONF12
C 7.2739258284 0.2198895247 -0.4225042494
C 6.3202666635 1.3274220691 -0.0412678502
O 5.0079665594 0.9457207720 -0.5392243385
C 4.0064536052 1.8224473631 -0.2775025074
O 4.1700082596 2.8576611738 0.3616668358
N 2.8256701853 1.4365990855 -0.8418133529
C 1.5992523854 2.1088694379 -0.4164957626
C 0.9042436915 1.3020602381 0.6956962826
C 0.6748469569 -0.1187939714 0.2531037349
C -0.5507975052 -0.6782198883 0.2086916031
C -1.7805652580 0.0529907220 0.6121628636
C -2.6961237882 0.4196976599 -0.3864017349
C -2.3829498264 0.0562904258 -1.8083033971
C -2.5494047158 -1.4464525829 -2.0620792736
C -1.7207188773 -2.4154085380 -1.2413204032
C -0.7936076343 -2.0818733851 -0.2337242344
N -0.1025175125 -3.0221448624 0.4454131252
C -0.2834692295 -4.3091715410 0.1443420327
C -1.1679274552 -4.7383875054 -0.8385978012
C -1.8867663064 -3.7742032297 -1.5262496397
C -3.8692755201 1.0879327048 -0.0373601247
C -4.1124042400 1.3787356009 1.2994369181
C -3.2228773012 1.0236122881 2.3044098679
C -2.0552805123 0.3543743150 1.9465558015
Cl -5.5978279286 2.2291219096 1.7306284770
C 1.9229762928 -0.7891108890 -0.2556179171
C 2.5862301017 0.0807249797 -1.3399170816
H 6.9727547617 -0.7287528655 0.0311107819
H 8.2768544362 0.4702851647 -0.0648053835
H 7.3158723028 0.0956971127 -1.5083677950
H 6.6043481062 2.2828761787 -0.4937901515
H 6.2615286707 1.4585623362 1.0436696761
H 1.8416888301 3.1145340418 -0.0717652930
H 0.9352057701 2.1849670287 -1.2864234078
H 1.5582789005 1.3088493663 1.5795531204
H -0.0308105857 1.7969821711 0.9672579664
H -1.3547384178 0.3586509714 -2.0409313425
H -3.0487529060 0.5930828147 -2.4900807334
H -3.6052859290 -1.7088928588 -1.9119003165
H -2.3399286150 -1.6445043295 -3.1207186628
H 0.2984772094 -5.0274168683 0.7198063510
H -1.2908726663 -5.7947448740 -1.0524462131
H -2.5891481193 -4.0673085871 -2.3028208774
H -4.5791283333 1.3834908922 -0.8031011704
H -3.4326943329 1.2600200935 3.3412909639
H -1.3463675238 0.0669826214 2.7173391885
H 2.6381951310 -0.9149287151 0.5694630423
H 1.7146035475 -1.7763956388 -0.6698329285
H 3.5215586723 -0.3661638105 -1.6740968197
H 1.9139411684 0.1590737724 -2.2037107588
