27
CONF286
C 3.3644097671 -0.7711178192 -0.3655261536
C 4.6580445106 -0.0589834052 0.0421176644
C 4.7675419791 0.2760700876 1.5255964226
O 4.7389344813 -0.8890670231 2.3678882164
C 2.1214838761 0.0855411439 -0.0996213260
C 0.8658767537 -0.5636788482 -0.6247983684
C -0.4157878316 0.2995162326 -0.4232139854
C -1.7724423470 -0.4355442120 -0.6856338112
C -2.9866231837 0.5202644271 -0.9242073991
F -4.1167328542 -0.2021638469 -0.9049216314
F -2.8933016802 1.1272886604 -2.1131516009
F -3.0540223563 1.4499438326 0.0394455939
F -2.0674425207 -1.2032518205 0.3888948237
F -1.6734525487 -1.2322055001 -1.7751936208
F -0.3361907940 1.3762321505 -1.2495104244
F -0.4417510316 0.7508010954 0.8574606589
F 0.6381629650 -1.7724121431 -0.0092339006
F 0.9732258364 -0.8183425815 -1.9685580931
H 3.4206214692 -1.0108178647 -1.4318144207
H 3.2775511212 -1.7246325131 0.1677975126
H 5.5082079186 -0.6924133253 -0.2373732517
H 4.7538018300 0.8769862686 -0.5243636465
H 3.9836875683 0.9840561030 1.8304055597
H 5.7326138144 0.7559567379 1.7163249883
H 3.8359045423 -1.2285148004 2.3793017159
H 2.2193983211 1.0642672386 -0.5836672640
H 1.9799606179 0.2574582917 0.9711636702
