56
CONF31
O 5.4912309594 1.9559840203 -2.9828348994
C 4.2783972228 2.4817685395 -3.5365121737
C 3.2293834826 1.3854757161 -3.6678043732
N 3.0339493750 0.6985206475 -2.3851606714
C 2.2388316759 1.5022496665 -1.4487921017
C 2.0847746099 0.7768034651 -0.1214049954
N 1.4287202487 -0.5130636160 -0.3275025241
C 1.1503700416 -1.1934485599 0.9372808265
C 0.1289162525 -2.3236190893 0.7860798249
C -1.0851443450 -1.8995185608 -0.0450461172
N -1.6608134477 -0.6360194485 0.4341133462
C -1.9038516735 0.4095059715 -0.4723706082
C -2.1672909230 0.1648099222 -1.8268709765
C -2.3386358286 1.2187817827 -2.7200358186
C -2.3000982426 2.5373889254 -2.2773640660
C -2.0966947908 2.7959245322 -0.9240548455
C -1.8842451639 1.7443732974 -0.0374805435
S -1.4903132379 2.0998986131 1.6622530303
C -2.2095478687 0.6658010531 2.4201024132
C -2.7170836885 0.7522228341 3.7112295827
C -3.1504030070 -0.3907855326 4.3776011526
C -3.0995502656 -1.6096592319 3.7114907070
C -2.6325351245 -1.7021907489 2.4003024823
C -2.1683748486 -0.5645956526 1.7335833830
C -3.5451213854 -2.8732179452 4.3784676821
F -2.5256589317 -3.7688198710 4.5056092496
F -4.0411597124 -2.6686035440 5.6184616584
F -4.5150554039 -3.5127342924 3.6675330311
C 2.2292773414 -1.3252242654 -1.2430551052
C 2.3908504512 -0.6064281711 -2.5740412081
H 5.1965127024 1.3195914195 -2.3103163884
H 4.5127791527 2.8831771092 -4.5277460491
H 3.9054998144 3.3127406820 -2.9192806930
H 2.2872275840 1.8140211600 -4.0594999344
H 3.5862815420 0.6445882853 -4.3933978724
H 1.2325908842 1.7106405723 -1.8672552800
H 2.7357156881 2.4624651015 -1.2750700406
H 3.0817082236 0.6610025176 0.3509315240
H 1.4639026796 1.3851275231 0.5475182125
H 2.0717791714 -1.5928869476 1.4041925455
H 0.7447140827 -0.4427839057 1.6268280549
H 0.5696175956 -3.1972229500 0.2923818118
H -0.1653475840 -2.6545653333 1.7880174369
H -1.8331634554 -2.7025549400 -0.0858812490
H -0.7452167407 -1.7208420018 -1.0645026094
H -2.2372300146 -0.8542490757 -2.1889370369
H -2.5194007572 0.9990697155 -3.7674194585
H -2.4381569862 3.3597156549 -2.9711086983
H -2.0762156241 3.8168539106 -0.5548550174
H -2.7442206118 1.7148130815 4.2117184275
H -3.5178236841 -0.3223377292 5.3939311800
H -2.6264851270 -2.6649621390 1.9030432314
H 1.7276302588 -2.2827560814 -1.4216995452
H 3.2297710817 -1.5435641046 -0.8166814962
H 3.0117957084 -1.2124917252 -3.2434982053
H 1.3926099716 -0.4941697642 -3.0438321769
