39
CONF14
C -3.8711676679 1.6168846470 -2.4667113044
O -3.8646785776 0.8193479948 -1.2872693778
C -2.7057178338 0.7647427270 -0.5751168356
C -1.5132596009 1.3948325829 -0.9494770212
C -0.3782653237 1.2659677995 -0.1492397900
C -0.4207972027 0.4986469771 1.0132113957
C -1.6089990130 -0.1324937271 1.3865398395
C -2.7638822306 0.0081571935 0.6021942688
O -3.9435983442 -0.5595380701 1.0012751923
C -4.1272419866 -1.8935429210 0.5079534696
O -1.7536490756 -0.9116539802 2.4919213186
C -0.6103957688 -1.0775273813 3.3270132513
C 0.9121605484 1.9642190944 -0.5445553955
C 2.1480197986 1.1324170110 -0.3564429213
C 3.1775831545 1.4948561333 0.4933876147
N 4.3039194497 0.7955095739 0.6700120864
C 4.3857936492 -0.3280903247 -0.0608667296
N 3.4555317870 -0.8174111438 -0.8961663083
C 2.3447852428 -0.0900127892 -1.0430285837
N 1.4094513680 -0.5557777327 -1.9284768580
N 5.5539722336 -1.0393506543 0.0342671295
H -3.6441480587 2.6663805013 -2.2394372683
H -3.1568066820 1.2400650392 -3.2106369246
H -4.8830095933 1.5437961019 -2.8674679465
H 0.4813951609 0.3921670710 1.6032949759
H -3.3294660299 -2.5542108982 0.8700797370
H -5.0889549742 -2.2358588069 0.8954443573
H -4.1496016657 -1.9014722063 -0.5892286865
H -0.9332419393 -1.7247910187 4.1433727182
H 0.2154578804 -1.5552795212 2.7842193584
H -0.2726977536 -0.1162350051 3.7344809100
H 1.0176445106 2.8824799386 0.0478950360
H 0.8300584446 2.2835068454 -1.5924850242
H 3.0904898262 2.4156957393 1.0729897190
H 1.5442456765 -1.5113912009 -2.2205139007
H -1.4587400138 1.9921371008 -1.8521358664
H 5.5285847311 -1.9914590992 -0.2887233845
H 6.1342779682 -0.8322560907 0.8294463100
H 0.4515127587 -0.2745610827 -1.7757433477
