50
CONF17
C 6.9019145945 1.9699724441 0.0672247828
C 5.8190106355 1.8328094498 1.1169369444
O 4.5330694443 1.5380136880 0.5055183015
C 4.3044981024 0.2337410650 0.1993779947
O 5.0667330803 -0.6774031989 0.5032108869
N 3.1468142203 0.0719948196 -0.5057596619
C 2.1210183044 1.1106879238 -0.6049099163
C 1.0547211387 0.9288464145 0.4909422533
C 0.4894582698 -0.4665892364 0.4431372599
C -0.8221390333 -0.7391195874 0.2955938304
C -1.8924544440 0.2932248364 0.2969585525
C -2.8575372616 0.4199581792 -0.7223838558
C -2.9300921827 -0.4109883572 -1.9909630835
C -1.8618245911 -1.4870080628 -2.2160343859
C -1.8468404782 -2.5028878617 -1.1131620813
C -1.3263965123 -2.1324658083 0.1361958214
N -1.2897917874 -2.9552843302 1.1935729846
C -1.7725930203 -4.1959856716 1.0337166112
C -2.3069713967 -4.6595206739 -0.1622920048
C -2.3426684176 -3.7951773379 -1.2522984398
C -3.8500484393 1.4007312842 -0.5917854749
C -3.8905506216 2.2242370909 0.5191981665
C -2.9630568058 2.1045217739 1.5460631773
C -1.9817432848 1.1337685272 1.4193687261
Cl -5.1572788158 3.4447060208 0.6396087391
C 1.5474908335 -1.5388638533 0.4536785971
C 2.5985037352 -1.2764447048 -0.6396568611
H 6.6408458853 2.7458787651 -0.6582881156
H 7.0560635652 1.0252286279 -0.4608781162
H 7.8427680623 2.2521828373 0.5504471928
H 5.6513033809 2.7764661461 1.6412064625
H 6.0561991571 1.0525529431 1.8445333815
H 2.5779161314 2.0970364166 -0.5397034447
H 1.6478014689 1.0156351771 -1.5905460150
H 1.5306562522 1.1057213776 1.4659389175
H -2.9128215212 0.2788046144 -2.8438171018
H -3.9171986147 -0.8914514751 -2.0148628398
H -2.0697411176 -1.9783939517 -3.1714978730
H -0.8746935488 -1.0163511035 -2.2946343687
H -1.7287627495 -4.8455768767 1.9061028588
H -2.6836941284 -5.6741066778 -0.2369575399
H -2.7464599974 -4.1228828573 -2.2066675718
H -4.5919448774 1.5140180405 -1.3764036729
H -3.0109979888 2.7404833947 2.4223800548
H -1.2602183844 1.0075470858 2.2203609116
H 1.1185809011 -2.5327285171 0.3106358756
H 3.4097978723 -2.0024422096 -0.5787775775
H 2.1295553204 -1.3538880810 -1.6284754688
H 0.2782366650 1.6846495291 0.3552143199
H 2.0603316532 -1.5346348660 1.4262152560
