70
CONF111
C -1.2465875686 -1.5228071860 1.5456538688
C -2.4908290866 -1.6786925694 2.4515960312
C -2.0979109767 -1.4780497053 3.8778947765
C -2.5826940885 -1.9155611393 5.0831865056
N -1.7797178603 -1.4133075450 6.1058656000
C -0.7609918414 -0.6590810937 5.5643543414
C 0.3157313100 0.0420402775 6.1083666680
C 1.1627604362 0.6786934659 5.2074145848
C 0.9664575958 0.6362089030 3.8105777153
C -0.1108144387 -0.0525681092 3.2685487950
C -0.9554903457 -0.6921202091 4.1716290030
C -0.4994194360 -0.1795242632 1.8102982203
C 0.6980700345 -0.0244652817 0.8729047028
C 0.2439499721 -0.1720833743 -0.5856848501
C -0.4358632128 -1.5300251116 -0.7405678455
N -1.6218685692 -1.5770520293 0.1221492344
C -2.4818631516 -2.7147211622 -0.2557634717
C -1.8874235147 -4.0779893363 -0.0253817333
C -1.5806271701 -4.9324266827 -0.9971060259
C 1.4298368654 -0.0645478075 -1.5254439579
O 2.0012505780 -1.0943338680 -1.8909345081
N 1.8473143934 1.2018482937 -1.9133481591
C 1.1495424112 2.4418794812 -1.5065018365
C 0.2887781966 3.0280852828 -2.6277615590
C -0.9747583137 2.2275680208 -2.9286468865
N -1.8974172140 2.1366327911 -1.7918106389
C -2.9411098394 1.1496135131 -2.0578406112
C -2.4998955253 3.4258461815 -1.4648102936
C 3.0153722613 1.4633748746 -2.7347643520
O 3.3550703210 2.6231074973 -2.9346396610
N 3.6478471097 0.3909993566 -3.2511174815
C 4.8889587067 0.5648622996 -3.9955390375
C 6.1001637311 0.7690061311 -3.0878789450
H -0.5349685478 -2.3342422388 1.8057517769
H -3.2379132552 -0.9358633129 2.1354317166
H -2.9419055197 -2.6665658089 2.3194304716
H -3.4303556664 -2.5440323240 5.3174149052
H -1.9154649155 -1.5987313875 7.0834027597
H 0.4982684592 0.0920957311 7.1768858028
H 2.0144818958 1.2294285121 5.5938336711
H 1.6771722250 1.1525571659 3.1742347670
H -1.2182097216 0.6217115812 1.5713417381
H 1.1748404501 0.9479823066 1.0357565563
H 1.4488467333 -0.7937621130 1.0998128336
H -0.5033683340 0.5994861069 -0.7979842033
H -0.7556970881 -1.6691024305 -1.7805497909
H 0.2820129997 -2.3372884646 -0.5198511007
H -3.4343245469 -2.6260838829 0.2786930364
H -2.7154518766 -2.6015674852 -1.3217038468
H -1.6877914568 -4.3583612657 1.0088790985
H -1.7584766004 -4.6844592803 -2.0412492079
H -1.1444269302 -5.9044243636 -0.7892732996
H 1.9188307186 3.1639709632 -1.2273359020
H 0.5356557746 2.2398032782 -0.6306689733
H 0.0355319708 4.0594099107 -2.3578403884
H 0.8921802955 3.0983702229 -3.5380731332
H -0.6857950235 1.2031143264 -3.2036497570
H -1.4765663310 2.6590832277 -3.8186018120
H -3.5726139790 1.4189915397 -2.9271975175
H -3.5852882560 1.0463053638 -1.1790809631
H -2.4883173078 0.1713443791 -2.2491424344
H -3.0689431365 3.8565422787 -2.3126609932
H -3.1863769587 3.3016305063 -0.6214684368
H -1.7360999465 4.1480484658 -1.1643914122
H 3.3286479607 -0.5220559210 -2.9370461099
H 5.0204794678 -0.3274028441 -4.6169626685
H 4.7725170643 1.4247550807 -4.6624262713
H 6.2364267244 -0.0872667597 -2.4202907679
H 5.9676701746 1.6688932330 -2.4817132179
H 7.0089692221 0.8872755420 -3.6866044466
