39
CONF137
C 3.6315032139 1.2287183396 -0.5627211353
C 2.8641286199 0.5348703690 -1.6875963832
C 2.2638096318 -0.8174904252 -1.2887472014
C 1.2761498272 -0.7415609507 -0.1466428194
C 0.5411682208 -2.0299312884 0.1750369170
O -0.6893291938 -1.5661384326 0.7640151967
C -0.9278710065 -0.2370935966 0.2927139273
C -2.1834582597 -0.1597694948 -0.6005196593
N -2.1137630283 -1.1201861433 -1.6839757038
C -1.4692051513 -1.0075447443 -2.8633019533
N -1.5482815923 -2.1462969214 -3.5409616865
C -2.2636774965 -2.9457994793 -2.6988320884
N -2.6279414894 -2.3707376730 -1.5603218406
O 0.1672925480 0.1128195535 -0.5238655702
C -1.0589055209 0.7108753249 1.4874694651
C -1.9240786313 0.4968398575 2.5660728898
Cl -2.9723861474 -0.9137377024 2.6539813957
C -2.0089673083 1.3853815067 3.6332850781
C -1.2091382655 2.5193224192 3.6136644944
Cl -1.3076890948 3.6444169265 4.9570390795
C -0.3428565388 2.7811175218 2.5620800753
C -0.2855458685 1.8735681720 1.5121569130
H 4.4098020272 0.5729171445 -0.1561159446
H 4.1152117059 2.1397892249 -0.9281287860
H 2.9706727796 1.5159380571 0.2618364000
H 3.5361162095 0.3682988153 -2.5374619060
H 2.0634147923 1.1908357224 -2.0492912791
H 3.0650533810 -1.5027679497 -0.9821527186
H 1.7594191791 -1.2703966172 -2.1516593522
H 1.7413591997 -0.3370655256 0.7645326367
H 1.0562270391 -2.6553542442 0.9078494712
H 0.3337113467 -2.6072689010 -0.7374904534
H -3.0851401859 -0.3583206522 -0.0208982182
H -2.2411566018 0.8481866979 -1.0211582385
H -0.9801486769 -0.0954113443 -3.1776427597
H -2.5306820879 -3.9695047930 -2.9298712823
H -2.6842196008 1.1926028039 4.4578700510
H 0.2737317682 3.6721358249 2.5570284279
H 0.3856704631 2.0637433969 0.6827244715
