52
CONF132
C -2.4241488839 4.3271487439 -0.1497698792
C -1.4621610214 3.5168935548 0.7211734197
C -0.5328114078 4.4441180100 1.5052135605
C -0.6260146203 2.5605715409 -0.1568052624
C 0.3467302760 1.6871258242 0.6205483495
C 1.7042412716 1.6950028195 0.2943475750
C 2.6164233010 0.9049450658 0.9885843252
C 2.1489881418 0.0899146481 2.0113610225
C 0.8025263977 0.0495731305 2.3523959254
C -0.0914401080 0.8520997281 1.6528504975
Cl 3.2862744826 -0.9180827550 2.9000268858
C -1.4520715981 1.6167357233 -1.0088607497
O -1.2044593494 1.3136239711 -2.1530461449
O -2.4789996647 1.0756840198 -0.2953258209
C -3.0987767052 -0.1052895587 -0.8917286806
C -4.4738572832 -0.1233339595 -0.4033371348
N -5.5656441823 -0.1589007136 -0.0301921973
C -2.3046981139 -1.3230495453 -0.4833667453
C -1.3807713165 -1.8495336570 -1.3850265413
C -0.5403942863 -2.8717851868 -0.9651553972
C -0.6096107327 -3.3805168355 0.3290632616
C -1.5458712116 -2.8546605224 1.2130537194
C -2.3936481993 -1.8259159165 0.8144707940
O 0.3249335518 -3.4166255231 -1.8971107395
C 1.6810448560 -3.4003458338 -1.6161834525
C 2.4502080952 -4.3920992544 -2.2193161612
C 3.8285016838 -4.3906615810 -2.0309613182
C 4.4340972326 -3.4118281543 -1.2444433707
C 3.6491194934 -2.4265479961 -0.6500938390
C 2.2681433545 -2.4104950740 -0.8304056652
H -3.1179905205 3.6846885888 -0.7019684341
H -1.8659504553 4.9316308278 -0.8743761454
H -3.0179952783 5.0059394010 0.4696532400
H -2.0450854146 2.9180441534 1.4308845297
H -1.1184734971 5.1346252740 2.1195884932
H 0.0822843077 5.0385368147 0.8191323609
H 0.1368708836 3.8844008507 2.1650746647
H -0.0497860578 3.1608381635 -0.8692129656
H 2.0621196640 2.3329808346 -0.5081415270
H 3.6704021469 0.9254503107 0.7352242129
H 0.4551480949 -0.5960958907 3.1509895029
H -1.1413126532 0.8198064381 1.9220679433
H -3.1177200999 0.0047253208 -1.9815591893
H -1.2966245693 -1.4629561580 -2.3946348953
H 0.0587488631 -4.1803734658 0.6310323009
H -1.6136252147 -3.2514258581 2.2205897155
H -3.1115374069 -1.4094528421 1.5144681658
H 1.9635127171 -5.1472878609 -2.8276221632
H 4.4300016759 -5.1637414200 -2.4989378670
H 5.5089643899 -3.4158420052 -1.0976013985
H 4.1119126476 -1.6556209726 -0.0421639030
H 1.6602825143 -1.6353727168 -0.3744472749
