44
CONF81
C 3.2403659831 -1.0795806633 -2.8589490631
C 2.5162701424 0.2155189192 -2.7193367514
N 1.8375476057 0.4156337661 -1.5783659831
C 1.1617438006 1.5703773451 -1.4861592253
N 1.1367371214 2.5068009257 -2.4428554324
C 1.8503578730 2.2037117666 -3.5241301194
N 2.5608218711 1.0824854311 -3.7296303164
O 1.8994974439 3.0640017753 -4.5350712874
C 1.1631752613 4.3070619814 -4.3990045137
N 0.4220386551 1.8503423330 -0.3452882458
C -0.3097027659 3.1323098416 -0.3172143167
C 0.2402375145 0.9987586719 0.7714113999
O -0.5517914691 1.2752836830 1.6574840917
N 1.0196884779 -0.1383657407 0.7871802876
S 0.8033357780 -1.3547709425 1.9434208630
O 1.7001808407 -2.4256410467 1.4867208120
O 0.9712857661 -0.7856770577 3.2852584590
C -0.9184176083 -1.8541891169 1.7371474402
C -1.4874401711 -1.7765501356 0.4705391219
C -2.8305587881 -2.0988277479 0.3068498489
C -3.5977709253 -2.4723700547 1.4061444780
C -3.0195712045 -2.5509954759 2.6679998441
C -1.6659598590 -2.2627281265 2.8460918289
C -1.0953749440 -2.4483828863 4.2154163802
O -1.5517704239 -1.9344089540 5.2144920495
O -0.0761801038 -3.3156025885 4.1926718764
C 0.5936513112 -3.5304073763 5.4634900258
H 3.6258913046 -1.4104240236 -1.8925481774
H 2.5335684416 -1.8398750417 -3.2132164915
H 4.0459538901 -0.9943413560 -3.5886147232
H 0.0977379334 4.1027641277 -4.2732336163
H 1.3463634181 4.8403559921 -5.3305833213
H 1.5396878365 4.8769192960 -3.5467616188
H -0.7847597371 3.2248009881 0.6553744722
H -1.0677781471 3.1498124744 -1.1035855524
H 0.3893334494 3.9552762332 -0.4733020449
H -0.8994529598 -1.4527164691 -0.3819184875
H -3.2766552233 -2.0402565679 -0.6799242009
H -4.6494335899 -2.7071075246 1.2818052579
H -3.6082237642 -2.8562287350 3.5268501708
H 1.3952199715 -4.2352163886 5.2489389999
H 0.9959376252 -2.5834930360 5.8308098255
H -0.1075412725 -3.9487431713 6.1886929122
H 1.5499098051 -0.3519467682 -0.0890812336
