37
CONF58
C -2.9242879911 -1.0827975130 2.0359640248
N -2.1876251801 -0.4790344807 0.9368578829
C -1.4923533620 -1.2351623012 0.0649718637
O -1.5064674629 -2.4690895799 0.0901941685
C -0.6904626857 -0.4522170402 -0.9470211528
N -0.1055407610 -1.1807666015 -1.8327809424
O 0.6230853981 -0.4437039196 -2.7351791575
C 1.2506000100 -1.3307672182 -3.6846380604
C -0.5967815123 1.0263364598 -0.9011558667
C -1.7021279276 1.8131641179 -1.2437599255
C -1.6149078967 3.2015590659 -1.2630200034
C -0.4124076476 3.8229378327 -0.9370784135
C 0.6964285561 3.0599003748 -0.5844284794
C 0.6025400363 1.6738314619 -0.5664712649
O 1.7538036262 0.9634892764 -0.2864428281
C 1.7134419743 -0.0106392292 0.6992510334
C 2.5225894137 -1.1273173498 0.5102162443
C 2.5504996474 -2.1160989588 1.4879006525
C 1.7766414412 -1.9923059662 2.6418962410
C 0.9833349658 -0.8614434579 2.8200863478
C 0.9505476981 0.1415561059 1.8538501312
H -3.4403140868 -0.2932554888 2.5835265838
H -3.6593595543 -1.7990456609 1.6572229950
H -2.2468756119 -1.6123404928 2.7170725639
H -2.0685023985 0.5226811601 0.9258326276
H 0.4932989223 -1.8929758407 -4.2390273590
H 1.9349689925 -2.0132424948 -3.1721756014
H 1.8046134619 -0.6766250533 -4.3593533629
H -2.6313627777 1.3209494126 -1.5159737567
H -2.4817587793 3.7925765522 -1.5383117636
H -0.3350272644 4.9052787173 -0.9492071353
H 1.6401136115 3.5252973755 -0.3198042118
H 3.1063216228 -1.2146324090 -0.4003936322
H 3.1738659438 -2.9926178381 1.3412462287
H 1.7956080200 -2.7700391774 3.3980622561
H 0.3864231004 -0.7495864925 3.7199430615
H 0.3374361509 1.0261461651 1.9921280002
