45
CONF86
C 7.3184379924 1.2067357515 2.5126170148
C 6.1738691306 1.2860975133 1.5046772342
C 5.1516704119 0.1646111294 1.6835287131
C 4.0041010051 0.2282669502 0.6769347071
C 2.9817711138 -0.8918145685 0.8597863005
C 1.8402530272 -0.8307739116 -0.1540392292
C 0.8276529783 -1.9590273244 0.0240409067
C -0.3613405540 -1.8876429176 -0.9559215726
C -1.2568517743 -0.6907863661 -0.7477704377
C -2.1514148133 -0.7159474639 0.3191703251
N -2.9242998378 0.3879656324 0.4933991274
C -2.8495877315 1.4971933240 -0.3463724561
N -3.7202875890 2.4129839925 0.0972212148
C -4.2713529244 1.8150287484 1.1728746981
N -3.8400287596 0.5842193169 1.4767867902
N -2.0194688696 1.5312963131 -1.3877843357
C -1.2485231036 0.4631936034 -1.5805865734
C -0.3417147897 0.5105803944 -2.7913610164
C -0.3796013009 1.8258881224 -3.5590249893
N -2.3756576485 -1.7511885764 1.1711097744
H 6.9417194706 1.2711033491 3.5391425909
H 8.0379738930 2.0183147326 2.3688307947
H 7.8591321201 0.2588790241 2.4171991668
H 6.5770263364 1.2474284631 0.4842015466
H 5.6661294633 2.2550523587 1.5970432392
H 4.7443641918 0.2050060400 2.7035943971
H 5.6598037584 -0.8061462674 1.5956674955
H 4.4122252950 0.1845492387 -0.3424960856
H 3.4972206013 1.1994176938 0.7624367138
H 2.5672846780 -0.8430679424 1.8764578464
H 3.4884886058 -1.8639797050 0.7807613140
H 2.2566062506 -0.8762859419 -1.1699475649
H 1.3279269290 0.1369586482 -0.0668712362
H 1.3324857027 -2.9253125354 -0.1055092101
H 0.4647795391 -1.9366361323 1.0615492873
H 0.0259906661 -1.8895195738 -1.9779894996
H -0.9591666879 -2.8056609613 -0.8692570591
H -5.0321310479 2.2888696933 1.7810656045
H -0.6208949294 -0.3168788877 -3.4591404291
H -0.0835699866 2.6615034192 -2.9206644497
H -1.6674098764 -2.4569994201 1.2615644923
H -2.9363720672 -1.5465826272 1.9850914572
H 0.3043091594 1.7760622007 -4.4114699074
H 0.6853064431 0.2948766398 -2.4741292441
H -1.3850299817 2.0409823947 -3.9262119171
