54
CONF43
C -3.2761686135 -3.5982216559 -0.9959920160
C -2.5374493015 -3.6739390172 0.3429644764
C -3.4885280992 -4.0062396228 1.4928809402
C -1.7214465251 -2.3986824630 0.6466926797
C -0.6250178860 -2.2133843078 -0.4161538032
O 0.2793341055 -3.0444835261 -0.5211229293
N -0.7278480716 -1.1259155739 -1.2043656586
C 0.2997740419 -0.7596883783 -2.1664695590
C -0.2468412312 0.3622073707 -3.0818929149
C -0.5643603997 1.5992800696 -2.2793139035
O -1.4728901869 1.6673459976 -1.4680515473
O 0.2836361139 2.6040397057 -2.5274802921
C 0.0829740903 3.8038325834 -1.7330409948
C 1.6018090380 -0.3246964935 -1.5133699684
C 1.6274159050 0.2672625595 -0.2510327932
C 2.8231387086 0.7261662183 0.2953142804
C 3.9932917315 0.5852836185 -0.4388232344
C 3.9988568485 -0.0056487772 -1.6967782762
C 2.7945011354 -0.4570901486 -2.2253699605
Cl 5.5121074591 1.1607960179 0.2447107830
N -2.5812846895 -1.2406563786 0.8158692912
C -2.1636277576 -0.1366906948 1.4909490111
O -1.0619968830 -0.0242288381 2.0144958329
O -3.1248374040 0.8155391633 1.4885787208
C -2.7918139588 2.0868794606 2.1421420052
C -3.6481627393 3.1338534213 1.4595385914
C -3.0608677331 1.9699522027 3.6309409089
H -3.7726680037 -4.5518332229 -1.1987146950
H -4.0523063460 -2.8241726606 -0.9935517431
H -2.5912290896 -3.3911440001 -1.8246595014
H -1.7883754601 -4.4708554139 0.2732297036
H -3.9678852750 -4.9735476878 1.3136970307
H -2.9525156476 -4.0602087231 2.4460023316
H -1.1769470904 -2.5599286665 1.5851105862
H -1.4564972859 -0.4495557435 -1.0157229752
H 0.5075679532 -1.6266680279 -2.8044103979
H 0.4957652245 0.5831933014 -3.8496313976
H -1.1695715341 0.0159168262 -3.5584958161
H -0.9089677131 4.2184514303 -1.9254334746
H 0.8608208115 4.4941020870 -2.0553089880
H 0.1890481286 3.5667958008 -0.6716862574
H 0.7141661576 0.3619696232 0.3290536020
H 2.8405235800 1.1812987601 1.2792449819
H 4.9241325480 -0.1165749148 -2.2506639026
H 2.7886846643 -0.9235867762 -3.2069602269
H -1.7302949876 2.2808019091 1.9589260883
H -3.4358839681 4.1148433763 1.8943166715
H -4.7112293271 2.9152874196 1.6022452116
H -3.4330760924 3.1736235412 0.3882662531
H -4.1186512676 1.7502054674 3.8084144553
H -2.8160241554 2.9162040761 4.1231186894
H -2.4512536663 1.1804126402 4.0775121532
H -4.2804089092 -3.2555718394 1.5892470749
H -3.4982568723 -1.2229060664 0.3957192849
