25
CONF23
C 1.5295910991 -0.6279402382 0.7218483247
C 1.3142178334 -2.1349671489 0.8028449525
O 0.1334874171 -2.4500601583 1.5306803338
N 0.3659098987 0.0570181671 0.1405412500
C 0.2708792562 -0.0965720477 -1.3194802626
C -1.1714133247 -0.0781321019 -1.8236714609
O -1.8405990404 1.1656866197 -1.6626237945
C 0.2905323362 1.4672993055 0.5721549056
C -0.6893727790 1.6215919100 1.7268074306
O -1.9983168827 1.1687261472 1.3505770455
H 1.6597976817 -0.2545794797 1.7445919156
H 2.4612439802 -0.4092399905 0.1651954666
H 2.1541068540 -2.5907328338 1.3378347684
H 1.2845893540 -2.5857880968 -0.2024950005
H -0.5411745597 -1.8512654198 1.1802736977
H 0.8602726601 0.6758333110 -1.8445751428
H 0.6948847830 -1.0689292985 -1.5981716906
H -1.7275347029 -0.8949940190 -1.3331459721
H -1.1634990431 -0.2842151146 -2.9006911182
H -2.0601544858 1.2743856456 -0.7230271266
H -0.0571643892 2.0799551770 -0.2647676943
H 1.2808467999 1.8537208196 0.8670809252
H -0.3410717762 1.0734626868 2.6146161182
H -0.7930910674 2.6772907946 1.9964119703
H -1.9169680980 0.2124449667 1.2357348449
