18
CONF8
O -0.2806425108 -0.3173035779 -1.3775808374
C -0.1054989830 0.2354447695 -0.3105750058
O -1.0277481904 0.8882992029 0.4073112308
C -2.3865856786 0.8712563979 -0.1336821709
C -3.0993686759 -0.4115268381 0.2330817733
O 1.0524472998 0.3078365327 0.3555716447
C 2.1881134889 -0.3459214606 -0.2937717435
C 3.3798530924 -0.1598912182 0.6126708416
H -2.8594912470 1.7396396906 0.3287424737
H -2.3348339854 1.0188111120 -1.2152735498
H -4.1296275692 -0.3653161046 -0.1338083874
H -3.1259330455 -0.5430660850 1.3185515962
H -2.6114160608 -1.2778401960 -0.2213627765
H 2.3399396265 0.1190120604 -1.2725314343
H 1.9417215935 -1.4022804688 -0.4368511128
H 3.2048025661 -0.6204103426 1.5890102695
H 4.2514676911 -0.6381334338 0.1565795497
H 3.6028006993 0.9013897427 0.7539289433
