28
CONF19
O -3.3271574593 1.8041887751 -1.1515165454
C -2.2390131390 0.9819259479 -1.5919509079
C -1.9810275896 -0.1112141353 -0.5700303341
O -0.8455401351 -0.8980794969 -0.9843313974
C -0.1004360430 -1.3028087410 0.1545359542
C -0.8518677824 -0.7898942044 1.3839131907
C -1.6174078364 0.4033279637 0.8268879174
O -2.7334071498 0.7136110001 1.6363106826
N 1.2766700834 -0.7340766113 0.0589156585
C 1.6044460952 0.2926981931 -0.7842370121
C 2.8458288197 0.8229317311 -0.8476976631
C 3.9053142697 0.3077119015 -0.0098153344
O 5.0603345774 0.6950218756 0.0320890498
N 3.4798786668 -0.7582312032 0.8152202346
C 2.2208284366 -1.3135582129 0.9110965754
O 1.9384841590 -2.2242210018 1.6723899298
H -4.1501652683 1.3331810293 -1.3250402426
H -2.4251410329 0.5589942982 -2.5881476360
H -1.3670316369 1.6416881225 -1.6585081953
H -2.8672643589 -0.7622004623 -0.4803622298
H 0.0216867660 -2.3891048137 0.1539906014
H -0.1854344513 -0.5549672210 2.2139369578
H -1.5723259296 -1.5433552372 1.7192268263
H -0.9479841685 1.2761307237 0.7252859159
H -3.1908418896 1.4479747608 1.2056281631
H 0.7931982986 0.6341967939 -1.4148848525
H 3.0771103568 1.6292674899 -1.5290312221
H 4.1782659447 -1.1611386727 1.4261259100
