25
CONF2
C 3.0123994628 0.5537664094 0.3069588229
C 2.1694868713 0.1627249812 1.3268631070
C 1.2709288324 -0.8893446169 1.1148404013
C 1.2071751499 -1.5392113101 -0.1220657949
C 2.0512652003 -1.1446636628 -1.1419902369
C 2.9689864412 -0.0895233058 -0.9506154169
N 3.7695738671 0.3293072054 -1.9715658555
S 0.1475592802 -1.3319170516 2.3968316636
O 0.7450811971 -1.0784218893 3.7156126221
O -0.4585040029 -2.6342244792 2.0823070549
N -1.1685133062 -0.1918906651 2.3317646225
C -1.8397108620 -0.0173245518 1.1220814093
N -2.0091063259 1.1512293308 0.5635124549
C -2.7893629806 1.0402662237 -0.5644462901
C -3.2079595586 -0.2148827200 -0.8839868137
S -2.6320590305 -1.3519029364 0.2963846917
H 3.7187335615 1.3624815739 0.4680797463
H 2.2110455211 0.6645130401 2.2879744004
H 0.5116441748 -2.3562385257 -0.2761835872
H 2.0146298679 -1.6525353152 -2.1009018942
H 4.5612753228 0.9136524819 -1.7537969507
H -3.0163402525 1.9294452829 -1.1414005396
H -3.7882993769 -0.5414092587 -1.7360399652
H 3.8819662058 -0.2725886203 -2.7720051453
H -0.8563272733 0.7051989100 2.7044919858
