40
CONF5
C -3.1585368329 -3.2619599855 2.7263319626
C -2.6833561024 -2.0537458686 1.9706514567
C -1.4233597721 -1.4990240218 2.2218414381
C -0.9893595374 -0.3645905521 1.5496709578
C -1.8086397017 0.2467230486 0.5916552437
C -3.0729233530 -0.2984675119 0.3389536489
C -3.4991099552 -1.4318687261 1.0200525991
C -1.3947041935 1.4594819779 -0.1120429231
C -2.1147395209 2.6193746381 -0.3532246491
C -1.1986846059 3.4836880486 -0.9679239814
N 0.0037419877 2.9319642933 -1.1219972204
N -0.1303654859 1.6951189065 -0.6012737827
C 0.9666509426 0.7950534196 -0.6897032805
C 2.2337293912 1.2384888466 -0.3178081034
C 3.3102371054 0.3658970235 -0.3998199891
C 3.0935591908 -0.9345164584 -0.8465823738
C 1.8309186075 -1.3785347640 -1.2301684645
C 0.7578783846 -0.5013915653 -1.1573337132
S 4.4868640971 -2.0668581754 -0.9456924476
O 5.5185445927 -1.5874929865 -0.0137196708
O 3.9605749423 -3.4363468720 -0.8407969633
N 5.1567164899 -1.9441826463 -2.4837027641
C -1.4290248210 4.8740935975 -1.4514022439
F -2.6522806820 5.3138915525 -1.0823369098
F -0.5169153587 5.7492643789 -0.9621544397
F -1.3617124626 4.9683601103 -2.8052938693
H -2.3237707050 -3.9142860462 2.9960837558
H -3.6535634311 -2.9602152873 3.6573595316
H -3.8815941156 -3.8359675866 2.1410096551
H -0.7750966622 -1.9595790460 2.9622483391
H -0.0148576721 0.0550932892 1.7787650750
H -3.7143278267 0.1609236594 -0.4069648210
H -4.4797522362 -1.8467671683 0.8039069231
H -3.1378264865 2.8138961393 -0.0724298867
H 2.3688002138 2.2502041258 0.0465157301
H 4.3008465938 0.6888510989 -0.1007374492
H 1.6846249327 -2.3927075128 -1.5841578441
H -0.2325479769 -0.8205713510 -1.4605450752
H 5.4874940395 -0.9972828070 -2.6629461094
H 4.4858681860 -2.2240117155 -3.1975821417
