65
CONF560
C -0.7754731824 3.5409022392 -1.8656443730
C -2.0316050567 2.7052294149 -2.0966971098
C -2.9928413928 2.6644995758 -0.8869637903
C -4.3414446981 2.0539135417 -1.2739111457
C -2.3212438191 1.9335595195 0.2552939479
O -1.6858366048 2.4730474635 1.1427584176
O -2.4685197725 0.5980056004 0.1496380889
C -1.8255584181 -0.2352429514 1.1636102314
C -2.7076417272 -0.3242488072 2.3981537253
C -2.0198648961 -1.1613061945 3.4874113549
C -1.4093893421 -2.4001502811 2.9031622380
C -1.2228467927 -2.6163814450 1.5871021076
C -1.6274112335 -1.6037626152 0.5319700861
C -0.6119209444 -1.6120523163 -0.6301397678
C -0.6284156645 -3.0171477271 -1.2658840244
C -0.3715671643 -4.0591002820 -0.2108009870
C -0.6296274063 -3.8489642810 1.0913526863
C 0.3186009194 -3.1579354854 -2.4606416199
C 0.7947486017 -1.1686567420 -0.1644800310
C 1.1896344531 0.1874870390 -0.7502676337
C 2.4855043919 0.7328166176 -0.1784173770
C 3.7120844326 -0.1002538069 -0.4928797303
C 4.9627669206 0.6410190423 -0.0524514570
C 5.0544557459 1.9472389919 -0.8313362798
C 3.7652805326 2.7301091083 -0.9266491763
O 3.7394371865 3.9021444812 -1.2476459239
O 2.5940910146 2.1037937002 -0.7137586814
O 6.1535037826 -0.1364896910 -0.2008187475
C -0.9719821087 -0.3528884029 4.2735534756
H -0.1866127927 3.1654469801 -1.0239142573
H -0.1340824992 3.5276546951 -2.7523272752
H -1.0370390934 4.5825578032 -1.6510922466
H -2.5962605207 3.1169139140 -2.9418891209
H -1.7648005467 1.6755058527 -2.3681482868
H -3.1394186007 3.6911842364 -0.5326874194
H -4.2096272768 1.0691317794 -1.7304736086
H -4.9955201214 1.9442129363 -0.4036491918
H -4.8397268366 2.7048461171 -1.9983975772
H -0.8644455071 0.2235901027 1.4158924534
H -2.9278995328 0.6788817775 2.7762139106
H -3.6558731869 -0.7947431128 2.1100759978
H -2.7892923021 -1.4721606325 4.2083164071
H -1.0883514492 -3.1669237816 3.6083685572
H -2.5994713088 -1.9172560301 0.1192902651
H -0.9684047318 -0.9037506292 -1.3888029858
H -1.6490956134 -3.1727198931 -1.6524572098
H 0.0470018513 -5.0117889351 -0.5309750423
H -0.4039574472 -4.6206299999 1.8250969484
H 0.1183915697 -2.3786551620 -3.2034576906
H 1.3690203852 -3.0841918860 -2.1618926217
H 0.1805839968 -4.1317555466 -2.9416090744
H 0.8286035533 -1.1141385959 0.9320606993
H 1.5377943027 -1.9208790291 -0.4433142907
H 1.2832138832 0.1133818132 -1.8418438575
H 0.3991361626 0.9188926267 -0.5454622022
H 2.3894029993 0.8523410746 0.9094798776
H 3.7586515726 -0.3128107417 -1.5706685147
H 3.6358304479 -1.0513932220 0.0427661368
H 4.8970433152 0.8536008577 1.0215966314
H 5.3320206986 1.7195151708 -1.8712932721
H 5.8235177024 2.6135674346 -0.4326709950
H 6.2467051953 -0.3633824296 -1.1361521073
H -1.4428143002 0.4996130979 4.7739663849
H -0.1867077677 0.0249067697 3.6104071552
H -0.4944348997 -0.9777517190 5.0350287395
