39
CONF2
C -0.5197354627 2.4514539224 -0.3309814396
C -0.2290674270 1.4129802531 -1.3751186903
C 0.9229348058 0.7341075249 -1.4777159305
C 2.1109124547 0.7882820491 -0.5684441457
C 2.2889808265 -0.4977836893 0.3170922964
C 1.0133734441 -0.6820548391 1.0954512112
C 0.1343307230 -1.6798104681 1.0156464641
C -1.2371669769 -1.5818584564 1.6332882013
C -2.1863328802 -0.7291986645 0.7918456553
C -1.9914511117 -0.5941947600 -0.5235880024
C -2.5673594572 0.4212017224 -1.4606290379
C -1.3993873523 1.0677239331 -2.2659915841
C -3.2582376600 -0.0292424529 1.5745391019
C 3.4507355229 -0.2387420458 1.2910920598
C 2.6262291890 -1.7047756985 -0.5593474398
H 0.3756251597 2.8102459242 0.1788635794
H -1.0259775042 3.3149769438 -0.7784193603
H -1.1970733213 2.0409317799 0.4299414950
H 0.9848578388 -0.0040737264 -2.2773812861
H 2.0507658272 1.6497230578 0.1043492634
H 3.0345214234 0.9065090161 -1.1527754643
H 0.7499391296 0.1752176115 1.7221968454
H 0.3415955483 -2.5402046116 0.3831745754
H -1.6698545852 -2.5745249328 1.8172894825
H -1.1587082753 -1.1027732623 2.6186141048
H -1.1819163322 -1.1747154967 -0.9613687488
H -3.1167204686 1.1947845494 -0.9150437724
H -3.2719424762 -0.0225901193 -2.1766911314
H -1.7752125316 1.9605628174 -2.7834176968
H -1.0694628560 0.3591730910 -3.0338065852
H -3.8337951836 -0.7583295220 2.1592308244
H -3.9608844692 0.5141202677 0.9398874113
H -2.8247731568 0.6731538110 2.2992040510
H 3.2265997855 0.6058491812 1.9513797721
H 3.6313479102 -1.1187890607 1.9163747920
H 4.3721638517 -0.0082376962 0.7443783258
H 2.7733672525 -2.5994795614 0.0544668152
H 1.8346944886 -1.9195459113 -1.2831528417
H 3.5520846081 -1.5200729939 -1.1144332760
