44
CONF115
C 3.6374316561 1.3178388607 -3.4198974866
C 3.1725735943 1.2675587669 -1.9686969041
C 3.4590828351 -0.1094846393 -1.2597452927
N 2.4414965133 -0.2531910764 -0.2422683228
C 1.0958550120 0.2640567813 -0.5295974117
S 1.3016223854 1.4438120156 -1.9259017991
C 1.0358441576 0.7780686475 0.9527664494
C 2.4632509840 0.2069523659 1.0696486553
O 3.3159547163 0.1623460125 1.9249764931
N 0.0428841209 0.2646161166 1.8390731581
C -1.0995520600 0.9439862484 2.1088402785
O -1.3370857514 2.0714680882 1.6796565361
C -2.1275078698 0.1786830131 2.9570885724
C -3.1607108614 -0.3919067142 2.0045485429
C -2.8834760737 -1.5320770677 1.2427907759
C -3.8148017246 -2.0358090473 0.3451322920
C -5.0443870104 -1.3924447299 0.1894831121
C -5.3342073889 -0.2498847865 0.9360269131
C -4.3926919499 0.2399190338 1.8361043157
O -5.9249391855 -1.9300390753 -0.7056778599
N -1.4891777866 -0.8889786142 3.7367622249
C 3.4986985935 -1.2784958921 -2.2310398836
O 2.2870476401 -1.8166370664 -2.4424546807
O 4.5153169450 -1.6579838924 -2.7683526862
C 3.8233575428 2.3866490061 -1.1553672404
H 3.1570557788 0.5508513323 -4.0328905072
H 4.7225100751 1.1771245230 -3.4621006887
H 3.4054921074 2.2966824906 -3.8485728820
H 4.4438763524 -0.0631388017 -0.7849738930
H 0.3526103938 -0.4961094744 -0.7832529902
H 0.1203810352 -0.6726237354 2.2174056499
H -1.9291845234 -2.0372958067 1.3552669522
H -3.6009917397 -2.9233908121 -0.2416387536
H -6.2928688569 0.2484007566 0.8183779423
H -4.6254687210 1.1271890480 2.4180280636
H -6.7312606511 -1.3975843276 -0.7238704331
H -0.9830908229 -0.4840472568 4.5186219779
H -2.2090477497 -1.4842346404 4.1330907481
H 4.9140801044 2.2909385953 -1.2057251077
H 3.5378944382 3.3591032626 -1.5645109868
H 3.5187094648 2.3577402140 -0.1056175547
H 2.3805815544 -2.5411342059 -3.0859668813
H -2.6197550155 0.9470177112 3.5710165724
H 1.0490712691 1.8722479626 0.9907249088
