36
CONF76
C 2.8590785633 2.0331034834 0.2567698167
C 2.6732588082 1.8371123504 -1.2549022412
C 1.9604941416 0.5557501433 -1.5584582500
C 0.7526652742 0.4590439757 -2.1163133208
C 0.0198837286 -0.8294607021 -2.3375961955
C -1.2535812869 -0.9294036089 -1.4862828027
C -1.1084653081 -0.6857109096 0.0221977133
C -2.5522276606 -0.4129925608 0.4789687005
C -3.1225330345 0.4569050508 -0.6467599608
C -2.3674986272 0.0273514267 -1.8905411286
O -2.6041159140 0.3932390609 -3.0267586745
C -0.4071621980 -1.8325050038 0.7571939480
C -0.2698694150 -1.5273886351 2.2243065603
O -0.9176876112 -2.0394529075 3.1170018846
O 0.6549944354 -0.5702808595 2.4351830035
C 0.8301844746 -0.1511554072 3.8115184454
H 3.4070260730 1.1913844754 0.6939137482
H 1.8875203024 2.0982714055 0.7576443911
H 3.4186038977 2.9496042317 0.4683706424
H 3.6612291090 1.8320592643 -1.7349893639
H 2.1138862010 2.6806607758 -1.6759197702
H 2.4725496011 -0.3605388705 -1.2542341837
H 0.2287244344 1.3733409328 -2.4039941009
H 0.6760488267 -1.6751205300 -2.1046629459
H -0.2753133796 -0.9262093964 -3.3902816751
H -1.6936316263 -1.9327241049 -1.6279745940
H -0.5168763700 0.2289870285 0.1601722610
H -2.5996792512 0.0711756809 1.4582723804
H -3.1008034683 -1.3610137781 0.5417945948
H -2.8805374060 1.5171242962 -0.4860843610
H -4.2039609375 0.3898808654 -0.7941610504
H -0.9827955120 -2.7562116237 0.6501721431
H 0.5917275370 -1.9826641616 0.3328761805
H 1.5950048142 0.6239468253 3.7818330950
H 1.1610195320 -0.9943063658 4.4225777545
H -0.1071604675 0.2481975598 4.2060709281
