32
CONF6
C 3.3105927781 1.3402699103 -2.5187732771
C 2.2848726382 0.9457916548 -1.4944255343
C 1.4311230703 1.8978791089 -0.9291260312
C 0.5045568116 1.5495720522 0.0474749198
C 0.4033786937 0.2202936057 0.4545895292
C 1.2454548418 -0.7454444091 -0.0957205753
C 2.1808402437 -0.3785282160 -1.0545790627
N -0.5863928564 -0.1561232093 1.4296808550
S -0.1530084155 -1.0236690650 2.8120346543
C -0.1492597012 0.3052346406 4.0885133850
F -1.3815214296 0.8250711730 4.2874359132
Cl 0.9411235903 1.6784159839 3.6849828953
Cl 0.3897495366 -0.5226173033 5.5925749516
S -2.2735735304 -0.0752145986 0.9285718757
O -2.5400547244 1.3180924067 0.5625041073
O -3.0207964654 -0.7154095998 2.0109752322
N -2.4527464016 -0.9976229579 -0.4463383819
C -2.0203448069 -0.4258759452 -1.7357378316
C -2.1537473334 -2.4304981775 -0.2880972371
H 2.9603845417 2.1784592190 -3.1268388180
H 3.5544827118 0.5027022175 -3.1773502036
H 4.2393416211 1.6554292032 -2.0280917364
H 1.4987872057 2.9339816121 -1.2489698766
H -0.1414835644 2.2996639019 0.4873086358
H 1.1680344626 -1.7798749710 0.2248825050
H 2.8326490161 -1.1371226567 -1.4786076399
H -2.2291166906 0.6434701161 -1.7602739317
H -0.9541780132 -0.6012958359 -1.9238121666
H -2.6087772233 -0.9187762599 -2.5154083999
H -1.0742398178 -2.6294123778 -0.3201133357
H -2.5714638881 -2.8018391996 0.6488869682
H -2.6346666100 -2.9550016371 -1.1181525841
