44
CONF48
C -3.1016203693 1.6954010020 1.6325553115
C -3.1757699520 0.2158439037 1.3082821382
C -3.8610196212 -0.0776751452 -0.0096851570
O -1.8054418024 -0.3069758817 1.1648009325
C -1.1442445509 -0.6370287589 2.2783080463
O -1.6000586930 -0.6013328492 3.4027054964
C 0.2495929458 -1.1912204991 1.9724631198
C 0.1437606791 -2.7076964225 1.8336635354
N 0.8651982585 -0.5293017326 0.8020646212
C 0.8897137905 -1.1703994196 -0.4768714708
C -0.0438079287 -0.7979789602 -1.4437692551
C -0.0084649301 -1.3953619464 -2.6956815066
C 0.9443786383 -2.3725969144 -2.9657682682
C 1.8680590964 -2.7551604759 -2.0078517202
C 1.8444538708 -2.1462043501 -0.7596853354
F 0.9764249414 -2.9530076682 -4.1789892101
Cl -1.1552677225 -0.9352496417 -3.9271887928
C 1.0135090174 0.8325700575 0.9225957162
O 0.6444261071 1.4205795114 1.9419264531
C 1.6563304554 1.5777675074 -0.1999785634
C 2.8526124945 1.1536718779 -0.7850670084
C 3.4501102021 1.9225232329 -1.7781984487
C 2.8484534619 3.1049293472 -2.2051443734
C 1.6579941169 3.5316461951 -1.6191790968
C 1.0708953420 2.7789258722 -0.6082142434
H -2.5916964167 2.2335591461 0.8267479548
H -4.1148628444 2.0965333440 1.7313921991
H -2.5673145608 1.8678018213 2.5700104641
H -3.6492639888 -0.3364034916 2.1258429202
H -3.3592234016 0.4466847709 -0.8294020328
H -3.8598434270 -1.1505494445 -0.2209772927
H -4.8981276736 0.2664695679 0.0373806480
H 0.8592881338 -0.9491752923 2.8477389754
H 1.1323625066 -3.1614484839 1.7389330427
H -0.4650987328 -2.9939870396 0.9721379893
H -0.3261226508 -3.0990283720 2.7394916880
H -0.7884612609 -0.0439183927 -1.2207240297
H 2.6034375925 -3.5129714785 -2.2549421462
H 2.5827112056 -2.4128211255 -0.0121739249
H 3.3237081986 0.2349222024 -0.4527377628
H 4.3868224585 1.5977644646 -2.2199794766
H 3.3104465631 3.6966671873 -2.9891055276
H 1.1894878749 4.4542420401 -1.9468068588
H 0.1515308719 3.1089907349 -0.1350511573
