41
CONF79
C 2.4285630274 -4.4169308727 -1.9808328894
C 2.8877898096 -3.3750712719 -0.9956866449
O 2.0853410555 -2.1655194101 -1.2618760528
C 2.2934978967 -1.1301067102 -0.4872400606
N 3.1733442985 -1.0836308592 0.4791312203
C 3.2695228513 0.0446155113 1.1916311315
C 2.5412114701 1.1918243540 1.0274988704
C 1.5967217125 1.1355392992 -0.0053329974
N 0.6977702554 2.0075784531 -0.4716540451
C 0.1052091479 1.3054232253 -1.4621152727
N 0.5231134314 0.0660776911 -1.6907848450
N 1.4975284890 -0.0424492938 -0.7458905006
S -1.2775316976 1.9898966768 -2.4041805161
O -1.4203774123 1.2198359257 -3.6387512246
O -1.0899672444 3.4378620548 -2.4013933993
N -2.6627252688 1.6222905782 -1.4710160222
C -2.6619487587 2.0797731892 -0.1220665757
C -2.2010381091 1.2591721798 0.9300487879
C -2.1523001596 1.7484941765 2.2350669456
C -2.5714700316 3.0431858899 2.5114253400
C -3.0619930145 3.8510909650 1.4942127075
C -3.1139462554 3.3665650275 0.1907234313
Cl -3.8217515121 4.3838362896 -1.0387898590
C -1.8456057005 -0.1618907326 0.6667766695
O -2.3972939034 -0.8621837281 -0.1656582356
O -0.8632001595 -0.5927680973 1.4682281862
C -0.5312226011 -2.0030937864 1.3504249549
F 4.1924945530 -0.0046719588 2.1600156818
H 2.5957524891 -4.0856890099 -3.0089177915
H 1.3684752116 -4.6454149032 -1.8436501772
H 3.0046235260 -5.3313519479 -1.8135400303
H 2.7090588585 -3.6689142790 0.0421160884
H 3.9402872748 -3.1085170328 -1.1228592839
H 2.6710800268 2.0711257844 1.6427975367
H -2.8163897614 0.6112598863 -1.5204136750
H -1.8001268824 1.1040344707 3.0314029976
H -2.5360621275 3.4226985239 3.5266034969
H -3.4203314061 4.8519937066 1.7056959917
H -1.3656777838 -2.6079575791 1.7126384577
H -0.3191717190 -2.2556513248 0.3089628768
H 0.3487457532 -2.1417209604 1.9772482341
