25
CONF189
C 0.4770927529 1.4555959520 0.9562763706
C -0.1303440259 1.2049687063 2.3324622387
O -1.4868744668 0.7622380982 2.2123492626
N 0.3169001108 0.2810829161 0.0926146583
C 0.2367492356 0.6250675508 -1.3358799157
C -1.2218207488 0.7352743878 -1.7543652555
O -1.9013641204 -0.5129088866 -1.5717643734
C 1.2489912387 -0.8034943515 0.3968436561
C 0.7185903103 -2.1620356438 -0.0493077351
O -0.5972767094 -2.4391298908 0.4557483048
H -0.0632545234 2.2887757053 0.4926498275
H 1.5344271031 1.7611493502 1.0631948679
H -0.1354433277 2.1387783093 2.9040553804
H 0.4618940363 0.4702570057 2.8984419796
H -1.4726579672 0.1438224944 1.4620420212
H 0.7692239819 1.5631084293 -1.5612770084
H 0.7113841858 -0.1635922657 -1.9305777629
H -1.2937414397 0.9910826983 -2.8172359402
H -1.7171943946 1.5319982458 -1.1765963513
H -1.5884005757 -0.8770366559 -0.7244146259
H 1.3992550200 -0.8356848038 1.4826015178
H 2.2455300979 -0.6478501354 -0.0587126882
H 0.6276601445 -2.2150830290 -1.1385545889
H 1.4301714950 -2.9384986411 0.2653277385
H -0.5694976142 -2.3578859430 1.4186231241
