48
CONF10
C -5.8389254586 0.3123203362 0.3295720993
C -4.5792886022 0.7130497708 -0.4245419724
C -3.3364516443 0.3978342704 0.4103362642
N -2.1041891731 0.7321545731 -0.3357801748
C -2.0371882090 0.0169748300 -1.6135389421
C -3.2874623461 0.3343432214 -2.4351648659
N -4.5465724025 0.0496702112 -1.7387439838
C -0.9341141078 0.8789637713 0.3855149024
C -0.8484706106 1.8197516033 1.4476689299
C 0.2889252406 2.0291564129 2.1717240989
C 1.4626508177 1.3201973237 1.8609636101
C 1.4205870470 0.4094283594 0.7858567396
C 0.2387918458 0.1834416971 0.0778543530
N 2.5852680430 -0.2959306473 0.4607761032
C 3.7208296324 -0.1222708875 1.1668935323
C 3.8175276088 0.7465271564 2.2237261426
C 2.6757200165 1.5305409426 2.6246450096
O 2.7239523659 2.3467026011 3.5861583761
C 5.1220771786 0.8541174506 2.9230382412
O 6.1084259763 0.2068457005 2.6090486933
O 5.1477334420 1.7209187451 3.9379589986
C 2.5935996635 -1.2214298338 -0.6338545518
C 2.6071548813 -0.7468585116 -1.9430936903
C 2.6241207149 -1.5998872901 -3.0309399480
C 2.6371187302 -2.9598770614 -2.7602741056
C 2.6312414240 -3.4818542794 -1.4763933573
C 2.6036502069 -2.5935772922 -0.4079962948
F 2.6566647906 -3.8103208048 -3.8061507169
F 2.5986132369 0.5807192355 -2.1517254042
F -1.9317281782 2.5845828631 1.7209364534
H -5.8438534756 -0.7666249945 0.5247397261
H -5.8964493023 0.8322250870 1.2904653635
H -6.7284594146 0.5606305354 -0.2556744072
H -4.5918983084 1.7970802944 -0.6120581568
H -3.3641738722 0.9517416182 1.3490565820
H -3.3285409358 -0.6811174504 0.6508769731
H -1.9595175467 -1.0741848035 -1.4554506737
H -1.1499483401 0.3498192779 -2.1627547355
H -3.2754625016 1.3999235688 -2.7000699511
H -3.2531357758 -0.2408106470 -3.3669101094
H -4.6120349688 -0.9557579705 -1.5853915886
H 0.3015249342 2.7671937935 2.9656786745
H 0.2244080211 -0.5628619196 -0.7045006300
H 4.5751544019 -0.7099836563 0.8483354770
H 4.2165406202 2.1284870999 4.0023515681
H 2.6350430876 -1.2186854302 -4.0451755637
H 2.6423372219 -4.5540624418 -1.3212336963
H 2.5882027070 -2.9592466512 0.6132398147
