29
CONF57
C 2.3041251318 -1.6464441211 -0.7774276090
C 2.6731737002 -0.3552796042 -0.1028875831
C 1.8324771592 0.6728904615 0.0810620932
C 0.3873918004 0.7471313756 -0.3189877527
C -0.5404504683 0.4594182760 0.8708137156
C -2.0471040754 0.5663557845 0.5549470544
C -2.8549638710 0.2864752518 1.8238778945
C -2.4255522175 -0.4368371918 -0.5077865133
C -3.0889178680 -0.1746007334 -1.6307612784
O -2.3891052335 1.9087624548 0.1704307220
C 4.0971707448 -0.2919277087 0.3776719618
H 1.2618825191 -1.6835622266 -1.0988821859
H 2.4812936996 -2.4880505454 -0.0958854189
H 2.9441143153 -1.8166489393 -1.6525115038
H 2.2151632213 1.5472701059 0.6095818967
H 0.1641833620 0.0488598267 -1.1317100342
H 0.1842924057 1.7558077323 -0.7035548664
H -0.3201793974 1.1559549651 1.6895462422
H -0.3361390206 -0.5526042597 1.2424256238
H -2.5613669984 0.9862947458 2.6126785950
H -2.6713182235 -0.7330631938 2.1730142516
H -3.9237429955 0.4014571994 1.6217119590
H -2.1136361182 -1.4587451930 -0.2893760624
H -3.4200648753 0.8305101104 -1.8773079830
H -3.3244062440 -0.9641634005 -2.3377773565
H -1.9450585214 2.1041426229 -0.6654542875
H 4.7937261313 -0.4356566853 -0.4583455289
H 4.3007848155 -1.0982374811 1.0939769550
H 4.3222256295 0.6644903554 0.8570192970
