15
CONF3
C -2.3875271698 2.4027017043 -1.0439432039
C -1.9513539718 1.4454413555 -0.4578922790
C -1.3897763189 0.2995529420 0.2340240779
C 0.1143949928 0.1266939941 -0.0328319349
C 0.6695692609 -1.0958482078 0.7160162907
C 2.0896671217 -1.2927047433 0.4879623507
C 3.2682244745 -1.4298691349 0.2823553398
H -2.7841503200 3.2451873687 -1.5564473022
H -1.9255419062 -0.6078108222 -0.0754270453
H -1.5623970097 0.4084478499 1.3130929399
H 0.6502933583 1.0266927963 0.2828189290
H 0.2867946611 0.0102467466 -1.1068350579
H 0.1249425421 -1.9971898056 0.4043691889
H 0.4888039619 -0.9816265604 1.7932315578
H 4.3080567305 -1.5599155839 0.1048161564
