47
CONF32
C -3.1839529098 -2.2200618434 1.6314799429
C -3.3316872465 -0.9224494920 0.8683910604
C -4.0429870564 0.2476583191 1.5043520195
C -2.5171901951 0.2581403413 1.3981592009
C -1.8943029997 1.2163289579 0.4695828144
O -2.4319536110 1.7908673327 -0.4505889479
O -0.5704428228 1.3713775093 0.7811435343
C 0.1753616207 2.2077029648 -0.1514655035
C 1.2604782519 2.8067270665 0.6213026122
N 2.1423308314 3.2844745851 1.1933234660
C 0.6854090596 1.3902116598 -1.3138701406
C 1.7639296000 0.5249493447 -1.1265105862
C 2.2167422822 -0.2619602191 -2.1783951051
C 1.5583663358 -0.1732160912 -3.4102204339
C 0.4826607073 0.6720576120 -3.6012169111
C 0.0425367309 1.4662156507 -2.5466746505
F 1.9917435963 -0.9372520309 -4.4262136004
O 3.2378772658 -1.1639405469 -2.0895060181
C 4.2166084948 -0.9802596748 -1.1185562197
C 4.8772015989 0.2355348569 -0.9745740094
C 5.8930124305 0.3393717544 -0.0310178412
C 6.2515710184 -0.7593845033 0.7459933851
C 5.5881491831 -1.9707964586 0.5772818942
C 4.5613701025 -2.0870876409 -0.3549171022
C -4.6612443550 0.1700482646 2.8298359067
C -5.8031072539 0.7618874377 3.1853065591
Cl -6.7628261015 1.7411701431 2.1179713727
Cl -6.4626706347 0.6070297631 4.7887252016
C -3.4994284706 -1.1141226164 -0.6215523926
H -4.1059950486 -2.8066043469 1.5555904848
H -2.9627299164 -2.0696147873 2.6901782971
H -2.3694900855 -2.8119411307 1.2017458893
H -4.5220914015 0.9154040639 0.7949489826
H -1.9486931300 0.0640647198 2.3013118645
H -0.4853285720 3.0025389374 -0.5156196288
H 2.2624983518 0.4688865293 -0.1643435876
H 0.0079922101 0.7048618854 -4.5754222811
H -0.8064570377 2.1270713069 -2.6778262671
H 4.5966123558 1.0848609041 -1.5881459838
H 6.4089651904 1.2857911857 0.0918953014
H 7.0460417092 -0.6705149918 1.4788388266
H 5.8647079146 -2.8319055156 1.1768220884
H 4.0292934554 -3.0201809926 -0.5029962628
H -4.1653566403 -0.4104198989 3.6010375734
H -3.6405830143 -0.1684416783 -1.1458788792
H -4.3720177383 -1.7491886843 -0.8072681116
H -2.6209237437 -1.6158898570 -1.0428077163
