41
CONF196
C -2.2496448403 -2.6190823818 -0.9006638130
C -2.5849842251 -1.2492785045 -1.4796925752
C -2.8199976343 -1.3465308929 -2.9864032635
N -1.4732829476 -0.3215265382 -1.2010356809
C -1.8465098970 1.0946097364 -1.2494428754
C -0.6580872387 1.9620454498 -1.7112984580
O 0.0117415840 1.3269644364 -2.7843072626
C 0.3017201947 2.3329711994 -0.5893160426
O 0.7789597112 1.1336301358 0.0233216042
C 1.7410703737 1.2399840164 0.9857075610
C 2.1698302192 2.4535026229 1.5260975475
C 3.1457144553 2.4594774194 2.5205068780
C 3.6941816670 1.2690500063 2.9772515914
C 3.2619101625 0.0655383520 2.4249096064
C 2.2924654080 0.0248252245 1.4283742455
C 1.8278088907 -1.2804937152 0.8465188386
C 0.5477641163 -1.8189689170 1.4286480681
C -0.2106374807 -1.2221569588 2.3438495362
H -2.1598986165 -2.5777813682 0.1894211821
H -3.0300739436 -3.3428388563 -1.1520659762
H -1.3004067062 -2.9804287671 -1.3127566459
H -3.5172560878 -0.8943735508 -1.0004374108
H -1.9420007041 -1.7854416835 -3.4719536414
H -2.9965076290 -0.3662599463 -3.4383154428
H -3.6900803980 -1.9756952879 -3.1998538785
H -1.0536359575 -0.5321487216 -0.3003761627
H -2.6418082461 1.2104671239 -1.9932243881
H -2.2417655216 1.4719596885 -0.2911876734
H -1.0561437529 2.9168691463 -2.0861090573
H -0.0872392365 0.3761254838 -2.5885720713
H -0.2213161917 2.9565884408 0.1533120235
H 1.1452555251 2.9005085655 -1.0058475896
H 1.7535002391 3.3921855068 1.1828564136
H 3.4730450239 3.4077686016 2.9347830800
H 4.4548641274 1.2734828967 3.7501532395
H 3.6879771339 -0.8722340660 2.7716646995
H 1.6939608555 -1.1806041792 -0.2394636846
H 2.6124524008 -2.0357727100 0.9852606250
H 0.2466763523 -2.7914267267 1.0391524155
H 0.0589809467 -0.2550879679 2.7595171741
H -1.1186016451 -1.6897819168 2.7110172695
