37
CONF75
C -1.0517002615 0.1756750593 -3.2617273678
C -2.2784006277 0.5330679636 -2.4488296684
O -2.3476182217 -0.2102035250 -1.1935776995
P -1.3663857605 0.1947932648 -0.0032808078
O -1.0624899691 1.6381447357 0.1361265816
O -2.0252511714 -0.5476912494 1.2351091217
C -2.5246296475 0.2283194652 2.3724221041
C -1.4551024022 0.3536315469 3.4319195118
O -0.0703983476 -0.7349707124 -0.3169281516
P 1.4361064137 -0.3982979889 0.2411509649
O 1.4820069614 -0.1359338720 1.6949272257
O 2.2366580269 -1.6586530428 -0.3079581408
C 2.3730178400 -2.8330654804 0.5504913287
C 1.0757714946 -3.6036606906 0.6752653738
O 1.9556582845 0.7334397934 -0.7442277704
C 2.1014430661 2.1152050241 -0.2719887981
C 1.6547187165 3.0317132106 -1.3842496628
H -1.1125875847 0.6709222750 -4.2364491919
H -0.9938692761 -0.9041882472 -3.4226512879
H -0.1318712962 0.5042566412 -2.7699195251
H -2.3119547030 1.6037372278 -2.2193625353
H -3.1967325090 0.2519311149 -2.9699221282
H -3.3904894829 -0.3371770336 2.7267371584
H -2.8583748343 1.2096027729 2.0201176649
H -1.1145041853 -0.6330852277 3.7562622885
H -0.5921767607 0.9030676445 3.0489341830
H -1.8637883211 0.8866898001 4.2970634492
H 2.7418032738 -2.5060802126 1.5283949297
H 3.1455822085 -3.4274424454 0.0570936745
H 0.6825571718 -3.8656092257 -0.3106503277
H 1.2602740897 -4.5264673002 1.2348660597
H 0.3188950706 -3.0248426864 1.2117512154
H 1.4969176236 2.2548721068 0.6272791632
H 3.1589933761 2.2522299952 -0.0240126216
H 1.8153200788 4.0715728822 -1.0821382861
H 2.2236433737 2.8449056633 -2.2993699815
H 0.5889590965 2.8895904408 -1.5786676492
