20
CONF2
C 2.6231487934 0.1296281725 1.0343729649
C 1.4141554584 -0.2150447292 0.5932067079
C 0.6082991959 0.5769077280 -0.3956341379
C -0.6298009800 1.2145591877 0.2671372803
C -1.5803403933 0.1575616004 0.8343028728
C -1.7951853081 -0.9745559226 -0.1274812080
C -1.0317621424 -1.1752070549 -1.2051700814
C 0.1457342116 -0.3137577543 -1.5658756376
H 3.1612177385 -0.4806834885 1.7540596325
H 3.1121937126 1.0373714171 0.6861534224
H 0.9563882255 -1.1353570244 0.9587735649
H 1.2447292052 1.3790686814 -0.7883095428
H -1.1580062706 1.8009291167 -0.4957989600
H -0.3168168305 1.9081788963 1.0549447705
H -2.5454351983 0.6172525149 1.0815465950
H -1.1946732034 -0.2387095096 1.7858025628
H -2.6191476851 -1.6556937439 0.0792759996
H -1.2558789342 -2.0064106962 -1.8719039340
H -0.1141330317 0.3214505089 -2.4252601392
H 0.9753132299 -0.9474875829 -1.9050495218
