39
CONF26
C -2.8774154787 3.8232785552 -0.5397996000
N -2.9330873765 2.3757633470 -0.7036321333
C -1.9296116932 1.4940745091 -0.5269374472
C -2.4375441220 0.2324001288 -0.8189596372
C -3.7868894308 0.4843054300 -1.1695144643
N -4.0763730094 1.7840920959 -1.0835324001
C -4.8931757376 -0.4330134640 -1.5530515876
F -4.6904800773 -0.9732862454 -2.8089562332
F -4.9728573917 -1.4989373815 -0.6817215953
C -1.7263073245 -1.0595676606 -0.8245466937
O -2.0814139549 -2.0011485521 -1.5324549112
N -0.6378334823 -1.1086400989 0.0083662681
C 0.3050115632 -2.1566335722 0.0779249572
C 1.6699752627 -1.8360132595 0.2213474017
C 2.5949759217 -2.8698977979 0.3949171318
C 2.1542563540 -4.1790868533 0.3817610002
C 0.8221262680 -4.5169113481 0.2206556348
C -0.1058118233 -3.4918084650 0.0826430434
F 3.0687846721 -5.1714642185 0.5299256820
C 2.1514018217 -0.4355411374 0.1874593548
C 2.9625927016 0.0464756587 1.2169244580
C 3.4443715194 1.3500994663 1.1809149008
C 3.1212651560 2.1885854312 0.1128447226
C 2.3193971039 1.7116536674 -0.9205417850
C 1.8386121293 0.4113291423 -0.8830478481
Cl 3.7070664466 3.8301533881 0.0444075543
Cl 4.4465139500 1.9122963065 2.4954143165
H -3.0841431366 4.3104279381 -1.4957848038
H -1.8775710900 4.0911937585 -0.1973930706
H -3.6176257969 4.1355501932 0.2004312338
H -0.9398569336 1.8217842595 -0.2380261665
H -5.8599309289 0.0803504992 -1.5611842417
H 0.5142589683 -5.5565831330 0.2242476097
H 3.2119704277 -0.5888232520 2.0597118060
H 2.0811337211 2.3622056843 -1.7544968948
H 3.6520589322 -2.6523709723 0.5038999207
H -1.1584176545 -3.7272360456 -0.0014129725
H 1.2258287617 0.0489757818 -1.7015985957
H -0.4182527099 -0.2757299165 0.5359246878
