51
CONF24
C 4.3732431798 -1.3216178467 -0.8245311827
C 3.0939918297 -1.7974823990 -0.1628062895
C 2.8328449325 -3.2763285200 -0.3595665529
O 1.9441801879 -1.1200650933 -0.7852085196
C 1.6096187180 0.1056417587 -0.3804105661
N 2.3096961143 0.7142455487 0.5741401053
C 1.8843071221 1.9496798315 0.8817139500
C 0.8105039741 2.5749346964 0.3015457720
C 0.1316605602 1.8002615028 -0.6628357886
N 0.5366801207 0.5952146637 -1.0228264009
O -0.9634714330 2.3494453544 -1.1945790650
C -1.8703824677 1.5179139604 -1.9922648864
C -3.2315435580 1.5538753914 -1.3632539111
C -4.2919877055 2.1362216591 -2.0584834229
C -5.5697999880 2.1865615830 -1.5078685412
C -5.7917433859 1.6622553384 -0.2385959275
C -4.7391658579 1.0830872727 0.4652377839
C -3.4565382231 1.0107469984 -0.0843537896
C -2.3711621126 0.3831577564 0.7143278972
C -1.8272975220 1.0029851280 1.7867807381
O -2.1904791367 2.2347873959 2.1439682324
C -1.5267451105 2.7598263664 3.3210686392
C -1.8431817303 -0.9501875331 0.4041118334
O -0.9844977343 -1.5470084974 1.0381695537
O -2.4300462266 -1.4699481856 -0.6990567147
C -1.9323920578 -2.7623227015 -1.1155215239
C 2.6940649164 2.6216363051 1.9704349637
F 3.9985166825 2.7164448002 1.6241403828
F 2.6400188637 1.9147963973 3.1238425055
F 2.2547155880 3.8674423515 2.2384064003
H 4.3562917150 -1.5578151902 -1.8932927121
H 5.2272029974 -1.8325548039 -0.3696874590
H 4.5075185250 -0.2447049080 -0.6967631681
H 3.0902335107 -1.5453174325 0.9012979778
H 2.7906131186 -3.5218361649 -1.4253965992
H 3.6454423003 -3.8490366055 0.0961372680
H 1.8913321823 -3.5711210571 0.1121817693
H 0.4709124468 3.5648434741 0.5728576164
H -1.8891818651 1.9557043580 -2.9927425633
H -1.4717480588 0.5043866492 -2.0464260437
H -6.3833062689 2.6407263754 -2.0645821071
H -6.7815974152 1.7014356323 0.2052867291
H -1.0516895659 0.5174114608 2.3784329325
H -0.4420180953 2.7440892987 3.1787624985
H -1.8763212712 3.7857898960 3.4290204655
H -1.8057949395 2.1699815414 4.1987016500
H -2.1144147898 -3.5089467927 -0.3385782564
H -2.4886063306 -3.0077905244 -2.0195872971
H -0.8612967797 -2.7042766319 -1.3273483972
H -4.9090987241 0.6694079400 1.4549420172
H -4.1098618131 2.5571317758 -3.0434902561
