39
CONF4
C -3.8885033691 -1.1848338319 0.0372196834
N -2.8469490242 -0.2672595969 -0.4066508870
C -1.8198548367 -0.5407210771 -1.2341435209
C -1.1064238430 0.6422002316 -1.3890560481
C -1.8116035428 1.5752028815 -0.5958180144
N -2.8617441580 1.0137262212 0.0028653933
C -1.4901325788 3.0135666681 -0.3799084039
F -2.2265279822 3.8033778938 -1.2529261503
F -1.8615733923 3.4082823197 0.8860792351
C 0.0946149206 0.9368870705 -2.1808587863
O 0.2773283909 2.0642319993 -2.6557828781
N 0.9984979910 -0.0666964009 -2.3908804692
C 1.0960503599 -1.3217818375 -1.7323341068
C 1.1216970567 -1.4264873264 -0.3268255143
C 1.1733653559 -2.7006254059 0.2477325363
C 1.2509658867 -3.8135184642 -0.5680544513
C 1.2731653703 -3.7303477386 -1.9491086274
C 1.1817655238 -2.4685659477 -2.5227151658
F 1.3255571040 -5.0360162393 0.0136741176
C 1.0767946856 -0.2425087033 0.5592904473
C 0.1446334909 -0.1956827820 1.5984010370
C 0.0641084541 0.9203116893 2.4210806953
C 0.9268870151 2.0001071795 2.2248912360
C 1.8729164611 1.9494987568 1.2047374570
C 1.9443137860 0.8392652112 0.3763472155
Cl 0.8478844522 3.4163585936 3.2395771499
Cl -1.1479504313 0.9522938169 3.6769609621
H -4.8555411344 -0.8700522425 -0.3633068114
H -3.9259812085 -1.1887085015 1.1288619195
H -3.6444304577 -2.1828850605 -0.3276125971
H -1.6748106877 -1.5272885294 -1.6487379599
H -0.4337327326 3.2513486220 -0.5270353673
H 1.3426670109 -4.6263330320 -2.5555300958
H -0.5524577020 -1.0137361890 1.7457813738
H 2.5507216744 2.7840971015 1.0652713175
H 1.1926895675 -2.8187583493 1.3258153913
H 1.1586933028 -2.3654176919 -3.6027412978
H 2.6856295017 0.8144662734 -0.4144257946
H 1.7342722479 0.1653042801 -3.0470056230
