50
CONF243
C -0.3336134834 0.2756381788 -1.7063893740
C -1.5710412407 -0.5867530491 -1.7873592959
C -1.4970389842 -2.0156455541 -2.2560417118
C -1.7833890127 -1.7212740117 -0.7776736743
C -0.7616523641 -1.9855539355 0.2412738534
O 0.4141193888 -2.2251402129 0.0712291876
O -1.3208290524 -1.8879446314 1.4902366762
C -0.3604762424 -1.9319904823 2.5695770680
C -1.1519404043 -2.0932373160 3.7898508456
N -1.7370949915 -2.2058025671 4.7787504530
C 0.4801307798 -0.6693537061 2.6327712524
C -0.0969225443 0.5546053807 2.3049316781
C 0.6900232490 1.6994844270 2.3342435218
C 2.0313120347 1.6426118744 2.7111443611
C 2.5863215875 0.4122388755 3.0442096255
C 1.8198839428 -0.7500122729 3.0008232966
O 0.0586202956 2.8920609319 2.0461241030
C 0.7315964818 3.8429668785 1.2933885300
C 1.5108088858 3.4919044823 0.1930903706
C 2.0988642273 4.5006106760 -0.5645593787
C 1.9056915660 5.8410094340 -0.2340920330
C 1.1155647706 6.1724919058 0.8645371370
C 0.5265443718 5.1750440703 1.6368863065
C -0.2204557860 -2.6089635141 -2.6882478980
C -0.0248342846 -3.8391650131 -3.1692228107
C -1.0255370917 -4.9541454764 -3.2834144752
F -2.1635129557 -4.6868823782 -2.6114718043
F -0.5402420128 -6.1169621203 -2.7882563118
F -1.3674423124 -5.1955551862 -4.5753078347
Cl 1.5523155116 -4.3130383487 -3.7815418765
C -2.8212887838 0.1805804447 -2.1564581899
H 0.5470388752 -0.2559001495 -1.3435115597
H -0.1093323084 0.6876482160 -2.6962896794
H -0.5217237306 1.1143315894 -1.0275832980
H -2.3793183221 -2.3740325407 -2.7741764118
H -2.8055507561 -1.8688516896 -0.4459656883
H 0.2896077969 -2.8084427416 2.4602865639
H -1.1379536696 0.6286405100 2.0085922894
H 2.6286440888 2.5475502904 2.7390582040
H 3.6304839744 0.3593255144 3.3345868524
H 2.2635642372 -1.7110472209 3.2404811218
H 1.6519341715 2.4478778135 -0.0665202966
H 2.7056496794 4.2331415373 -1.4240228695
H 2.3661680314 6.6213695079 -0.8307768978
H 0.9585733512 7.2134355734 1.1292707378
H -0.0888390191 5.4154314843 2.4974821103
H 0.6544177512 -1.9672647113 -2.6650849037
H -2.6817843951 0.6682166879 -3.1273706844
H -3.6927155188 -0.4765177896 -2.2210548788
H -3.0233499000 0.9562607080 -1.4104322879
