49
CONF10
C -3.5041106422 -3.3236826551 -1.3488270482
C -3.0410565542 -2.0254420377 -1.9763566999
C -1.8335534194 -1.2707922578 -1.3914460247
C -3.2686317140 -0.7195218841 -1.2699019295
C -3.5524775576 0.5396879228 -2.0660066731
C -3.9528856076 -0.6921225854 0.0804045686
C -1.0770719008 -1.7522563879 -0.2311435380
O -1.4770046513 -2.3686876910 0.7329737951
O 0.2464600559 -1.3935231463 -0.3757122464
C 1.0949568319 -1.7484274188 0.7471848393
C 2.4282958011 -1.9746581100 0.1923646272
N 3.4954790221 -2.1519731142 -0.2114859012
C 1.0960250195 -0.6561434054 1.7936710208
C 0.4159099467 -0.8479538186 2.9929824495
C 0.3929499549 0.1793225126 3.9330138447
C 1.0457200557 1.3784073237 3.6862848981
C 1.7219688598 1.5581828597 2.4788038753
C 1.7469217998 0.5472001964 1.5240361387
O 2.2998015778 2.7905601586 2.2883817126
C 3.3267570785 2.9292147869 1.3658914240
C 4.4486998697 2.1059627109 1.3986316323
C 5.4780437264 2.3341669304 0.4924885310
C 5.3947725672 3.3796627664 -0.4241943564
C 4.2717906446 4.2011526960 -0.4337581585
C 3.2280838242 3.9768273451 0.4591325720
C -3.0931940558 -2.0907470376 -3.4908748362
H -2.9247104134 -4.1599008701 -1.7547801990
H -4.5562899580 -3.4924374259 -1.6053366234
H -3.3994803877 -3.3453821994 -0.2665393030
H -1.2116794317 -0.7641079775 -2.1222166497
H -2.9928393558 0.5935829206 -3.0004062351
H -4.6206001575 0.5995828471 -2.3052345816
H -3.2930670441 1.4214805658 -1.4710157067
H -3.6960859098 -1.5379365610 0.7142470262
H -5.0392411523 -0.6778659892 -0.0647613955
H -3.6763954456 0.2209512372 0.6185577340
H 0.7291985467 -2.6828632714 1.1880176038
H -0.1021357148 -1.7820978808 3.1780420871
H -0.1342836497 0.0412236836 4.8711700581
H 1.0436650507 2.1852075038 4.4108597505
H 2.2712561098 0.6882188697 0.5849490478
H 4.5081732214 1.2969379234 2.1187785481
H 6.3520204315 1.6914287946 0.5083750186
H 6.2030333865 3.5525578242 -1.1264191882
H 4.2008793789 5.0189220113 -1.1435998666
H 2.3417911084 4.6017073124 0.4667896826
H -2.6601331660 -1.2151585663 -3.9756762670
H -4.1317589350 -2.1883150528 -3.8277179398
H -2.5439674634 -2.9701525651 -3.8429521265
