39
CONF18
C 2.4215644875 0.6135688819 -1.2763470120
C 1.1790850707 1.4547274194 -1.5834254634
C 0.3975253014 1.4660508845 -0.2437212116
O 0.9957190530 0.4128808755 0.5553046187
C 1.8946704209 -0.3495879237 -0.2360048409
O 1.2129095252 -1.3941531460 -0.9285166505
C 0.7376832794 -2.4365291993 -0.1032677898
C 1.6787362875 -3.6300258467 -0.1466115671
F 2.9179402726 -3.3108715909 0.2971523184
F 1.2016492768 -4.6198990257 0.6461781344
F 1.8122862175 -4.1262466116 -1.3906183618
C 0.5875535507 2.7531102881 0.5905491890
N 1.9851835195 3.0896816561 0.7731643385
C 2.8622581558 2.6049084192 1.6828960088
N 4.0755949561 3.0780266797 1.4515771585
C 3.8815479502 3.8621626883 0.3543495746
N 2.6341551328 3.9022668731 -0.0976021744
C -1.0991509568 1.2095075590 -0.3898788423
C -1.9401599118 1.9588622225 -1.2218332768
C -3.3048226145 1.7075252078 -1.3229825961
C -3.8539699300 0.6859560649 -0.5621621513
C -3.0659544782 -0.0697386901 0.2945528217
C -1.7079844304 0.2066970131 0.3700332608
Cl -5.5669252062 0.3596520875 -0.6856834535
Cl -1.3285556095 3.2839912627 -2.2022317705
H 3.2162976199 1.2206993711 -0.8339054251
H 2.8155271399 0.0939587053 -2.1511403071
H 0.5749392107 0.9725287052 -2.3546719225
H 2.6405194280 -0.7648267159 0.4512472731
H -0.2368896871 -2.7676121163 -0.4781793500
H 0.6268645370 -2.1293073878 0.9444535670
H 0.0958109640 3.6008195913 0.1102127695
H 0.1378421798 2.5886641617 1.5748554234
H 2.5680642371 1.9281907024 2.4734261828
H 4.6732680954 4.4268031387 -0.1202165144
H -3.9226766835 2.3016988908 -1.9840779752
H -3.5061222124 -0.8578610286 0.8935929226
H -1.0844909186 -0.3722805441 1.0387020041
H 1.4316714662 2.4621641199 -1.9122415801
