27
CONF129
C 3.0176544670 -0.7675740676 0.0272660850
C 4.1262662788 0.2785570370 0.1287973379
C 5.5056526296 -0.2960811141 -0.1756005488
O 5.6024565941 -0.8434635062 -1.4926462938
C 1.6449895762 -0.1508662675 0.3030881289
C 0.5280929449 -1.1612989221 0.1854871117
C -0.8923842681 -0.6540894593 0.5918102342
C -1.3786434022 0.6391645464 -0.1331609005
C -2.9121510420 0.9149871082 -0.0217491861
F -3.1606142282 2.1541130351 -0.4732336728
F -3.3131393158 0.8330731515 1.2540551795
F -3.6109820973 0.0473071109 -0.7596772801
F -1.0732098860 0.5768870527 -1.4508792672
F -0.7340326262 1.7044263102 0.4082536824
F -0.8799357881 -0.3972419547 1.9257573521
F -1.7897548429 -1.6416103356 0.3537792242
F 0.7649634472 -2.2335460813 1.0069580171
F 0.4427598217 -1.6518589589 -1.0873733482
H 3.0316593744 -1.2171099539 -0.9701795535
H 3.2102910404 -1.5739513164 0.7433408604
H 3.9218423709 1.1115690465 -0.5601063478
H 4.1458228111 0.7113649452 1.1387665236
H 5.7216850906 -1.1306275523 0.5006480436
H 6.2777041909 0.4713771965 -0.0124723015
H 1.4451019596 0.6585104208 -0.4072152765
H 1.6057011948 0.2795676342 1.3101872149
H 5.5045412700 -0.1210970594 -2.1228592105
