43
CONF4
C -0.7111683743 2.5048497551 0.0760038950
C 0.3796061873 1.8606245793 0.9291757575
C 0.6740190906 2.6970697305 2.1742492419
C -0.0090107516 0.4295844484 1.3696473752
C -0.2285188547 -0.5272643812 0.2315686561
C 0.8536980688 -1.0337262248 -0.5229211211
C 0.5741086319 -1.9391935877 -1.5519292048
N -0.6552764542 -2.2978471350 -1.9056840747
C -1.6802377330 -1.7859640137 -1.2339527293
C -1.5194546276 -0.9285655993 -0.1432905795
C -2.7101342932 -0.4881209447 0.6611736012
O -2.9521905275 -0.9042710298 1.7739284445
O -3.4404080217 0.4030306518 -0.0068387908
C -4.6392709547 0.8715375606 0.6730501228
C -3.0253695045 -2.2306457969 -1.7631767772
F -3.5375305477 -1.2627411577 -2.6005990075
F -3.9312361859 -2.3895207515 -0.7424252787
C 1.6509209710 -2.6336955282 -2.3795920988
F 1.9060903358 -1.9503596246 -3.5223307771
F 2.8166629046 -2.7673220765 -1.7146030421
F 1.2618678167 -3.8716764648 -2.7410245306
C 2.2382586549 -0.5923038344 -0.2192389920
N 2.8432325564 -0.8745645395 0.8604761784
C 4.1380705996 -0.1921878427 0.9577325024
C 4.6309341836 0.1960969821 -0.4448930868
S 3.0861024423 0.4530110909 -1.4146535744
H -0.4163086907 3.5169364674 -0.2185734355
H -0.9060715549 1.9317218736 -0.8368177808
H -1.6490950771 2.5734843295 0.6403057676
H 1.2971393927 1.7997133895 0.3323267453
H -0.2187534111 2.7735215092 2.8063523499
H 0.9778581689 3.7102713157 1.8928762365
H 1.4769847823 2.2497463433 2.7694377934
H -0.9159206658 0.4941813767 1.9767771240
H 0.7827692817 0.0339295641 2.0115289161
H -5.3095307165 0.0290997803 0.8570969497
H -4.3658662490 1.3503278371 1.6155626061
H -5.0919353639 1.5873921903 -0.0104502735
H -2.9523933365 -3.1679090243 -2.3221097615
H 3.9890265197 0.7001216848 1.5834581884
H 4.8664924309 -0.8354162824 1.4603582056
H 5.2022411381 -0.6080250353 -0.9169872146
H 5.2195977488 1.1150679174 -0.4409942245
