39
CONF17
C 3.6558286834 -0.8147311801 -1.8929863909
C 2.7485860709 -1.5225405239 -0.8864767261
C 2.8574732753 -0.9802473789 0.5407003634
C 2.4970389356 0.5002668552 0.6861472799
N 1.1344150416 0.8047188162 0.2496558434
C 0.0845674824 0.5256840218 1.0576883152
O 0.1447994459 0.1492249891 2.2083070674
N -1.1839402578 0.7957747637 0.4159203736
C -1.5801053888 1.9952818736 -0.1899568557
C -0.8789167729 3.1295831669 -0.5772450041
C -1.6243090513 4.1642642237 -1.1380427501
C -3.0120873386 4.0649283277 -1.3009247237
C -3.7080702423 2.9320787580 -0.8964409020
C -2.9819112139 1.8877940234 -0.3296550902
N -3.4286538725 0.6669335011 0.1514153692
C -2.3521358550 0.0691138523 0.5877645672
N -2.3759063243 -1.1835433077 1.1744625872
C -1.4372706989 -2.1678025449 0.9548518723
O -0.4364761036 -2.0528752472 0.2801645459
O -1.8115389167 -3.2898437931 1.6093221428
C -0.8984392271 -4.3949489635 1.4529593470
H 3.6091901689 -1.2997180516 -2.8724321286
H 4.7004315776 -0.8283801948 -1.5618612616
H 3.3728841820 0.2336222128 -2.0403274575
H 2.9980962351 -2.5897242525 -0.8642892140
H 1.7033992155 -1.4745927026 -1.2131645441
H 2.2005983248 -1.5576768083 1.1997595214
H 3.8850318424 -1.1076292725 0.9075863560
H 3.1782129487 1.1330375509 0.1073079442
H 2.5757384720 0.7999466508 1.7349023325
H 0.9487346812 0.8472874179 -0.7411937178
H 0.1915689537 3.2231980074 -0.4364425575
H -1.1145905742 5.0693473583 -1.4508395657
H -3.5530110039 4.8935527415 -1.7457365161
H -4.7836679840 2.8518797966 -1.0082578924
H -3.2680767470 -1.4623589581 1.5545444918
H 0.0850578247 -4.1317156871 1.8502016598
H -0.8046112502 -4.6670347157 0.3985482700
H -1.3379327182 -5.2121568240 2.0240634711
