47
CONF3
C -7.5245603720 1.2770688286 0.7283658931
O -6.4616696651 1.6209181074 1.6455524400
P -4.9399965423 1.3027781026 1.2500287463
S -4.3753586401 1.7223254430 -0.5480542873
O -4.1556041646 2.0020486452 2.4618125205
C -3.8166856362 3.4057563839 2.3784819372
O -4.8483329854 -0.2553336631 1.7017489996
C -3.7160767363 -1.0127127116 1.3963395326
C -2.6011868423 -0.9392305557 2.2240478759
C -1.4987108105 -1.7329645277 1.9414745184
C -1.5069929870 -2.5736774417 0.8248547442
C -2.6351880057 -2.6338380633 0.0067769557
C -3.7509482581 -1.8554229460 0.2967808938
S -0.1110133891 -3.6272570546 0.4597462209
C 1.2140232593 -2.4453880535 0.2505752100
C 2.5158247851 -2.8905270223 0.4960216887
C 3.5960587792 -2.0419757121 0.2892063915
C 3.3631487649 -0.7438084558 -0.1398508481
C 2.0762170243 -0.2821718733 -0.3804983960
C 0.9987569583 -1.1391762033 -0.1943750688
O 4.4429596727 0.1351715807 -0.2759447303
P 5.1629120785 0.3344202287 -1.7167923941
S 5.6382078552 -1.2626838948 -2.6924579345
O 6.3533486985 1.3259661299 -1.2960975201
C 7.5744097257 0.7813588035 -0.7488400984
O 4.1412589931 1.3573343402 -2.4120143583
C 4.2590052211 1.6407798526 -3.8249627986
H -7.3372549804 1.7215295203 -0.2535348942
H -8.4367344951 1.6857226057 1.1640792973
H -7.6092438902 0.1893444622 0.6394245713
H -3.2031368754 3.6144103958 3.2553901245
H -3.2542073681 3.6059185978 1.4621721430
H -4.7248424072 4.0157423712 2.4041307547
H -2.6135451039 -0.2754294283 3.0810309979
H -0.6241049341 -1.6976634647 2.5822258691
H -2.6330077687 -3.2779822868 -0.8656948294
H -4.6314591453 -1.8766122443 -0.3349046100
H 2.6853890882 -3.9019915567 0.8508825234
H 4.6123788169 -2.3753570575 0.4642037549
H 1.9269371122 0.7364594552 -0.7202351049
H -0.0075373101 -0.7877244453 -0.3937501428
H 8.2540583381 1.6270447945 -0.6387973495
H 7.3818409853 0.3287551698 0.2291316128
H 7.9974276964 0.0372297704 -1.4301720669
H 5.1865595273 2.1857221865 -4.0255538766
H 4.2372572607 0.7113347508 -4.4008320806
H 3.3994175823 2.2637883529 -4.0740768419
