41
CONF86
C -4.5846334465 0.1644285686 1.9628023282
C -4.1386429147 1.5531031736 1.5064157038
N -3.4616277993 1.5564297852 0.2009504879
C -4.2624193020 1.9137466407 -0.9684642990
C -4.8865246511 0.6940773885 -1.6618398534
O -5.5862523963 1.0867179678 -2.8425324016
C -2.1743411476 1.1347273852 0.0699783198
C -1.5441596950 1.0406909805 -1.2017215517
C -0.2312980424 0.6472312687 -1.3082068499
C 0.5350757944 0.3148008742 -0.1735557539
C -0.0845958607 0.3950910817 1.0947219300
C -1.3937880944 0.7859341247 1.2142036217
N 1.8374921361 -0.0679142843 -0.4115153908
N 2.5271399687 -0.3887004025 0.6137702722
C 3.8489705849 -0.7494918015 0.3266261110
C 4.4480177833 -0.6901618505 -0.9488167654
C 5.7654386493 -1.0661702207 -1.1131786004
C 6.4947987256 -1.5046561939 -0.0037860148
C 5.9269515936 -1.5694264332 1.2684687523
C 4.6077866735 -1.1886195263 1.4261575612
N 7.8833863139 -1.9015050445 -0.1806948002
O 8.3708956793 -1.8342414642 -1.3111916545
O 8.5104766179 -2.2892672719 0.8075670805
H -5.0389252756 0.2365186092 2.9556846840
H -3.7401533281 -0.5276560246 2.0217040711
H -5.3256029565 -0.2552484832 1.2774173889
H -3.4805167755 2.0108650522 2.2523455470
H -5.0072455519 2.2096014963 1.4149603623
H -3.6468164445 2.4686340655 -1.6856178010
H -5.0583906132 2.5892963840 -0.6439190353
H -4.1115461083 -0.0536264932 -1.8830112926
H -5.6280468376 0.2298998680 -1.0058273023
H -4.9337292868 1.3730920354 -3.4943546520
H -2.0887380533 1.2703117571 -2.1077489345
H 0.2374149988 0.5802477079 -2.2853777254
H 0.4829064704 0.1439150502 1.9832067260
H -1.8282356509 0.8301097627 2.2040795805
H 3.8695835415 -0.3445195354 -1.7964346135
H 6.2378716752 -1.0238556495 -2.0866920767
H 6.5149623939 -1.9115022812 2.1105150934
H 4.1370616373 -1.2257495790 2.4029112500
