41
CONF50
C -2.8321051463 -1.7936880933 1.6081108816
C -3.2687287305 -0.3314078159 1.7458777797
C -4.6789766338 -0.1301544170 1.1998187919
N -2.3614973274 0.6165932329 1.0692128727
C -0.9844503110 0.6099386257 1.5768332387
C -0.3012436698 1.9290500149 1.2174197462
O -1.0847565054 3.0373587786 1.6706698030
C -0.0914888270 2.0935635610 -0.2924318473
O 0.5829263512 0.9684791233 -0.8794343340
C 1.9118771787 0.7707683400 -0.6143242705
C 2.7621902908 1.7473034886 -0.0910853434
C 4.1111332662 1.4552970522 0.1041408859
C 4.6158589042 0.1993123674 -0.2150839667
C 3.7560604932 -0.7686901855 -0.7321457252
C 2.4026737920 -0.5085026068 -0.9349661992
C 1.4843200113 -1.5629216094 -1.5088383802
C 1.2201495675 -1.3346950986 -2.9721513775
C 1.5262761758 -2.2019074439 -3.9353057706
H -2.8156610382 -2.0835162450 0.5500678299
H -1.8337648078 -1.9577024977 2.0250984316
H -3.5295278662 -2.4555699922 2.1322952185
H -3.2610362365 -0.0609969307 2.8114546949
H -4.7106192944 -0.3685147826 0.1296099244
H -5.0051528404 0.9057734372 1.3323570918
H -5.3870660007 -0.7886468711 1.7117908909
H -2.3555255372 0.3877119002 0.0776957997
H -1.0237721773 0.5367795278 2.6706554918
H -0.3710801578 -0.2285400976 1.2110199111
H 0.6621081248 1.9794808220 1.7368945832
H -2.0034728358 2.7580607563 1.5058486838
H 0.4329560151 3.0317043063 -0.5070243624
H -1.0624781025 2.1286774766 -0.7953218012
H 2.3899771998 2.7321506602 0.1650054419
H 4.7641054880 2.2216521616 0.5105083225
H 5.6650666686 -0.0289169451 -0.0587732660
H 4.1372164008 -1.7563690613 -0.9792205259
H 1.9352917858 -2.5500846503 -1.3681071795
H 0.5315954646 -1.5443099652 -0.9632152013
H 0.7593591349 -0.3813595427 -3.2286295529
H 1.9908973583 -3.1588362213 -3.7071929584
H 1.3203648772 -1.9836841680 -4.9791342801
