45
CONF5
C 8.6261391071 0.3422488865 0.0836237256
C 7.3623777828 0.7574419255 -0.6675609781
C 6.0870720988 0.2168286538 -0.0211754474
C 4.8153660076 0.6281892592 -0.7614691154
C 3.5408186320 0.0881301019 -0.1139126830
C 2.2706893750 0.5053226008 -0.8534276706
C 0.9982397174 -0.0355173299 -0.2055867712
C -0.2706865801 0.4024521159 -0.9559630858
C -1.5352726797 -0.1204218111 -0.3273552342
C -1.9624623296 -1.4141460341 -0.6392919970
N -3.0965517287 -1.8383271454 -0.0106415005
C -3.7863609071 -1.0489993496 0.8969567649
N -4.8494716090 -1.7458572227 1.3356087543
C -4.7443045378 -2.9171911869 0.6699513520
N -3.7074229838 -3.0470477953 -0.1617850708
N -3.3891555952 0.1793415188 1.2209116445
C -2.2823650987 0.6270301683 0.6148488743
C -1.8342065337 2.0252027836 0.9725257688
C -2.6136551274 2.6854913913 2.1026721574
N -1.3472605428 -2.2890237065 -1.4593329950
H 8.7178981203 -0.7490883488 0.1195587859
H 8.6038684562 0.7084333145 1.1160870219
H 9.5270821806 0.7395221290 -0.3946708330
H 7.4171489627 0.4047176833 -1.7060921927
H 7.3044517936 1.8529851860 -0.7161022839
H 6.0317786349 0.5679890152 1.0190383917
H 6.1423665293 -0.8800915840 0.0259340156
H 4.8709437462 0.2767992528 -1.8014842221
H 4.7610776747 1.7250315765 -0.8082335137
H 3.4852877257 0.4375009932 0.9266314478
H 3.5919570754 -1.0088844261 -0.0699227086
H 2.3239551830 0.1571617412 -1.8946784426
H 2.2164926072 1.6023536210 -0.8954435940
H 1.0406980224 -1.1318914790 -0.1660533158
H 0.9353527656 0.3104109549 0.8344518998
H -0.3027296341 1.4943771137 -0.9999843286
H -0.2037618150 0.0727992045 -2.0012483856
H -5.4543556268 -3.7271563079 0.7890694441
H -1.8998131948 2.6445047724 0.0671624819
H -3.6716701466 2.7905659322 1.8508811113
H -2.2045410334 3.6813062055 2.2963888940
H -0.6248010246 -1.9539481964 -2.0748911090
H -1.8568412552 -3.1087845377 -1.7531022649
H -0.7672395930 1.9946882235 1.2252818290
H -2.5464143090 2.1007308145 3.0242195650
