55
CONF179
C -0.6481221299 -6.9888161497 4.7959018788
C -1.1146654717 -5.7189369036 4.1235120285
O 0.0723422349 -4.9588612624 3.7809058816
C -0.1765842624 -3.7816545631 3.1420706872
O -1.2819145360 -3.3636074502 2.8741420372
N 1.0239240885 -3.1725919636 2.8706485281
C 1.2399898759 -1.9418041879 2.2353036602
C 0.2341665116 -1.2510165786 1.5576880248
C 0.5440556475 -0.0554291700 0.9206595745
C 1.8290060722 0.4868592963 0.9866288821
C 2.8235438285 -0.1991915199 1.6802289010
C 2.5357979251 -1.4106912880 2.2860611861
S 2.1931078774 2.0271141719 0.1742664324
C 0.6264414211 2.8234811718 0.4250585537
C 0.5531803050 4.2035893466 0.6123167490
C -0.6783445171 4.8077269489 0.8328305772
C -1.8327148085 4.0324768698 0.9217183245
C -1.7589769050 2.6552371697 0.7532803806
C -0.5405952056 2.0500865332 0.4474048728
N -0.4551009142 0.6532010237 0.1859654327
C -1.0842755441 0.0127548421 -0.8943608688
O -0.9147666273 -1.1756838792 -1.1017424699
C -1.9732776806 0.8395892030 -1.8006108913
C -1.6405078683 0.6298574238 -3.2991725590
N -0.4432532003 1.2854734379 -3.8058101672
C -0.4459226928 2.7371247884 -3.6419994342
C 0.7533866923 3.3279608146 -4.3693744079
O 1.9728200792 2.7887281635 -3.8671332903
C 1.9813417568 1.3683633360 -4.0185092753
C 0.8085378110 0.7278856838 -3.2921338178
H -0.0821176508 -6.7656440037 5.7043376356
H -0.0150306094 -7.5758780943 4.1252031483
H -1.5156556268 -7.5957819733 5.0705497463
H -1.7444991971 -5.1116943739 4.7820565136
H -1.6791748205 -5.9210109909 3.2074499833
H 1.8396434803 -3.6544350630 3.2144995805
H -0.7669406005 -1.6494515790 1.5015930526
H 3.8218342444 0.2195960765 1.7501422116
H 3.3182674331 -1.9394027876 2.8227825882
H 1.4628228740 4.7947430835 0.5906410833
H -0.7310502231 5.8827284746 0.9683400005
H -2.7889465467 4.4978945090 1.1347104386
H -2.6471329895 2.0364359909 0.8309577344
H -2.9941319953 0.4729333184 -1.6356862118
H -1.9679019614 1.9018294399 -1.5602424209
H -1.5548896563 -0.4456694929 -3.4891762030
H -2.4941165921 1.0055127523 -3.8781589611
H -1.3726403875 3.1468375807 -4.0659597031
H -0.3880662595 3.0476317890 -2.5783349384
H 0.6678912912 3.1237413357 -5.4501544935
H 0.8043405930 4.4098224589 -4.2117836085
H 1.9437465310 1.1081953429 -5.0897396473
H 2.9283543859 1.0197391654 -3.5959100167
H 0.9386491747 0.9086678318 -2.2090290928
H 0.8141259121 -0.3565669989 -3.4548323441
