64
CONF546
C -1.3805936568 4.1672153771 -0.5576253782
C -0.5979099812 4.4286931647 0.7136538101
O -1.5428393619 4.5723549811 1.7786891845
C -1.0737150905 4.2037837513 3.0634719214
C -1.2033916252 2.7177181697 3.3425681876
O -0.1772973176 2.0423968876 2.6144111982
C -0.1262092054 0.6823049788 2.6745473268
C -0.9832891528 -0.1200039596 3.4187088512
C -0.8313280594 -1.5088394700 3.4063309744
C 0.1681801936 -2.0907128061 2.6468987720
C 1.0332808196 -1.2931288070 1.8948009372
C 0.9039376719 0.0911388265 1.9074603603
O 1.6979400098 0.9756789381 1.2399102683
C 2.9164335915 0.4997393583 0.6613371833
C 2.7528888545 -0.0206213880 -0.7500971533
O 2.4235118963 1.0822178055 -1.5898604250
C 2.6101826936 0.8285740428 -2.9762728987
C 1.7920206508 -0.3206413912 -3.5354460285
O 2.5050984738 -1.5466723024 -3.3149726755
C 1.7849679158 -2.7072813615 -3.7026911197
C 1.0771270854 -3.3706315803 -2.5366612064
O 0.1620310565 -2.4194445972 -2.0071074571
C -0.7268835297 -2.8175224570 -1.0520703607
C -0.8867244100 -4.1169332967 -0.5921731128
C -1.8779815830 -4.4066264854 0.3513185614
C -2.7014575945 -3.3989901447 0.8227785555
C -2.5299303796 -2.0838155577 0.3832526644
C -1.5333632472 -1.7797338679 -0.5338722635
O -1.2395404628 -0.5377243023 -1.0014765681
C -1.9501599584 0.5697340670 -0.4460802982
C -1.2274521392 1.8184784691 -0.9122385622
O -2.0528265226 2.9132496202 -0.5387778786
H -0.7057455051 4.2389627645 -1.4264527878
H -2.1612493661 4.9287504480 -0.6629366923
H -0.0193913047 5.3616039096 0.5983340918
H 0.1018370742 3.6090757916 0.9121699568
H -1.7044198823 4.7376895687 3.7846215144
H -0.0308041047 4.5206578828 3.2217242506
H -2.1952784472 2.3696065189 3.0203048610
H -1.0856198364 2.5290480533 4.4219365296
H -1.7687995329 0.3286203777 4.0149274415
H -1.5134279800 -2.1259142967 3.9809157162
H 0.2680365729 -3.1696013970 2.6040179591
H 1.7960123091 -1.7672368950 1.2893733176
H 3.3675591544 -0.2694223893 1.3025667413
H 3.5774450624 1.3718524876 0.6435214622
H 3.7071466150 -0.4743690838 -1.0660702971
H 1.9730951928 -0.7927773913 -0.8084822032
H 2.3087779670 1.7544202625 -3.4773278699
H 3.6762456703 0.6452567670 -3.1948069109
H 1.6581177246 -0.1715429860 -4.6203157425
H 0.8045024827 -0.3440871872 -3.0551000332
H 1.0531806204 -2.4679368345 -4.4887267841
H 2.5078949896 -3.4224825190 -4.1165579015
H 0.5519828060 -4.2678604393 -2.9000762674
H 1.7982656123 -3.6701786960 -1.7610572815
H -0.2512951356 -4.9119845573 -0.9639257572
H -1.9987964436 -5.4262802630 0.7011764920
H -3.4787996442 -3.6193298365 1.5466259952
H -3.1638524006 -1.2998701373 0.7783714029
H -1.9419699658 0.5237932129 0.6505991305
H -2.9911938716 0.5752184168 -0.7996414538
H -1.0904046381 1.7893619771 -2.0064703971
H -0.2337602981 1.8630017963 -0.4449820675
