65
CONF7
C 9.3387450929 -3.8364099978 -2.8756863270
O 8.7573660415 -3.5786638247 -1.5928563745
C 7.4110165595 -3.3475014115 -1.5479707380
C 6.5681742616 -3.3546804597 -2.6614051670
C 5.2052439190 -3.1082751359 -2.4891607377
C 4.6543169090 -2.8566278764 -1.2326063140
C 5.5211259829 -2.8512120314 -0.1315049519
C 6.8787419576 -3.0940779750 -0.2786564473
C 3.1976233162 -2.5238282518 -1.0721973473
C 2.9815250199 -0.9940853485 -1.1835066202
N 1.6114207635 -0.5026786540 -1.0495545133
C 0.7202252246 -0.9749655120 -2.1115416192
C -0.6141890614 -0.2348730423 -2.0560178873
C -1.2630846277 -0.4201138023 -0.6879269119
C -0.2887247856 0.0024595397 0.4151897361
C 1.0300136242 -0.7520188061 0.2720233674
N -2.5185783187 0.3412429063 -0.6394914287
C -3.4159002430 0.1008258210 0.3594871965
N -3.4984909471 -1.0089123561 1.0776050519
C -4.5883726438 -0.8067246410 1.9109554564
C -5.1347349467 -1.6408594111 2.8845273506
C -6.2384009094 -1.1796942260 3.6030439919
C -6.7905816007 0.0847995186 3.3615143672
C -6.2593131335 0.9344436733 2.3875840038
C -5.1646484682 0.4650666298 1.6763806400
N -4.4007461534 1.0258443189 0.6617431656
C -4.4949809125 2.3740543805 0.1249367194
C -3.3020599852 3.2298469847 0.5008013722
C -2.7299078946 3.1345594069 1.7718127954
C -1.6339187110 3.9166226295 2.1188041268
C -1.1268522342 4.7922109207 1.1720117504
C -1.6643831873 4.9164404860 -0.0967550656
C -2.7595236221 4.1208848902 -0.4258894510
F -0.0529019998 5.5538150662 1.5020805008
H 8.9108320767 -4.7383018989 -3.3298913408
H 10.4030635907 -3.9890070856 -2.6938785608
H 9.1998713776 -2.9831607646 -3.5506065601
H 6.9506342261 -3.5526039036 -3.6553409395
H 4.5575666483 -3.1179727829 -3.3626210026
H 5.1214828915 -2.6574678942 0.8610094454
H 7.5429128714 -3.0953738932 0.5801041294
H 2.6131392094 -3.0345783129 -1.8448430869
H 2.8425698150 -2.8754322992 -0.0973834567
H 3.3653978908 -0.6644240794 -2.1588347182
H 3.5939292686 -0.5038269663 -0.4143511710
H 0.5244111956 -2.0627943206 -2.0357101884
H 1.2062123052 -0.7993008738 -3.0786737674
H -0.4445847393 0.8358044806 -2.2351995678
H -1.2797303857 -0.6088878630 -2.8417990307
H -1.5195905911 -1.4779095871 -0.5541100205
H -0.1071164938 1.0828881128 0.3337719985
H -0.7290640276 -0.1950861878 1.3987416555
H 1.7426043871 -0.4183487452 1.0357570830
H 0.8428308524 -1.8302178156 0.4455925125
H -2.3996841824 1.3193943998 -0.8752843877
H -4.7069417918 -2.6200626438 3.0766200775
H -6.6783534182 -1.8131346270 4.3670872419
H -6.6901061466 1.9138775704 2.2057143266
H -4.5989425524 2.3322385475 -0.9661544589
H -5.4184429917 2.8150284142 0.5138017279
H -3.1350746480 2.4361746563 2.4983816548
H -1.1768263491 3.8509635067 3.1000899106
H -1.2296039305 5.6084845254 -0.8094862766
H -3.1889104472 4.1922339687 -1.4213886992
H -7.6473312725 0.4147504126 3.9402012494
