32
CONF2
C -3.9894340167 -1.3209061344 -0.9269734386
C -3.1233382289 -0.2186782440 -0.3046317293
C -3.4186183131 1.1250748534 -0.9967612812
C -3.4374838094 -0.0999990346 1.1984201012
C -1.6601680428 -0.5281006923 -0.4660762587
C -0.5362080605 0.1412815788 -0.0821112541
C 0.5170048429 -0.6891352665 -0.5432949850
N 0.0764274041 -1.7746754932 -1.1564668154
O -1.3193039094 -1.6674481229 -1.1051153938
N 1.8888877118 -0.5280348660 -0.4451053549
C 2.5211383073 0.5520105826 0.1662730859
O 1.8940085331 1.4706223783 0.6793285869
N 3.8950478100 0.4910308641 0.1406197076
C 4.6384442367 -0.6017880265 -0.4684203249
C 4.6544221628 1.5688796109 0.7563035524
H -5.0447939928 -1.0647089164 -0.7929315768
H -3.8060437131 -2.2883404822 -0.4521211334
H -3.7931866292 -1.4265033689 -1.9972064582
H -4.4767826700 1.3802571416 -0.8756082179
H -2.8183693386 1.9307471983 -0.5643284341
H -3.1950682359 1.0684890434 -2.0661912109
H -4.4957054872 0.1456091842 1.3370563112
H -3.2289136757 -1.0414370386 1.7152224155
H -2.8374023650 0.6862243283 1.6653876171
H -0.4446658873 1.0743800284 0.4433735347
H 2.4247258450 -1.2723336947 -0.8614549151
H 4.4424272860 -0.6894972750 -1.5464548130
H 5.7051782740 -0.4030976068 -0.3502246495
H 4.4323730181 -1.5670123562 0.0154797865
H 5.2818465548 1.1860676272 1.5715642719
H 5.2994746470 2.0613792592 0.0173055951
H 3.9540801421 2.2996433406 1.1599870787
