41
CONF57
C 0.9935432210 -2.1859609538 -0.4716456734
C 0.1904143547 -0.9692137976 -0.1655441891
C -1.0944374104 -0.9116266313 0.3182910213
C -1.5208233257 0.4641231623 0.2941304379
C -0.4632186935 1.2229451229 -0.2369668495
N 0.6044651783 0.3395563232 -0.4864532162
C 1.8303290454 0.7501538031 -1.0390221274
O 1.8785281703 1.6955811403 -1.8121143068
C 3.0550075159 0.0557859314 -0.5775998873
C 3.2078475887 -0.3295927334 0.7573801165
C 4.4068130844 -0.8741800849 1.1980372413
C 5.4391422275 -1.0448224835 0.2818650574
C 5.3122674247 -0.6659264762 -1.0522002607
C 4.1184967850 -0.0986478314 -1.4721269162
Cl 6.9497370244 -1.7503953166 0.8248328871
C -0.5558360791 2.6060887800 -0.3671179876
C -1.7413166072 3.2100486266 0.0231869489
C -2.8153175024 2.4583031091 0.5396801757
C -2.7170425566 1.0768036926 0.6864504778
O -3.9199115717 3.1888272715 0.8722187828
C -5.0471496652 2.4754395021 1.3928480058
C -1.9478200613 -2.0577374952 0.7445824561
C -2.9850994248 -2.5227187384 -0.2723736781
O -3.8824811462 -3.2873076648 0.0016895621
O -2.8514397239 -2.0627449442 -1.5310441694
H 1.5487157139 -2.0724221121 -1.4065416244
H 0.3207616291 -3.0394208704 -0.5792750671
H 1.7169460942 -2.4236669064 0.3145026840
H 2.3952162819 -0.1875322322 1.4628302592
H 4.5364945509 -1.1608706286 2.2351237322
H 6.1334600905 -0.8082346487 -1.7450346781
H 4.0008977224 0.2169865055 -2.5032960740
H 0.2549721806 3.1985946825 -0.7698933591
H -1.8634594318 4.2838055824 -0.0718014077
H -3.5263994206 0.4822967941 1.0925702333
H -5.8123784725 3.2283827069 1.5835451170
H -4.7919325992 1.9645376976 2.3291764341
H -5.4214395120 1.7455072722 0.6648935352
H -2.5020234815 -1.8143550664 1.6577279736
H -1.3456510257 -2.9402953345 0.9860379763
H -2.0888784742 -1.4560942529 -1.5709091142
