39
CONF1
C 2.5341308182 -0.0203608803 -2.2298806046
C 1.3755749961 0.9718367053 -2.3756100579
C 1.0340973148 1.3627164722 -0.9135056389
O 1.7250409349 0.3808620751 -0.0902178904
C 2.2103790865 -0.6728075281 -0.9040328956
O 1.2030589438 -1.6502035081 -1.1498501785
C 0.8379426661 -2.4171304232 -0.0205343033
C 1.5374749128 -3.7667033931 -0.0405266750
F 2.8866174342 -3.6356052177 -0.0125255827
F 1.1743704944 -4.4912485416 1.0437071208
F 1.2272320154 -4.4816193647 -1.1382846613
C 1.6607513133 2.7243018628 -0.5428237544
N 1.4041428758 3.0836648777 0.8373223871
C 1.9746700617 2.6119929972 1.9708485405
N 1.3562585112 3.0980385261 3.0339285667
C 0.3809162445 3.8714692364 2.4797170311
N 0.3633103910 3.8942026240 1.1537709994
C -0.4487674685 1.3517212874 -0.5686424100
C -1.4189680461 2.0578997213 -1.2861649025
C -2.7594227826 2.0696988248 -0.9193699868
C -3.1436489891 1.3700274870 0.2146384569
C -2.2148404009 0.6777557661 0.9779161306
C -0.8867946800 0.6819445445 0.5767526517
Cl -4.8276067503 1.3784385040 0.6881245019
Cl -1.0042805098 3.0167329199 -2.7025567987
H 3.4955738125 0.4951164995 -2.1445949251
H 2.5903541716 -0.7416205590 -3.0466075322
H 0.5160522591 0.4888781631 -2.8433935157
H 3.0571759690 -1.1165504462 -0.3683397795
H -0.2413141390 -2.5997695234 -0.0542834575
H 1.0804803974 -1.9174170444 0.9255166748
H 2.7421414728 2.6645786184 -0.7060646575
H 1.2436942371 3.5163023437 -1.1677492125
H 2.8179608789 1.9356359887 1.9624895866
H -0.3314500344 4.4391624968 3.0635884445
H -3.4829111631 2.6235744076 -1.5034781557
H -2.5211773216 0.1532735752 1.8748379933
H -0.1513497208 0.1640437551 1.1784317623
H 1.6422945114 1.8433297717 -2.9756259690
