49
CONF167
C -1.6096862998 -0.2188010263 -0.5410361185
C -2.7152837882 0.1813525630 0.4133861578
C -2.3974574696 1.0746149427 1.6413265027
C -2.7918039503 -0.4072777934 1.7917644761
C -4.1476244366 -0.6320605989 2.4393899723
C -1.7984888426 -1.4577434037 2.2480465143
C -1.1007675004 1.7029088729 1.8973335436
O -0.9543962850 2.8862532418 2.1511461802
O -0.0324976829 0.8532135786 1.8254855664
C 1.2749171262 1.4742708599 1.9154644026
C 1.5295007017 1.8990841871 3.2953092909
N 1.7437795117 2.2224311071 4.3829163335
C 2.2728106396 0.4556047880 1.4183198267
C 2.9017840332 -0.4390521796 2.2819079302
C 3.7691614985 -1.3953464136 1.7602566779
C 3.9957036611 -1.4742064850 0.3912584346
C 3.3510539612 -0.5791450795 -0.4601841075
C 2.4957441799 0.3965424642 0.0434440637
O 3.6633147190 -0.6605387961 -1.8000990726
C 2.6846335528 -0.3562864506 -2.7380898090
C 3.0661062676 0.4263440672 -3.8217476480
C 2.1384177725 0.6877493951 -4.8273636250
C 0.8448400122 0.1772774342 -4.7434424648
C 0.4813582588 -0.6073190437 -3.6497535724
C 1.3994820948 -0.8840568185 -2.6411655945
C -3.9822770535 0.5444037638 -0.3372966241
H -0.6709179822 -0.4762399649 -0.0549353851
H -1.4107306575 0.5981767348 -1.2436931151
H -1.9397706468 -1.0848111800 -1.1267224846
H -3.1917695996 1.7748427012 1.8819719450
H -4.8573497520 0.1712066606 2.2387130450
H -4.5806856928 -1.5724757608 2.0795730593
H -4.0271244125 -0.7109332722 3.5251522382
H -2.2234295910 -2.4471208797 2.0432432077
H -1.6425970795 -1.3805597300 3.3296585441
H -0.8273197926 -1.3972638324 1.7631821406
H 1.2918018310 2.3717753094 1.2864128594
H 2.7204806503 -0.3920593182 3.3506585530
H 4.2672048299 -2.0927363668 2.4256992821
H 4.6657217617 -2.2175637437 -0.0274790634
H 2.0078139985 1.0999635914 -0.6237580073
H 4.0766590825 0.8185299512 -3.8686886817
H 2.4302361864 1.2982633103 -5.6761202847
H 0.1240627888 0.3863646069 -5.5270382258
H -0.5218218712 -1.0161962626 -3.5815837352
H 1.1244713241 -1.5007736861 -1.7917736177
H -4.7562222890 0.9660015020 0.3049298053
H -4.3892221320 -0.3469104613 -0.8293359260
H -3.7518160335 1.2803027133 -1.1149743933
