70
CONF175
C -3.2062793356 -0.0878622567 -0.8133184470
C -4.6278771914 0.0339849296 -0.2113172248
C -5.1786813846 -1.3265030447 0.0658906861
C -6.4428874996 -1.8574954549 0.1483484360
N -6.3493808102 -3.2200538481 0.4177055989
C -5.0243420818 -3.5834889204 0.4980081609
C -4.3656455864 -4.7948472089 0.7229110839
C -2.9734064635 -4.7585098498 0.7092105245
C -2.2376499236 -3.5724301371 0.4838401783
C -2.8921849187 -2.3639783035 0.2705300411
C -4.2842677432 -2.4036797682 0.2815627319
C -2.2770504977 -0.9958623867 0.0523985811
C -0.8772747474 -1.0892049223 -0.5513651376
C -0.2965344947 0.3092591994 -0.7668847302
C -1.2673979865 1.1256550729 -1.6167522907
N -2.5699688619 1.2406839280 -0.9487321762
C -3.4007700719 2.2073674793 -1.6900178922
C -2.7953259456 3.5788588147 -1.6906666695
C -2.6782632867 4.3520304673 -2.7675206294
C 1.0480661758 0.1999907264 -1.4639210196
O 1.1812754625 -0.5027927850 -2.4648564211
N 2.1469347868 0.8225377789 -0.9011934943
C 3.4784566663 0.4621918292 -1.4386071590
C 3.9133417555 -0.9676136471 -1.1065531737
C 3.8098213216 -1.3482714899 0.3662445577
N 4.5043609933 -0.4272834074 1.2812173625
C 5.9474068511 -0.3765402870 1.0307679222
C 4.2441551477 -0.8226466070 2.6696282176
C 2.0110275011 1.9333452964 0.0027951691
O 1.1081532148 2.7604834151 -0.1383396061
N 2.9584742284 1.9860066517 0.9501234461
C 3.0533313944 3.1152278312 1.8691694241
C 4.4761579380 3.2503906644 2.3938153233
H -3.3001681003 -0.5701386021 -1.8100004457
H -4.5606885104 0.6318879177 0.7097354065
H -5.2909683283 0.5677356231 -0.8966074844
H -7.4133999646 -1.3934170159 0.0383177199
H -7.1369377776 -3.8390858198 0.5182566457
H -4.9017072380 -5.7226436831 0.8953189938
H -2.4269546385 -5.6821421812 0.8757304405
H -1.1540095746 -3.6294019756 0.4835125383
H -2.1985889784 -0.5017300725 1.0348979374
H -0.2194327766 -1.6662984135 0.1079365487
H -0.9285408614 -1.6159914956 -1.5115526109
H -0.1894054195 0.8040853630 0.2009955646
H -0.8634974286 2.1303927443 -1.7631089877
H -1.3657966708 0.6490086716 -2.6128178351
H -3.5939469037 1.8789182014 -2.7301595134
H -4.3696007301 2.2880714347 -1.1868968640
H -2.4760724952 3.9489849603 -0.7156628738
H -2.9813223799 3.9991791814 -3.7508370157
H -2.2797708842 5.3597731746 -2.7003562598
H 4.1930650352 1.1872838628 -1.0449615047
H 3.4497924421 0.5833149885 -2.5265509945
H 3.2972150036 -1.6751935357 -1.6692608188
H 4.9388771237 -1.0919969554 -1.4722379754
H 4.1848556720 -2.3813078010 0.4941278539
H 2.7516037372 -1.3541486176 0.6594258125
H 6.4156358938 0.2916575680 1.7602192245
H 6.1516569990 0.0176345892 0.0315713953
H 6.4191735214 -1.3721667528 1.1163843881
H 4.6202546862 -1.8376501700 2.8891304421
H 4.7317535868 -0.1193709639 3.3521829958
H 3.1659785002 -0.8038996201 2.8615816299
H 3.5897689419 1.1698448592 1.0865048106
H 2.7489047853 4.0213488524 1.3354604032
H 2.3513512482 2.9840204269 2.7050467589
H 5.1794573448 3.4223055556 1.5728719185
H 4.7863009130 2.3482564615 2.9311438302
H 4.5393880801 4.0939291782 3.0865372710
