52
CONF1
C 2.9480686256 -3.8152419294 0.8551085678
N 2.8794151893 -2.3732018126 1.0823451755
C 1.8512795653 -2.0597168611 2.0784610082
C 1.7645219575 -0.5588633453 2.3099201463
N 1.4533537827 0.1253364135 1.0546841554
C 2.4871939759 -0.1717543921 0.0642221408
C 2.5737315968 -1.6722288908 -0.1678682390
C 1.2652195033 1.5656703845 1.2307555634
C -0.0421681929 1.9063486275 1.9517079228
C -1.2308112743 1.1227330049 1.3885647848
N -1.3133402049 1.2435172735 -0.0728863413
C -1.5401525655 2.5067454380 -0.6437274993
C -2.2256144271 3.5122130311 0.0514492118
C -2.4280618322 4.7634457817 -0.5240422532
C -1.9826728383 5.0319664704 -1.8145167829
C -1.3199908313 4.0359673797 -2.5277998762
C -1.0802337408 2.7983167725 -1.9385190171
S -0.0854975538 1.5996061029 -2.7994984207
C -0.8352326064 0.1153114115 -2.1802705255
C -1.3447529987 0.0948305703 -0.8682565596
C -1.8690398019 -1.1130715954 -0.3910942191
C -1.8134858585 -2.2645449680 -1.1727448410
C -1.2886142072 -2.2401241595 -2.4617615210
C -0.8267289774 -1.0311818527 -2.9689580757
C -2.2729089672 -3.5618644683 -0.5852001390
F -3.2510977366 -3.4007144549 0.3392767324
F -2.7496593505 -4.4171389949 -1.5215463980
F -1.2555880539 -4.2184238339 0.0485812554
H 3.7286485608 -4.0379424085 0.1196662484
H 1.9911749211 -4.2270462827 0.4785485228
H 3.1956035619 -4.3275809129 1.7910864536
H 2.1042462598 -2.5627631181 3.0194740758
H 0.8559928706 -2.4314126471 1.7539028545
H 2.7189774485 -0.1938785852 2.7413727139
H 0.9729091444 -0.3609535142 3.0410918335
H 2.2227046389 0.3222033008 -0.8789564698
H 3.4797872663 0.2092547897 0.3802397076
H 1.6124345515 -2.0272671311 -0.5969302961
H 3.3637880295 -1.8870439948 -0.8973909145
H 2.1127972482 2.0297250753 1.7721014208
H 1.2418599746 2.0149375965 0.2301187404
H 0.0202978485 1.6797479701 3.0221811641
H -0.2055277352 2.9866510715 1.8734300563
H -2.1669266922 1.4213570431 1.8766569949
H -1.0720405975 0.0691756606 1.6131246258
H -2.6003336911 3.3219612189 1.0500360591
H -2.9494899051 5.5273890323 0.0438930517
H -2.1468702996 6.0041183605 -2.2668262950
H -0.9611716547 4.2252576481 -3.5350036575
H -2.3142798525 -1.1591816615 0.5947345484
H -1.2459017606 -3.1383248333 -3.0665493629
H -0.4258113073 -0.9823205693 -3.9763879313
