41
CONF112
O 8.8393401945 -0.6692823839 0.2335713366
N 8.1147269050 0.0957052034 -0.4089006856
O 8.5530494443 0.9764263755 -1.1541771038
C 6.6753605426 -0.0472330845 -0.2811436129
C 5.8387699769 0.7994523876 -1.0155110862
C 4.4707856155 0.6647392425 -0.8978694145
C 3.9262127660 -0.3173115484 -0.0436286983
C 4.7913303393 -1.1456975460 0.6950631228
C 6.1619410706 -1.0216755735 0.5762696903
N 2.5609408562 -0.5297570276 0.1655996095
N 1.8009319834 0.0966406015 -0.6500998525
C 0.4466463370 -0.0454015104 -0.4523081732
C -0.1641146091 -0.7719844662 0.5970823688
C -1.5288903893 -0.8412132560 0.7027570484
C -2.3833647328 -0.1966922526 -0.2446530100
C -1.7590449813 0.5408643245 -1.2897785855
C -0.3898499719 0.6059540031 -1.3821322567
N -3.7357470867 -0.2983689886 -0.1573754380
C -4.3755998078 -0.9962193536 0.9577462644
C -4.4259472420 -0.1509631551 2.2393357050
O -4.9738799348 -0.9068669746 3.3195494806
C -4.6143383168 0.3888158623 -1.1155634116
C -4.8172458030 1.8719324434 -0.8083887188
H 6.2679767212 1.5524558249 -1.6647085099
H 3.8101534601 1.3188233426 -1.4532190548
H 4.3617860575 -1.8903547130 1.3569381047
H 6.8307734319 -1.6623987700 1.1366224330
H 0.4555034922 -1.2748295551 1.3304874798
H -1.9509282071 -1.3988389216 1.5286689933
H -2.3528423365 1.0658009657 -2.0255143947
H 0.0726429810 1.1718553174 -2.1852792491
H -5.3942628161 -1.2535163567 0.6572675539
H -3.8545753637 -1.9389557093 1.1609339992
H -5.0877260431 0.7074997119 2.0963523947
H -3.4238014841 0.2283596341 2.4839685799
H -4.3350045560 -1.5914889941 3.5567899785
H -4.2100473412 0.2557156902 -2.1237388109
H -5.5759275711 -0.1297614716 -1.0949658736
H -5.3263811452 2.0086163714 0.1491507734
H -5.4352851636 2.3223342277 -1.5910434679
H -3.8640669706 2.4068193046 -0.7735155399
