22
CONF206
C 2.5017617398 -0.6822668656 0.0862869272
C 1.2635887083 0.2048347364 -0.0819692431
C -0.0312212960 -0.5365513689 0.2547727136
C -1.2922933365 0.2616103079 -0.0636754658
C -1.3645311541 1.5887101528 0.6828642401
O -2.6137822677 2.2464859566 0.4551467084
O -2.3990968427 -0.5773663229 0.3382739819
O -0.0537400217 -1.7739109627 -0.4766800022
O 1.2387047836 0.7746603503 -1.3932773375
O 2.6508054624 -1.6014524767 -1.0024025172
H 2.4538356718 -1.2058238554 1.0519854207
H 3.3965724306 -0.0529402631 0.0750273817
H 1.3558571365 1.0386437291 0.6250372848
H -0.0207849693 -0.7500781669 1.3370283257
H -1.3389715187 0.4418684992 -1.1446391709
H -1.2029962921 1.4195329364 1.7587389972
H -0.5891647571 2.2672055198 0.3152845165
H -3.3029195800 1.6764176336 0.8211989703
H -3.1025923874 -0.4837595430 -0.3145832075
H -0.9281840598 -2.1634733708 -0.3339672643
H 1.5188898501 0.0705790619 -1.9974225854
H 1.8602635043 -2.1629254870 -0.9930286744
