42
CONF1
C 0.6804004285 -0.1527806292 2.7216044068
C -0.0177488444 -1.2870655053 1.9765525725
C -1.3197279432 -1.7151608589 2.6986590277
C -2.3679916275 -0.8200966373 2.0890938532
C -1.9191944110 -0.3066865649 0.8714155154
C -0.5364042005 -0.8355134917 0.5722826095
N 0.2821988353 0.1341762057 -0.1293861436
C 1.4099798647 -0.1690474821 -0.8045103395
N 2.1102735759 0.8880593683 -1.2998055083
C 3.2077281517 0.5397922447 -1.9571112276
N 3.6575766008 -0.6962897880 -2.1823883731
C 2.8654731403 -1.6669144301 -1.6642238233
N 1.7439270128 -1.4594010873 -0.9520657079
N 3.2406305595 -2.9413004551 -1.8759084258
C 4.0332975518 1.6408172621 -2.5891593413
C 3.5239554962 1.9886674382 -3.9736461108
F 3.9766567927 2.7981645790 -1.7851775372
C -2.7131321261 0.5349382623 0.1060369691
C -3.9904082718 0.8872220733 0.5636914568
C -4.4346890120 0.3649512786 1.7836455885
C -3.6348793552 -0.4867321471 2.5489466104
C -4.8513713678 1.8323164599 -0.2306297643
H 0.0139470073 0.7105826876 2.8369310041
H 1.5799928446 0.1795056540 2.1946645460
H 0.9762526308 -0.4882520015 3.7201495474
H 0.6717526410 -2.1297293498 1.8678077131
H -1.5524411040 -2.7667621800 2.4827707041
H -1.2470287854 -1.6146274409 3.7866180266
H -0.6188735391 -1.7232239143 -0.0690522333
H 0.1309071570 1.1152423648 0.0564735176
H 2.7102794386 -3.6948006872 -1.4723555373
H 4.0974316774 -3.1349638992 -2.3657700549
H 5.0811883243 1.3248192829 -2.6180374557
H 2.4808162791 2.3133410105 -3.9195295375
H 4.1339866744 2.7872875824 -4.4035899227
H 3.5890816857 1.1093644276 -4.6206474661
H -2.3525947045 0.9251552112 -0.8432946343
H -5.4245556860 0.6339908792 2.1432810602
H -4.0028328165 -0.8759537069 3.4945525792
H -5.9090467029 1.7061848648 0.0149023072
H -4.5836284131 2.8742437720 -0.0176375299
H -4.7211839671 1.6764788454 -1.3054594486
