47
CONF3
C 4.0903543317 -2.6453949019 -3.3546254618
C 3.9897635716 -1.4083707516 -2.5540516127
C 2.9678314439 -0.8134276941 -1.8619172876
C 3.5687754133 0.3688166895 -1.3217758643
N 4.8331832184 0.4728416738 -1.6524948882
O 5.0962232867 -0.6505654265 -2.4497888417
C 2.9446085552 1.3761858908 -0.4457142116
C 2.5104228957 1.0032104139 0.8296457298
C 1.8309202557 1.8477654896 1.6856390022
C 1.5779633631 3.1453735724 1.2526350329
C 1.9943196471 3.5760067349 -0.0012000906
C 2.6666340838 2.6916858679 -0.8400247974
Cl 3.1192484312 3.2286410584 -2.4354195445
F 2.7445935138 -0.2652203245 1.2204347058
C 1.6012434726 -1.3473347772 -1.6988417158
O 1.3313964528 -2.5358173938 -1.8224734841
N 0.6490781909 -0.4062486363 -1.3957181614
C -0.6477354378 -0.7779312329 -0.9189080500
C -0.8438598976 -0.8569939521 0.6381848958
N -1.6831132722 0.3416548109 0.5447356890
C -1.6673994231 0.3857170541 -0.8514358428
O -2.2459824458 1.0869189984 -1.6381257692
C -2.8211543773 0.4275602276 1.4236487654
C -3.4118808430 -1.0300255021 1.5226458892
S -1.9220152837 -2.1587747073 1.3685624665
C -4.3678374965 -1.2550677208 0.3493393195
C -4.1112677463 -1.3248053930 2.8470325925
C -2.3861005215 0.9889502923 2.7673051748
O -1.2807073957 0.8923019202 3.2398614587
O -3.4142474970 1.6198441223 3.3839940303
H 4.4244978562 -2.4153396152 -4.3711353600
H 4.8224275688 -3.3247620408 -2.9060179154
H 3.1183486299 -3.1372132507 -3.3772495599
H 1.4947545911 1.4861050894 2.6500122071
H 1.0411261276 3.8292907890 1.9007159189
H 1.7904739971 4.5838445546 -0.3408145782
H 0.9340831322 0.5557040987 -1.2842190972
H -1.0174131409 -1.6631537072 -1.4421721547
H 0.0649171635 -0.7442323965 1.2340666496
H -3.5736884197 1.0908227890 0.9838873971
H -3.9008346470 -1.0103748486 -0.6081272934
H -5.2619136396 -0.6309823824 0.4680936699
H -4.6781906262 -2.3023631048 0.3145489346
H -3.4353924796 -1.2069804564 3.6978557376
H -4.9685143074 -0.6561722848 2.9759588195
H -4.4819343254 -2.3535661877 2.8497292838
H -3.0860064681 1.9218760646 4.2465174085
