45
CONF67
C 6.2069512862 -3.2295434497 0.6121161733
C 5.0513357136 -2.9377475425 1.2299745403
C 4.1745072471 -1.8203302306 0.9164165056
C 3.0162023125 -1.6200175498 1.6107618126
N 2.0902166527 -0.6686246478 1.2110932451
C 2.1190179662 0.1232607950 -0.0162014623
C 1.1570759238 1.1405542002 0.6741408200
C 1.1937901140 0.1622554242 1.8762543084
O 0.7281450796 0.1355442730 2.9894207619
N -0.0932598372 1.4674059543 0.0694484682
C -1.0441849266 0.5252935861 -0.1198888894
O -0.8746283704 -0.6498743001 0.2066084814
C -2.3424275999 0.9934434212 -0.7688610667
N -3.0048322037 -0.0247586476 -1.2180456635
O -4.1919114823 0.3101795262 -1.8368774552
C -4.8234746438 -0.8767384602 -2.3029004545
C -5.4662915398 -1.6490339194 -1.1675042460
O -5.5254374463 -1.2855763050 -0.0159591579
O -5.9828782413 -2.7983922889 -1.6340577352
C -2.7510533844 2.4032496811 -0.8390086112
C -4.0409301934 2.8625258406 -0.9238412992
S -4.0692432430 4.5977558326 -0.9099505234
C -2.3021762257 4.5919904115 -0.8126200325
N -1.7807648473 3.3943055916 -0.7839565104
N -1.5961719987 5.7449502236 -0.7177358447
S 3.8179093646 0.7070125790 -0.3421487658
C 4.5427194063 -0.9818008699 -0.2824910619
C 2.6201694559 -2.4286495028 2.8032467622
O 3.3528287365 -2.6978022248 3.7320402454
O 1.3404818736 -2.8315289624 2.7136669303
H 6.6271495694 -2.6301953266 -0.1884516548
H 6.7691351423 -4.1079473206 0.9103535248
H 4.7176538040 -3.6031770383 2.0196401157
H 1.7056550616 -0.4083586732 -0.8781070516
H 1.6777939397 2.0665452780 0.9379851585
H -0.3072244805 2.4285663201 -0.2064920058
H -5.6063434074 -0.5513910073 -2.9955896482
H -4.1190222422 -1.5185925168 -2.8431845918
H -6.4152875903 -3.2682491666 -0.8998865956
H -4.9629664176 2.3065172149 -0.9700996459
H -2.0315603802 6.5999208203 -1.0281814956
H -0.6052405617 5.6744436424 -0.9006893663
H 4.2901372664 -1.5167661179 -1.2059885040
H 5.6230536135 -0.8144518252 -0.2910206293
H 1.1153832370 -3.3161721397 3.5274328188
