47
CONF178
C 1.7439895403 2.3665265746 2.7368843791
C 0.5102248402 2.0043420056 1.9419100091
C -0.6697988306 2.9483769056 1.8991237465
C 0.2564116263 2.8479102038 0.6885428238
C -0.2577016361 2.2132778991 -0.5326665249
O -1.2679974951 1.5530812789 -0.6477156607
O 0.6023985365 2.4386707359 -1.5756067728
C 0.2803129231 1.6993254184 -2.7876043286
C 0.9616250135 2.4083696285 -3.8689055625
N 1.4875075439 2.9463138542 -4.7446580490
C 0.7364898775 0.2631734253 -2.6724825322
C -0.2149624787 -0.7526050114 -2.6075339551
C 0.1926214099 -2.0636194963 -2.4117929963
C 1.5531441066 -2.3406730003 -2.2887906644
C 2.5100980485 -1.3438973264 -2.3552956491
C 2.0947145225 -0.0316642804 -2.5493148371
F 1.9319356745 -3.6192483212 -2.0938539447
O -0.7338557302 -3.0815256705 -2.3900152967
C -0.9834263037 -3.6979286577 -1.1700074659
C -0.6080212768 -3.1397723127 0.0485982302
C -0.9308857957 -3.8151179469 1.2246068099
C -1.6197729659 -5.0241949607 1.1853657231
C -1.9906323169 -5.5630486064 -0.0467246552
C -1.6740531574 -4.9056238349 -1.2302555263
C -0.7006866138 4.2008864887 2.6569502794
C -1.7783011796 4.7119109169 3.2529461035
Cl -3.3549436295 3.9691969444 3.2293491656
Cl -1.7259933509 6.2119490248 4.1440849559
C 0.2123018705 0.5223891307 1.9252026332
H 1.5915525880 2.1175669034 3.7929045295
H 1.9990345485 3.4254910133 2.6628972434
H 2.5978439546 1.7868166400 2.3715457873
H -1.6254421626 2.4548838759 1.7525221275
H 0.9642523287 3.6542448202 0.5280396249
H -0.7988406228 1.7448209293 -2.9719404655
H -1.2752317174 -0.5371102312 -2.6850423821
H 3.5593273889 -1.6005502189 -2.2587978147
H 2.8345187764 0.7613379460 -2.5971284476
H -0.0794712379 -2.1932811983 0.0872701517
H -0.6405285552 -3.3821867712 2.1770024106
H -1.8672644419 -5.5427413769 2.1055345397
H -2.5280209761 -6.5052417291 -0.0903347253
H -1.9531160530 -5.3137201118 -2.1960740180
H 0.2172610149 4.7734797662 2.7494405230
H 1.0395358368 -0.0249705533 1.4586511467
H -0.7080421696 0.2890609298 1.3874068156
H 0.1098890495 0.1653184101 2.9553926124
