22
CONF44
C 2.4059311152 0.0283414877 0.0805493084
C 0.9172587290 -0.2853419144 0.2849725389
C 0.0160451887 0.6912752595 -0.4820486780
C -1.4887614744 0.3731036784 -0.5356364616
C -2.2291897609 0.2711600288 0.7963365267
O -1.9889434292 -0.9771814446 1.4515644718
O -1.7037018772 -0.8121030280 -1.3158359040
O 0.4818957656 0.7845414838 -1.8413104033
O 0.6012424398 -0.1242036371 1.6842593787
O 2.9120695116 -0.4255346500 -1.1732317919
H 2.9777953126 -0.4979290724 0.8537194758
H 2.5697298416 1.1094292719 0.2149302542
H 0.7236852690 -1.3196071442 -0.0408595537
H 0.1463060629 1.6869503055 -0.0376725552
H -1.9400242077 1.1982809945 -1.1025082667
H -1.9647747490 1.1235199775 1.4373092098
H -3.3040597616 0.3112884294 0.5942660331
H -1.0739978904 -0.9162413219 1.7850158689
H -1.6714363985 -1.5538729962 -0.6911465478
H 0.0736962827 0.0380465948 -2.3095073691
H 1.1728224813 -0.7191124901 2.1895913159
H 2.3664117342 0.0151901975 -1.8427567451
