45
CONF8
C -3.6099660727 -1.0883753139 2.9816430270
C -2.7043066951 -1.1583607600 1.7936531252
N -3.2427078914 -1.4221083047 0.6585652120
O -2.3001220485 -1.4492908008 -0.3857910272
C -2.9828533816 -1.6928985785 -1.6225219134
C -1.2450416535 -0.9546407957 2.0033087144
C -0.5160925294 0.0522978677 1.3413564128
C 0.8628572467 0.1193204497 1.5456244742
C 1.5223207958 -0.7472014819 2.4036334216
C 0.7943706196 -1.7321778336 3.0571011923
C -0.5782305898 -1.8371410408 2.8547572272
O 1.5938545225 1.1507533629 0.9622063349
C 2.1174252134 0.9193695348 -0.2761747637
N 1.9867388328 -0.2934731870 -0.7900793519
C 2.5106108442 -0.4483403753 -2.0118050234
C 3.1644691269 0.5730860961 -2.6913941967
C 3.2403236592 1.7864881944 -2.0113595681
N 2.7174400400 1.9819818817 -0.7953509629
O 3.8699346953 2.7972161156 -2.6269018056
C 3.9456500594 4.0625860794 -1.9309062452
O 2.4066476839 -1.6382143976 -2.6205901340
C 1.6958378083 -2.6842116639 -1.9179653273
C -1.1749341648 1.0361519353 0.4359994510
O -0.7376168467 1.4012121753 -0.6360780786
O -2.3175484889 1.4924587570 0.9748058794
C -3.0952388209 2.3753871996 0.1285150958
H -4.6432066435 -1.2847611785 2.6896038218
H -3.5418210058 -0.0932392693 3.4355769190
H -3.3072787676 -1.8134684274 3.7443626416
H -3.4886257251 -2.6646685727 -1.6041452351
H -3.7074258796 -0.8981830678 -1.8316619514
H -2.2026236276 -1.6936487986 -2.3865302742
H 2.5924855355 -0.6409901412 2.5438877021
H 1.2976786539 -2.4236458328 3.7245954120
H -1.1368390937 -2.6233254535 3.3512584887
H 3.5843115154 0.4370420628 -3.6787264161
H 4.4917244982 3.9518560405 -0.9908587380
H 2.9442001633 4.4526924154 -1.7333518084
H 4.4851486229 4.7226829207 -2.6095345004
H 2.1958763093 -2.9238691919 -0.9761082518
H 1.7204936853 -3.5401340466 -2.5918260562
H 0.6639965090 -2.3812675284 -1.7204994906
H -2.5204126096 3.2737825841 -0.1074759983
H -3.9811161211 2.6249365446 0.7107155929
H -3.3703890317 1.8571942321 -0.7935329320
