22
CONF310
C 2.1920690361 -1.0358410340 -0.3648062687
C 0.7665397952 -0.5060762812 -0.4072347809
C 0.5249484829 0.5306117841 0.7023799759
C -0.7159536250 1.4347926676 0.5208273839
C -2.0736783102 0.7391027558 0.5115588969
O -2.2975616435 -0.0971253010 -0.6403148770
O -0.5596917757 2.2988540973 -0.6112967467
O 0.4649326579 -0.1177225694 1.9739895936
O -0.0919664465 -1.6430680927 -0.2354372579
O 2.4230987626 -2.0016567275 -1.3930137503
H 2.3931422615 -1.4649808331 0.6282593427
H 2.8927170740 -0.2137267419 -0.5377892381
H 0.5970092577 -0.0522540029 -1.3957549064
H 1.3882580470 1.2090157944 0.7257139651
H -0.7269565244 2.0995876581 1.3942594771
H -2.1611056505 0.0879062523 1.3870473848
H -2.8591211360 1.5023221286 0.5686791163
H -2.4502884288 0.4673364497 -1.4090345630
H -0.4890163356 1.7584886220 -1.4089921596
H 0.0312899459 -0.9716469397 1.8162528370
H -0.9792694528 -1.3539893613 -0.5260624960
H 1.7306048073 -2.6699301241 -1.2992309286
