49
CONF91
C -3.8563067084 1.7424894652 2.0405667304
C -3.4774248249 0.3972773284 2.6224477825
C -2.0057936926 -0.0698221960 2.5989809130
C -3.0915576361 -0.7409806206 1.7261628401
C -3.4369251126 -2.1671479012 2.1108136929
C -3.0657556468 -0.5637840574 0.2228420659
C -0.9245139893 0.7274541592 2.0268689841
O -0.9429689647 1.4834017940 1.0770470782
O 0.2351143682 0.5051037488 2.7489147203
C 1.4012515182 1.1822922994 2.2298135525
C 2.3406106379 1.2542494843 3.3499420278
N 3.1098215078 1.3196734738 4.2088598256
C 2.0140109077 0.4403011474 1.0588449744
C 2.2980087234 -0.9212645990 1.1714635800
C 2.8504186320 -1.5916288037 0.0856358192
C 3.1276592860 -0.9204001790 -1.1023412915
C 2.8346088409 0.4387242753 -1.1964340747
C 2.2768752485 1.1266594210 -0.1212734167
O 3.1287846339 1.1898613812 -2.3138574873
C 3.1125056604 0.5744860327 -3.5598541513
C 4.1973832757 0.8015646760 -4.3979750685
C 4.1809385852 0.2676800474 -5.6848347395
C 3.0949995702 -0.4882116559 -6.1202355450
C 2.0145507640 -0.7037010665 -5.2651065235
C 2.0131974260 -0.1698097742 -3.9800368775
C -4.2127831189 0.1259502173 3.9214573449
H -3.3130605231 1.9962249156 1.1327019528
H -3.6688693114 2.5306336121 2.7780106781
H -4.9293348532 1.7432558005 1.8166775476
H -1.6990923537 -0.6483991201 3.4640173001
H -4.4651548187 -2.3936610700 1.8053819100
H -2.7707914702 -2.8618010951 1.5881987024
H -3.3477763122 -2.3569313752 3.1808283970
H -2.3558003659 -1.2703113429 -0.2211861482
H -2.7867306881 0.4382541209 -0.0959028205
H -4.0597261602 -0.7931989166 -0.1782112041
H 1.1420780742 2.2054544105 1.9339227092
H 2.0873474691 -1.4496424302 2.0956833932
H 3.0807414019 -2.6492240032 0.1638112960
H 3.5681109841 -1.4451118272 -1.9428757841
H 2.0470021795 2.1826922060 -0.2203434443
H 5.0363689150 1.3891344238 -4.0400847598
H 5.0250247616 0.4410353228 -6.3449337214
H 3.0878867436 -0.9054795361 -7.1217662548
H 1.1609850483 -1.2840557953 -5.6012478837
H 1.1730608639 -0.3258000225 -3.3109437326
H -5.2865574838 0.0229861405 3.7259923054
H -4.0749883248 0.9696653525 4.6059429603
H -3.8674340699 -0.7761380748 4.4272828579
