63
CONF405
C 6.6167702682 -1.7634181883 -4.5029713597
C 7.0257401984 -1.9871921114 -3.0503523209
N 5.9366670295 -1.6658946610 -2.1215951572
C 5.7872212369 -0.2860724986 -1.6588893241
C 4.3271212021 0.0447360815 -1.4690628613
N 3.7208996272 -0.9069350345 -0.5172550780
C 4.0658634399 -2.2333338007 -0.6118531172
O 3.6173969624 -3.1279597861 0.0946690864
C 5.0952651390 -2.6279510017 -1.7040963462
O 5.1214580560 -3.7982799876 -2.0786155147
C 2.6856705938 -0.3816970543 0.3269508516
O 2.3258474674 0.7841548334 0.1940244268
N 2.1768401365 -1.2194237736 1.2502072769
C 1.0553755532 -0.7753699304 2.0554313467
C 0.6069555178 -1.8690481849 3.0012630581
C 0.3108579334 -3.1480304820 2.5210053288
C -0.1280398519 -4.1373860908 3.3953883556
C -0.2854795434 -3.8556877497 4.7512137113
C -0.0004663232 -2.5797782525 5.2306599902
C 0.4456517099 -1.5899213475 4.3587905733
C -0.1362136540 -0.3897738231 1.1481787574
O -0.3901995105 -0.9867505952 0.1096999150
N -0.9065301767 0.6120896696 1.6433900787
C -2.0690992846 1.0692882110 0.9491460282
C -1.9822022750 2.3288446726 0.0281851813
N -3.0163751082 2.9580510989 0.8733170017
C -3.1118702492 1.8792819021 1.7437423412
O -3.7720050279 1.6997388256 2.7396021405
C -4.0652348177 3.7288533301 0.2285675180
C -3.6030297880 3.8945286151 -1.2671594714
S -2.6986250439 2.2961353844 -1.6523876507
C -2.6421141899 5.0815977023 -1.3562318138
C -4.7554365292 4.0631470127 -2.2490982882
C -5.4047166004 3.0045030769 0.3198591881
O -6.4134177873 3.8861564929 0.4266418859
O -5.5489789305 1.8050391079 0.2706481181
H 7.4604660034 -1.9861811565 -5.1627003479
H 6.3150143611 -0.7251336142 -4.6719402973
H 5.7831451789 -2.4183522994 -4.7711156819
H 7.3086354438 -3.0299145386 -2.8863836907
H 7.8778057271 -1.3530435152 -2.7831380263
H 6.1978563894 0.3799368323 -2.4229171271
H 6.3518424685 -0.1296660242 -0.7290855009
H 4.2217590315 1.0461285630 -1.0534753578
H 3.7915315947 0.0037007435 -2.4254405148
H 2.4590049818 -2.1944575376 1.2289501296
H 1.3526582960 0.1038930594 2.6387700514
H 0.4141445933 -3.3698826367 1.4627657015
H -0.3520306199 -5.1292108345 3.0155497275
H -0.6292166736 -4.6287408215 5.4311185414
H -0.1195499543 -2.3542898792 6.2857097196
H 0.6731326253 -0.5963127527 4.7344302423
H -2.5548328485 0.2371492755 0.4296018490
H -1.0153406641 2.8397512809 0.0575035337
H -4.1716294412 4.7284572468 0.6631878176
H -2.2321032870 5.1529093197 -2.3664419901
H -1.8143222224 4.9908191508 -0.6477575314
H -3.1859308297 6.0062750090 -1.1322243258
H -4.3583501420 4.1891516513 -3.2599574467
H -5.3268086956 4.9618867740 -1.9957828146
H -5.4298841639 3.2022819073 -2.2474944344
H -0.5782178985 1.1371761151 2.4415676629
H -7.2531831170 3.3939974856 0.4229860369
