45
CONF306
N 4.0550558804 0.3661775404 -2.5384646227
C 3.8075274608 -0.2884232331 -1.2425518693
C 3.3421933451 0.7328603630 -0.2085501847
C 3.1171163682 0.1076253381 1.1667173248
C 2.5709367728 1.0886736716 2.2079537023
C 1.2671118250 1.7753503033 1.8024896341
N 0.2673115751 0.7999668580 1.3521550972
C -1.0242580628 1.4028473301 1.0332180013
C -1.8583423521 0.4208004336 0.2255382927
O -1.1118430356 -0.0747880300 -0.8754746725
O -2.2703191885 -0.6459997693 1.0800783588
C -3.5048201720 -1.2348318384 0.5744507680
C -3.2414780766 -2.6756183299 0.1780310385
O -2.3475263148 -2.7980154426 -0.9274901628
C -3.9769539562 -0.3215272446 -0.5612529272
O -5.3906794398 -0.1625273490 -0.4795435715
C -3.1781174967 0.9667118194 -0.3268838181
O -3.0446889207 1.8058492170 -1.4585666411
C 2.7465008392 -1.3709797487 -1.4055372105
O 3.2621935666 -2.6159465271 -1.3698108789
O 1.5642842385 -1.1548798213 -1.5993154340
H 3.1773769576 0.7362764568 -2.8949610255
H 4.3726867825 -0.3190740202 -3.2181110099
H 4.7390907095 -0.7610578598 -0.9125579709
H 2.4124930871 1.1840201343 -0.5761717845
H 4.0957201839 1.5271519242 -0.1514867380
H 4.0634034194 -0.3099774739 1.5336314299
H 2.4189421869 -0.7335112983 1.0740052813
H 2.4150427565 0.5502674361 3.1519578067
H 3.3144396217 1.8691816103 2.4130013706
H 0.9042899243 2.3811755099 2.6520258151
H 1.4473792394 2.4738265503 0.9751786415
H 0.1350694296 0.1003306703 2.0776975485
H -0.8528975595 2.2859411738 0.4049851869
H -1.6033633382 1.7220983241 1.9148082822
H -0.1758013938 -0.0962725791 -0.5926801012
H -4.2438327291 -1.2151966867 1.3860789961
H -2.8531521202 -3.2121930565 1.0571480642
H -4.1896475969 -3.1423002129 -0.1151098024
H -1.6744694472 -2.1016018732 -0.8400156439
H -3.6937874279 -0.7422375736 -1.5365348787
H -5.6811737930 0.2809244984 -1.2865589273
H -3.6743571297 1.5545047633 0.4546759299
H -2.4447058836 1.3537530267 -2.0700853600
H 2.5400485716 -3.2494797896 -1.5281113401
