43
CONF78
C 4.2648130000 2.8226113811 -3.0731392524
O 2.9480444462 2.4428278139 -3.4910031240
C 2.3425494190 1.4271326702 -2.8133782600
C 2.9262914266 0.7540334939 -1.7420708016
C 2.1538833790 -0.2559239323 -1.1687252800
C 0.8611179276 -0.6023155704 -1.6244725870
C 0.3037749555 0.0892918138 -2.7051213146
C 1.0492772663 1.0967917411 -3.2854905283
N 0.3463506270 -1.6462255069 -0.8670501402
C 1.2860779492 -1.8933541842 0.0121965155
N 2.4003280736 -1.1074604578 -0.1142884531
S 1.2103096161 -3.1625334325 1.2929079824
O 2.6610671105 -3.3719274443 1.7216157647
C 0.4379730661 -2.0743279636 2.6320845154
C -0.9040863851 -1.5926754548 2.1921824404
N -1.8556109757 -2.5393813457 2.1653770152
C -3.0705429018 -2.2035470937 1.7280312036
C -3.4145997208 -0.9316367679 1.2759754756
C -4.7942287187 -0.6069767424 0.7913247806
C -2.4044878004 0.0343759956 1.3057371667
O -2.7151168723 1.3080496380 0.8926624192
C -2.2389163608 1.6121875284 -0.4368199805
C -1.1228911633 -0.2658268535 1.7833112252
C -0.0694311224 0.8006516104 1.8681597550
H 4.9645412112 1.9842987109 -3.1730033854
H 4.5645764803 3.6326134148 -3.7382995155
H 4.2597432644 3.1791374961 -2.0361843114
H 3.9127056003 0.9902222686 -1.3651676624
H -0.6858763935 -0.1580533116 -3.0745807460
H 0.6577141042 1.6620457136 -4.1246238579
H 3.2333841704 -1.1775774673 0.4532051719
H 0.3657015634 -2.7566484453 3.4837145471
H 1.1751235317 -1.2932774168 2.8241338738
H -3.8220171008 -2.9927056558 1.7262700935
H -4.7730760022 -0.2196306666 -0.2321501136
H -5.2552017182 0.1654403186 1.4155689380
H -5.4272065668 -1.4970036170 0.8142015966
H -2.5525600383 2.6356785168 -0.6477046929
H -1.1471435505 1.5389663478 -0.4927741873
H -2.6854809950 0.9260859709 -1.1661323263
H 0.6460109599 0.7324064974 1.0398507070
H -0.5287928218 1.7899056502 1.8294508476
H 0.4959067472 0.7242553202 2.7999457988
