45
CONF74
C 9.8048366065 -0.1388660719 3.6720004685
C 9.1507316289 -0.8283952026 2.7401206880
C 7.7333839509 -0.5317892074 2.4432778929
O 7.0556159588 0.3200245828 2.9738447119
O 7.2728448869 -1.3661044358 1.4704210947
C 5.8827076938 -1.1915615275 1.1120708854
C 5.7421464533 0.0151875715 0.1837366138
C 4.5198453890 0.0141714200 -0.7142052652
C 3.1692814751 0.2686052569 0.0185297466
C 1.8815391610 0.0492837354 -0.8490465122
C 0.6001208932 0.7143718382 -0.2298705111
C -0.7369053198 0.1368327617 -0.8187710346
C -1.9733815664 1.0704035564 -0.5614524346
C -3.3471123253 0.3287996646 -0.7343812733
C -4.5543048173 1.3128136296 -0.9300010168
C -5.9439246280 0.6417387093 -0.6568147517
C -7.1568842456 1.4321533939 -1.2486578162
F -7.0860389368 2.7246211441 -0.8997933686
F -8.2897411913 0.9125062966 -0.7574325734
F -7.1876526467 1.3373911209 -2.5816374828
F -5.9615355472 -0.5980079383 -1.1991777487
F -6.1288715358 0.5462620447 0.6764488049
F -4.4137810386 2.3559098407 -0.0811660171
F -4.5379187290 1.7719664515 -2.2015282681
F -3.2760102116 -0.4790379718 -1.8156731230
F -3.5766094555 -0.4198707630 0.3674392000
F -1.9021330172 1.5511031767 0.6996929707
F -1.9257304305 2.1010043003 -1.4349307207
F -0.5936437907 -0.0254979878 -2.1526940458
F -0.9771487236 -1.0643481501 -0.2461595898
F 0.6426841438 2.0432861877 -0.4765425938
F 0.6010045068 0.5098915605 1.1063706961
F 2.0760307383 0.5676662870 -2.0799207222
F 1.6633948010 -1.2825727861 -0.9595095170
F 3.1800605723 1.5432295337 0.4823183392
F 3.1017765681 -0.5761313480 1.0812185247
F 4.4093469012 -1.1784670803 -1.3807570773
F 4.6720001207 0.9953204675 -1.6520177062
H 9.3020601621 0.6506257876 4.2224504925
H 10.8436026368 -0.3472653574 3.9028209249
H 9.6182446963 -1.6251219205 2.1706573077
H 5.2928415547 -1.0755761591 2.0222808070
H 5.6103332225 -2.1161240197 0.6006657488
H 6.5920368075 0.0208833220 -0.5082919060
H 5.7633162687 0.9494708320 0.7510960074
