39
CONF378
C 9.0266702087 2.0991077083 -0.6243388215
C 8.2864093685 0.9196628077 0.0019332077
C 6.7676619310 1.0890695262 -0.0370664451
C 6.0269265857 -0.1084967156 0.5624968982
C 4.5166583776 0.1019839709 0.7560379914
C 3.8600255872 -1.0661928642 1.5122405653
C 3.7843456633 -2.3874677570 0.7470629068
C 3.8631386842 0.3622894339 -0.5997118953
O 2.4082974687 0.3291314691 -0.5367022575
C 1.8171649268 1.4260158117 -0.0230158337
O 2.3996391854 2.4212606197 0.3334391121
C 0.3384827965 1.2090039588 0.0911105082
C -0.0920951097 -0.0487313545 0.5056996128
C -1.4320237979 -0.3005860399 0.7461167472
C -2.3855480402 0.7032704037 0.5548626995
C -1.9653720362 1.9677952951 0.1048788109
C -0.6047285852 2.2216180736 -0.1236252316
Br -0.0535169587 3.9017610761 -0.8030144529
Br -3.2489466581 3.3259220034 -0.1959070310
Br -4.2101360843 0.3500742875 0.8909041254
Br -1.9003472821 -2.0438934207 1.3351426081
H 8.7851551428 3.0328397438 -0.1053618341
H 10.1110745602 1.9615044126 -0.5791485008
H 8.7484889768 2.2233871595 -1.6763867574
H 8.5601881462 -0.0079096082 -0.5182131244
H 8.6072205362 0.7926960525 1.0441692827
H 6.4874358760 2.0017932929 0.5073109575
H 6.4593112578 1.2462533312 -1.0791115203
H 6.4610762314 -0.3367541473 1.5449839135
H 6.2046905304 -0.9927001651 -0.0646610983
H 4.3828098750 1.0042078477 1.3661604286
H 2.8489022873 -0.7682017512 1.8153421213
H 4.4180700966 -1.2142141634 2.4449109653
H 3.1617635978 -2.2987221695 -0.1489073242
H 4.7737657490 -2.7375421595 0.4376118510
H 3.3436832815 -3.1675214849 1.3748271641
H 4.1113531558 -0.4260121339 -1.3160254104
H 4.1665834295 1.3314483380 -1.0032063390
H 0.6363691916 -0.8353566746 0.6516803539
