28
CONF4
C 4.1729095086 -0.7581718776 1.9602023679
C 3.0886651351 -1.5101164201 1.5164619063
C 2.2804650568 -1.0375654872 0.4832498766
C 2.5455418763 0.1935154775 -0.1145988897
C 3.6325897042 0.9459528812 0.3382220685
C 4.4430260421 0.4739407329 1.3660841305
C 1.7142996911 0.7331056883 -1.2644819538
N 0.4272730045 0.0861586389 -1.4519243160
C -0.6142890372 0.2718121824 -0.6046177146
N -0.5183421527 1.1962732489 0.3669628931
C -1.5702671296 1.3884073460 1.1840996033
N -2.7480281955 0.7701727966 1.1852746020
C -2.8502902123 -0.1596063242 0.2136935324
C -1.8225238973 -0.4417299785 -0.6971661019
N -2.3213861686 -1.4345133331 -1.5135241103
C -3.5836713607 -1.6986165698 -1.0713654314
N -3.9448764144 -0.9595344615 -0.0381433526
H 4.8004985582 -1.1259806833 2.7658808449
H 2.8670027998 -2.4686992685 1.9759470293
H 1.4345592928 -1.6304753925 0.1484165881
H 5.2826782192 1.0711215443 1.7087706907
H 1.5595277405 1.8071285756 -1.1202482449
H 2.2712904170 0.6117233856 -2.2004026380
H 0.3871447270 -0.6944525787 -2.0869667110
H -1.4259679221 2.1535458877 1.9470057560
H -1.8611938035 -1.8917904484 -2.2863995602
H -4.2003283585 -2.4501732715 -1.5486532860
H 3.8424566125 1.9112708960 -0.1162078668
