42
CONF109
C -6.9744135737 1.3017353950 2.5291389468
C -6.0717481976 1.8191438935 1.4109370860
C -4.8412294894 0.9660571012 1.2357630583
O -5.1775188624 -0.3375732506 0.7913143011
C -3.9452519430 -0.8483525948 0.2674342988
C -3.2750410592 0.3957310393 -0.3569874981
O -4.0019359077 1.5031504660 0.2022646660
C -1.8060263652 0.5263546316 0.0028936344
O -1.1629505124 -0.6276551261 -0.5552153197
C 0.1826101987 -0.7650732091 -0.3637386420
C 0.9742524243 0.1516117892 0.3335673594
C 2.3404395508 -0.0880729936 0.4714352552
C 2.9033649899 -1.2270090267 -0.0849748752
C 2.1211004369 -2.1426470772 -0.7805396039
C 0.7593173866 -1.9133333259 -0.9167923982
O 4.2560856468 -1.5038217649 0.1053935502
C 5.1772107965 -0.7919655070 -0.6339808648
C 4.8334852230 0.0209281219 -1.7133851056
C 5.8440733023 0.6797495605 -2.4125948962
C 7.1793163725 0.5334367148 -2.0471805982
C 7.5056900746 -0.2864557498 -0.9662242659
C 6.5118556446 -0.9491678740 -0.2562388129
H -7.3481649337 0.2994751075 2.3012373592
H -7.8352287779 1.9623638085 2.6627496737
H -6.4329230177 1.2557200601 3.4799304081
H -5.7352212370 2.8376905915 1.6338199273
H -6.6053268488 1.8475423391 0.4539568973
H -4.2564903468 0.8923676337 2.1725209861
H -3.3234858500 -1.2579076700 1.0772860410
H -4.1733118703 -1.6311412869 -0.4571970272
H -3.3991376567 0.4186788889 -1.4458046163
H -1.6882943410 0.5429084115 1.0959180013
H -1.3845520886 1.4456103196 -0.4235845238
H 0.5482344220 1.0438890245 0.7756020511
H 2.9667654662 0.6150628552 1.0115294230
H 2.5801949572 -3.0280045191 -1.2083063163
H 0.1289315554 -2.6159868806 -1.4519552812
H 3.7964935249 0.1386459577 -2.0067710802
H 5.5756292156 1.3115750694 -3.2538852564
H 7.9581985663 1.0509073795 -2.5972591785
H 8.5427749381 -0.4098854883 -0.6693842839
H 6.7522294032 -1.5882309218 0.5873076050
