57
CONF75
C -4.3802111270 1.5800881238 0.0501578595
Si -4.5586078715 -0.1159025183 -0.7249802508
C -6.2099652748 -0.2743146483 -1.5887758954
C -4.3640931295 -1.4459305929 0.5817055765
O -3.3897507563 -0.3036750484 -1.8941962311
Si -1.7772186341 -0.6364157231 -1.9083497342
C -1.5229786259 -2.4796207727 -2.0010680455
C -1.0199422010 0.2545583882 -3.3590952017
O -1.1316854965 -0.1109625010 -0.4822184957
Si -0.0819162258 0.9815474061 0.1656507155
C -0.3613405307 0.9683621878 2.0072962665
C -0.3265308050 2.6769368808 -0.5665295176
O 1.4625849525 0.5272184574 -0.1876292430
Si 2.4221999275 -0.8182656677 -0.1915753991
C 1.5992334911 -2.2007044592 0.7535855086
C 2.7785359165 -1.2905640895 -1.9559931249
O 3.8520416899 -0.4163490145 0.5176498521
Si 4.3501710128 0.4624446202 1.8397379596
C 4.0122236416 2.2808292063 1.5427072977
C 6.1860563794 0.1535717222 2.0208254094
C 3.4305133103 -0.1209479038 3.3654579173
H -5.1827268472 1.7648196502 0.7735041340
H -3.4235835606 1.6678504006 0.5769985865
H -4.4220713455 2.3668274882 -0.7114921566
H -6.3175695649 0.4852041667 -2.3711683039
H -6.3152431458 -1.2603552834 -2.0547603834
H -7.0337513958 -0.1461746774 -0.8776542601
H -4.4488377186 -2.4464864255 0.1429748455
H -5.1390687838 -1.3474413934 1.3505532735
H -3.3880142019 -1.3704174276 1.0744916380
H -1.9309020596 -2.9702512865 -1.1102990881
H -0.4572960603 -2.7263457816 -2.0654077735
H -2.0230684174 -2.8984549527 -2.8810282335
H 0.0716868142 0.1598041185 -3.3531692229
H -1.3907139527 -0.1657182717 -4.3005935288
H -1.2726135261 1.3198199133 -3.3416250888
H -1.3736862377 1.3150302698 2.2439843041
H 0.3501313728 1.6277801339 2.5161415139
H -0.2450910550 -0.0411411277 2.4161935207
H -1.3666290529 3.0048753920 -0.4654601840
H 0.3105300520 3.4052651640 -0.0520155248
H -0.0633673737 2.6903308610 -1.6291464710
H 2.2301964645 -3.0964112455 0.7531173039
H 0.6370553772 -2.4610138472 0.2987209773
H 1.4176582984 -1.9143847831 1.7949111409
H 3.4723031275 -2.1367472426 -2.0048485536
H 3.2243970024 -0.4499541844 -2.4989641238
H 1.8557176953 -1.5775401269 -2.4721180192
H 2.9365906644 2.4666129125 1.4502217590
H 4.4971483707 2.6258164219 0.6226409566
H 4.3928517050 2.8853624984 2.3740410732
H 6.3907143631 -0.9108608025 2.1806301896
H 6.7271046563 0.4738422029 1.1234818564
H 6.5901474722 0.7080897061 2.8751736585
H 2.3543354528 0.0644575853 3.2738194448
H 3.5786163289 -1.1942678868 3.5291774954
H 3.7877309253 0.4102735959 4.2552956118
