44
CONF7
C -1.4625790331 -0.6291256907 -2.1557021562
C -0.9856664256 -0.8606534707 -0.7266513068
C -1.9407306028 -0.4024922449 0.3837326487
O -1.6048011990 -0.3205774513 1.5488937608
O -3.1755546237 -0.1955756218 -0.0761931659
C -4.2147471461 0.1731514948 0.9059991902
C -5.2537866762 0.9479352863 0.1238703135
C -4.7582532607 -1.0907650661 1.5434398610
N 0.3444824427 -0.2756846753 -0.4722266783
C 1.3954991090 -1.1361799956 -0.0440726160
C 2.0017769912 -0.9480573214 1.1982783669
C 3.0317695994 -1.7872239946 1.6030993017
C 3.4255340071 -2.8247219188 0.7761691227
C 2.8069844012 -3.0378164070 -0.4521918224
C 1.7938480456 -2.1868820587 -0.8712016339
Cl 3.3257433235 -4.3612991950 -1.4637234715
F 4.4153325150 -3.6461835789 1.1738167158
C 0.4207536862 1.0932432024 -0.4001085260
O -0.5995474131 1.7868062304 -0.4337561507
C 1.7717307768 1.7246519167 -0.3336808465
C 1.9504182652 2.8144026493 0.5222103294
C 3.1783014107 3.4648476200 0.5736843196
C 4.2229114646 3.0501327288 -0.2509825349
C 4.0371612660 1.9819816890 -1.1271877253
C 2.8186784011 1.3126643546 -1.1636020830
H -0.7059994587 -1.0039118682 -2.8500585370
H -2.3928345321 -1.1728475832 -2.3304564076
H -1.6330335954 0.4309198274 -2.3499482521
H -0.8781188422 -1.9395392239 -0.5613100635
H -3.7369039090 0.8102684054 1.6560121822
H -6.0475898162 1.2734497907 0.8023147326
H -5.6987754888 0.3185666735 -0.6532046308
H -4.8119072130 1.8324231516 -0.3428251018
H -3.9704972181 -1.6411130142 2.0639320181
H -5.2054811733 -1.7373141502 0.7817148809
H -5.5322987611 -0.8251722526 2.2697620939
H 1.6689548073 -0.1464632955 1.8476330465
H 3.5212105138 -1.6583909654 2.5623129956
H 1.3312241961 -2.3339101186 -1.8409233615
H 1.1276720611 3.1367109330 1.1523733103
H 3.3200339751 4.2983219912 1.2543370129
H 5.1790945082 3.5626860310 -0.2154676022
H 4.8432865334 1.6683387919 -1.7827684133
H 2.6767051672 0.4803990615 -1.8453431108
