38
CONF28
C 2.7746338580 -2.8769374773 0.2281326214
C 1.3817229831 -2.2767117350 0.4181366303
C 1.3592837117 -0.8250292508 0.8414643330
C 0.2976555031 0.0270706993 0.4800000750
C 0.2081787795 1.3470483452 0.9512414495
C 1.2486331434 1.8297698081 1.7480779971
C 2.3264992892 1.0211612791 2.0825298784
C 2.3731821087 -0.2962440160 1.6433940639
C -0.9619437635 2.2486221956 0.6394385070
C -0.8609067142 2.9832146047 -0.7038043877
N -0.7395830784 -0.4849769316 -0.3780393831
C -1.7991507258 -1.3016601914 0.2360646645
O -2.8949338061 -0.5574229472 0.7171668910
C -3.7602680624 -0.0817178113 -0.3195987857
C -0.6715728111 -0.4132510311 -1.7483714177
O -1.5267200760 -0.8857035647 -2.4865344643
C 0.5451038156 0.2881123251 -2.3447663328
Cl 1.7304215131 -0.9755967848 -2.9074457468
H 2.6897854630 -3.8845414071 -0.1885705680
H 3.3676866545 -2.2712765152 -0.4636644680
H 3.3231524978 -2.9585030459 1.1705957918
H 0.8403929486 -2.8629231063 1.1749876213
H 0.8148211729 -2.3930560176 -0.5092214594
H 1.1990391904 2.8504377228 2.1170226891
H 3.1267073311 1.4123826273 2.7031574238
H 3.2106617635 -0.9225029730 1.9297030817
H -1.8873762533 1.6687984020 0.6731347868
H -1.0252384879 2.9931240355 1.4400749818
H 0.1026528879 3.4933473663 -0.8043253450
H -0.9764387610 2.3005055144 -1.5505472631
H -1.6541987936 3.7327089475 -0.7831981550
H -1.3693290527 -1.7938378625 1.1119235508
H -2.1208121444 -2.0395159910 -0.5099888741
H -3.2468980644 0.6291678819 -0.9796580148
H -4.1378352406 -0.9146745772 -0.9265002286
H -4.5922147407 0.4200576158 0.1788217331
H 0.2267072462 0.8365318189 -3.2314878033
H 1.0784995085 0.9340217086 -1.6493458569
