47
CONF40
C -4.9155205798 -0.7007004500 -0.7572216461
Si -3.6167500953 -0.1195352841 0.4626667668
C -2.9650058118 -1.5775987278 1.4484344703
C -4.3251032110 1.1806684875 1.6054823625
O -2.3795892745 0.5914956019 -0.3784246058
Si -0.9833064948 0.1492835709 -1.1243465431
C -1.3198772262 -1.1681852506 -2.4006141651
C -0.2410361010 1.6907374703 -1.8656397994
O 0.0442055467 -0.5095752882 -0.0180746684
Si 0.9581670854 -0.0044694713 1.2566163011
C 0.0308084895 1.2527008887 2.2746219806
C 1.4046776912 -1.5285403914 2.2343383940
O 2.3146527072 0.7334354181 0.6947813014
Si 3.6335199717 0.3652347556 -0.2373934283
C 4.9721981884 -0.3380526416 0.8702388510
C 4.2079764404 1.9585759517 -1.0309623078
C 3.1575521263 -0.8912211905 -1.5469449167
H -4.5144906538 -1.4678270809 -1.4286651389
H -5.7821333482 -1.1289154912 -0.2414495628
H -5.2702756605 0.1316144064 -1.3745747286
H -2.4850534611 -2.3187645920 0.8000435386
H -2.2215405949 -1.2577073120 2.1861208697
H -3.7772082032 -2.0788762572 1.9868569605
H -4.6884316574 2.0429215330 1.0363543954
H -3.5657384791 1.5406665876 2.3078231694
H -5.1637506038 0.7848546867 2.1885370105
H -1.7147317403 -2.0736225268 -1.9269425498
H -0.4029045751 -1.4469422562 -2.9304757475
H -2.0509120843 -0.8261961726 -3.1405384325
H 0.6902057411 1.4673756682 -2.3963732442
H -0.0116725913 2.4268317306 -1.0877155938
H -0.9332747398 2.1564806141 -2.5746570528
H 0.6659638297 1.6467711968 3.0748148978
H -0.8623402357 0.8170148754 2.7339025047
H -0.2920584839 2.0961576927 1.6551117114
H 0.5094842442 -2.0083383135 2.6440200650
H 1.9083425205 -2.2633447442 1.5966847033
H 2.0735842102 -1.2872121438 3.0669600335
H 5.2325110607 0.3694190315 1.6648356311
H 4.6431422973 -1.2685759760 1.3456084774
H 5.8839711049 -0.5569114226 0.3036098848
H 5.0953684164 1.7979154669 -1.6527947957
H 3.4239423190 2.3849394942 -1.6658879424
H 4.4617248775 2.7032628903 -0.2690843474
H 2.7602752642 -1.8073114120 -1.0964965281
H 2.3866498952 -0.4935848577 -2.2154346495
H 4.0237820746 -1.1663493739 -2.1591412912
