49
CONF27
C -3.3813442683 -0.5209035906 -2.2112705834
C -2.5705476721 -1.7992319889 -2.2549522300
C -1.5276323978 -2.0881253293 -1.1595515409
C -1.1113092261 -1.7605041899 -2.6078660678
C -0.4821839251 -2.9048211762 -3.3789324045
C -0.4344892652 -0.4418688717 -2.9177571986
C -1.2712435856 -1.1716240947 -0.0442234194
O -1.3244686025 0.0396440135 -0.0305556297
O -0.9358325953 -1.9046178393 1.0740179220
C -0.5882828070 -1.1105930651 2.2400705674
C -0.9952554121 -1.8983481297 3.4011581842
N -1.3016604421 -2.5029932976 4.3359667656
C 0.8904155815 -0.7906359896 2.2494620797
C 1.8221313946 -1.7606871411 2.6183843895
C 3.1783024943 -1.4636283259 2.5539538021
C 3.6091633189 -0.2087150413 2.1396647211
C 2.6685206810 0.7523164862 1.7794347635
C 1.3054511140 0.4691973891 1.8247882769
O 3.1582157080 1.9520880836 1.3153034255
C 2.4174967174 3.1058982224 1.5150767848
C 1.8845359147 3.4224706953 2.7619186298
C 1.2125048970 4.6291683709 2.9209294708
C 1.0819770777 5.5133594748 1.8526322348
C 1.6298958467 5.1851780915 0.6162294531
C 2.2975210915 3.9773482836 0.4396307661
C -3.4227764670 -2.9838335956 -2.6685835395
H -4.2498352870 -0.6550685579 -1.5575507884
H -3.7533416116 -0.2952969081 -3.2173341194
H -2.8217813481 0.3360413972 -1.8435517264
H -1.4291813784 -3.1322440324 -0.8812206432
H -0.6526919380 -2.7724985384 -4.4537421222
H 0.5998100893 -2.9143363133 -3.2111746145
H -0.8701011768 -3.8830324803 -3.0926349269
H -0.8005598390 0.3862777536 -2.3149178029
H -0.5827816351 -0.1993990646 -3.9763608674
H 0.6433654896 -0.5281537948 -2.7430815574
H -1.1704446076 -0.1819067321 2.2206736483
H 1.4859100454 -2.7347156313 2.9585378155
H 3.9097846414 -2.2114185223 2.8418887591
H 4.6629981168 0.0421295121 2.0909295696
H 0.5786241092 1.2107538455 1.5132177130
H 1.9987523802 2.7321862551 3.5909658332
H 0.7965532152 4.8825306791 3.8908185467
H 0.5580892421 6.4537201207 1.9851977650
H 1.5334521372 5.8690004919 -0.2208823147
H 2.7283900211 3.7002220571 -0.5160951126
H -4.3070109838 -3.0463242541 -2.0257869877
H -2.8984389078 -3.9378103107 -2.6022402975
H -3.7686663323 -2.8561946016 -3.7009164110
