33
CONF2
C -4.8819214249 2.2876991034 -0.8362527166
C -3.8604836653 1.7808858676 0.1828298081
C -4.4016177188 0.5860313905 0.9550910607
S -3.2154814555 -0.0886978967 2.2001491748
C -1.8820070352 -0.6556364021 1.1463462138
C -2.1198604395 -1.6374961149 0.1648880119
C -1.0993067319 -2.1110865974 -0.6513321397
C 0.1872182063 -1.6079262343 -0.4554268938
C 0.4107046713 -0.6374057292 0.5481661424
C -0.6022458480 -0.1339214002 1.3521266947
N 1.7631250114 -0.3559626394 0.4800276563
C 2.2687679710 -1.1393098291 -0.5192132478
N 1.3725510957 -1.9061265258 -1.1107950707
N 3.5970682878 -1.1355088744 -0.8862359031
C 4.5796103023 -0.3661332335 -0.3096490470
O 4.4052356845 0.4181671985 0.6084662323
O 5.7552672403 -0.6101191724 -0.9096456844
C 6.8788315276 0.1429875452 -0.3854020579
H -5.1295792536 1.5070841374 -1.5635447656
H -4.4896962728 3.1490163691 -1.3853463697
H -5.8098489679 2.5950842817 -0.3420503327
H -3.5984548880 2.5790421385 0.8869463624
H -2.9360241686 1.4897765772 -0.3301742744
H -4.6948329193 -0.2229590594 0.2775512357
H -5.2838944634 0.8632377019 1.5435771744
H -3.1227517312 -2.0342320616 0.0452204584
H -1.2952831436 -2.8624447370 -1.4096957621
H -0.4175722466 0.6315160040 2.0978424868
H 2.3042456434 0.2899858605 1.0374526381
H 3.8501776850 -1.7567296504 -1.6430739850
H 7.0326639337 -0.0976696725 0.6687381383
H 6.7022129547 1.2139428250 -0.5062179793
H 7.7331836619 -0.1750908790 -0.9806420311
