45
CONF13
C -1.9125302095 2.2585626817 1.0116134393
O -2.4960909699 1.2064322589 0.2050667648
C -1.8356952134 0.9541674103 -0.9400046440
O -0.8386884840 1.5520599156 -1.3204829046
N -2.4136163008 -0.0584109699 -1.6550330252
C -1.8253770128 -0.7217241231 -2.7618882850
C -2.6332265897 -0.9135424176 -3.8870274169
C -2.1487727063 -1.5899660488 -4.9970965494
C -0.8448151300 -2.0795249007 -4.9937478253
C -0.0494089381 -1.9056078536 -3.8679911781
C -0.5165300929 -1.2419695480 -2.7287156979
C 0.4240499622 -1.0896618177 -1.5700639888
O -0.2617983131 -1.4506612626 -0.3445536426
C 0.2472400388 -0.9501641522 0.7960053825
N 1.3630958589 -0.2313217077 0.8510907421
N 1.4966767109 0.0746247186 2.1760193405
C 0.4818229892 -0.4492325615 2.9228131262
C -0.3504851721 -1.1279536031 2.0656128067
C 2.5685605030 0.8796439256 2.6089192037
C 3.2408489468 1.6921304509 1.6924168926
C 4.2948814755 2.4914896397 2.1165317414
C 4.6619307942 2.4785667746 3.4564136388
C 4.0030985267 1.6748704921 4.3790919997
C 2.9586439320 0.8655467675 3.9505744238
Cl 5.9939573052 3.4950580317 3.9957259430
O -3.6868476318 -0.5035497245 -1.2797258815
C -3.5938212901 -1.7042692931 -0.4771211288
H -2.5482391557 2.3229900158 1.8938737616
H -0.8903455930 1.9938084845 1.2951228014
H -1.9170541083 3.2046853436 0.4653847030
H -3.6436504810 -0.5200075242 -3.8780536725
H -2.7858133840 -1.7255965287 -5.8650176164
H -0.4535192290 -2.6077405392 -5.8569446165
H 0.9583724749 -2.3106600906 -3.8544359247
H 0.7739088353 -0.0562066293 -1.4911276523
H 1.2884516154 -1.7499980869 -1.6976499412
H 0.4072299451 -0.2810468223 3.9863835235
H -1.2583110437 -1.6583126041 2.3055395371
H 2.9365207069 1.7036892146 0.6535125008
H 4.8162305121 3.1240680692 1.4071428085
H 4.3073782121 1.6630006670 5.4193443616
H 2.4676189218 0.2169340490 4.6666653022
H -4.6302730357 -1.9899144877 -0.2874146614
H -3.0800623333 -2.4982150362 -1.0300211460
H -3.0755457483 -1.4962097890 0.4632522413
