47
CONF99
C -6.5928295481 -3.2238270627 2.0244101436
O -6.1931069681 -2.2093052695 1.0596736466
P -4.6325468928 -1.8892726949 0.8936450015
S -3.6118300425 -1.3855696973 2.4592476313
O -3.9765250982 -3.1611081902 0.1675670960
C -4.5807201535 -3.6856841570 -1.0538260187
O -4.8387535766 -0.7597484269 -0.2563611056
C -3.8164863569 0.1184348798 -0.6163894630
C -2.5926521915 -0.3525307696 -1.0829092623
C -1.6263541134 0.5615557132 -1.4809434814
C -1.8793891278 1.9332528849 -1.3927348178
C -3.1123610474 2.3876206325 -0.9231351598
C -4.0906221695 1.4756518745 -0.5386952365
S -0.6751915310 3.1314932146 -1.9515423316
C 0.8024478154 2.6433949716 -1.0687082197
C 0.7580032577 2.1182085459 0.2257364661
C 1.9381841290 1.7976177982 0.8842103346
C 3.1528235666 2.0297780949 0.2528626108
C 3.2175861345 2.5692690113 -1.0239255936
C 2.0332871329 2.8658531043 -1.6910647809
O 4.3285979597 1.7503855096 0.9584863088
P 5.2364773731 0.4537728236 0.6054629868
S 4.2676013818 -1.1614550977 0.1323702715
O 6.1848726227 0.3967476256 1.8912520672
C 5.7024849774 -0.2064907792 3.1244251085
O 6.2244217294 1.0699598052 -0.4892807587
C 7.1482030720 0.2050794269 -1.2088506924
H -6.1265633238 -4.1838036348 1.7841480515
H -7.6757849197 -3.3003281954 1.9349279098
H -6.3155478355 -2.9078154961 3.0333744334
H -3.9731823905 -4.5458095258 -1.3328844630
H -5.6114765623 -3.9953751676 -0.8640283048
H -4.5495304170 -2.9291085262 -1.8424480979
H -2.4000432438 -1.4179815181 -1.1491036208
H -0.6735454829 0.2047736904 -1.8578342122
H -3.3075032803 3.4519607490 -0.8456989812
H -5.0518291403 1.8104622395 -0.1645608305
H -0.1933578387 1.9518047552 0.7193349105
H 1.9224049479 1.3783252852 1.8844922668
H 4.1785967578 2.7409789321 -1.4962865891
H 2.0710700231 3.2680067013 -2.6984110267
H 4.8340796047 0.3439268573 3.4968780627
H 5.4452556802 -1.2546115453 2.9523621441
H 6.5283675774 -0.1285071270 3.8307483990
H 7.8602076639 -0.2457460199 -0.5124946255
H 6.5943052771 -0.5695336805 -1.7450565153
H 7.6684535043 0.8552976402 -1.9113956817
