37
CONF4
C 3.7998561202 -2.1136937045 2.1518069076
C 4.0101028169 -0.8557558688 1.3364703161
C 4.0108108792 0.4109565590 2.1705916994
O 2.8741475195 -0.8028136580 0.3958753516
C 3.0403606925 -0.1035987341 -0.7358483618
O 4.0788635500 0.4256268438 -1.0790378519
C 1.7609264985 -0.0371148600 -1.5007030705
C 1.6984845989 -0.0251243942 -2.9007000359
C 0.4842921237 0.0989903633 -3.5629947057
C -0.6702750276 0.2236046386 -2.8118630649
C -0.6727621718 0.2211535502 -1.4162081655
C 0.5642815088 0.0798027164 -0.7893376065
C -1.9054686222 0.3491319231 -0.6377228081
N -2.8063081117 1.3059576498 -0.9070877569
N -3.7940583175 1.1540092526 -0.0243920405
C -3.5619089451 0.1217265238 0.8313404390
C -2.3425725245 -0.4268892496 0.4556621710
Br -1.4791320103 -1.9452941615 1.1525381339
C -4.5383998443 -0.2511035745 1.8932897252
F -4.9188043913 0.8273796811 2.6230823356
F -4.0282744175 -1.1546275975 2.7456745298
F -5.6755228245 -0.7822804814 1.3716877188
C -4.9160069754 2.0909702752 -0.0284612439
F -1.8359374564 0.3221562387 -3.4744230161
Cl 3.1222777433 -0.2376437129 -3.8915222576
H 3.7773766553 -2.9974043364 1.5086181707
H 4.6228678461 -2.2226767112 2.8636973516
H 2.8615545000 -2.0554190291 2.7123848119
H 4.9232886938 -0.9270904410 0.7381538948
H 4.8451513364 0.3774305470 2.8775899148
H 3.0780775909 0.4908215186 2.7379422296
H 4.1266336867 1.2982793229 1.5431058601
H 0.4251195335 0.0818541332 -4.6447020393
H 0.6075221608 0.0942123317 0.2928254057
H -4.7897453380 2.8364242678 0.7609719064
H -5.8520012165 1.5491365650 0.1180282049
H -4.9248182626 2.5789052162 -1.0026380571
