37
CONF12
C 3.8123425814 0.1500951429 -1.1490048364
C 3.7015210399 -0.4626051352 0.2470466521
C 2.3251736075 -1.0661078839 0.5485149514
C 1.2140619134 -0.0187028903 0.5161734679
C -0.1776853950 -0.5156346765 0.9927981902
C -0.7130505373 -1.7173382747 0.1328195017
N -0.9839198982 -1.3571672094 -1.2392728913
C -2.1608081178 -0.9950783085 -1.8055185160
N -1.9810931562 -0.6692086511 -3.0727165186
C -0.6402064683 -0.8446324345 -3.2362526352
N 0.0113806755 -1.2589816269 -2.1568017960
C -0.0279090420 -1.0639502313 2.3433486930
N 0.0889045377 -1.5298173030 3.3945729972
C -1.2179289062 0.6080168098 0.9957595824
C -2.1500132914 0.7304408101 2.0281576144
C -3.1344361342 1.7117146414 1.9969655942
C -3.1901886153 2.5778004449 0.9129190074
Cl -4.4258675914 3.8167579098 0.8615185030
C -2.2798781025 2.4768896045 -0.1313066542
C -1.2993127970 1.4932614291 -0.0831310967
H 3.1715648611 1.0303370473 -1.2604130702
H 3.5179165873 -0.5734908161 -1.9168605248
H 4.8387320988 0.4666350456 -1.3565784938
H 4.4533033264 -1.2531329426 0.3546906975
H 3.9405976680 0.2936759793 1.0062135911
H 2.3541237621 -1.5481361056 1.5335004904
H 2.1166877419 -1.8448835842 -0.1952840879
H 1.1035122426 0.3525218920 -0.5036960324
H 1.4830974216 0.8350389222 1.1502344239
H 0.0139442141 -2.5326807299 0.1457694376
H -1.6469163938 -2.0727477142 0.5771573403
H -3.0952913749 -0.9871289220 -1.2597667648
H -0.1279405436 -0.6741350631 -4.1740190365
H -2.1055632276 0.0607826092 2.8813428344
H -3.8468967128 1.8039266945 2.8082097691
H -2.3377534565 3.1541371931 -0.9751061586
H -0.6042053218 1.4235290312 -0.9119849294
