48
CONF121
C -0.6977932608 -1.7763005400 -1.2611373305
O -1.2734595523 -1.2828609368 -0.0360891886
N -2.2722614581 -0.3781820859 -0.3287278174
C -2.7708487694 0.1610897059 0.7345881798
C -2.3254462834 -0.1143836980 2.1207030316
C -3.2046348384 -0.6641988932 3.0594757022
C -2.7838115124 -0.9201120324 4.3583232507
C -1.4822320019 -0.6046491377 4.7452754620
C -0.5952852530 -0.0477835475 3.8302643373
C -1.0234654179 0.1720591134 2.5297135962
O -0.1950491555 0.8162054232 1.6052316084
C 0.9117240789 0.1915106112 1.1510937440
C 1.5986452850 0.8229479505 0.1199775959
C 2.7354692264 0.1936517483 -0.3679896518
N 3.1640555452 -0.9611354781 0.1303399429
C 2.4340498244 -1.4815726240 1.1183472354
N 1.3297361385 -0.9651501472 1.6559155647
O 3.4022102401 0.8122917833 -1.3707943441
C 4.4754818341 0.1353047335 -1.9488614341
C 5.7645402978 0.5305385868 -1.6263486939
C 6.8461456924 -0.0774134395 -2.2559883220
C 6.6307960001 -1.0755025348 -3.2025912545
C 5.3363563431 -1.4695888294 -3.5299969348
C 4.2582717223 -0.8574936137 -2.9019594169
Cl 2.6229639937 -1.3284937570 -3.3050702303
F 1.1667461697 1.9843744862 -0.3968282720
C -3.8716139844 1.1110608242 0.5107202549
N -4.2158231841 1.8508206098 1.5175345382
O -5.2851889448 2.7316673335 1.3433911174
C -6.1284711156 2.4394973589 0.2087924714
C -5.2634312718 2.2328881563 -1.0044352493
O -4.3779929170 1.1156837515 -0.7385940903
H -0.2749292390 -0.9505703782 -1.8419637800
H 0.0947830548 -2.4582324298 -0.9471783849
H -1.4489928319 -2.3117207077 -1.8498040376
H -4.2221657830 -0.8894500813 2.7576023013
H -3.4749971953 -1.3538879461 5.0730819553
H -1.1553895572 -0.7854534289 5.7639930361
H 0.4163188255 0.2168508490 4.1158616851
H 2.7776476215 -2.4292646709 1.5286779035
H 5.9023890622 1.3091166737 -0.8834524482
H 7.8553465028 0.2299718208 -2.0044210474
H 7.4707330315 -1.5526507098 -3.6959985402
H 5.1595897074 -2.2426519060 -4.2694227603
H -6.7213907779 1.5400962994 0.4194934083
H -6.7841342692 3.3055584152 0.0979023588
H -5.8472124852 1.9551392433 -1.8831632596
H -4.6579792227 3.1203781714 -1.2167584967
