44
CONF8
C -5.3130275318 -0.4186960931 1.1977932124
C -3.8175424398 -0.1961249672 1.2620615876
C -3.0337696371 -1.3196629499 1.9698231512
O -2.4709760635 -2.0818915672 0.8863419331
C -2.1831037037 -1.1168100177 -0.1069246878
O -3.2857439293 -0.2264834020 -0.0930892848
C -2.1788791306 -1.8389891897 -1.4630282286
N -1.8541578325 -0.9270468711 -2.5444460678
C -2.6627182320 -0.0550951699 -3.1799528830
N -1.9639184843 0.6733642353 -4.0424789819
C -0.6971810793 0.1956560320 -3.8807803767
N -0.5786558065 -0.7731566450 -2.9821854585
C -0.8808634223 -0.3585144267 0.1704809948
C -0.8792483627 1.0384893452 0.1168980291
C 0.2740072211 1.7882330418 0.2972125185
C 1.4726950763 1.1299912885 0.5439057768
C 1.5187356254 -0.2593500667 0.6197439517
C 0.3471778670 -0.9780214263 0.4241038673
Cl 0.5023002385 -2.7324945330 0.5017483158
O 2.5840910180 1.9091023238 0.7756344716
C 3.8279673727 1.4395225961 0.3836339249
C 4.8791657702 1.6006984484 1.2780807987
C 6.1636064989 1.2186150591 0.9035338697
C 6.3632793967 0.6750040604 -0.3593006148
C 5.3156303086 0.5131653611 -1.2595727396
C 4.0353826528 0.9042344016 -0.8850690364
Cl 7.9852259130 0.1805968802 -0.8348014724
H -5.7862321990 0.3363057704 0.5637014047
H -5.7416383370 -0.3431849820 2.2020020607
H -5.5309066131 -1.4121783014 0.7930322572
H -3.5837143119 0.7789205385 1.7065866992
H -2.2340113523 -0.9171425651 2.6041270962
H -3.6728770251 -1.9872207119 2.5505852664
H -1.4444598500 -2.6450081667 -1.4614203953
H -3.1775051413 -2.2507284533 -1.6284581599
H -3.7262203109 0.0024019912 -2.9894709535
H 0.1555053560 0.5612214611 -4.4391363664
H -1.8153101628 1.5432959154 -0.0910667861
H 0.2535305086 2.8709924865 0.2437482930
H 2.4492204140 -0.7743959932 0.8265946211
H 4.6920500836 2.0236091898 2.2591089688
H 6.9925130790 1.3379326533 1.5917138035
H 5.4926917395 0.0965017459 -2.2444870302
H 3.2078838240 0.7943418748 -1.5780497630
