78
CONF439
C -1.4538416915 -1.5807891762 0.1570754664
C -1.2527189129 -2.9888257795 0.7010921468
O -2.4840413582 -3.2436190365 1.4620229828
C -3.0802398176 -2.0723379441 1.8118962903
O -4.0755068715 -2.0568242016 2.4986611072
C -2.2628459419 -0.9280421671 1.2682726196
C -2.9455108597 0.3602702151 0.8008345649
C -4.1528281494 0.1131877622 -0.0981641249
C -5.4166932199 -0.0072289501 0.4825493402
C -6.5232419572 -0.2693394252 -0.3220722053
O -7.8101402056 -0.4088949653 0.1207938453
C -8.0340592482 -0.3351095787 1.5356720069
C -6.3858174223 -0.4057642156 -1.7084365713
O -7.4640434331 -0.6550902433 -2.5105976628
C -5.1202656646 -0.2673582184 -2.2883020208
O -5.0822664487 -0.3981122484 -3.6466292418
C -3.8054666872 -0.2460810523 -4.2800606639
C -4.0105212175 -0.0061301795 -1.4824447839
C -1.9023328241 1.2209282082 0.0949554481
C -2.2490123907 2.5686903426 -0.1299496079
C -1.3891272814 3.3416491335 -0.8703234571
C -0.2168736560 2.8229534804 -1.4090076467
O 0.4461785545 3.7917941442 -2.1140868909
C -0.3638406409 4.9848472262 -2.0180066803
O -1.5186478912 4.6598239878 -1.2097214689
C 0.1461166232 1.5151559525 -1.2103752345
C -0.7057431849 0.7032364801 -0.4264044906
C -0.2508706939 -0.7180347383 -0.1564055130
O 0.6122588203 -0.8115544988 1.0201454253
C 1.7413668489 -0.0088499020 1.0356274368
O 2.6323144179 -0.4642596879 0.0044451031
C 3.8014988794 0.3474737201 -0.0398035605
C 4.6769094604 -0.0879369204 -1.2004305964
O 5.8933380737 0.6847219136 -1.1621883275
C 6.5914635841 0.6027142937 0.0678969142
O 5.7816755672 0.9663454795 1.1838006363
C 4.5917412554 0.1675138596 1.2547190480
C 3.7444442414 0.6048583526 2.4317357468
O 4.3855468085 0.4325413114 3.6960074825
C 2.4118859712 -0.1592617219 2.4000714164
O 1.5200894922 0.3499610863 3.3853527117
C 7.2362090890 -0.7476923792 0.2586599285
C 7.6038711755 -1.6599840552 -0.6936308138
C 8.2881746646 -2.7846064918 -0.1556048674
C 8.4461719430 -2.7124788042 1.2008456527
S 7.7508652741 -1.2598959210 1.8427701940
H -2.0691155657 -1.6400830506 -0.7487377649
H -0.4104765409 -3.0581623600 1.3945349575
H -1.1833579713 -3.7621692856 -0.0646020392
H -1.5704077097 -0.6681214907 2.0850061663
H -3.3017675475 0.9037286789 1.6833970931
H -5.5250677481 0.0944125519 1.5545740189
H -9.1023726065 -0.5011377950 1.6747241212
H -7.7587835888 0.6526453533 1.9221568859
H -7.4650403175 -1.1114806803 2.0596260373
H -8.2454384767 -0.7162360877 -1.9407418631
H -3.0971446612 -1.0051465874 -3.9272102953
H -3.9882027915 -0.3824256279 -5.3463261137
H -3.3939457814 0.7544928534 -4.1013257480
H -3.0360137489 0.1340455604 -1.9323715486
H -3.1812696646 2.9708267322 0.2538234511
H -0.6965494357 5.2783931346 -3.0191435061
H 0.2117781930 5.7742325713 -1.5239062034
H 1.0588128057 1.1099652462 -1.6362119104
H 0.3064153355 -1.0997590664 -1.0195339148
H 1.4953339848 1.0521543297 0.8534816584
H 3.5308624201 1.4102403233 -0.1576396172
H 4.2107213899 0.1286400642 -2.1642312076
H 4.8862508291 -1.1638537770 -1.1281678943
H 7.3544638305 1.3865821164 0.0123903632
H 4.8541029049 -0.8985386206 1.3627401874
H 3.5399109496 1.6803799683 2.3509136899
H 4.6516027586 -0.4952534875 3.7745130588
H 2.6093583065 -1.2324109429 2.5644325938
H 2.0173863372 0.3934986663 4.2144587028
H 7.3874393297 -1.5259045084 -1.7469834604
H 8.6468495507 -3.6157384940 -0.7515942535
H 8.9180423465 -3.4249087480 1.8646971692
