63
CONF117
C 3.7065974527 0.4552278922 0.6619719946
C 2.8930431265 -0.4026989339 -0.3022932553
N 1.4887572395 0.0272988962 -0.3376493544
C 1.4116901610 1.4137210154 -0.8182277605
C 2.1552239410 2.3600438829 0.1198743144
C 3.6140616637 1.9227897131 0.2448983930
N 4.3857980283 2.8026968736 1.1220517908
C 4.1974698362 3.0537907135 2.4791462101
C 3.2792130648 2.5779333704 3.4074768534
C 3.3761775305 3.0512469330 4.7195272253
C 4.3583281378 3.9701628139 5.0939280352
C 5.2850990677 4.4505266213 4.1653940274
C 5.1878151184 3.9808305235 2.8661982052
N 5.9380834461 4.2570583869 1.7383588486
C 5.4664323622 3.5465386974 0.6506778094
O 5.9077787779 3.5664712707 -0.4972092889
C 0.7085789305 -0.8802232304 -1.1909264703
C -0.8004208150 -0.6796060435 -1.0771190728
C -1.5626983257 -1.7633267075 -1.8379572966
C -3.0837906432 -1.5425258249 -1.8013701355
C -3.8643901912 -2.4710055680 -2.7171179798
C -5.1328315258 -2.0717314120 -3.1546479828
C -5.9142657432 -2.8897054833 -3.9631351078
C -5.4027055056 -4.1242228939 -4.3281395511
C -4.1557544681 -4.5622287668 -3.9233492175
C -3.3900668397 -3.7235361045 -3.1132838235
F -6.1570870907 -4.9341827112 -5.1203723001
C -3.6207102972 -1.6283251993 -0.3809021043
C -3.6140819170 -2.8440375310 0.3103730796
C -4.0800140612 -2.9317026683 1.6182111327
C -4.5578723373 -1.7791494623 2.2209538350
C -4.5878004837 -0.5566008884 1.5758417161
C -4.1128535718 -0.4936896231 0.2662517976
F -5.0192472782 -1.8562292209 3.4993277493
H 4.7532567642 0.1318105825 0.6527158044
H 3.3210968480 0.3187957841 1.6782191786
H 2.9295468304 -1.4498133540 0.0184289725
H 3.3501542996 -0.3515927529 -1.3125351936
H 1.8343456491 1.4982127565 -1.8412584307
H 0.3631947781 1.7193257545 -0.8733069602
H 1.6667656299 2.3510516761 1.1001121083
H 2.1060378525 3.3820005521 -0.2717966968
H 4.0874856219 2.0272336096 -0.7391218429
H 2.5105604186 1.8642133220 3.1398832852
H 2.6682831048 2.6922246878 5.4593789839
H 4.4057344969 4.3181122424 6.1205538202
H 6.0528484170 5.1639208502 4.4456034255
H 6.7247755298 4.8846299909 1.6828955079
H 0.9456656959 -1.9058260399 -0.8791271348
H 1.0151316567 -0.7911536980 -2.2532284116
H -1.0832153668 -0.6953035559 -0.0170760286
H -1.0944431841 0.3000283463 -1.4726865179
H -1.2377542590 -1.7769464942 -2.8865477289
H -1.3172255008 -2.7448230931 -1.4131290025
H -3.2742963052 -0.5197182432 -2.1503064978
H -5.5175877257 -1.1002240151 -2.8551666193
H -6.8953842008 -2.5806548965 -4.3075704268
H -3.7905716505 -5.5349397993 -4.2352005888
H -2.4101086120 -4.0649733706 -2.7977314671
H -3.2434720572 -3.7411670346 -0.1776573380
H -4.0787015244 -3.8709400721 2.1610871245
H -4.9716943641 0.3213214960 2.0843249718
H -4.1239822412 0.4586229155 -0.2565176871
