34
CONF1
C 3.9607923813 -0.1352931682 0.7031263217
C 2.6036117327 0.3061479036 1.1592970244
C 1.4859502119 0.1986219829 0.3198434332
N 1.6605053134 -0.2483868610 -1.0026569826
C 0.9196772960 -1.1575738195 -1.7003642773
O 1.3277325197 -1.6011788168 -2.7760135457
C -0.3910696159 -1.5957861120 -1.1519913223
C -1.2886091013 -0.7549735025 -0.4626383467
N -2.5516890329 -1.1146480378 -0.2124469062
C -2.9535711648 -2.3371262678 -0.5751905414
C -2.1260829103 -3.2658712291 -1.1943719782
C -0.8354671568 -2.8687520784 -1.5079045911
N -0.9070114035 0.5369046662 -0.0492358629
C -1.9725819709 1.4795847927 0.2160353018
C -1.7059833736 2.9000992364 -0.1779671477
C -2.6615602271 2.0535513753 -0.9838218382
C 0.2373818309 0.6315867484 0.7883199292
N 0.0660624615 1.1646317607 1.9955389948
C 1.1383888476 1.2916991339 2.7874432041
C 2.4056719120 0.8687391884 2.4205015498
H 3.9297114827 -1.1527119235 0.2991631593
H 4.6699099528 -0.1051173038 1.5316992950
H 4.3439790469 0.5187562788 -0.0902522636
H 2.5548490423 -0.0444954663 -1.4327615331
H -3.9905524623 -2.5835973703 -0.3537551147
H -2.4938771790 -4.2527000593 -1.4501208214
H -0.1633955847 -3.5232758400 -2.0524203399
H -2.5708803640 1.3065903738 1.1060255185
H -2.1132493211 3.6773050836 0.4595744968
H -0.7386791713 3.1171013865 -0.6198966436
H -3.7251234938 2.2493088433 -0.9000829099
H -2.3238740617 1.7115202360 -1.9568432959
H 0.9687734773 1.7511495215 3.7590339641
H 3.2402590962 0.9781899209 3.1051341807
