47
CONF137
C -3.6882829450 0.6120124864 2.6948898939
O -3.2032490071 1.1940117670 1.4585340330
C -1.9707043906 1.6931711574 1.5064344461
C -1.3842704180 2.2501821844 0.4201789903
C -2.0605589983 2.3019148986 -0.8945659039
C -2.4050828565 3.5157330586 -1.4986594649
C -3.0582723910 3.5526144876 -2.7261912166
C -3.3826853904 2.3658669468 -3.3797082926
C -3.0462812841 1.1440252647 -2.8047800768
C -2.3909129758 1.1291810493 -1.5830262082
O -2.1499009717 -0.1219447951 -1.0042899720
C -0.8735751578 -0.4920697943 -0.7510334262
C -0.6867406508 -1.5410324880 0.1406686390
C 0.6375539210 -1.8910428712 0.3512523465
N 1.6705680791 -1.2922962591 -0.2372045954
C 1.3501453238 -0.3089359753 -1.0823437665
N 0.1273964589 0.1265233328 -1.3807265356
O 0.8745893538 -2.8990932743 1.2384899160
C 2.1756503643 -3.3625595048 1.3820038031
C 2.8701505297 -3.0712751945 2.5412448683
C 4.1409683506 -3.6117153035 2.7244521437
C 4.7099150360 -4.4362002058 1.7553206894
C 4.0102360866 -4.7329738161 0.5944129138
C 2.7293473631 -4.1973258149 0.4003585608
C 1.9868776922 -4.4919831535 -0.7725918236
N 1.3759545981 -4.7269883470 -1.7285867879
C -0.0231888809 2.7697371888 0.6129466963
O 0.6255452429 2.6910116832 1.6471925590
O 0.4576397221 3.3524607155 -0.5062384871
C 1.8119531970 3.8503160432 -0.4150271963
H -3.6920592057 1.3670550848 3.4860776466
H -3.0602241881 -0.2374666110 2.9775961299
H -4.7039578608 0.2771112860 2.4886785833
H -1.4453474496 1.6446506576 2.4592835046
H -2.1597848872 4.4394427344 -0.9843615102
H -3.3194854803 4.5082315202 -3.1689189411
H -3.8947145950 2.3871588432 -4.3361699407
H -3.2810527853 0.2041141029 -3.2931114614
H -1.5101131833 -2.0349878612 0.6404502645
H 2.1799244788 0.1893240265 -1.5819318853
H 2.4148764583 -2.4270955883 3.2853103647
H 4.6893971527 -3.3839041092 3.6322970158
H 5.6998422864 -4.8519930751 1.9058578484
H 4.4365747578 -5.3766774166 -0.1666678556
H 1.8837057616 4.6227386763 0.3546592458
H 2.0317192363 4.2676790962 -1.3971333479
H 2.4999142218 3.0332930607 -0.1825239834
