85
CONF243
C 3.9104646153 0.2658627359 -4.4058966100
C 4.8497865753 1.0240025573 -3.4687815878
C 4.5472531097 0.7914881824 -1.9964684689
C 5.4871880767 1.5225265246 -1.0344117357
C 4.9786015361 1.3309601489 0.3983882397
C 3.5235123945 1.7659541827 0.5235582828
C 2.6476648748 1.0526677795 -0.5107499964
O 3.1761407004 1.2345452668 -1.8043142564
C 1.2185887526 1.6033705025 -0.5695000519
C 0.4163537309 1.1844809121 0.6503038176
C 0.4592652393 -0.3206034605 0.8019288374
C 1.9039953793 -0.7895516230 0.8810450755
O 2.6221186819 -0.3743389770 -0.2916112650
C 1.9946651856 -2.3142420546 0.9729384699
C 1.4908821786 -2.7808012026 2.3059164321
C 0.5532536014 -3.6974000247 2.5859191015
C -0.1858815193 -4.5340128328 1.5740892765
C -1.6923883025 -4.1717367325 1.4085655506
C -1.8918146187 -3.1368974516 0.3488524617
C -2.5090803794 -1.9502329331 0.4885310301
C -2.7051094949 -1.0764163375 -0.6492287248
C -3.2912934346 0.1312320586 -0.7284763838
C -3.4470355888 0.8887865343 -2.0051168623
O -4.7725421430 1.4613684707 -1.9386177938
C -5.1875569591 1.5431798395 -0.5623259803
C -4.0515821226 0.9268676335 0.3119543377
C -3.2040199976 2.0590849106 1.0032779749
C -3.1580718593 3.3402839083 0.2120237855
C -4.2545692013 3.8303449407 -0.3689793478
C -5.5156963672 3.0099338262 -0.2803933146
O -6.0779077764 3.1754040561 1.0354902901
C -4.3062413965 5.1253106959 -1.1121431302
C -1.8308734233 1.5676380803 1.4112474846
O -1.5600236127 1.1607837667 2.5248395504
O -0.9508061447 1.6524571626 0.4013192942
O -4.5681392371 0.1506828330 1.3873694892
C -2.4909706061 -5.4317401367 1.0318439827
C 0.2044945082 -4.0068360570 4.0189310692
C 6.9310483269 1.0376698549 -1.1634607396
H 3.9309695225 -0.8078796458 -4.1876069650
H 2.8785245583 0.6105882797 -4.3009592642
H 4.2103059499 0.4031242868 -5.4493487034
H 5.8802060892 0.7045756555 -3.6551550240
H 4.8067877679 2.1023581935 -3.6721126710
H 4.5954865580 -0.2882560926 -1.7833666175
H 5.4407169345 2.5952287212 -1.2776527656
H 5.0789922576 0.2725627821 0.6762020264
H 5.6013100277 1.9060529505 1.0933114311
H 3.4378225303 2.8417778337 0.3284208976
H 3.1468853916 1.5953320304 1.5364862818
H 0.7394557178 1.1887282537 -1.4640649564
H 1.2519728202 2.6928848937 -0.6640825045
H 0.7712047602 1.6803131840 1.5610872125
H -0.0119299858 -0.7838640893 -0.0722990787
H -0.0811274233 -0.6471387189 1.6919350633
H 2.3855422641 -0.3629456449 1.7757290519
H 1.4418783633 -2.7589106960 0.1391426255
H 3.0528998437 -2.5889584435 0.8578909516
H 1.9602265733 -2.2807457280 3.1555249279
H -0.1317781709 -5.5771670357 1.9139778639
H 0.2941395289 -4.5002474762 0.5908433593
H -2.0796268875 -3.7852735772 2.3588355496
H -1.5303099818 -3.4178248478 -0.6443237640
H -2.8618585424 -1.6355103787 1.4674033804
H -2.3083857265 -1.4684463761 -1.5876794776
H -2.7053135473 1.7004109774 -2.0876070827
H -3.3807993572 0.2539768137 -2.8934443374
H -6.0886980888 0.9275627176 -0.4196509649
H -3.7366303118 2.2439988267 1.9419911261
H -2.2196561725 3.8868518571 0.1792574909
H -6.2357251524 3.3462607675 -1.0398732318
H -6.9435286944 2.7444287007 1.0402605129
H -3.3431440268 5.6412782651 -1.0876533357
H -5.0707427079 5.7842266426 -0.6816753155
H -4.5902173279 4.9559378937 -2.1583486922
H -5.0158757233 -0.6176073824 1.0058976566
H -2.4014186862 -6.1884552579 1.8183256757
H -3.5503795604 -5.1971311299 0.8907728547
H -2.1080052990 -5.8612552713 0.0987914819
H -0.8703117058 -3.8907915155 4.2025421456
H 0.7417092820 -3.3576632700 4.7149999788
H 0.4491149906 -5.0503328484 4.2553614518
H 7.5494872475 1.4871620831 -0.3794878911
H 7.3724626215 1.3005149059 -2.1284539344
H 6.9836877364 -0.0518077210 -1.0480017136
