119
CONF222
C -12.4856016211 1.5758828176 1.2983791328
C -11.4342388272 0.8402407288 0.4619799973
C -11.4966756140 -0.6708454267 0.6933534361
C -9.9980632821 1.3688660602 0.6833054304
C -9.8615777527 2.8263672730 0.1991428142
O -10.0758562563 3.7619792561 0.9655715700
N -9.5163320258 3.0255160972 -1.0955395341
C -9.5027152130 4.3987429415 -1.6402696246
C -9.2148028910 4.1753137415 -3.1107172368
C -7.9156098186 4.6342809444 -3.7132254133
C -9.2185475861 5.2948744739 -4.1000310713
C -9.7451524968 2.7902081804 -3.4151831469
C -9.3193868589 2.0184426355 -2.1552584058
C -7.8871152445 1.5629876385 -2.2719161122
N -7.3529681115 1.0974028361 -3.3886357960
C -6.0742605935 0.7418269817 -3.0584577916
C -5.8198281088 0.9941607077 -1.7217052258
N -7.0004722135 1.5306514488 -1.2385760302
C -4.6239427980 0.8034908955 -0.9236415108
C -3.6143967995 -0.0653868530 -1.3885244326
C -2.4797272272 -0.2301371210 -0.6318964077
C -2.2965343309 0.4183391261 0.5999059125
C -3.2871760599 1.2716221385 1.0680556877
C -4.4345864336 1.4633421652 0.3031535154
C -1.0090772117 0.0070548844 1.1673103436
C -0.3892575472 -0.8917885808 0.2865019445
C -1.2807014601 -1.1048576547 -0.9141990954
F -1.6309776232 -2.4291803252 -1.0697349959
F -0.6514250114 -0.7552734943 -2.0910952377
C 0.8332079964 -1.4626700338 0.5581029344
C 1.4868033178 -1.1354755455 1.7607506518
C 0.8652293860 -0.2347821667 2.6397412311
C -0.3720888399 0.3385383305 2.3572202046
C 2.7974474087 -1.7283283975 2.0870662417
C 3.7575231460 -1.8941288742 1.0839719938
C 4.9695470237 -2.4632538031 1.4481609076
C 5.2559314390 -2.8735061830 2.7727075374
C 4.2910802475 -2.7087824049 3.7662773514
C 3.0799523408 -2.1378233565 3.4110381970
N 6.5372919146 -3.3925564974 2.8490632037
C 7.0098630695 -3.2978407082 1.6262380161
N 6.1139325129 -2.7531006439 0.7379629530
C 8.3715505386 -3.7320275556 1.1735999223
C 9.2521755820 -4.2987431827 2.2979116358
C 10.5170658928 -4.9082681055 1.6512655300
C 11.3326930833 -3.6576162543 1.1914838671
C 10.3994828940 -2.5022805348 1.5990097593
C 9.8103254095 -3.0060651454 2.9201188522
N 9.2025907156 -2.5744219244 0.7243859541
C 9.0450432835 -2.0427257822 -0.5042843152
O 8.1155471618 -2.3753246018 -1.2539289703
C 10.0155427479 -0.9336843614 -0.9099251543
C 9.6265420039 0.4011263439 -0.2127047105
C 10.6592737686 1.4784469688 -0.5408947859
C 8.2142221255 0.8520629798 -0.5830688280
N 10.0040078612 -0.8269278353 -2.3545132594
C 11.1692861528 -0.8645512860 -3.0609440095
O 12.2894106848 -0.7825580086 -2.5917512623
O 10.9024132027 -0.9819213764 -4.3913643705
C 12.0731678101 -0.9863157848 -5.2275878620
N -9.6283919301 1.2866547988 2.0872060913
C -8.3652601202 1.6630392725 2.4291751877
O -7.4352266022 1.7908245838 1.6424845034
O -8.2475064841 1.8377542313 3.7614215735
C -6.9275448762 2.2132309994 4.2029191858
H -12.3907192768 2.6615544352 1.2140839752
H -13.4867417395 1.2864472431 0.9656947071
H -12.4206891779 1.3050656741 2.3589423019
H -11.6620188617 1.0350892956 -0.5948367677
H -11.2454812527 -0.9176187911 1.7296086069
H -12.5047570312 -1.0460125131 0.4920351046
H -10.7980078240 -1.2047194726 0.0411777353
H -9.3107672543 0.7206523759 0.1282907683
H -10.4839256955 4.8622108299 -1.4706730085
H -8.7502227671 5.0130828279 -1.1348995316
H -7.2346461917 5.1939148010 -3.0797695431
H -7.4384521503 3.9786831111 -4.4338333161
H -9.6170163819 5.0928047977 -5.0892266754
H -9.4083498568 6.2978331094 -3.7299688056
H -10.8404674517 2.8004523196 -3.4809896983
H -9.3267864795 2.3461201681 -4.3191558612
H -9.9688166390 1.1513491176 -1.9845836561
H -5.3888742147 0.3543395926 -3.7990589354
H -7.1980637724 1.7521554198 -0.2630541788
H -3.7402022410 -0.6081974240 -2.3192851904
H -3.1762258281 1.7941782374 2.0132117966
H -5.1984019898 2.1371186145 0.6731559212
H 1.2733588295 -2.1806569294 -0.1266702083
H 1.3809351048 0.0412096215 3.5540449719
H -0.8197887078 1.0383691004 3.0558845173
H 3.5655344194 -1.5571633144 0.0706094528
H 4.4873058580 -3.0308504556 4.7832151847
H 2.3037640866 -2.0308738162 4.1616509545
H 6.3394626257 -2.5707107040 -0.2329232156
H 8.2624088339 -4.4325446318 0.3348967714
H 8.7020424182 -4.9585150022 2.9672019062
H 11.0736001024 -5.4914839366 2.3900882229
H 10.2718685396 -5.5767018659 0.8209930285
H 12.2875884711 -3.5779268647 1.7202982223
H 11.5425544864 -3.6504488276 0.1184274913
H 10.8447484044 -1.5075914404 1.6080688305
H 10.5849523470 -3.1963716229 3.6677575211
H 9.0369775961 -2.3559107250 3.3333612379
H 11.0388250496 -1.1895648945 -0.6128595339
H 9.6505324880 0.2087669139 0.8686259158
H 11.6712593749 1.1637083657 -0.2689009100
H 10.6569638213 1.6980627203 -1.6132459544
H 10.4253464563 2.4039641970 -0.0057751989
H 8.1328201968 1.0222286886 -1.6617667846
H 7.9763782516 1.7931635548 -0.0784181910
H 7.4585455874 0.1150540174 -0.2943545047
H 9.1574143036 -1.1303675336 -2.8167349254
H 12.7248656902 -1.8270634141 -4.9749521540
H 11.6988934656 -1.0851324198 -6.2467752736
H 12.6317880005 -0.0535033938 -5.1125651659
H -10.3373870588 1.5552708741 2.7539741978
H -7.0052594520 2.3116800373 5.2853294876
H -6.2018511977 1.4398526425 3.9374203781
H -6.6319364558 3.1635406887 3.7508577234
