55
CONF5
C -0.9314570493 -0.5008924683 1.0053904485
C -1.6613647952 -1.5426157055 1.8594915176
C -3.1668351846 -1.2619234648 1.6039411157
C -3.2335229599 -0.1658077769 0.5171203517
O -3.3316832659 1.0873287115 1.2103270475
C -4.4298828712 -0.3249903115 -0.4124218858
O -4.8328295324 -1.4108460191 -0.7910462696
C -5.1377893411 0.9282837139 -0.8908587938
O -6.1184955408 0.6352595639 -1.8494443573
C -1.8500465261 -0.3157233486 -0.2227598030
C -1.8832151782 -1.5570904107 -1.1269107113
C -1.3617289963 0.8975594517 -1.0158953209
C 0.1152571448 0.7279878800 -1.4115351386
C 1.0309451282 0.4553197237 -0.2051749783
C 0.5299860916 -0.7378199767 0.6385566713
C 1.3927378161 -0.8953729005 1.8883181359
C 2.8675105737 -1.0616764945 1.5163240922
C 3.3585518010 0.0538549138 0.6423941572
C 4.4894009268 0.7174401658 0.9562330360
C 5.1365072538 1.6980221005 0.0821700445
O 6.1587872833 2.2820405696 0.4108913568
C 4.4962219832 1.8855464842 -1.2757642323
C 2.9829328836 1.7079805749 -1.2064656610
C 2.5424189280 0.3556145898 -0.6062078387
C 2.7880792088 -0.7750998827 -1.6302794681
H -0.9658653981 0.4520926658 1.5541066076
H -1.3939902112 -2.5569802676 1.5414352948
H -1.4075346294 -1.4586667939 2.9190589062
H -3.6795281060 -0.8892216598 2.4937357035
H -3.6960636967 -2.1523976341 1.2602994974
H -3.0719409543 1.7989409494 0.6131844432
H -4.3879671816 1.6245477247 -1.3069520922
H -5.5701197351 1.4267942509 -0.0082797836
H -6.1495122073 -0.3356233820 -1.8999169259
H -0.8803598577 -1.8339692066 -1.4567084612
H -2.3203338853 -2.4215181843 -0.6247920814
H -2.4845853998 -1.3684243961 -2.0208396654
H -1.9652827222 1.0540876180 -1.9194909074
H -1.4343844800 1.8096730407 -0.4055219168
H 0.4383219544 1.6368583768 -1.9275332976
H 0.2002614327 -0.0871805782 -2.1377788281
H 0.9611159689 1.3345779401 0.4582957947
H 0.6086555904 -1.6646862590 0.0523512451
H 1.0620061173 -1.7593193592 2.4753524573
H 1.2724227161 -0.0076444763 2.5252613297
H 2.9818998777 -2.0089672839 0.9683435737
H 3.4949738090 -1.1365412757 2.4094844348
H 5.0243295619 0.4877935745 1.8751382380
H 4.9464198298 1.1445126780 -1.9508826235
H 4.7722554299 2.8711366911 -1.6604065113
H 2.5568808544 1.8250283417 -2.2079027143
H 2.5677978534 2.5132119095 -0.5850288894
H 3.8599931275 -0.9212829334 -1.7908577086
H 2.3354070059 -0.5292674283 -2.5949219452
H 2.3742407545 -1.7299449772 -1.2964926783
