60
CONF44
C -2.2021052363 -3.0658119488 2.2510791368
C -2.7559342762 -2.9429317948 0.8754036025
C -2.2632417661 -2.2034503360 -0.1991705775
N -3.1709707380 -2.3276823709 -1.2203910185
N -4.1891264729 -3.1306005397 -0.8749200725
C -3.9641243992 -3.4910747051 0.3959352769
C -4.9299011463 -4.3428188747 1.1452384004
C -2.9885756983 -1.9896461729 -2.6256897883
C -1.0949412446 -1.3549146791 -0.2632324760
C 0.1590022820 -1.7297530518 0.1094110165
C 0.3949993523 -3.1042280933 0.3718666942
N 0.6504740510 -4.2163167689 0.5830075712
C 1.3221264442 -0.8233531816 0.2122353367
C 1.2156255678 0.4214897717 0.8347694258
C 2.3170873328 1.2664472794 0.9217201742
C 3.5618352403 0.8994995049 0.4008974415
C 3.6600931308 -0.3625829581 -0.2038394657
C 2.5686020849 -1.2127051367 -0.2934450929
C 4.7921993164 1.8038075974 0.4735669202
C 5.2839937039 2.0999685796 -0.9569126320
C 4.4956124974 3.1372554800 1.1689650177
C 5.9059647881 1.0827405296 1.2573742318
O -1.2557659665 -0.0846991033 -0.7974536678
C -2.0947872881 0.7985613796 -0.1301146145
O -2.5571356882 0.5357454979 0.9499744366
C -2.2658238562 2.0857907670 -0.9152684408
C -3.2693885099 2.9755435648 -0.1779531505
C -0.8957365812 2.7884759440 -0.9949857378
C -2.7754179636 1.7692907137 -2.3312165506
H -1.4766905595 -2.2743264633 2.4591314477
H -3.0028430028 -3.0059143543 2.9946227053
H -1.6911983633 -4.0262236833 2.3897378999
H -5.3327478888 -3.8075095930 2.0122510079
H -5.7614285684 -4.6339516273 0.5001753854
H -4.4424607399 -5.2486679507 1.5208019461
H -3.9208475475 -1.5802713907 -3.0211074178
H -2.1996382861 -1.2449134003 -2.7188340848
H -2.7121904749 -2.8835941570 -3.1940925535
H 0.2736982030 0.7275474519 1.2782890157
H 2.1896995242 2.2216245039 1.4170572212
H 4.6077621411 -0.6936489881 -0.6161197135
H 2.6787169803 -2.1819625372 -0.7713536753
H 6.1645259746 2.7504827292 -0.9188825756
H 4.5045722984 2.6067291868 -1.5357428525
H 5.5628357004 1.1833954161 -1.4848026677
H 5.4067912133 3.7433054935 1.1866504222
H 3.7240535859 3.7066356191 0.6400154162
H 4.1715590557 2.9899509159 2.2045442524
H 6.7929507507 1.7230423245 1.3147518200
H 6.1950889730 0.1451355679 0.7743234351
H 5.5762599466 0.8568483324 2.2769644546
H -3.3848544061 3.9128820033 -0.7296662688
H -4.2471149646 2.4905689885 -0.1067842145
H -2.9236153850 3.2065354957 0.8329538715
H -0.1620042425 2.1744426452 -1.5230783930
H -1.0197323657 3.7309690212 -1.5372068899
H -0.5108916591 3.0129511892 0.0047968783
H -3.7171271620 1.2120697742 -2.2957073299
H -2.0436416642 1.1915598796 -2.9007044315
H -2.9541250325 2.7122599987 -2.8569587283
