63
CONF223
C 3.1976308443 0.9419571842 1.7609550707
C 2.5216716558 -0.2938967670 1.1754611066
N 1.0828844087 -0.0690395894 0.9709229998
C 0.8905350800 1.0358220866 0.0202485050
C 1.4947196921 2.3320647667 0.5519839276
C 2.9846107138 2.1303627763 0.8239777621
N 3.6334875588 3.3507950696 1.3100754875
C 4.6451912019 4.0431436097 0.6523342828
C 5.2929205188 3.8133910596 -0.5532526550
C 6.2868935011 4.7197990300 -0.9353626663
C 6.6183713369 5.8168362724 -0.1372532710
C 5.9664482814 6.0504933176 1.0769330933
C 4.9820167167 5.1518545198 1.4543559424
N 4.1638504832 5.0941685494 2.5669699207
C 3.3221371302 3.9946233122 2.5047744863
O 2.4787021353 3.6654603160 3.3373845120
C 0.4545743699 -1.3052676562 0.4825308711
C -1.0706648462 -1.2647237442 0.4945675948
C -1.6640472194 -2.6115090653 0.0819247997
C -3.2007837281 -2.5933385439 -0.0019017801
C -3.7586571072 -1.6111247471 -1.0191276751
C -3.0998486481 -1.3011906026 -2.2124228101
C -3.6608457304 -0.4287857484 -3.1426534927
C -4.8939559934 0.1296433399 -2.8578963868
C -5.5835359671 -0.1440207208 -1.6893554013
C -5.0016386897 -1.0180336604 -0.7756174186
F -5.4462922790 0.9884027143 -3.7578743724
C -3.7345843044 -3.9953624172 -0.2487365310
C -4.3597710540 -4.7019950724 0.7809672783
C -4.8270623051 -6.0009397722 0.5877102289
C -4.6527848591 -6.5771045455 -0.6572555916
C -4.0372394873 -5.9159847896 -1.7072424096
C -3.5813707855 -4.6191474297 -1.4909109521
F -5.1082960802 -7.8436804930 -0.8613140964
H 4.2693819438 0.7513241408 1.8860460964
H 2.7716445782 1.1670299647 2.7436572028
H 2.6471625074 -1.1408336969 1.8593645936
H 3.0174919759 -0.5655541091 0.2200890835
H 1.3482003660 0.7889284754 -0.9609419858
H -0.1794444652 1.1856873312 -0.1489271964
H 0.9876414127 2.6250865094 1.4767652353
H 1.3536751884 3.1312500930 -0.1843305280
H 3.4723742447 1.8980396547 -0.1298734245
H 5.0460571086 2.9663373785 -1.1833606632
H 6.8089115483 4.5629837197 -1.8735998363
H 7.3943710461 6.5020561838 -0.4621877690
H 6.2178378953 6.9007887546 1.7019166676
H 4.1557713759 5.7427498935 3.3385145225
H 0.7884406393 -2.1227886144 1.1347725732
H 0.8066638594 -1.5490682474 -0.5410574168
H -1.4203029981 -1.0032236370 1.5017153561
H -1.4395954212 -0.4890361448 -0.1845482918
H -1.2433048892 -2.9338878298 -0.8792721915
H -1.3777218673 -3.3794347814 0.8112383929
H -3.5769218378 -2.2796303011 0.9798252725
H -2.1284514252 -1.7328833436 -2.4308832928
H -3.1498482651 -0.1821893609 -4.0671872835
H -6.5457582324 0.3196051128 -1.4999072179
H -5.5281844607 -1.2434359301 0.1480491645
H -4.4868801408 -4.2331291070 1.7526638916
H -5.3168745727 -6.5529789125 1.3827451846
H -3.9232706833 -6.4053889054 -2.6686247925
H -3.1043295466 -4.0870393406 -2.3085608338
