63
CONF124
C 8.3320097303 0.3569146508 -3.1590346779
C 6.9889948234 -0.1641046400 -3.6603775724
N 5.9705760055 -0.1534570519 -2.6039897428
C 5.1918132961 1.0670726809 -2.3888604558
C 4.8658788416 1.2251836826 -0.9244618291
N 4.1390088161 0.0336392777 -0.4411093157
C 4.5563513488 -1.2006306586 -0.8719146196
O 4.0592528588 -2.2694774301 -0.5346934897
C 5.7551712197 -1.2478607861 -1.8562912606
O 6.3944872154 -2.2963281538 -1.9378177846
C 3.1202042445 0.2676219683 0.5439112899
O 2.8883916400 1.4128836486 0.9201398275
N 2.4703148947 -0.8144568498 1.0094127387
C 1.3856382842 -0.6383123783 1.9536112647
C 0.8001290769 -1.9788445651 2.3473792456
C 0.3681451949 -2.8785324740 1.3683533822
C -0.1933581428 -4.0965093188 1.7390433698
C -0.3373497448 -4.4205383203 3.0871006810
C 0.0845793224 -3.5224693506 4.0642238034
C 0.6528175426 -2.3054343314 3.6958383854
C 0.2628591463 0.2164540696 1.3228934423
O 0.0118621754 0.1949744904 0.1221579853
N -0.4579523314 0.9402091281 2.2114358764
C -1.5859117264 1.7170908982 1.8013109328
C -2.8295990180 1.0391277492 1.1435465768
N -2.6691921286 1.9546275586 0.0002160920
C -1.5167938529 2.5471191842 0.4971355641
O -0.7958007900 3.4112886154 0.0552656172
C -3.8533548480 2.5535239473 -0.5855308018
C -5.0685196917 1.7720136838 0.0391062932
S -4.5111352333 1.3714861603 1.7856898927
C -5.2861257154 0.4832104972 -0.7558626095
C -6.3550049919 2.5854767118 0.1004812661
C -3.9247450933 4.0442226305 -0.2692476743
O -4.5015173319 4.7149857179 -1.2796275346
O -3.5443997343 4.5553430658 0.7596697228
H 8.7149632568 -0.2792961155 -2.3561672121
H 8.2417408809 1.3804258737 -2.7823379054
H 9.0561612196 0.3567713082 -3.9789680926
H 6.6110565470 0.4569199016 -4.4794301626
H 7.0843542997 -1.1904255786 -4.0234035255
H 4.2776314584 1.0500883864 -2.9982565860
H 5.7971483082 1.9215094352 -2.7037209522
H 5.7801497373 1.3615490479 -0.3340093262
H 4.2217465138 2.0910503266 -0.7775226237
H 2.7030013890 -1.7282398691 0.6345383164
H 1.7530048331 -0.1272286207 2.8511266225
H 0.4654264299 -2.6254500571 0.3164158467
H -0.5230878822 -4.7920140824 0.9736961706
H -0.7766617479 -5.3706903636 3.3741226564
H -0.0220938642 -3.7703616448 5.1156108433
H 0.9882903570 -1.6073467343 4.4574251199
H -1.8931636901 2.3760153811 2.6180342539
H -2.6871795589 -0.0149769395 0.8897635767
H -3.8913419855 2.4217124051 -1.6722956211
H -4.3731475281 -0.1144464017 -0.8283686507
H -5.6126789375 0.7359852359 -1.7709106155
H -6.0626363830 -0.1197491259 -0.2790384763
H -6.6563138045 2.8704915675 -0.9124452315
H -6.2448415252 3.4896238287 0.7056320769
H -7.1529365259 1.9749658608 0.5317021023
H -0.2036590673 0.9347339075 3.1884489951
H -4.5879788917 5.6498998979 -1.0221908219
