43
CONF88
C 1.4668864834 2.8253869383 -3.5959971982
O 1.6295491218 3.3173860983 -2.2606698075
C 1.7322893234 2.3955665135 -1.2616231646
C 1.7114546072 1.0188247572 -1.4724424148
C 1.8010210167 0.2316776250 -0.3251015779
C 1.9136078825 0.7609913142 0.9801907854
C 1.9487124820 2.1481024697 1.1580399507
C 1.8539902260 2.9484904500 0.0358430171
N 1.9495058913 -0.2644997551 1.9153444848
C 1.8612884128 -1.3557562481 1.1984858770
N 1.7949450766 -1.1339800821 -0.1537586383
S 1.7905865136 -3.0493728637 1.8617866948
O 2.5830494129 -3.0595728435 3.1593636176
C -0.0326656699 -2.9498839730 2.3463246450
C -0.8046102992 -2.4072200787 1.1873288530
N -0.7848055470 -3.1793480296 0.0894644874
C -1.3519983102 -2.7089759418 -1.0249178905
C -1.9490694709 -1.4556484028 -1.1283833068
C -2.5498411512 -0.9653026207 -2.4101289832
C -1.9727233642 -0.6773908944 0.0343519659
O -2.6087367649 0.5391817403 -0.0100384534
C -1.7084367329 1.6618900966 -0.1429346719
C -1.4139943743 -1.1402935518 1.2318195771
C -1.5000782653 -0.3286919739 2.4924995648
H 2.3321982421 2.2254280862 -3.9022224255
H 0.5520005123 2.2266140793 -3.6834113185
H 1.3899453679 3.7086876674 -4.2303068959
H 1.6158486751 0.5732288367 -2.4540970527
H 2.0357512397 2.5819713604 2.1486624357
H 1.8651079277 4.0296876807 0.1254265803
H 1.6962165649 -1.8375822699 -0.8715966905
H -0.3013065719 -3.9817850340 2.5891950184
H -0.0505880463 -2.3229956878 3.2393188123
H -1.3242303001 -3.3624615742 -1.8966932078
H -2.4628354447 -1.7261425528 -3.1891109838
H -2.0482081984 -0.0557156068 -2.7572847153
H -3.6075095239 -0.7170955674 -2.2778154089
H -1.1995077124 1.6297447260 -1.1129936893
H -2.3253597333 2.5591646187 -0.0742601312
H -0.9591521867 1.6614239972 0.6563988649
H -2.2145668293 0.4868607023 2.3733653324
H -1.8270768235 -0.9496002909 3.3313170088
H -0.5266549717 0.0990066776 2.7569883349
