24
CONF387
C 2.6970258540 0.7909662772 0.7782679955
C 1.3515027770 0.0948731085 0.9565695335
C 0.4989216513 0.1392556032 -0.3240737047
C -0.8508058781 -0.5599311411 -0.1285745333
C -1.7436516656 -0.3984758073 -1.3779346076
C -3.0998107909 -0.9952033558 -1.1129103905
O -4.1170740910 -0.3399839050 -1.2445144070
O -1.8511487205 0.9574828819 -1.7504113848
O -0.6535310354 -1.9713481127 0.0287955967
O 1.2033466473 -0.4481573554 -1.4180114399
O 0.6293652662 0.6520865504 2.0624631761
O 2.5412370603 2.1884509708 0.4905457787
H 3.2964811908 0.6472515776 1.6859442652
H 3.2281153690 0.3449384064 -0.0673222165
H 1.5482817631 -0.9529958011 1.2212024074
H 0.3202699306 1.1861389533 -0.5914300132
H -1.3598055592 -0.1294165980 0.7425107830
H -1.2790667240 -0.9905898349 -2.1866114333
H -3.1222671123 -2.0501321086 -0.7888993220
H -2.8013987490 1.1669695408 -1.7389755552
H -0.5531321271 -2.1627936128 0.9694099917
H 1.2194323383 -1.4035710433 -1.2553382545
H 0.4334715270 1.5748008265 1.8461863921
H 2.4642405701 2.6593836884 1.3288043430
