15
CONF6
C -1.7530987952 0.9234984534 0.3829533817
C -0.6447247876 -0.1156633428 0.2642044657
C 0.6970434808 0.4170388189 -0.3239634570
C 1.9523883995 -0.4595561005 -0.0212552273
F 1.7096622458 -1.7455383146 -0.3187658291
F 2.3073788318 -0.3706928096 1.2667340763
F 2.9818492148 -0.0348043605 -0.7715001753
F 0.9412744834 1.6541382245 0.1805891011
F 0.5900459923 0.5125588497 -1.6707948806
F -1.0508721351 -1.1566436657 -0.5260467469
F -0.3900534738 -0.6239716770 1.5105524048
O -2.0388917579 1.5450510160 -0.8536099496
H -1.4277438080 1.6960818922 1.0838360026
H -2.6186924717 0.3994360185 0.8108689663
H -2.5332336093 0.9224918077 -1.4030196478
