55
CONF80
C -3.2551068384 -4.5452136836 -0.2483927702
C -4.2429988212 -3.4997043531 0.2235565980
O -4.0585856086 -2.2455228935 -0.4977416439
C -3.0575524211 -1.4519913409 -0.0516253752
O -2.3828732925 -1.6707007896 0.9402898689
N -2.9359262606 -0.3707069647 -0.8868827002
C -1.9329582526 0.6067663396 -0.8385638143
C -1.2414200302 0.9166014389 0.3346852192
C -0.1965781204 1.8331433280 0.2891473729
C 0.0691164416 2.5550118718 -0.8785997228
C -0.6733357394 2.2941831391 -2.0287157118
C -1.6419809360 1.3025420928 -2.0192031848
S 1.3556126095 3.7819168449 -0.8738505245
C 1.1393763399 4.3676476372 0.7955340245
C 1.3379309694 5.7125683490 1.1081155826
C 1.1725116240 6.1421452323 2.4203977955
C 0.7766980626 5.2434208446 3.4103308042
C 0.5628268519 3.9057782371 3.0961367564
C 0.7688418502 3.4620803479 1.7930211044
N 0.6050683177 2.0854014641 1.4427357962
C 1.4363824047 1.1343933198 2.0342314698
O 2.1863885769 1.4461912422 2.9518517719
C 1.4148880222 -0.2707784160 1.4719772343
C 2.1610259033 -0.3522156025 0.1297514044
N 2.0462525602 -1.6837792281 -0.4704306482
C 0.7134351814 -1.8948509683 -1.0527954461
C 0.6314067875 -3.2698116747 -1.6917566048
O 1.6223607045 -3.4340949886 -2.7113958735
C 2.9257511424 -3.2296635421 -2.1549919722
C 3.0494712289 -1.8498473014 -1.5316611652
H -3.3507044569 -4.7099003596 -1.3254252414
H -3.4581863774 -5.4904618955 0.2646646497
H -2.2282442970 -4.2453012640 -0.0223703548
H -4.1536234811 -3.3072761038 1.2956566438
H -5.2710101118 -3.7850221220 -0.0085641374
H -3.5003189458 -0.3967667268 -1.7246105253
H -1.4895515444 0.4305849650 1.2669365777
H -0.4783529211 2.8518786860 -2.9387546778
H -2.1901146621 1.0752478378 -2.9284055577
H 1.6160596426 6.4133669053 0.3275517186
H 1.3340438156 7.1869283469 2.6646853257
H 0.6303183839 5.5849771671 4.4295670958
H 0.2552836632 3.1964781309 3.8557246570
H 1.9198444335 -0.9043860983 2.2037721644
H 0.3916681201 -0.6318016088 1.3624396531
H 1.7952019220 0.4273705132 -0.5647306738
H 3.2226375394 -0.1479934361 0.3118524591
H -0.0537005704 -1.8328079340 -0.2729770766
H 0.4850943064 -1.1192955143 -1.8123946495
H 0.7584165866 -4.0482831571 -0.9215061737
H -0.3414425695 -3.4037110913 -2.1743249507
H 3.1291652839 -4.0025349172 -1.3957655307
H 3.6387834025 -3.3411870070 -2.9768880324
H 2.9312158138 -1.0813623048 -2.3215093416
H 4.0514883747 -1.7396518773 -1.0997781752
