45
CONF10
C 2.4093633754 -1.7487329517 -2.5549865284
C 2.3418593379 -0.8737331972 -1.3088967940
C 0.9116625468 -0.3855880998 -1.0886228925
O 0.3426291248 0.2665751067 -1.9640563390
N 0.3247654964 -0.7129522961 0.0836153072
C -1.0199331580 -0.3335516970 0.3830559923
C -1.4326521918 1.1750329886 0.5081635365
N -2.4336299337 0.9403157742 -0.5385021042
C -2.1028395893 -0.3950274165 -0.7225393632
O -2.5675631020 -1.2509960491 -1.4389829854
C -3.7358139771 1.5422994897 -0.3814249794
C -4.0475348992 1.5068037605 1.1612704718
S -2.3744467187 1.7711211137 1.9745927229
C -4.9962163369 2.6056228375 1.6280303802
C -4.6023457799 0.1297866710 1.5252522100
C -3.7321988073 2.9551700431 -0.9447639046
O -2.7630233710 3.6806225563 -0.9726398093
O -4.9489765611 3.3000724597 -1.3947720629
O 2.7582122293 -1.5989044032 -0.1419914041
C 4.0950486973 -1.7251058431 0.1357771169
C 5.1245827108 -1.1835537968 -0.6362731669
C 6.4473186846 -1.3754681361 -0.2342890746
C 6.7522683530 -2.0966065156 0.9149494691
C 5.7133381990 -2.6353212938 1.6754990319
C 4.3915625696 -2.4542014362 1.2921160665
H 3.4328936300 -2.0911806168 -2.7229661023
H 1.7583989986 -2.6194294782 -2.4328668099
H 2.0825942598 -1.1773655392 -3.4261560851
H 2.9522153756 0.0312660279 -1.4270515095
H 0.8544389604 -1.2430760339 0.7603537305
H -1.3668620440 -0.8971318469 1.2537030080
H -0.6506907501 1.8920473376 0.2483986268
H -4.4852172925 0.9443819549 -0.9096823732
H -4.6115379233 3.6047104150 1.4069376370
H -5.1496052107 2.5270699989 2.7078691231
H -5.9676914672 2.4817091301 1.1390437817
H -5.5901077235 -0.0005781827 1.0680643520
H -3.9519441700 -0.6787974535 1.1809589930
H -4.7056242412 0.0443139269 2.6099628979
H -4.9171343885 4.2231424141 -1.7029408698
H 4.9239681842 -0.6240955598 -1.5417707264
H 7.2437936465 -0.9526758611 -0.8391379161
H 7.7847927460 -2.2399907871 1.2153209123
H 5.9325127064 -3.2014759063 2.5756425049
H 3.5753700111 -2.8666493822 1.8767351133
