51
CONF2
C 5.6126144530 0.5528503518 2.4004884539
C 5.5296401352 0.7554315997 0.9116241179
C 6.5953029387 1.0589717288 0.1284169298
C 8.0089058705 1.2802398517 0.5446852270
O 8.4542881842 2.6120167292 0.1929102915
C 4.2342204442 0.6073234907 0.2791956553
C 3.0737786359 0.2747638103 0.9062737700
C 1.8298903341 0.1462138991 0.2136680245
C 0.6102643849 -0.1866175775 0.7396577239
C 0.3909162430 -0.4830039966 2.1957923801
C -0.5227406515 -0.2540510854 -0.1550349968
C -1.7957826076 -0.5403048389 0.2072256519
C -2.9659865070 -0.5878735116 -0.6676332763
C -2.9679122969 -1.1893645385 -1.8841564382
C -1.7823232837 -1.9005051492 -2.4782075702
C -4.1844528482 -1.2130458159 -2.7771105232
C -5.4880473133 -0.8755281444 -2.0643559247
C -5.2741965483 0.3282123608 -1.1606795291
C -4.2242984219 0.0671629036 -0.0682801609
C -3.8681107717 1.4247949743 0.5649135209
C -4.8138655996 -0.8447711486 1.0253091496
H 4.8944468957 1.2014587466 2.9136308241
H 5.3564562576 -0.4798266748 2.6633913880
H 6.6051111669 0.7646955650 2.7966041330
H 6.4159507409 1.1886767979 -0.9392988105
H 8.1645848975 1.0965811610 1.6137576035
H 8.6754556256 0.6083484965 -0.0088464945
H 7.8431984980 3.2307816973 0.6133837868
H 4.2059446832 0.7762935136 -0.7976305327
H 3.0898755629 0.0959347127 1.9774763300
H 1.8659075585 0.3379161592 -0.8594844575
H -0.0111038755 -1.4941198840 2.3276355016
H 1.3059771191 -0.4046490453 2.7817740495
H -0.3446032613 0.2090136864 2.6225215014
H -0.3128733554 -0.0243285777 -1.1981362332
H -1.9984026479 -0.6822566868 1.2675903471
H -2.1116534254 -2.8201567239 -2.9751065061
H -1.0256248592 -2.1524823422 -1.7336109973
H -1.2986648485 -1.2853559684 -3.2491125918
H -4.0152753988 -0.5006788494 -3.6011931737
H -4.2535339652 -2.1984313086 -3.2552223776
H -6.2767702224 -0.6714609892 -2.7971192137
H -5.8205430508 -1.7382437025 -1.4746922803
H -6.2119444628 0.6345946645 -0.6801510253
H -4.9374706460 1.1747148837 -1.7758867028
H -3.2075412831 1.3127466933 1.4297559496
H -3.3696072909 2.0738623566 -0.1632120118
H -4.7837900057 1.9244889796 0.9016783126
H -5.1247865439 -1.8098001990 0.6153519587
H -4.0847687555 -1.0370774533 1.8186153991
H -5.6860578872 -0.3641566024 1.4839411573
