47
CONF1
C 0.6033052252 -1.0409554056 -0.2912439846
C 1.2582179610 -2.2212531480 0.4243755289
C 2.7622251921 -1.9787475524 0.6328413167
C 3.0769603022 -0.5029099071 0.9785629480
O 4.2376437194 -0.5203233860 1.8107838638
C 1.8304544631 0.1443300834 1.6123069401
C 0.9691759018 0.3474020627 0.3594138659
C 1.9700918144 1.0767919508 -0.5620367893
C 3.2619638986 0.3404041049 -0.2872706938
C 4.3940504987 0.4235060667 -0.9807879546
C -0.4022734894 1.0585887922 0.6032177569
C -0.2795604118 2.5561161332 0.5433474780
O -0.5835162838 3.0712107813 -0.6640828549
O 0.0915653053 3.2402344675 1.4772313570
C -1.3654420323 0.3960167260 -0.3897169966
C -2.8201326387 0.2193250615 0.0493339352
C -3.5414132177 1.4445047172 0.5816981177
C -3.6097309707 -0.4480466898 -1.1296515524
O -4.0290198232 0.5159892758 -2.1019220383
C -2.8316902448 -1.5547501494 -1.7976428371
C -1.5686372952 -1.8453844207 -1.4771221757
C -0.9102848107 -1.0635300833 -0.3793562396
O -1.5011277418 -1.5470722716 0.9125613951
C -2.6497222425 -0.8604649456 1.1223664875
O -3.3855654543 -1.1145917034 2.0475946309
H 0.9544098900 -1.0280162485 -1.3319057131
H 0.7749106033 -2.3653893173 1.3940647076
H 1.1003215664 -3.1422387840 -0.1465671128
H 3.3344413518 -2.2657460491 -0.2550409361
H 3.1130784515 -2.5943295124 1.4681583590
H 4.5432578867 0.3930337362 1.8975641958
H 2.0889067089 1.1156162688 2.0514929578
H 1.3637072892 -0.4789249360 2.3795794021
H 1.6791835269 1.0738554142 -1.6166591351
H 2.0847416343 2.1231158411 -0.2465721592
H 5.2780512237 -0.1300377592 -0.6752174919
H 4.4716094639 1.0470996715 -1.8670762936
H -0.7052372077 0.8295664468 1.6311041900
H -0.4415281944 4.0333490654 -0.6271571595
H -1.2619343565 0.8321022869 -1.3859313725
H -4.5661597081 1.1883379209 0.8673139393
H -3.0312208635 1.8426918564 1.4639245053
H -3.5777420108 2.2199468492 -0.1858725460
H -4.5450755894 -0.8487901849 -0.7182367632
H -3.2635863518 0.7581329658 -2.6414594328
H -3.3539685919 -2.0974221325 -2.5816569101
H -1.0177037814 -2.6423441659 -1.9686507676
