49
CONF16
C -2.9144391217 2.0518463121 -3.0314037803
C -2.6760078321 1.4234772899 -1.6891031866
C -3.5210653527 0.5157396288 -1.1823896038
C -3.3781880808 -0.1296666346 0.1466954744
C -2.2780458082 -1.1766032198 0.3727503136
C -3.7633810529 -1.5507165653 0.4019521213
C -4.2216955504 -2.3970460496 -0.7656247805
C -4.4258582291 -1.9075720252 1.7125878021
C -1.4654896059 -1.0516274569 1.5903824454
O -1.8083696832 -0.5724357031 2.6484718666
O -0.2044301151 -1.5457448368 1.3574231460
C 0.7836417059 -1.2963152516 2.3791718119
N 1.9252119585 -0.6818528793 1.7735164779
C 3.0416860140 -1.3783300546 1.2746418498
O 3.2641539298 -2.5579164578 1.4307835062
C 3.8648542642 -0.3660977892 0.5508946616
C 3.2323681112 0.8173500635 0.5904152032
C 1.9567848477 0.6568203544 1.3455132273
O 1.0952699534 1.4814051538 1.5570440386
C 3.7232597494 2.0694337814 -0.0398242241
C 4.8605585204 1.7374061233 -1.0184041728
C 5.8522601909 0.7346686379 -0.4128889801
C 5.1786933037 -0.6100008353 -0.0979428550
C -1.4407733671 1.8848253988 -0.9735098873
H -3.0014150630 3.1417947647 -2.9400987333
H -2.0688094461 1.8615929748 -3.7044839528
H -3.8240442098 1.6719385481 -3.5031896189
H -4.3991008303 0.2420093751 -1.7666367311
H -3.4901976604 0.5207545656 1.0142171196
H -1.7324141870 -1.4959779924 -0.5083147378
H -3.7044527148 -2.1321365677 -1.6915236896
H -4.0385397384 -3.4569008965 -0.5600412118
H -5.2980728085 -2.2671237024 -0.9277419108
H -4.2246013394 -2.9523266537 1.9750436405
H -4.0777037110 -1.2752091025 2.5298777486
H -5.5107719050 -1.7890974641 1.6141060623
H 0.3548482691 -0.6392625020 3.1397086301
H 1.0933096112 -2.2557253142 2.8009511014
H 4.0702723140 2.7578872916 0.7437520954
H 2.8948185098 2.5846210380 -0.5398921648
H 4.4300717224 1.3088917858 -1.9327231742
H 5.3806751711 2.6550597339 -1.3099953818
H 6.2639920282 1.1529489926 0.5147504583
H 6.6950979096 0.5782797205 -1.0932394089
H 5.0252254451 -1.1962934334 -1.0150189040
H 5.8058159750 -1.2341341070 0.5490939257
H -0.5495530356 1.6935692361 -1.5853315536
H -1.4758410517 2.9692514253 -0.8109758223
H -1.2996079200 1.4045410292 -0.0047686495
