61
CONF61
C -3.5079591736 4.6322347993 0.7459592063
C -2.8756999824 3.4198353748 0.0651728461
C -3.3922319525 2.0981819108 0.6349320388
C -2.7221240504 0.8695483387 0.0344152004
C -3.2207171818 -0.4586189644 0.6152786848
C -2.7452081081 -1.5032327066 -0.4205583955
N -2.5420976105 -0.7459101055 -1.6695375241
C -2.9811955514 0.6420667461 -1.4531726500
C -3.0995512960 -1.3774498370 -2.8586901363
C -1.4556151478 -2.1559926845 0.0781154576
O -1.4688682986 -2.9104293131 1.0721943645
N -0.3472002219 -1.7885500397 -0.5671426054
C 1.0088743046 -2.1661400770 -0.2087925637
C 1.6970179709 -1.0847142922 0.6428308351
C 1.3929970606 -1.1345626360 2.1412904287
C 2.0972003811 0.0298405603 2.8501340100
C 1.7898081458 1.3640611820 2.1494066644
C 2.0142808462 1.2873349778 0.6319328662
O 1.3305658789 0.1824345226 0.0690720886
S 3.8136125421 1.3479617239 0.1706077664
C 3.5929049833 1.8247922223 -1.5864848388
O 0.4372557041 1.7582569239 2.3999660133
O 3.4942436204 -0.2597609353 2.8311089929
O 0.0064377835 -1.0096452774 2.4660429116
C 1.8068456790 -2.4551915588 -1.5008056776
C 1.1517237622 -3.5317886945 -2.3529526313
O 3.1557884468 -2.8108744972 -1.1729216828
H -4.5970435971 4.6225237967 0.6253555600
H -3.2914848715 4.6324713986 1.8201450900
H -3.1311518528 5.5699718181 0.3255944297
H -3.0767152598 3.4589678527 -1.0129816329
H -1.7837364656 3.4570389217 0.1797206535
H -4.4785098259 2.0289684643 0.4782939058
H -3.2316831510 2.0900420761 1.7220610899
H -1.6349339435 0.9415591148 0.1907592968
H -4.3163900725 -0.4508954128 0.6476078425
H -2.4250492689 1.3206771187 -2.1098669375
H -4.0616915412 0.7690697860 -1.6619228103
H -2.6698024336 -2.3766296151 -2.9891634703
H -2.8460586409 -0.7825282126 -3.7425751053
H -4.1994711835 -1.4738591148 -2.8100519534
H -2.8502097248 -0.6636623946 1.6228780391
H 0.9617166708 -3.0933170143 0.3785436942
H 2.7811321384 -1.2273503090 0.5418071705
H 1.8004790820 -2.0777679955 2.5362879290
H 1.7195363350 0.0868451937 3.8809895642
H 2.4281454380 2.1511052302 2.5674272641
H 1.5577966562 2.1719599892 0.1759545001
H 4.5898358023 1.8972784023 -2.0273200858
H 3.0212465777 1.0593758332 -2.1170272449
H 3.0900955671 2.7925397516 -1.6628146768
H -0.1133424104 0.9659533648 2.2740472180
H 3.9487595593 0.4311972743 3.3301684446
H -0.4738673308 -1.7884650308 2.1165913735
H 1.8908529728 -1.5208661281 -2.0714480912
H 1.7727760747 -3.7351742631 -3.2294616974
H 1.0427779566 -4.4576786715 -1.7750334402
H 0.1608238722 -3.2228922319 -2.6956036501
H -3.4849545146 -2.3087414365 -0.5333253505
H -0.5095806954 -1.1153023715 -1.3139902398
H 3.1400062246 -3.6934290428 -0.7771410861
