41
CONF64
C 0.4815018676 3.5073245466 0.0634246349
C -0.5520159401 2.3992617408 -0.1136811319
C -1.3958472143 2.6282952501 -1.3708833499
N -1.3765667719 2.3041547201 1.1088931418
C -2.1079289938 1.0391291580 1.2754781525
C -1.4625402128 0.2154325242 2.3959613687
O -1.3860923127 0.9942103874 3.5897293626
C -0.0520540392 -0.2555347986 2.0592184140
O -0.1351813077 -1.0997288798 0.9059374277
C 1.0195368249 -1.6249589781 0.4024521215
C 2.2861820775 -1.3600411293 0.9270948549
C 3.4108848387 -1.9355689427 0.3367689579
C 3.2801708943 -2.7715794668 -0.7647827939
C 2.0086026787 -3.0318601828 -1.2742979231
C 0.8660379682 -2.4731009711 -0.7100198821
C -0.4968806420 -2.7349525878 -1.2867770068
C -0.9918076895 -1.6789641112 -2.2414794836
C -0.3099279367 -0.6134444715 -2.6533010919
H 1.1188311144 3.5887691828 -0.8225847050
H -0.0160160037 4.4734782444 0.2107788042
H 1.1133193553 3.3121275756 0.9347576263
H -0.0264388675 1.4405802544 -0.2193055830
H -2.1484179888 1.8431421644 -1.4944704125
H -0.7684603336 2.6349828256 -2.2683297636
H -1.9090558700 3.5958467500 -1.3072047600
H -2.0251578840 3.0833685368 1.1181814892
H -3.1437721876 1.2426884764 1.5708291459
H -2.1393521602 0.4443055894 0.3514054615
H -2.0915084580 -0.6559856708 2.6147102841
H -1.0836720512 1.8671725843 3.2842120453
H 0.3630607613 -0.8098277472 2.9112674104
H 0.5888269340 0.6154791610 1.8582894251
H 2.4071998708 -0.7151355583 1.7887514622
H 4.3918811647 -1.7237973977 0.7507148349
H 4.1548070964 -3.2214561311 -1.2223268530
H 1.8937983211 -3.6849265119 -2.1357299069
H -0.4856048286 -3.6971858963 -1.8162526980
H -1.2339802243 -2.8446288567 -0.4813932206
H -2.0011724325 -1.8436793493 -2.6190510469
H 0.6993776812 -0.4137820212 -2.3021898235
H -0.7445665742 0.0910304164 -3.3547950002
