38
CONF18
C 3.0852163438 -0.9536708854 -3.6638408095
S 1.6396524247 -1.0265797246 -2.6017059059
O 0.5824730094 -1.7761689905 -3.2879003914
O 2.0400326293 -1.3863181546 -1.2386128815
N 1.0934558714 0.6077167069 -2.5652239908
C 1.3024122422 1.5804081735 -1.6085393209
O 1.0710153301 2.7526205128 -1.8521713077
C 1.6010357931 1.1525808601 -0.1973957336
C 2.8600720677 1.2469837803 0.3974059138
C 3.0437750361 0.9921180922 1.7562191906
C 1.9632837160 0.6269010475 2.5315832572
C 0.7017584785 0.5256499067 1.9391866833
C 0.5113219236 0.7969807254 0.5848298313
O -0.3189347696 0.1694473896 2.7751176749
C -1.5464459381 -0.1612771580 2.2321238176
C -1.7492292794 -1.4031409823 1.6278669650
C -3.0074473338 -1.7522713666 1.1533051404
C -4.0558849020 -0.8509659400 1.2995606870
C -3.8616676458 0.3885253306 1.9085149534
C -2.6015525216 0.7311168310 2.3749658055
C -5.4255490706 -1.1904928706 0.7867011968
F -6.3756165386 -1.0009459087 1.7367595305
F -5.7735688851 -0.4032086242 -0.2653134179
F -5.5255535863 -2.4707213330 0.3716591053
Cl -0.4246842355 -2.5236351052 1.4767404285
N 4.0140891647 1.5723518880 -0.4174865308
O 5.0875051168 1.7853751995 0.1368073134
O 3.8552495009 1.6129027892 -1.6423110631
H 2.7780318007 -0.5483598211 -4.6304187089
H 3.8348150452 -0.3251526711 -3.1808430027
H 3.4339250730 -1.9849987318 -3.7667344031
H 0.7907125270 0.9600397100 -3.4709298987
H 4.0349343798 1.0628946561 2.1860475678
H 2.0777340566 0.4076732298 3.5868160217
H -0.4746297883 0.7334593728 0.1374673664
H -3.1572583789 -2.7175698026 0.6857924939
H -4.6873921070 1.0829613369 2.0183173729
H -2.4170873437 1.6867705419 2.8531743584
