27
CONF109
C -3.2589830416 0.1333040205 -1.3454033289
C -4.7839346128 0.2338155664 -1.2375536505
O -5.2356401017 1.4620290535 -0.6627313785
C -2.5781696681 -0.1186856737 -0.0212573808
C -1.0399876683 -0.3505127118 -0.1607506924
C -0.2257670566 -0.3151045385 1.1712584161
C 1.2340072217 -0.9118292680 1.1351693074
C 2.2204112082 -0.3216065401 0.0792008975
C 3.7228595519 -0.6865378782 0.3273857610
F 4.2031319218 -0.0384708824 1.3936245268
F 4.4328240515 -0.3222619925 -0.7493519459
F 3.8652605343 -2.0054426783 0.5133373055
F 2.1299468605 1.0275590854 0.0731074432
F 1.8822529620 -0.7952650910 -1.1411798941
F 1.7530629215 -0.6842491871 2.3687714325
F 1.1489094661 -2.2464104555 0.9480020360
F -0.1404372305 0.9631409144 1.6015714171
F -0.8835371140 -1.0412998156 2.1087987387
F -0.8563365878 -1.5562875195 -0.7574675891
F -0.5304159174 0.6129873281 -0.9724600380
F -3.1040240061 -1.2264702762 0.5891228100
F -2.7614414239 0.9329133868 0.8465141485
H -3.0043617260 -0.7001729326 -2.0100287007
H -2.8551706717 1.0505799100 -1.7822025746
H -5.1834543305 0.2109462895 -2.2548537286
H -5.1908943857 -0.6296509735 -0.6967026975
H -5.0918473734 1.4248881627 0.2904217119
