35
CONF3
C 3.1146123884 -3.1162411424 0.0786979173
C 2.9558879010 -1.9732817262 1.0214425169
N 2.3865625085 -0.8572847213 0.5265726366
C 2.2487242362 0.1462451006 1.3949921012
N 2.6359955952 0.1265491728 2.6785991484
C 3.1936233875 -1.0231379799 3.0482618969
N 3.3783806143 -2.1094480490 2.2753535299
O 3.6283183837 -1.1730555177 4.2937554063
C 3.4733914223 -0.0530958192 5.2020101062
N 1.6579951560 1.3228068313 0.9859730102
C 1.0936365530 1.6843516431 -0.2414359227
O 0.5069411626 2.7471442848 -0.3599219096
N 1.2704763539 0.7706468911 -1.2575703169
S 0.4334887983 0.8915633870 -2.7306625065
O 0.7976043764 2.1467871851 -3.3885730747
O 0.7089937453 -0.3858880064 -3.3960877513
C -1.3006563518 0.9963414748 -2.2698990965
C -2.0027439382 2.1229983824 -2.6949250010
C -3.3550769879 2.2461788765 -2.4051138343
C -4.0018395369 1.2484271910 -1.6823267221
C -3.3058118057 0.1259161376 -1.2466391219
C -1.9536563117 -0.0037396404 -1.5424680572
Cl -1.1208841501 -1.4271136558 -0.9620618260
H 2.1432189235 -3.3712602576 -0.3566446203
H 3.5365608487 -3.9831047824 0.5856774100
H 3.7675659699 -2.8178058096 -0.7483058215
H 4.0185777509 0.8156522837 4.8268414991
H 2.4157941713 0.1910152830 5.3235053932
H 3.8994623572 -0.3988138648 6.1426450053
H -1.4793714199 2.8944549382 -3.2469527564
H -3.8977027216 3.1231508279 -2.7397031925
H -5.0573188212 1.3388847983 -1.4484263808
H -3.8048846595 -0.6510827071 -0.6789169538
H 1.6607868117 -0.1522202669 -0.9954188827
H 1.5601611625 2.0324666050 1.7015154017
