76
CONF1799
C 2.6324618085 -2.2656275129 -1.2951296584
C 2.9676896338 -0.8154413558 -0.9274800666
C 4.2446907291 -0.7600411728 -0.0641592017
C 4.1048082718 -1.4275310422 1.3161131322
C 5.4030575845 -1.4035492861 2.0557418870
O 5.7312834655 -0.1518657953 2.4596777984
N 6.0977356241 -2.4595952269 2.2359387053
C 7.3731959107 -2.3966245598 2.9289093032
C 7.9757891141 -3.7922020471 3.0085614134
O 7.2375331389 -4.7514878087 2.4417062581
O 9.0404710286 -4.0286906934 3.5402553156
C 1.8027610057 -0.0691069356 -0.2579070738
C 2.1775610603 1.3949945735 0.1144810423
C 0.8724707179 2.2272354564 0.0451455216
C -0.2197362952 1.1789314387 -0.1763211771
C -1.5644156112 1.6459446980 -0.7208297557
C -2.1731577138 2.7643798392 0.1288584791
O -2.1618757800 2.3376703817 1.5086670107
C -3.5750401894 3.1403217167 -0.3527967335
C -4.5253120182 1.9514449238 -0.5563461409
C -5.0314525273 1.3863405845 0.7841408571
C -5.9931772871 0.2202317322 0.6029727108
O -6.4677350758 -0.2690838683 1.8740224002
C -5.3355353826 -0.8792697840 -0.2200327587
C -4.8877284879 -0.3152728126 -1.5675425207
C -3.8950660287 0.8644357768 -1.4710355557
C -3.7409855428 1.4175411199 -2.8986796342
C -2.5218688788 0.4391411368 -0.8681511174
C -1.8547818316 -0.7145691997 -1.6364793642
C -0.4733091016 -1.1237493034 -1.1036519679
O -0.5902746938 -1.8119617600 0.1577028734
C 0.4685739778 0.0965565179 -1.0425449273
C 0.7600339376 0.5808110498 -2.4721668366
H 1.9529932778 -2.3176623840 -2.1491084493
H 2.1580838518 -2.7931494103 -0.4608558044
H 3.5429865306 -2.8116421450 -1.5671583668
H 3.2209668482 -0.2794209413 -1.8533533491
H 5.0512959977 -1.2638752895 -0.6121209430
H 4.5566792669 0.2798783833 0.0731765278
H 3.7928788455 -2.4688410359 1.2144044627
H 3.3563035474 -0.8980449793 1.9165184579
H 6.5939085936 -0.1327317459 2.9015222139
H 7.2892490981 -2.0292378398 3.9638065698
H 8.1145317427 -1.7613935999 2.4189070985
H 6.4351123582 -4.2858931781 2.0921019326
H 1.5435874544 -0.6082343171 0.6623702302
H 2.6343634368 1.4395146356 1.1081424934
H 2.9218631130 1.7830375060 -0.5903656346
H 0.8978315069 2.9305957307 -0.7959060209
H 0.7021607122 2.8149429386 0.9517135112
H -0.4078226786 0.7138739749 0.8030483312
H -1.3911511252 2.0915057425 -1.7085491369
H -1.5287153248 3.6536809324 0.0359330584
H -2.6562794759 2.9936298463 2.0154637677
H -3.4575268141 3.6813447524 -1.2998726918
H -4.0189757395 3.8563725689 0.3529416985
H -5.4105785750 2.3304875073 -1.0905805465
H -4.1900947726 1.0453669239 1.3979303520
H -5.5288662208 2.1890733963 1.3435343857
H -6.8979279243 0.5626567295 0.0818868405
H -5.6927786173 -0.5640584005 2.3709055123
H -4.4796322731 -1.2821008614 0.3402902220
H -6.0422855411 -1.7038237926 -0.3707987532
H -5.7785871844 0.0542223831 -2.0958697529
H -4.4703141312 -1.1083277307 -2.1966208284
H -3.0160834235 2.2312349514 -2.9715302221
H -3.4312042099 0.6300656177 -3.5930990552
H -4.7064898867 1.8013648757 -3.2468341533
H -2.7226630792 0.0809669438 0.1517907425
H -2.4909662806 -1.6050859568 -1.6021392920
H -1.7474740748 -0.4476984175 -2.6930709919
H -0.0629230853 -1.8804135533 -1.7793511075
H -1.0468897920 -1.2312579458 0.7794486816
H -0.1273843614 0.9710381170 -2.9750049318
H 1.5151716291 1.3717989928 -2.4740382901
H 1.1449804183 -0.2440707756 -3.0816326974
