21
CONF138
F 0.3745736882 -1.6411181258 -1.2312695765
C 0.1822761725 -0.8603772941 -0.1373424394
F 0.3596511514 -1.6284538091 0.9698722589
C 1.2690350857 0.2577558801 -0.1287322957
F 1.2067905116 0.8751838450 1.0974275654
F 0.8973416811 1.1975255045 -1.0584781000
C 2.6595935527 -0.2555083515 -0.4113285459
C 3.7415746331 0.8202606059 -0.2632212049
O 4.1111716554 1.0754815529 1.0932515614
C -1.2996482503 -0.3615021720 -0.1697657388
F -1.6021519567 0.0245874721 -1.4302963781
F -1.4530536571 0.6969239338 0.6601769286
C -2.3493242914 -1.4397775632 0.2565102632
F -3.5775489978 -0.9968846433 -0.0495596952
F -2.2964280856 -1.6647322463 1.5745099521
F -2.1327303229 -2.5922384191 -0.3935532576
H 2.8751867711 -1.0928466746 0.2602150792
H 2.6651544572 -0.6351364769 -1.4376055078
H 3.4390056695 1.7448546624 -0.7723546964
H 4.6433847256 0.4479458863 -0.7560629602
H 3.4163664610 1.6028868065 1.5045855827
