47
CONF145
C -4.6275311721 -4.3244979024 -0.3342787425
O -4.5137480613 -2.9378338045 0.0915107075
P -5.6290449911 -1.8737091448 -0.3615197397
S -6.1299276648 -1.8695832648 -2.2324012963
O -6.8850455132 -2.0719236993 0.6033260818
C -6.6995681353 -2.1400559383 2.0505609934
O -4.9769251625 -0.5190795247 0.2436223699
C -3.9152379610 0.1285354849 -0.4015437993
C -2.6139677901 -0.3200691236 -0.2158996840
C -1.5675783408 0.3668002946 -0.8208136579
C -1.8285837271 1.5069981774 -1.5844787689
C -3.1439916666 1.9502922204 -1.7509339798
C -4.1943191359 1.2524754087 -1.1658880073
S -0.5428378702 2.4108007518 -2.4393601632
C 0.8906175204 2.1344632230 -1.4067494735
C 0.8803859898 2.4840698520 -0.0530330177
C 2.0158704643 2.2934979939 0.7214870515
C 3.1657098696 1.7862381834 0.1263933594
C 3.2028035331 1.4579467654 -1.2220071356
C 2.0506675588 1.6210546906 -1.9866790624
O 4.2966440800 1.6703290078 0.9339578828
P 5.0933590158 0.2630448628 1.0966058310
S 4.0297401629 -1.3496906262 1.2193968977
O 5.9415674433 0.7259736275 2.3740148771
C 6.8934092846 -0.2141164627 2.9493724923
O 6.1209725837 0.1795088261 -0.1328162645
C 6.9944469368 1.3136360243 -0.4215131910
H -3.7722525311 -4.8368201037 0.1055305757
H -4.5884781558 -4.3844391944 -1.4248021063
H -5.5596392644 -4.7596796537 0.0374385325
H -7.6735722114 -2.4123748694 2.4556310183
H -5.9588524007 -2.9029844641 2.3023418048
H -6.3899260754 -1.1641267879 2.4310270659
H -2.4223059406 -1.1994129225 0.3884429266
H -0.5508927740 0.0125880384 -0.6899796569
H -3.3508567344 2.8422055701 -2.3337640103
H -5.2198333481 1.5841506878 -1.2853698743
H -0.0174712796 2.8934172491 0.3981793497
H 2.0234220311 2.5456353596 1.7762718794
H 4.1085410636 1.0655735624 -1.6716121275
H 2.0589192510 1.3449346763 -3.0356264767
H 6.3672854905 -1.0996675135 3.3150794708
H 7.6452526282 -0.4964392252 2.2067532885
H 7.3634670736 0.3165552384 3.7764166515
H 7.6072843853 1.0012934321 -1.2662940654
H 6.3963819012 2.1882030796 -0.6913163497
H 7.6256385290 1.5362821331 0.4423655545
