44
CONF11
C -0.7435152507 2.9322421826 1.6210049851
C -1.1571815395 1.8515476251 0.6316989374
C -2.0891352692 0.8199926558 1.2581855628
O -2.4513616490 0.8471848574 2.4115784721
O -2.4919053469 -0.0755685040 0.3411345455
C -3.3837110972 -1.1450994247 0.8093405763
C -4.0761844253 -1.6633852743 -0.4340722826
C -2.5672815887 -2.2041777870 1.5271159599
N 0.0041992768 1.2061664317 -0.0214482469
C 0.4322132818 -0.0821655451 0.3893496842
C 0.5835784935 -1.1067752226 -0.5486592062
C 1.0071186638 -2.3644295543 -0.1479035882
C 1.2371227323 -2.6149222120 1.1953862215
C 1.0535873445 -1.6153754975 2.1445680285
C 0.6634909135 -0.3439308612 1.7407293627
Cl 1.3196255486 -1.9590662659 3.8284999302
F 1.6230961144 -3.8415644218 1.5790781903
C 0.5153429527 1.8660378900 -1.1309970481
O -0.0717088977 2.8174810281 -1.6309956625
C 1.8425044639 1.4310125834 -1.6665833436
C 2.9220443031 1.1188300938 -0.8367408548
C 4.1605766011 0.8177457643 -1.3903755065
C 4.3243976720 0.8067035443 -2.7730493784
C 3.2521655219 1.1263180651 -3.6025010106
C 2.0200600195 1.4546832540 -3.0515597042
H -0.1014069724 3.6561571776 1.1137402581
H -1.6297436994 3.4488925869 1.9965808116
H -0.2141067184 2.5166119125 2.4811153368
H -1.7211494325 2.3206118036 -0.1854919625
H -4.1020519307 -0.6881293158 1.4982236340
H -4.6258095605 -0.8646521455 -0.9384730600
H -4.7822555331 -2.4522538499 -0.1594920320
H -3.3450377995 -2.0814244747 -1.1328732738
H -2.0712387919 -1.7892501995 2.4072193789
H -1.8115773776 -2.6202431898 0.8532819165
H -3.2246717502 -3.0153115011 1.8549004338
H 0.3672984656 -0.9135852342 -1.5924969268
H 1.1390791919 -3.1699873680 -0.8615613327
H 0.5426021485 0.4312293812 2.4869554089
H 2.7976879491 1.1224611758 0.2409074161
H 4.9993408981 0.5899789226 -0.7407353245
H 5.2896781276 0.5597762002 -3.2031606128
H 3.3805451384 1.1309217635 -4.6800511746
H 1.1836799136 1.7387116108 -3.6813735083
