42
CONF5
C 2.4885751322 -2.7063567710 1.9050966766
C 1.4877333149 -3.1142907441 1.0334249716
C 0.7654938586 -2.1754781513 0.2997940801
C 1.0376703845 -0.8153345495 0.4228166313
C 2.0176889519 -0.4118563509 1.3381735797
C 2.7472721687 -1.3464556436 2.0596085593
C 0.2166151612 0.2697667619 -0.3026962040
C -0.3433287912 1.1880804080 0.8066719276
C -0.9937027136 0.6015623302 1.8990998369
C -1.5094857401 1.3824032598 2.9237283592
C -1.3664876015 2.7681100788 2.8864514207
C -0.7030848074 3.3557655489 1.8179546548
C -0.1943276672 2.5723981159 0.7817003988
C -0.9093234789 -0.3265011394 -1.1754487203
C -2.2537603624 -0.0857135246 -0.8771379261
C -3.2901518939 -0.5808877377 -1.6600052239
C -3.0044392518 -1.3376356336 -2.7871094787
C -1.6806080052 -1.5848761533 -3.1248712312
C -0.6516167880 -1.0826278904 -2.3343686596
Cl 0.9761849373 -1.4434888293 -2.8779050368
N 1.0657266146 1.0683619633 -1.2198263897
C 2.4387389140 1.2073744933 -1.2570195527
C 2.6916054737 2.1223389610 -2.2457767343
N 1.5212668578 2.5570735656 -2.8205077270
C 0.5701257580 1.9065989538 -2.1877521162
H 3.0524910907 -3.4385769241 2.4737445608
H 1.2596865666 -4.1690966195 0.9191099409
H -0.0217034739 -2.5164897129 -0.3615539685
H 2.1913828409 0.6466061730 1.5050291562
H 3.5070919911 -1.0106042617 2.7579354277
H -1.0900496057 -0.4792034259 1.9449226186
H -2.0144372298 0.9072781907 3.7586796026
H -1.7612090572 3.3804813268 3.6906419238
H -0.5707851730 4.4323928764 1.7833611443
H 0.3293446657 3.0536457372 -0.0361297972
H -2.4945259047 0.5202422942 -0.0132608385
H -4.3171096438 -0.3624981157 -1.3879262960
H -3.8003766922 -1.7294525847 -3.4115351911
H -1.4311424875 -2.1628960433 -4.0070046670
H 3.0975204519 0.6235314857 -0.6387186087
H 3.6554868744 2.4784720869 -2.5810485762
H -0.4917475026 1.9937263111 -2.3753695484
