45
CONF41
C -1.4622957857 -2.5935375419 0.9008788774
C -2.0205359575 -1.9934483259 -0.3494261755
C -1.7176646786 -0.7708170095 -0.7990020871
C -2.2965183097 -0.1971812120 -2.0257788705
C -1.4428930709 0.4515250455 -3.1532963396
C -2.3976152746 1.2778512168 -2.2891298175
C -1.8793469656 2.2843097916 -1.2866535957
C -3.6377336152 1.7562271750 -3.0166354911
C 0.0267611011 0.5088116952 -3.1460212710
O 0.7084186027 0.4392223628 -4.1550477264
O 0.5654164744 0.6174097708 -1.9104067846
C 2.0141153209 0.5596253394 -1.8250006774
C 2.3154700241 0.2866902491 -0.3852474919
C 2.1556657679 -0.9904337114 0.1420741556
C 2.3644349048 -1.2538814026 1.4873855917
C 2.7483419615 -0.2551977550 2.3758027767
C 2.9048411810 1.0212620112 1.8466661138
C 2.6911298596 1.2891234158 0.5025077232
F 2.8485091906 2.5488141234 0.0606832116
F 3.2690609861 2.0325409388 2.6539665014
C 2.9320771008 -0.5061314317 3.8547744777
O 1.8414462930 0.0020553826 4.6193955739
C 0.6300370575 -0.7236345242 4.3973612059
F 2.1809176341 -2.5116239215 1.9299209895
F 1.7750436243 -1.9953797775 -0.6650289201
H -2.2602221491 -2.8654888595 1.6027495818
H -0.7813322799 -1.8996380277 1.4035609831
H -0.9116487733 -3.5167291417 0.6810376282
H -2.7139948056 -2.6117966114 -0.9216122022
H -1.0219581801 -0.1647628069 -0.2259783025
H -3.1024652218 -0.7963098642 -2.4456325426
H -1.8046312136 0.2522314585 -4.1568077452
H -1.6465561362 3.2265680308 -1.7946987298
H -0.9851254117 1.9532477506 -0.7617104306
H -2.6611928517 2.4864971115 -0.5461081190
H -4.0017887159 1.0073725863 -3.7255947334
H -3.4281474682 2.6808864245 -3.5658969692
H -4.4358530441 1.9627168690 -2.2946818331
H 2.3844944671 -0.2433417081 -2.4664286987
H 2.4406997608 1.5097486788 -2.1529425082
H 3.8212165817 0.0225721236 4.2063245833
H 3.0641097267 -1.5809110866 4.0325968171
H 0.7663055955 -1.7921587372 4.6166006635
H -0.1161386814 -0.3038923170 5.0746530666
H 0.2771461732 -0.6110140693 3.3624946566
