44
CONF57
C -4.7158277065 1.7593905332 -0.0545720949
N -3.7028623575 0.7758814806 0.3456009964
C -3.1941073107 0.0052322781 -0.8137496526
C -2.2480259448 0.9800363445 -1.5675382432
C -1.7545303151 1.9455060318 -0.4596561926
C -2.4583607275 1.4247591779 0.8225337226
C -1.6450318250 0.3558939303 1.5610368296
C -1.3302717117 -0.8638666001 0.6986395092
C -2.4663257161 -1.2251193729 -0.2611388201
O -0.1110778613 -0.5362327274 -0.0649697241
C 0.6497884848 -1.5563358897 -0.4797603215
O 0.4012187359 -2.7315033225 -0.2860490229
C 1.8881637210 -1.0426512487 -1.1944929764
C 2.5005759662 -2.1510836160 -2.0616547360
O 3.6388311804 -1.6851671658 -2.7860510248
C 2.8627821175 -0.4920658478 -0.1708990649
C 3.3638408511 -1.3129302959 0.8440932052
C 4.2614047679 -0.8082743917 1.7804425623
C 4.6701997115 0.5229802954 1.7134849805
C 4.1737240934 1.3462112311 0.7057943880
C 3.2726798779 0.8406843584 -0.2292716191
H -5.5987803024 1.2330581740 -0.4325209122
H -5.0169061012 2.3432808338 0.8216930191
H -4.3809810925 2.4641117020 -0.8343583282
H -4.0321655523 -0.3259152458 -1.4365265706
H -1.4300419090 0.4493001455 -2.0604382355
H -2.8010312626 1.5223296125 -2.3395844265
H -0.6675366631 1.9471173519 -0.3527948524
H -2.0663149323 2.9724534660 -0.6701067475
H -2.7043892592 2.2327303221 1.5198604754
H -2.2327015470 0.0119339628 2.4195455351
H -0.7097761184 0.7743515618 1.9486001172
H -1.0801963574 -1.7217836385 1.3284218226
H -3.1896188526 -1.8351835923 0.2923292132
H -2.0745983428 -1.8425688199 -1.0760063835
H 1.5717361916 -0.2182389782 -1.8451561265
H 1.7327205093 -2.5460253204 -2.7407923243
H 2.8513664728 -2.9721493196 -1.4308677567
H 3.3377862695 -1.0173593838 -3.4154208387
H 3.0495491907 -2.3514586726 0.9055824215
H 4.6419848108 -1.4553707346 2.5648221301
H 5.3713556757 0.9155077123 2.4432774433
H 4.4873282322 2.3839520679 0.6456713817
H 2.8844241258 1.4845820070 -1.0135758564
