51
CONF28
O 3.6119643563 1.1451528560 0.5448101086
C 2.7929956965 0.1021874921 -0.0071665031
C 2.2701801669 0.6064705889 -1.3505130523
C 1.4818352651 1.9185171543 -1.2732538000
C 0.3328700349 1.8574281227 -0.2805002487
C -0.8354445483 0.8532735678 -0.5742370001
N -1.7415116147 2.0292128691 -0.5509526068
C -0.7323924430 2.9502317803 -0.3667443041
O -0.7389461578 4.1659845717 -0.3201915778
C -3.1187648206 2.1148639714 -0.7559644938
C -3.8308290604 0.9679355996 -1.1259825429
C -5.2050753596 1.0344424585 -1.3276557433
C -5.8414929521 2.2516233536 -1.1592636774
F -7.1846594189 2.3205150479 -1.3574881796
C -5.1620667401 3.4025083030 -0.7952432679
C -3.7899116784 3.3341662103 -0.5876405105
C -1.1049243543 -0.2118800861 0.4439831739
C -1.5153961955 0.1108077192 1.7414311768
C -1.7029305094 -0.8767362888 2.6975048922
C -1.4736844597 -2.2145373430 2.3652710810
O -1.6702146915 -3.1452654622 3.3447959119
C -1.0669393721 -2.5546396975 1.0745255423
C -0.8911636835 -1.5529227905 0.1249293697
C 3.5550011312 -1.1939764376 -0.1733744552
C 4.8404632577 -1.1999044920 -0.7222706728
C 5.5300362037 -2.3931925157 -0.9123260315
C 4.9059659081 -3.5754808351 -0.5474022642
F 5.5723474526 -4.7461944882 -0.7307605545
C 3.6362540907 -3.6142026697 0.0010866756
C 2.9671328471 -2.4066559342 0.1894096668
H 3.9478941483 0.8336266660 1.3950568837
H 1.9392317849 -0.0938731224 0.6606681850
H 3.1221927474 0.7335358864 -2.0297951114
H 1.6407739129 -0.1845185944 -1.7764416392
H 2.1458135001 2.7414148662 -0.9899025578
H 1.0872795218 2.1503339984 -2.2703765238
H 0.6935455683 1.7548709664 0.7490100701
H -0.7656778993 0.4215600231 -1.5802661757
H -3.3147491788 0.0229102440 -1.2545165931
H -5.7726305172 0.1557492552 -1.6136034039
H -5.6995103605 4.3364618931 -0.6723611900
H -3.2378273044 4.2195996698 -0.2984456956
H -1.6963732858 1.1489979233 2.0072588058
H -2.0266271174 -0.6272070286 3.7028365261
H -1.4850861789 -4.0272892042 2.9953184096
H -0.8946351788 -3.5961198222 0.8153594259
H -0.5758634424 -1.8212734363 -0.8801847466
H 5.3101902558 -0.2610728582 -0.9987191306
H 6.5292770161 -2.4130428139 -1.3339424007
H 3.1905975052 -4.5628200497 0.2804308786
H 1.9714859342 -2.4115774162 0.6255059600
