41
CONF142
O 8.8791115959 -0.0638374953 0.4415365262
N 8.1262795710 0.0967600848 -0.5237167162
O 8.5317270658 0.3444736492 -1.6632912417
C 6.6956531013 -0.0095186588 -0.3083073146
C 6.2186335222 -0.2917300567 0.9729366757
C 4.8547576237 -0.3902344697 1.1667159453
C 3.9577189743 -0.2078095325 0.0971035000
C 4.4664549357 0.0744632864 -1.1891325159
C 5.8274314265 0.1729768216 -1.3901034151
N 2.6045953413 -0.3297826309 0.4211954850
N 1.8087985887 -0.1270848205 -0.5613882959
C 0.4668880010 -0.2448054176 -0.2914803041
C -0.4103116774 0.0068304791 -1.3678960283
C -1.7735709500 -0.0682474129 -1.2229424207
C -2.3559633075 -0.4131303389 0.0301648979
C -1.4590745531 -0.6675851103 1.1160139075
C -0.1005071024 -0.5895490708 0.9586866197
N -3.6972230934 -0.5168373301 0.2080249481
C -4.6560914646 -0.3935243881 -0.8887908131
C -5.3702596241 0.9580443620 -0.9295735196
O -4.4739625741 2.0648657849 -1.0388170290
C -4.2793784167 -0.6903217049 1.5488219829
C -4.1962255231 0.5633042790 2.4192904398
H 6.9102042795 -0.4296733585 1.7942529752
H 4.4534302365 -0.6084580442 2.1508595134
H 3.7837967154 0.2127153996 -2.0181214281
H 6.2282100730 0.3888806390 -2.3727347624
H 0.0174091146 0.2794108015 -2.3281446724
H -2.3933085896 0.1602989568 -2.0788951314
H -1.8487534528 -0.9430368773 2.0868582724
H 0.5487017501 -0.7999213457 1.8006574869
H -4.1607835341 -0.5891700796 -1.8409807720
H -5.4171237152 -1.1744666411 -0.7638304029
H -5.9365250556 1.1141916881 -0.0064873830
H -6.0869967890 0.9375003116 -1.7627585270
H -4.0924091097 2.0552798685 -1.9255897000
H -5.3266626354 -0.9669266730 1.4031295087
H -3.8007659544 -1.5401696560 2.0482714016
H -4.6320759297 0.3491761364 3.3998147748
H -4.7496223349 1.3920078223 1.9703604455
H -3.1622062122 0.8846399435 2.5689270760
