41
CONF19
C -4.3894442672 3.4671592559 1.0688415765
C -4.3378093628 2.2089838586 0.2361030174
O -3.9121346709 1.1267376159 1.1150265967
C -3.7978794652 -0.0815281782 0.5244189449
O -3.9976647571 -0.3021655629 -0.6426559255
C -3.4379560507 -1.1409352541 1.5695150050
C -4.7175922350 -1.7316376805 2.1437697392
O -2.7236199646 -2.2128090754 0.9709164605
C -1.4662843438 -1.9606440448 0.4963396048
C -0.8079315007 -0.7365108578 0.5885488771
C 0.4857340435 -0.5874572448 0.0832811050
C 1.1001864649 -1.6774350244 -0.5096293273
C 0.4521582979 -2.9063021831 -0.6097093904
C -0.8273768189 -3.0469549649 -0.1090300298
O 2.3868223777 -1.6904126782 -1.0690046745
C 3.2131744859 -0.6647875093 -1.0730517725
N 3.1172704956 0.5376691192 -0.6033410519
C 4.3432778814 1.1150199730 -0.9406337149
C 4.8522734286 2.3870459707 -0.7145879231
C 6.1348473403 2.6661228950 -1.1829090420
C 6.8751237037 1.6910478309 -1.8560643192
C 6.3918546117 0.4047158846 -2.0986377822
C 5.1218850406 0.1721570662 -1.6195543662
O 4.3893311560 -0.9901569007 -1.7086738542
Cl 8.4850258062 2.0955931337 -2.4238420299
H -4.7077255759 4.3061437778 0.4432459310
H -3.4058555606 3.7018135091 1.4843857233
H -5.1004589822 3.3627457667 1.8926978981
H -3.6223539510 2.2836003617 -0.5890365040
H -5.3139960804 1.9479157447 -0.1853430767
H -2.8418159338 -0.6777530084 2.3678030886
H -5.3080575994 -0.9489917753 2.6265909806
H -5.3063178900 -2.1865778188 1.3431247476
H -4.4683176051 -2.4968442927 2.8825533220
H -1.2761225733 0.1269385377 1.0459762363
H 0.9922080118 0.3635104297 0.1562394358
H 0.9613165217 -3.7376819528 -1.0838244855
H -1.3535793329 -3.9920389362 -0.1790361497
H 4.2732343742 3.1391240270 -0.1914133403
H 6.5705997860 3.6457145956 -1.0279803834
H 6.9739710008 -0.3429751921 -2.6214189567
