15
CONF1
C -1.8480404124 1.0719907291 -1.0013066131
C -0.7700875910 0.8825492231 0.0603219156
C 0.2832133059 -0.2184747747 -0.2577930870
C 1.5926285775 -0.1608240906 0.5887533457
F 2.3120269863 -1.2695556990 0.3581683161
F 1.3023078071 -0.1008347838 1.8967371157
F 2.3369552338 0.9011696777 0.2575270296
F 0.6440046111 -0.1067581953 -1.5630128044
F -0.2733931118 -1.4350322566 -0.0609651053
F -1.3629451256 0.5610394525 1.2527271431
F -0.1164670330 2.0705629439 0.2272857823
O -2.5971969599 -0.0991110945 -1.2333374020
H -1.3707425781 1.3499224132 -1.9438527893
H -2.4620523636 1.9182009739 -0.6559091604
H -3.0602306868 -0.3321109712 -0.4194351930
