70
CONF182
C -2.7170959295 -0.1434860860 -0.8548298064
C -4.1014454268 0.5373782539 -0.7447055650
C -5.1222982675 -0.4753963093 -0.3396832436
C -6.4783544604 -0.6067883691 -0.5151243348
N -6.9042782256 -1.7884792962 0.0848274100
C -5.8253649459 -2.4371563985 0.6413919497
C -5.6743512553 -3.6398339290 1.3362827891
C -4.3817909081 -3.9706440789 1.7359313522
C -3.2612024753 -3.1520604799 1.4660464321
C -3.4119165569 -1.9505802949 0.7824240604
C -4.7054002494 -1.6218701607 0.3825091901
C -2.3418973231 -0.9355543494 0.4350058320
C -0.9609388407 -1.5759793581 0.3024470644
C 0.0886861095 -0.5270794440 -0.0714538241
C -0.3647556609 0.2002108566 -1.3401510963
N -1.6569553303 0.8532708824 -1.1060544670
C -1.9395924255 1.8129764436 -2.1956839373
C -2.1310112603 1.2027809604 -3.5583704610
C -1.3219292616 1.4236523111 -4.5926575677
C 1.4344055048 -1.1818465232 -0.3251871654
O 1.6201344395 -1.8783988552 -1.3249886060
N 2.4664600517 -0.9132825545 0.5436883791
C 3.8026460460 -1.4612268457 0.2169218579
C 4.5319841204 -0.7516858114 -0.9292230575
C 5.2983427097 0.5148780847 -0.5544561650
N 4.4709409001 1.6092922182 -0.0219447070
C 5.3275587002 2.7040268269 0.4474269051
C 3.5093740165 2.1106717150 -1.0079088495
C 2.2206321578 -0.4017965542 1.8754165507
O 1.3447413359 -0.8868906824 2.5911772001
N 3.0589805114 0.5841926136 2.2143494750
C 3.0002023774 1.2190745365 3.5254561511
C 1.9986203915 2.3714749448 3.5658072181
H -2.7682849374 -0.8843432629 -1.6794896930
H -4.0292050167 1.3458132832 -0.0022365255
H -4.3807626948 0.9971194740 -1.6967715507
H -7.1918539311 0.0333020605 -1.0157192722
H -7.8549451190 -2.1196167779 0.0866358717
H -6.5142120716 -4.2914500271 1.5552504532
H -4.2255708722 -4.8999647130 2.2757455159
H -2.2850174423 -3.4821176458 1.8063522042
H -2.2989683455 -0.1941109567 1.2497649931
H -0.6751810336 -2.0583480699 1.2411360644
H -0.9919740141 -2.3463773485 -0.4795433561
H 0.1613810789 0.2084216831 0.7348454732
H 0.3667997254 0.9718959545 -1.6091373356
H -0.4063192722 -0.5218393899 -2.1739793379
H -2.8235522779 2.4003867489 -1.9236779187
H -1.0961432437 2.5129908558 -2.2314097050
H -2.9855001119 0.5373560841 -3.6839238932
H -0.4581522644 2.0794115176 -4.4990257101
H -1.4941579074 0.9647304664 -5.5620957531
H 3.6597535705 -2.5128449517 -0.0520140023
H 4.4036876935 -1.4265011924 1.1302644474
H 5.2769531486 -1.4562208803 -1.3183452587
H 3.8354245284 -0.5716071577 -1.7529934128
H 5.8645680243 0.8608433063 -1.4405500421
H 6.0357181711 0.2635273944 0.2192798731
H 6.0124675895 2.3336118036 1.2172594807
H 4.7070206977 3.4940955219 0.8829613823
H 5.9264207711 3.1427314984 -0.3704498450
H 4.0099836155 2.4937283853 -1.9150946739
H 2.8163850696 1.3189779508 -1.3023533307
H 2.9265089778 2.9233917346 -0.5627815858
H 3.6190988952 1.0153118554 1.4442316546
H 2.7342816154 0.4584444396 4.2661446494
H 4.0059034307 1.5825259978 3.7632529760
H 1.9855312174 2.8272860090 4.5608071476
H 0.9908568131 2.0127152471 3.3357429101
H 2.2679238606 3.1428785490 2.8372308565
