41
CONF14
C -4.0455072053 -3.1537019266 3.0110402883
C -3.3452526732 -2.2589611283 2.0398287558
C -3.7601890541 -0.9459598079 1.8109355549
C -3.0584460007 -0.1877558527 0.8809560730
N -2.0113238815 -0.7138671552 0.2232679384
C -1.6812165606 -1.9720961915 0.5185122036
N -2.2926028057 -2.7795889789 1.3912929761
N -0.5845451603 -2.5438286942 -0.1228614288
C 0.3110160655 -2.0207250486 -1.0472592532
O 1.2781253560 -2.6713127140 -1.4179599783
N 0.0055161528 -0.7526812109 -1.5043079602
S 1.0986391533 0.1576873996 -2.4239783253
O 0.4735941795 1.4855017267 -2.5011095134
O 1.4097784707 -0.5772033859 -3.6517994977
C 2.6083434788 0.2900036998 -1.4547599537
C 3.6978715690 -0.4746154932 -1.8537702995
C 4.9154270502 -0.3211732351 -1.1974451878
C 5.0394961483 0.6076034955 -0.1702016839
C 3.9480029278 1.3820048055 0.2119588067
C 2.7122872631 1.2237527164 -0.4156773359
C 1.5431831660 1.9916545602 0.1151609312
O 0.5318064759 1.4747619012 0.5435312282
O 1.7890114647 3.3053756658 0.1194886332
C 0.7335777905 4.1331038121 0.6800023856
C -3.4066028368 1.2281776945 0.5600014063
H -4.4531174392 -4.0230865033 2.4843948093
H -3.3333246721 -3.5305232717 3.7517706958
H -4.8568420588 -2.6325554167 3.5214464033
H -4.6071862788 -0.5289784944 2.3425110656
H -0.3644272243 -3.4881720085 0.1655107785
H -0.7271407574 -0.2401404694 -0.9768273005
H 3.5936325442 -1.1722616687 -2.6755957876
H 5.7661964531 -0.9212651717 -1.5013145228
H 5.9904389567 0.7370770995 0.3355437833
H 4.0445236713 2.1063292398 1.0136417333
H -0.1853042691 3.9992347799 0.1048231855
H 1.0980351027 5.1554900922 0.5966169301
H 0.5642902704 3.8634390514 1.7247578974
H -2.5573732380 1.8781128669 0.7972124182
H -4.2816723955 1.5599726617 1.1203593023
H -3.6007191087 1.3311700830 -0.5125396515
