53
CONF38
C -5.3644976436 -1.4311580366 -0.2941592212
O -4.0383686564 -0.8500394540 -0.1462650528
C -3.6743354890 0.0098840679 -1.0982143941
O -4.3382834696 0.3059783668 -2.0644199505
C -2.2971431350 0.6381974579 -0.7828781482
C -2.4742501301 1.6176833224 0.4065989962
C -2.0894057969 0.7741391706 1.5985871640
C -1.3746548586 -0.3672762466 1.2035627123
C -1.2761972365 -0.3490349006 -0.2456011727
N -0.2992459260 -0.8417759391 -0.9191050743
N -0.2483933995 -0.5124309534 -2.2463172593
C -1.3381416692 0.2598488345 -2.8565313759
O -1.7789875585 1.2630689837 -1.9437212249
C 0.9307745438 -0.6919708323 -2.9425810109
O 0.9779842540 -0.6075922789 -4.1567108350
N 2.0735398438 -0.9300195599 -2.1257844046
C 2.3019898605 -0.0664843140 -1.0036864341
C 2.6381567398 -0.5964740123 0.2409441471
C 2.7639209376 0.2453984944 1.3362636785
C 2.5236502616 1.6023221464 1.1662076381
C 2.2123283934 2.1505359416 -0.0660651998
C 2.1138612886 1.3035741133 -1.1652257139
O 2.6645193967 2.4683512839 2.2758001706
C 1.5532077183 2.6489583429 3.0238402322
F 1.8473567003 3.5241681583 3.9916297256
F 1.1184083049 1.5066558133 3.6041656458
F 0.5120764026 3.1388086127 2.3101831151
C 3.0386826499 -1.8243015376 -2.6023425680
O 2.8142224952 -2.6943527407 -3.4157308883
O 4.2244965750 -1.5931462783 -2.0207716478
C 5.2674801371 -2.5378574212 -2.3712527903
C -0.8534353685 -1.2537999113 2.1406300634
C -1.0693796435 -0.9997922802 3.4904549700
C -1.7905951519 0.1340270234 3.8635354120
C -2.3088641555 1.0392083939 2.9397832584
Cl -2.0430243271 0.4434312232 5.5745780271
H -5.4175570856 -1.9975838891 -1.2260710831
H -5.4848356733 -2.0864015830 0.5666476478
H -6.1171726058 -0.6401431024 -0.2905305116
H -1.7611806462 2.4401701080 0.2726821683
H -3.4801141308 2.0400097036 0.4720169887
H -0.9555722042 0.7601340807 -3.7452768898
H -2.1643678296 -0.4125998673 -3.1201375861
H 2.7754965341 -1.6656332810 0.3558801656
H 3.0189201789 -0.1453244648 2.3148513972
H 2.0562316747 3.2186442132 -0.1660018228
H 1.8735668826 1.7105735783 -2.1424679970
H 5.4768437833 -2.4842292137 -3.4416642297
H 4.9632758296 -3.5508319414 -2.0987243454
H 6.1356863595 -2.2265629300 -1.7923534637
H -0.2997488439 -2.1328822865 1.8281628908
H -0.6874349967 -1.6738634515 4.2482996212
H -2.8514915113 1.9197914896 3.2652861741
