12
CONF39
C -0.9860006176 -1.4331928457 -0.3071783962
O -1.0991784282 -0.8025766683 -1.5557008696
O 0.2148623259 -1.1376636122 0.3820360318
O 0.0358626047 0.2023558480 0.9936805274
C 1.1553281062 0.9923413982 0.6405929212
O 1.1557993215 1.4369372386 -0.6898200979
H -1.8422272823 -1.2086067145 0.3425208162
H -0.9066097148 -2.5106755810 -0.4892884821
H -1.3431653964 0.1209342957 -1.4071007878
H 2.0800952238 0.4262508879 0.7896865915
H 1.0831715283 1.8219647509 1.3587167013
H 0.4520623341 2.0919311029 -0.7933679625
