42
CONF3
C 0.4383396670 -2.4747527296 4.1631922194
C -0.0427980725 -2.8186402717 2.7562477605
C 0.4985759813 -1.8636787509 1.6999519077
C 0.1207135701 -2.3286674344 0.2853409889
O 0.8556943520 -3.0780904268 -0.3428824078
N -1.0847383843 -1.8809578450 -0.1558310966
C -1.4387178892 -1.9545254124 -1.5762061311
C -0.8335008181 -0.8069789695 -2.3527173107
C -1.4083993847 0.4647568430 -2.2902776040
C -0.8276715174 1.5391752154 -2.9542314379
C 0.3363080143 1.3504059074 -3.6954519789
C 0.9169947752 0.0875261865 -3.7610775373
C 0.3384869027 -0.9857084238 -3.0883002604
O -0.0353515728 -0.5596401771 1.9926165156
C 0.3869019184 0.4872675635 1.2116469298
C -0.3137389667 1.6802133753 1.3891696422
C 0.0005724137 2.7966502621 0.6243390090
C 1.0266144106 2.7021855520 -0.3127550703
C 1.7339194711 1.5311340964 -0.4897399062
C 1.4141079688 0.4107458520 0.2696234408
F 1.3243161003 3.7701515805 -1.0795960647
C -0.7724566332 4.0763726226 0.7680856893
F 0.0226645340 5.1180382007 1.0966896141
F -1.7230845534 3.9813396201 1.7255877075
F -1.4055565289 4.4064400915 -0.3851802342
H 1.5313789157 -2.5048948303 4.2207754608
H 0.1102237708 -1.4747858948 4.4574122580
H 0.0438952280 -3.1903602449 4.8897768965
H -1.1381874175 -2.8074449867 2.7077994943
H 0.2823179399 -3.8256175205 2.4721247147
H 1.5954125457 -1.8438571065 1.7484293583
H -1.5121798936 -1.1449262152 0.3880711956
H -1.0757334371 -2.9121066038 -1.9566346315
H -2.5307947231 -1.9419182628 -1.6551680659
H -2.3216346694 0.6159807139 -1.7190108459
H -1.2805493458 2.5236929396 -2.8926367399
H 0.7894950144 2.1881565595 -4.2156901687
H 1.8244521463 -0.0641456034 -4.3375004024
H 0.7979665174 -1.9688370050 -3.1244562164
H -1.1094416848 1.7217959841 2.1229118759
H 2.5105942613 1.4886565176 -1.2438146714
H 1.9545888673 -0.5101515873 0.0900583897
