42
CONF3
C -4.5598243822 1.4314482557 2.8359684761
C -3.8127812810 2.2352010434 1.9757876677
C -2.5723306179 1.8066965117 1.5134715554
C -2.0594452198 0.5672290996 1.9070276134
C -2.8119590455 -0.2301396744 2.7721463363
C -4.0557597168 0.1965875101 3.2336609859
C -0.7277561805 0.0554042564 1.4035532500
C -0.7092162593 -0.2348757438 -0.0894596337
C -0.8316872292 -1.5506376577 -0.5439448247
C -0.7898288065 -1.8349402707 -1.9048813057
C -0.6203964704 -0.8059948749 -2.8294487279
C -0.5087527109 0.5093376577 -2.3859639288
C -0.5547727795 0.7938602436 -1.0240945695
C 0.4563365286 0.9460340930 1.7728843712
O 0.3563815396 1.9879936082 2.3819619388
C 1.8419717900 0.4757777331 1.3160708087
C 2.3401776518 1.2637356460 0.0826131050
O 2.3537323271 2.4713864714 -0.0264490091
C 2.8110507672 0.2765808993 -0.9097952609
C 3.3706368377 0.5147317921 -2.1598942487
C 3.7398759096 -0.5889373965 -2.9229321974
C 3.5524484304 -1.8941571235 -2.4458942517
C 2.9934362567 -2.1282598072 -1.1929895367
C 2.6263306946 -1.0243494517 -0.4318754330
C 2.0249673439 -0.9904619216 0.9165001086
O 1.7637259798 -1.9492364331 1.6193478791
H -5.5278941351 1.7677427593 3.1939882442
H -4.1971307749 3.2017803212 1.6644710321
H -2.0038475391 2.4475978588 0.8483491555
H -2.4218041461 -1.1949220612 3.0852947203
H -4.6281189750 -0.4374577986 3.9038359488
H -0.5198842317 -0.8962730294 1.9108942062
H -0.9439966527 -2.3559192617 0.1766404573
H -0.8786711309 -2.8625356661 -2.2434978520
H -0.5744631295 -1.0288804639 -3.8907620030
H -0.3740226769 1.3164487744 -3.0992382984
H -0.4535091359 1.8233563250 -0.6936475202
H 2.5250938398 0.7027840059 2.1455944476
H 3.5099746718 1.5268790589 -2.5248951112
H 4.1789979527 -0.4415032316 -3.9042007036
H 3.8486395570 -2.7327752778 -3.0675765493
H 2.8440764456 -3.1363370968 -0.8205693170
