39
CONF4
C 3.0998033213 0.7293298941 -0.2825384524
C 2.0883148455 -0.0262772560 -1.0934631279
C 1.3132173299 0.5070664370 -2.0455149629
C 1.0774866330 1.9620535103 -2.2921390196
C -0.2753834888 2.3601734362 -1.6357837920
C -0.4067486091 1.8247678012 -0.2224772724
C 0.0265118655 2.5482473180 0.8154948948
C -1.0390673287 0.4639148981 -0.0421822128
C -2.0854783302 0.2685176656 1.0896238146
C -1.5765383014 -1.1825851687 1.2952303983
C -0.2603610586 -0.7627013412 0.5578098634
C 0.4201493648 -1.7879678072 -0.3471806395
C 1.8900368646 -1.4724576680 -0.6791062951
C -2.4227110685 -2.1800745693 0.5061533762
C -1.4021638585 -1.6492092861 2.7319440615
H 4.0639785522 0.2050015927 -0.3120159188
H 3.2562384496 1.7542799332 -0.6222786009
H 2.7949256800 0.7583923270 0.7718914706
H 0.6116611273 -0.1588241360 -2.5513859768
H 1.8699327264 2.5756102172 -1.8554513465
H 1.0301808870 2.1952603486 -3.3632295449
H -1.0953776636 1.9658804058 -2.2481364154
H -0.3585771734 3.4527505798 -1.6369816930
H -0.0304641033 2.1804980051 1.8367930478
H 0.4738558565 3.5281694994 0.6684565938
H -1.4775804892 0.1479112729 -0.9950767198
H -1.8545714918 0.8969122464 1.9551484870
H -3.1391189212 0.3997730169 0.8189491490
H 0.4482334937 -0.3919312997 1.3117987878
H 0.3845505432 -2.7695369601 0.1457708000
H -0.1605040555 -1.8902534474 -1.2718039407
H 2.5010629834 -1.6664954037 0.2105723963
H 2.2488529975 -2.1636614895 -1.4534994311
H -3.4110775759 -2.2722576888 0.9712995930
H -1.9625130826 -3.1742688055 0.4944369917
H -2.5686609822 -1.8603050232 -0.5306705632
H -0.8732482941 -2.6100183393 2.7661108574
H -0.8245150153 -0.9211195101 3.3116691446
H -2.3743320315 -1.7845650365 3.2217619124
