35
CONF11
C 5.2310253369 -1.2160980636 0.2415246172
O 4.1400619387 -1.5129456737 1.1090704726
C 2.9340191097 -0.9534835279 0.8183531658
C 1.8887472291 -1.2827523985 1.6914160357
C 0.6243011820 -0.7704121527 1.4776078809
C 0.3588884082 0.0840686076 0.3963929320
C 1.4075492609 0.4077598857 -0.4574982636
C 2.6912252337 -0.1034017381 -0.2599180120
C -1.0439293572 0.6564200475 0.2422212252
C -1.2240216421 1.4435553849 -1.0567269355
C -2.3047944038 2.4775719548 -1.1494005094
C -0.8571570986 2.8973285328 -1.1474770142
C -2.0886369062 -0.4481222574 0.2428277548
C -1.9336706463 -1.5862148581 -0.5466690004
N -2.8547595965 -2.5481254386 -0.6214094491
C -3.9519146373 -2.3587901381 0.1189705414
N -4.2117614354 -1.3229041446 0.9174918789
C -3.2731080798 -0.3699407713 0.9706929866
O -1.3316786615 1.4973539489 1.3777589388
H 6.0867664308 -1.7598932163 0.6431154142
H 5.0294162073 -1.5573478112 -0.7820286391
H 5.4529982757 -0.1411032845 0.2339990976
H 2.0950581855 -1.9464430362 2.5240660613
H -0.1822152936 -1.0347275811 2.1555384103
H 1.2356620819 1.0761068619 -1.2937886461
H 3.4801453593 0.1702521724 -0.9493223324
H -1.0608334000 0.8420634320 -1.9480535897
H -2.8620338035 2.5480720384 -2.0767244971
H -2.8705429276 2.6788920063 -0.2463955982
H -0.4896446180 3.3841933531 -0.2502331213
H -0.4189121159 3.2551602739 -2.0734550861
H -1.0241354421 -1.7310012592 -1.1307366341
H -4.7129068543 -3.1370089732 0.0666318896
H -3.4652308767 0.4777481608 1.6224936596
H -0.4939755386 1.8841695891 1.6557585525
