52
CONF624
C 4.2658677444 -0.5978656170 -2.8828298328
C 3.5464652561 -1.0886762501 -1.6292711218
C 2.0422270546 -1.2507583942 -1.8402546195
C 1.2998207250 -1.6043350178 -0.5535602633
C -0.1935690302 -1.8917209277 -0.7619721730
C -0.4325301782 -3.3130112732 -1.3003705320
C -1.7898147770 -3.5112542144 -1.9739061469
C -0.9648276436 -1.7035760690 0.5357490876
O -1.0399202508 -0.2804990763 0.8455800950
P -0.5500336985 0.2920688278 2.2547310724
O 0.4302801179 -0.5175687932 2.9968716714
O -0.1285517404 1.7973628663 1.8458712892
C 0.9756241251 1.9871486970 1.0062511349
C 2.2592393665 1.8808208385 1.5248580540
C 3.3399547155 2.1267074235 0.6836445698
C 3.1328664025 2.4704080617 -0.6499109529
C 1.8365454279 2.5652340002 -1.1489494687
C 0.7448940519 2.3219843588 -0.3205992883
O -1.8737927999 0.5922251366 3.1184358384
C -2.9908638340 1.2277366419 2.5645822303
C -3.0822547458 2.6116946095 2.6164232950
C -4.2265120460 3.2262369286 2.1172255713
C -5.2582210726 2.4634670796 1.5768225334
C -5.1479014975 1.0762615301 1.5381299631
C -4.0098002363 0.4486599906 2.0343371059
H 5.3422078739 -0.4924729357 -2.7148468505
H 4.1235743360 -1.2929482421 -3.7177895750
H 3.8778306315 0.3782593179 -3.1953248672
H 3.7150017914 -0.3814471865 -0.8074654169
H 3.9730181309 -2.0475062455 -1.3067745383
H 1.8663841812 -2.0136306039 -2.6116159381
H 1.6320114588 -0.3104455312 -2.2352013448
H 1.7636011787 -2.4807191089 -0.0774120648
H 1.4224489353 -0.7740213114 0.1523927322
H -0.5946862070 -1.1683320728 -1.4878308209
H -0.3110122090 -4.0291743643 -0.4751991037
H 0.3589447219 -3.5503834957 -2.0198384587
H -1.8959716228 -2.8411556444 -2.8334334138
H -1.9031106932 -4.5381194178 -2.3341296189
H -2.6233791955 -3.3106384355 -1.2934861214
H -0.4704947220 -2.2330212563 1.3592778344
H -1.9988379041 -2.0525627344 0.4494013582
H 2.3948562457 1.6000317513 2.5630518294
H 4.3490178581 2.0468328764 1.0747916720
H 3.9807260649 2.6596131695 -1.2998735856
H 1.6706173278 2.8307756297 -2.1881227282
H -0.2748141480 2.3844524616 -0.6839588896
H -2.2672676566 3.1855347431 3.0419816416
H -4.3104420694 4.3074922389 2.1542786344
H -6.1482271846 2.9487536959 1.1908059455
H -5.9516017091 0.4767678472 1.1232086322
H -3.9055858511 -0.6306867146 2.0221204368
