35
CONF14
C -5.0028496737 -2.5805903570 -0.7537089563
C -4.4569366610 -1.2966188631 -1.3354337115
O -3.3460006903 -0.7888724661 -0.5247011086
C -2.1611308311 -1.3260296223 -0.7202736699
N -1.8962913388 -2.2256176186 -1.6313118888
C -0.6398316450 -2.6784568648 -1.7266598396
C 0.4287421005 -2.3007604063 -0.9601800710
C 0.1431108215 -1.3325341187 0.0150716399
N 0.8805844807 -0.7171715857 0.9347334128
C -0.0249178564 0.0931520153 1.5313383525
N -1.2787194504 0.0661231568 1.0952209133
N -1.1728259708 -0.8639258382 0.1076309634
S 0.4701066403 1.2694846707 2.8105254440
O 1.5614773621 0.6515057139 3.5463599941
O -0.7380904128 1.8045257355 3.4224793686
N 1.1241969786 2.5833339471 1.9006627229
C 2.2806437302 2.3578966049 1.1202546660
C 2.2183798491 2.1054547896 -0.2604997764
C 3.3507898765 1.8867014972 -1.0289887587
C 4.5946942860 1.9068849452 -0.4107683534
C 4.7049724443 2.1869172931 0.9439483177
C 3.5613438889 2.4329922935 1.6953581968
Cl 3.7513832937 2.9071779706 3.3558162954
Cl 0.6567376509 2.1031673281 -1.0627040808
F -0.4620395749 -3.5957288666 -2.6836305367
H -5.8866901343 -2.8827022859 -1.3239284371
H -5.2976339667 -2.4376294221 0.2890296272
H -4.2669406485 -3.3854521691 -0.8149175028
H -4.1101471389 -1.4216825793 -2.3641289569
H -5.1848092044 -0.4851031446 -1.2860128462
H 1.4206406265 -2.7104830243 -1.0842344299
H 0.3617677720 3.0141572157 1.3825094424
H 3.2534084152 1.6966126013 -2.0907618646
H 5.4886501084 1.7227860182 -0.9963967451
H 5.6742249836 2.2404854412 1.4243966814
