43
CONF12
C -0.7607521269 1.8475251101 0.9825457783
C -1.3314627451 0.4475734231 1.1380641496
C -1.5754854731 -0.3045887990 -0.1460475348
C -2.8879780206 -0.7677074158 -0.1536588183
C -3.4263896582 -1.4374315549 -1.2412822153
C -2.6195915824 -1.6386329285 -2.3599865332
C -1.3002069647 -1.2040510857 -2.3615712280
C -0.7584214686 -0.5436883678 -1.2514190116
N 0.5819819203 -0.1037296999 -1.3249839641
C 1.5274166948 -0.3091628717 -0.3442042542
O 1.2797590565 -0.8986593820 0.7009601653
C 2.8708749479 0.2259350015 -0.6205721288
C 3.3298689485 1.1809166367 -1.5250587665
N 4.6576497268 1.3279442831 -1.3459016180
N 5.1143313586 0.5129732737 -0.3638505297
C 4.0499329506 -0.1498831920 0.0842752486
C 4.1945363665 -1.1424210429 1.1826187654
C 5.5612119826 2.2320717804 -2.0340998535
Cl 2.5002368563 2.1394601372 -2.6986433423
C -3.5430965827 -0.4158251498 1.1613218938
O -2.6487749983 0.5713065096 1.7181330970
C -4.9101745876 0.2367438192 1.0122306317
C -3.6001137885 -1.6419139618 2.0801750916
H -1.3435232011 2.4160962702 0.2520923140
H -0.8078862415 2.3614248995 1.9462726272
H 0.2833142736 1.8146122553 0.6617625141
H -0.6826349722 -0.1453733457 1.7993467488
H -4.4544790245 -1.7859726661 -1.2321649707
H -3.0142723438 -2.1485367276 -3.2327965048
H -0.6689906722 -1.3898745737 -3.2260512649
H 0.9098712916 0.1728663316 -2.2374984278
H 5.2533269752 -1.2636341707 1.4207158723
H 3.6512911976 -0.8143797568 2.0726075701
H 3.7669859540 -2.1069519399 0.8968013775
H 5.5291107464 2.0587984624 -3.1136618575
H 5.2965377010 3.2741791964 -1.8291142615
H 6.5628303583 2.0272341002 -1.6572826215
H -5.2606809015 0.5838863609 1.9884801055
H -4.8493069946 1.0920423747 0.3348360722
H -5.6390239870 -0.4787405273 0.6189557599
H -3.9878856567 -1.3520608610 3.0613709126
H -2.5997907656 -2.0660479193 2.2060737258
H -4.2501465551 -2.4143221485 1.6559365833
