52
CONF168
C 1.4330285330 -2.5581119955 -1.6558721541
C 1.5235577139 -1.0584415458 -1.4877962498
C 2.5118071058 -0.4014010868 -2.4535519456
C 2.6823017384 1.0873540046 -2.1346760654
C 3.0504036530 1.2864972999 -0.6588990982
C 2.1157261294 0.5033433747 0.2628524229
O 1.9423306339 -0.8276218793 -0.1120706681
O 0.8538503417 1.2400802404 0.2631039956
C -0.0276472334 0.8270378987 1.2358054653
C -1.1930942536 0.2043694964 0.8858955615
O -2.0625010811 -0.2558647497 1.8259097252
C -1.7946829000 -0.1137466029 3.1586087214
C -2.7184181829 -0.6546822609 4.0374745066
C -2.4769749847 -0.4949127756 5.4031129083
C -1.3504055757 0.1849835126 5.8822491781
C -0.4424703320 0.7158744862 4.9819908317
C -0.6471935980 0.5716537047 3.5812679347
C 0.2910371694 1.0939931500 2.6220938973
O 1.3256492807 1.7255734715 2.9643696895
O 0.6437477094 1.3661241426 5.4332326403
O -3.3234877087 -0.9866396029 6.3393578992
C -1.6478046184 -0.0597657894 -0.4751483849
C -1.5796509782 0.9451087030 -1.4519996827
C -1.9260460121 0.6596995593 -2.7621752058
C -2.3571052951 -0.6338818847 -3.1122799135
C -2.4581127765 -1.6166803865 -2.1335875399
C -2.1119554325 -1.3337222995 -0.8187404928
O -2.6866486790 -0.9345230078 -4.3938000488
O -1.8863761399 1.5621140544 -3.7837532303
O 4.3535617673 0.7681859693 -0.3907572848
O 1.5008474510 1.8175044663 -2.4955591325
O 2.0756232570 -0.5679791853 -3.8019223353
H 1.0916224026 -2.7953723434 -2.6660773299
H 2.4118889841 -3.0214251335 -1.4941116955
H 0.7177630798 -2.9753567071 -0.9412863074
H 0.5317846924 -0.6099854737 -1.6365414935
H 3.4842087884 -0.8996442753 -2.3666762481
H 3.4843321146 1.4968504464 -2.7606402736
H 2.9831285331 2.3528033588 -0.4024192001
H 2.5175954828 0.4796034699 1.2789625871
H -3.5951698879 -1.1745867423 3.6673731796
H -1.1920731630 0.2929801232 6.9491955693
H 1.1451034089 1.6548825173 4.6176531030
H -4.0666861284 -1.4356976485 5.9119417101
H -1.2824682315 1.9554893341 -1.1843654556
H -2.7960239976 -2.6071549524 -2.4202654563
H -2.1645864447 -2.1123866793 -0.0661804173
H -2.5551335300 -0.1495026975 -4.9470349900
H -1.5282761328 2.4053393524 -3.4745619603
H 4.9931653859 1.3187091368 -0.8606007401
H 0.8414174208 1.6840962484 -1.7977588744
H 1.3655099226 0.0788354744 -3.9373636643
