45
CONF1225
O -0.4640485737 -1.1501302243 -2.7374984448
C -1.7620165940 -1.6939723994 -2.4963504574
C -2.4005475123 -1.2039391099 -1.2154450840
O -1.5992394677 -1.6581724594 -0.0835976413
C -1.5709533516 -0.6775500920 0.9382210840
C -1.8795006935 -1.3199584631 2.2832471499
O -0.8707107019 -2.2493293095 2.6933837064
O -0.2939410224 -0.0148222338 1.0120700686
C 0.8622134024 -0.7301626458 0.6255344733
O 1.2855843705 -0.3439858298 -0.6755643215
C 1.6120841772 1.0627620448 -0.7937937124
C 1.8914403957 1.3423778047 -2.2597121175
O 0.7045720950 1.4479416765 -3.0456342856
C 2.8026510349 1.3486946260 0.1166818815
O 3.1152962150 2.7369370042 0.0153025734
C 2.4464270922 0.9829279733 1.5586512176
O 3.5528657897 1.2501349552 2.4276801906
C 1.9808034070 -0.4661648085 1.6429045642
O 1.5722191375 -0.7637400389 2.9722642510
C -2.5889162437 0.3979879419 0.5090818418
O -2.3599519132 1.6814747627 1.0482438863
C -2.5125604797 0.2994399541 -1.0188441616
O -3.6575709070 0.7855824772 -1.7000171066
H 0.0548625772 -1.2028985410 -1.9143397947
H -2.4004253000 -1.4004012696 -3.3360471080
H -1.7157517132 -2.7920471103 -2.4681105070
H -3.4042669747 -1.6497394791 -1.1415390146
H -2.8621774802 -1.8049644826 2.2281048048
H -1.9102628504 -0.5349338649 3.0446342494
H -0.9168759207 -3.0228536040 2.1147712394
H 0.6598836855 -1.8015645811 0.5515212527
H 0.7539684036 1.6704316307 -0.4724897465
H 2.5658687508 0.5637844098 -2.6488817495
H 2.4011573501 2.3064420808 -2.3345989683
H 0.2390831159 0.5916837869 -3.0227047965
H 3.6599765793 0.7335437589 -0.2100608095
H 3.7291293468 2.9358024167 0.7365914467
H 1.6419231082 1.6445923479 1.9027653577
H 4.2649731151 0.6342187459 2.2012725288
H 2.8215994688 -1.1185663927 1.3502463231
H 0.8053185185 -1.3656823315 2.9263108419
H -3.5930140258 0.0938336541 0.8299616530
H -1.4311785057 1.9019779460 0.8822392461
H -1.5976289791 0.8025404746 -1.3679623574
H -3.6323609209 1.7504668830 -1.6684934412
