43
CONF7
C 1.7440785565 2.1359271856 -1.5599480725
C 0.5099681176 2.5359057996 -0.8254647978
N -0.0962050629 3.6612480372 -1.1667614093
N -1.1713660258 3.7726420960 -0.3320257365
C -1.2424614844 2.7583454846 0.5402558261
C -0.1518672735 1.9032078129 0.2805903175
C 0.2588882909 0.7587554958 1.0541561251
O -0.1356622455 0.5160882490 2.1972258711
C 1.2572085836 -0.1922767217 0.4509889781
C 0.9663521798 -0.9976523716 -0.6486575017
C 1.8843735344 -1.9135501012 -1.1503557339
C 3.1240934391 -2.0074217468 -0.5311633645
C 3.4461713728 -1.2368873512 0.5808564269
C 2.4986861822 -0.3484315983 1.0688001793
Cl 4.2983771709 -3.1409044254 -1.1624997316
Cl -0.6086116592 -0.9087154213 -1.4136004263
O -2.2476272679 2.7339403403 1.4288027309
C -2.8795909256 1.4648553273 1.6253863351
C -3.4803162819 0.9328053056 0.3288866535
O -3.5123030945 1.6326667906 -0.6674011944
C -4.0303569640 -0.4486285373 0.3391782889
C -4.7165398875 -0.8897806049 -0.7992793361
C -5.2417140559 -2.1715322921 -0.8464882329
C -5.0864704839 -3.0291349421 0.2421375640
C -4.4043575277 -2.6003488790 1.3767055934
C -3.8767534792 -1.3155040590 1.4280354782
C -2.1585884156 4.8075504390 -0.5585480982
H 2.5748785017 1.9298918938 -0.8790990497
H 1.5775995646 1.2319016128 -2.1541600406
H 2.0276069803 2.9469940223 -2.2334229345
H 1.6355794741 -2.5395663767 -1.9979088518
H 4.4142184163 -1.3389657325 1.0560403934
H 2.7176504261 0.2494931048 1.9477321196
H -3.6838851058 1.6454420295 2.3471611376
H -4.8214861620 -0.2063509289 -1.6348681687
H -5.7723554288 -2.5080693215 -1.7311961792
H -5.4947083340 -4.0340288047 0.2035751986
H -4.2759382665 -3.2700732894 2.2204680054
H -3.3334422839 -1.0050648699 2.3136019145
H -2.6731649751 4.6231082346 -1.5062174561
H -2.8807989543 4.7822465094 0.2569619711
H -1.6621717682 5.7804249049 -0.5929376005
H -2.1634632493 0.7641181768 2.0677878530
