56
CONF364
C 0.2691140919 -4.1605762569 1.3264811041
C -0.7776022829 -3.8679932552 0.2508532846
C -0.2984142606 -4.2211121995 -1.1560232984
N -1.2804813766 -2.4856224173 0.3490037414
C -2.4787422749 -2.1589398438 0.9467326207
C -3.4265611864 -2.9647413350 1.5836636915
C -4.5522429033 -2.3430780737 2.1101448309
C -4.7407946532 -0.9519489619 2.0087105293
C -3.8025224636 -0.1516272226 1.3752901499
C -2.6566165287 -0.7525906102 0.8348812782
C -1.5222923978 -0.2392730206 0.1371169755
C -0.6914194410 -1.3212462458 -0.1406532695
C 0.6564788932 -1.2819906851 -0.6843166789
C 1.0297892818 -0.5350626133 -1.7302343676
C 2.4496335077 -0.3308249212 -2.1503825042
C 2.8386802020 1.1496110544 -2.0371336018
C 2.7112911514 1.6979750997 -0.6239769922
C 3.0184594501 3.1938637679 -0.5849424450
C 2.8567489306 3.7816173631 0.7892691139
O 2.7664027447 3.1425715626 1.8220130193
O 2.8368332117 5.1275415115 0.7656936770
O 3.6169482202 0.9566602697 0.2057380908
O 2.6682815253 -0.7990372590 -3.4993297602
C -1.2402634330 1.1936686469 -0.0677244388
C -1.3410267850 1.8022122664 -1.3242206733
C -1.0530499955 3.1533088376 -1.4981825936
C -0.6798470857 3.8901337262 -0.3878206531
C -0.5939805932 3.3413006730 0.8801348296
C -0.8794388941 1.9872410187 1.0294050265
F -0.3917275159 5.2091507444 -0.5486957914
H -0.1198287185 -3.9149994436 2.3190094359
H 0.5246822859 -5.2243823456 1.3074993475
H 1.1869323534 -3.5896208001 1.1600280485
H -1.6515644909 -4.4938578191 0.4548307697
H -1.0472170555 -3.9426757631 -1.9032605025
H -0.1404594039 -5.3021950680 -1.2096612754
H 0.6442630724 -3.7298411351 -1.4064361980
H -3.2960527743 -4.0365471051 1.6867547733
H -5.2999562402 -2.9461738109 2.6157499267
H -5.6333887630 -0.5041665712 2.4343726974
H -3.9461401599 0.9222526906 1.2955600959
H 1.4213532635 -1.8478610647 -0.1533486977
H 0.2846498716 0.0066842948 -2.3096547612
H 3.1134002479 -0.9370076828 -1.5265352723
H 3.8717772167 1.2719565541 -2.3856129765
H 2.1861250847 1.7344471482 -2.6996387996
H 1.6794385874 1.5460980895 -0.2701279470
H 4.0532878132 3.3787347073 -0.9048171928
H 2.3703090875 3.7416076644 -1.2785371935
H 2.7596846986 5.4475464397 1.6813298324
H 3.4892927566 1.2925955363 1.1054295451
H 2.1191072735 -0.2634667378 -4.0880392857
H -1.6548640120 1.2128644318 -2.1795801275
H -1.1220123221 3.6284230949 -2.4707822390
H -0.2997267933 3.9566239281 1.7235097934
H -0.8047296587 1.5317688611 2.0121220352
