30
CONF1
C 4.5998302419 -0.4567821933 -0.6594992779
C 3.8940767331 -1.6017092629 -1.0650304064
C 2.5201051878 -1.6496515418 -0.9697407602
C 1.7781878912 -0.5580603691 -0.4651793053
C 2.5021088397 0.5990755178 -0.0560647337
C 3.9093015819 0.6240995804 -0.1634250968
C 1.7892116559 1.7159609551 0.4565485728
C 0.4321612583 1.6993324174 0.5630966681
C -0.3364497269 0.5669197430 0.1676069857
C 0.3364497019 -0.5669196973 -0.3485633420
C -0.4321613454 -1.6993322100 -0.7440533729
C -1.7892117740 -1.7159606414 -0.6375054809
C -2.5021089360 -0.5990753751 -0.1248917461
C -3.9093016490 -0.6240993992 -0.0175312929
C -4.5998302082 0.4567821644 0.4785434893
C -3.8940766040 1.6017089901 0.8840751576
C -2.5201050767 1.6496512831 0.7887853196
C -1.7781879152 0.5580603797 0.2842231175
H 5.6816466478 -0.4293513809 -0.7387818889
H 4.4351416456 -2.4568966947 -1.4571269023
H 2.0142302365 -2.5508261015 -1.2930164847
H 4.4377242423 1.5182981739 0.1550637561
H 2.3517686782 2.5924527061 0.7651959420
H -0.0670020318 2.5741331699 0.9596477252
H 0.0670019044 -2.5741328469 -1.1406047672
H -2.3517688554 -2.5924522101 -0.9461532831
H -4.4377243513 -1.5182978548 -0.3360204619
H -5.6816466068 0.4293513386 0.5578262402
H -4.4351414386 2.4568961813 1.2761722991
H -2.0142300272 2.5508255782 1.1120616301
