60
CONF53
C 6.6877792786 1.0054410242 3.9540410742
C 6.5017791688 -0.3289352516 3.2367430565
N 5.6184276360 -0.2270717960 2.0738838996
C 6.2239277388 0.1433008982 0.7981376424
C 6.5932047091 -1.0594368804 -0.0729570538
C 4.2648364537 -0.3552276606 2.2984324353
O 3.8011565698 -0.5076446448 3.4246064871
N 3.4744366274 -0.3035744951 1.1548900959
C 2.0763475595 -0.4228085137 1.0867285174
C 1.5153032777 -0.6844338666 -0.1616093907
C 0.1390380347 -0.8094188568 -0.3492637248
C -0.7110228459 -0.6163099508 0.7560745758
C -0.1547264495 -0.3635945968 2.0099443792
C 1.2212856634 -0.2716918745 2.1839155273
O -2.0556211443 -0.6251586713 0.5165477550
C -2.9491316160 -0.6579427058 1.6341428489
C -4.3805842873 -0.7389380658 1.1133979546
C -4.8190054088 0.4889638257 0.2955586287
N -4.2552441633 0.4269545151 -1.0537932948
C -4.9101912085 1.2462583075 -2.1020582744
C -4.0001924650 1.1700236205 -3.3315411649
C -5.0801436505 2.7143071999 -1.6793576034
C -6.2721382547 0.6358508158 -2.4473834808
O -4.6004428318 -1.9283433073 0.3762510396
C -0.3100023958 -1.1853688094 -1.7285257437
O 0.4007721812 -0.9233483447 -2.6868419918
C -1.5934193754 -1.9566367235 -1.9202323928
H 7.3721712083 0.8909813378 4.8007516557
H 5.7255433848 1.3602284237 4.3314854864
H 7.1034697035 1.7653882108 3.2839335927
H 6.0764581662 -1.0644784288 3.9238809352
H 7.4656361066 -0.7177673539 2.8855163386
H 5.5658341794 0.8345971795 0.2568887464
H 7.1285285025 0.7216201998 1.0201750918
H 7.0700544771 -0.7300629278 -1.0015703646
H 5.7139367234 -1.6574640399 -0.3337267252
H 7.2899721848 -1.7157228604 0.4565687826
H 3.9353323742 -0.3806557240 0.2639810273
H 2.1433379308 -0.8214977180 -1.0381261728
H -0.7886140359 -0.2226571151 2.8763440900
H -2.7297961807 -1.5387866374 2.2530211774
H -2.8341852455 0.2501698502 2.2456923911
H -5.0156003730 -0.7863405178 2.0104187952
H -5.9102172691 0.4506957593 0.2171869711
H -4.5615011037 1.4076570322 0.8506771194
H -3.2732829236 0.6794271918 -1.0053898305
H -4.4265943026 1.7415060620 -4.1609290410
H -3.8750824708 0.1318651893 -3.6543120837
H -3.0087713308 1.5848729249 -3.1142769359
H -4.1117345678 3.1567197401 -1.4194022110
H -5.7436526784 2.8066176002 -0.8135851773
H -5.5140880868 3.3033399265 -2.4939155715
H -6.1567237088 -0.4153872937 -2.7276855953
H -6.7208117765 1.1747270744 -3.2874363590
H -6.9754005252 0.6931467976 -1.6112578059
H -4.4060537500 -1.6801784477 -0.5440979685
H -2.4374806895 -1.2616043720 -1.9907062602
H -1.8053434564 -2.6239125173 -1.0815122282
H -1.5177226340 -2.5104664726 -2.8578711046
H 1.6334096113 -0.0875492705 3.1654342571
