28
CONF1
F 1.6470205439 -1.5234064127 -0.0187151431
C 1.5290602323 -0.1871900177 0.1044314792
F 1.5216492790 0.1389637566 1.4144096302
C 0.2090811573 0.2942366484 -0.5700587624
F 0.2981996852 1.6291707937 -0.7729340471
F 0.0830999563 -0.3290668129 -1.7625781600
C -1.0720599101 0.0038129586 0.2901717997
F -0.9577814569 -1.2317662120 0.8285782855
F -1.1390718367 0.9155553732 1.2861311426
C -2.4022560163 0.0648399665 -0.5403250244
F -2.5125699990 -1.0716256740 -1.2639441746
F -2.3440492868 1.1203969364 -1.3841095594
C -3.6801290851 0.2207304624 0.3534326642
F -3.7697676001 1.5028046507 0.7659635199
F -3.5758666271 -0.5875054177 1.4337131445
C -5.0156632327 -0.1378952745 -0.3788140895
F -5.1123580259 -1.4560439055 -0.5797010643
F -5.0851820113 0.4942039978 -1.5585752281
F -6.0439631743 0.2544768515 0.3847008799
S 3.0999970171 0.5995760416 -0.6844492146
O 3.2385797303 1.9164406905 -0.0607772045
O 2.9346496505 0.4268318004 -2.1299490695
N 4.3505287829 -0.3517313754 -0.1948828512
C 4.7687043454 -0.3632847275 1.2211796273
H 4.3461397665 -1.2576269990 -0.6590213143
H 4.7755478478 0.6590537060 1.6016428276
H 4.1206192787 -0.9894805618 1.8425406092
H 5.7878409946 -0.7544720535 1.2508403923
