44
CONF12
C -4.6494170483 -1.3842054717 1.2824991402
C -4.1373324042 0.0362234243 1.4245119015
C -4.7895216267 0.8023390898 2.5552683952
O -2.6987997019 -0.0081443075 1.7531676783
C -1.8401117616 -0.1678385816 0.7417110467
O -2.1407055796 -0.2348469650 -0.4321229796
C -0.4170263287 -0.3078559475 1.2830708341
C -0.1980782319 -1.7287571813 1.8013370969
N 0.5492203101 0.1032167186 0.2518900746
C 1.4108831994 -0.8452125213 -0.3734029399
C 2.7816889106 -0.7807726422 -0.1285288107
C 3.6301472223 -1.6841284937 -0.7536830255
C 3.0992750427 -2.6596196814 -1.5923874031
C 1.7362946573 -2.7431630433 -1.8212282684
C 0.8874570520 -1.8267356252 -1.2139025603
F 3.9224999226 -3.5395723342 -2.1910819002
Cl 5.3519202310 -1.6143973367 -0.4851380603
C 0.5955457580 1.4463523523 -0.0224881601
O -0.1010232585 2.2476914648 0.6047301970
C 1.5039553374 1.9180818056 -1.1126537346
C 1.4081548800 1.4214759260 -2.4150785870
C 2.2164811165 1.9462834004 -3.4184910346
C 3.1347208713 2.9522310689 -3.1237406654
C 3.2259411221 3.4524447728 -1.8261158516
C 2.4015872332 2.9488622072 -0.8254842307
H -4.1274450386 -1.9136183320 0.4812738351
H -4.5157014701 -1.9305454014 2.2215878589
H -5.7167877822 -1.3628080942 1.0428368825
H -4.2345899445 0.5790668299 0.4796379741
H -5.8623326359 0.8883598414 2.3605281379
H -4.6509492480 0.2781941544 3.5059997816
H -4.3699498756 1.8083622685 2.6383666117
H -0.3144056461 0.3891164702 2.1208605187
H -0.4076073962 -2.4842751842 1.0407006522
H -0.8700766286 -1.8903997894 2.6469362643
H 0.8316528958 -1.8500662745 2.1471993174
H 3.1842422924 -0.0260431641 0.5374226905
H 1.3573762335 -3.5141601574 -2.4831238570
H -0.1797787906 -1.8577316382 -1.4032771865
H 0.6956821896 0.6365638487 -2.6463433458
H 2.1303329666 1.5669800489 -4.4317786809
H 3.7735483136 3.3504270465 -3.9056892205
H 3.9366178894 4.2394034662 -1.5942912847
H 2.4564130569 3.3432219788 0.1843634961
