54
CONF88
C -1.7677406653 -2.5159518387 0.0641851833
C -1.1944447673 -1.6092047566 1.1531279843
C -1.5611214600 -2.1192635440 2.5463848603
C -1.6500361301 -0.1327746957 0.9848272459
C -1.1838535014 0.4188378873 -0.3671077414
O -1.9522629473 0.5505566822 -1.3223830426
N 0.1308807513 0.7156776849 -0.4359286348
C 0.7550240081 1.1195360177 -1.6886914276
C 2.1035023099 1.8159112330 -1.3984511165
C 3.0864097429 0.8571540678 -0.7755020873
O 2.9400136793 0.3529624793 0.3245222553
O 4.1243569424 0.5972133545 -1.5800507965
C 5.0874576320 -0.3645717798 -1.0727922059
C 0.9437810329 -0.0365320248 -2.6569900430
C 1.1892969627 -1.3336913081 -2.2070071345
C 1.4216821819 -2.3703365931 -3.1065171816
C 1.4063302892 -2.0907343458 -4.4666516777
C 1.1618639474 -0.8090945693 -4.9454905199
C 0.9323032889 0.2122579220 -4.0298604194
Cl 1.6942672013 -3.3948204446 -5.6149742875
N -3.0878900319 0.0189254951 1.0701254687
C -3.6940040471 0.6127747349 2.1295076776
O -3.1406310311 0.9363879274 3.1725733000
O -5.0190918372 0.7722385018 1.8780858643
C -5.8093851532 1.4408821664 2.9150692736
C -5.6662407410 2.9445901482 2.7624931222
C -7.2324543879 0.9574333303 2.7208914828
H -2.8620448540 -2.5387875839 0.1150900277
H -1.4786917233 -2.1871929396 -0.9391257244
H -1.4055568684 -3.5395446030 0.2013232693
H -0.0994552330 -1.6064244199 1.0659198484
H -1.1995460862 -3.1438084501 2.6794747909
H -1.1216008457 -1.4932311040 3.3292145438
H -1.1999225449 0.4557712664 1.7921965665
H 0.7331259286 0.5514333960 0.3608918075
H 0.1048411996 1.8616786214 -2.1644699961
H 2.5004960594 2.2150138836 -2.3329085353
H 1.9370021128 2.6407509389 -0.6976526328
H 5.8404184351 -0.4551033974 -1.8539960673
H 4.5953075800 -1.3236033017 -0.8951696844
H 5.5322400433 0.0042362278 -0.1459541765
H 1.1919278832 -1.5504770408 -1.1433101815
H 1.6076579841 -3.3778477547 -2.7519575205
H 1.1444129342 -0.6123977108 -6.0114168869
H 0.7354648004 1.2167144746 -4.3950587120
H -5.4223351912 1.1179557205 3.8863795166
H -6.2540941990 3.4500976551 3.5349031888
H -6.0355859568 3.2626405410 1.7820640983
H -4.6223415724 3.2510917866 2.8675978972
H -7.2932825235 -0.1294650174 2.8230569528
H -7.6034324448 1.2424000630 1.7311821623
H -7.8778232175 1.4145268426 3.4764696596
H -2.6480720045 -2.1252710037 2.6824525390
H -3.6047588648 -0.0480957833 0.2040922747
