50
CONF21
C 6.4603974686 0.6381440610 1.0082828486
C 6.3906404443 1.0116206643 -0.4575574203
O 5.0785792806 0.7108271414 -1.0092365366
C 4.1143303805 1.6438249258 -0.7993382739
O 4.3215539265 2.7210547806 -0.2497395455
N 2.9116889338 1.2590006147 -1.3191065487
C 1.7204583621 2.0099667559 -0.9261104065
C 1.0490195069 1.3584279091 0.2976895346
C 0.7642361229 -0.0952090689 0.0257005174
C -0.4627732732 -0.6464808161 0.1103910305
C -1.6617956339 0.0725516094 0.6177260640
C -2.8761405496 0.1645760606 -0.0912245775
C -3.1420456476 -0.3847029900 -1.4809188633
C -1.9976388316 -1.0970370742 -2.2107641608
C -1.4930175394 -2.2812413771 -1.4417792619
C -0.7263463357 -2.0582878106 -0.2876621071
N -0.2507174013 -3.0461857847 0.4839597011
C -0.5226859633 -4.3078794507 0.1187262503
C -1.2705725951 -4.6327078549 -1.0063713487
C -1.7624034094 -3.5988497104 -1.7975987519
C -3.9562693668 0.8279619502 0.5071403861
C -3.8381432769 1.3746915791 1.7724502232
C -2.6583340840 1.2791461549 2.4990365788
C -1.5898003266 0.6217330407 1.9091981788
Cl -5.2240222392 2.2020981759 2.4845924472
C 1.9666801919 -0.8548959925 -0.4708600044
C 2.6090366358 -0.1310751024 -1.6676044137
H 7.4740915966 0.8170375594 1.3807441841
H 6.2234934889 -0.4206146010 1.1484042976
H 5.7647279688 1.2400651683 1.5988954758
H 7.0734578942 0.4037800211 -1.0555774386
H 6.6137928257 2.0691968230 -0.6189923772
H 1.9992982451 3.0413574750 -0.7082664815
H 1.0241541631 2.0052886152 -1.7736226679
H 1.7340643479 1.4510089733 1.1526007191
H 0.1387797200 1.9120258393 0.5377015146
H -3.4903290343 0.4453334320 -2.1077971155
H -3.9900774118 -1.0782605375 -1.4053282184
H -2.3670206079 -1.4188532973 -3.1892136926
H -1.1745990302 -0.3934674796 -2.3835856665
H -0.1228147808 -5.0916385015 0.7596354659
H -1.4609337744 -5.6710799367 -1.2562807993
H -2.3464342037 -3.8125248551 -2.6888557873
H -4.8929844222 0.9141404066 -0.0350122424
H -2.5775730597 1.6947553189 3.4967777706
H -0.6641485655 0.5166481719 2.4662187921
H 2.7152739857 -0.9150290414 0.3324368781
H 1.7100299179 -1.8750732086 -0.7632861134
H 3.5136736406 -0.6438287199 -1.9909511535
H 1.9030693123 -0.1160101425 -2.5072397835
