33
CONF42
C 4.9587494738 0.4716688121 -0.0780307998
C 5.5284897092 1.8154625324 -0.5542787086
O 5.3684432846 2.8641383976 0.3903432597
C 3.4617241328 0.3760825593 -0.2668261501
C 2.8428454634 -0.9049915506 0.3584894045
C 1.3454860672 -1.2628279828 0.0360930673
C 0.2682589808 -0.1723990803 0.3483825621
C -1.1941630601 -0.7473093523 0.4042294361
C -2.2928635508 0.3640080792 0.2520123418
C -3.7049156747 -0.0958092885 0.7519771581
C -4.8823325549 0.7962361740 0.2378728212
F -4.6141184836 2.0919815235 0.4537032514
F -5.0983650402 0.6029401269 -1.0668963931
F -5.9944669082 0.4669581706 0.9084627780
F -3.7241928254 -0.0590828058 2.1009212890
F -3.9413151766 -1.3618770140 0.3368648931
F -1.9251816669 1.4504570367 0.9686937906
F -2.3853535163 0.7068485702 -1.0525888184
F -1.3696825478 -1.3642887911 1.5941563312
F -1.3578062688 -1.6466863362 -0.5904900400
F 0.5410270754 0.3926421867 1.5444634178
F 0.3235519478 0.7718476507 -0.6196623715
F 1.0555020502 -2.3610796380 0.7811596098
F 1.2638657661 -1.5923764810 -1.2698765239
F 3.5645196706 -1.9702760035 -0.0880116221
F 2.9896563375 -0.8335910743 1.7032812125
F 2.8298225953 1.4566163668 0.3067930654
F 3.1463405390 0.3956824481 -1.5974449401
H 5.4083559596 -0.3480674767 -0.6467837533
H 5.1999820238 0.3287455685 0.9797653099
H 5.1061427516 2.0805598263 -1.5345941667
H 6.6079459618 1.6965344887 -0.6829541710
H 4.4311688753 3.0765156741 0.4532885798
