56
CONF301
C -4.0947619682 0.7890031261 -2.1865992602
C -3.1882547409 1.9588148411 -1.8016479644
C -2.9498645694 2.8734111119 -3.0052787969
C -1.8510909545 1.4369698773 -1.2492630387
C -1.9674173340 0.4400006227 -0.1070957080
C -2.6041149408 0.7964121555 1.0857949514
C -2.6366836811 -0.0767657842 2.1624247058
C -2.0244384358 -1.3210942839 2.0509537669
C -1.3929986530 -1.7052416159 0.8726018124
C -1.3637099640 -0.8109580286 -0.1932650927
O -2.1003787817 -2.1337954142 3.1735764282
C -1.1324716226 -3.0948051347 3.3197660755
F -1.4599555129 -4.2272978878 2.6126962600
F -1.1163569253 -3.4404180169 4.6247428997
C -0.9779463568 2.5476484529 -0.6946274604
O -1.3232865062 3.6471485364 -0.3450857670
O 0.2973388066 2.0766779666 -0.5309317622
C 1.1563133410 2.8588760604 0.3302096841
C 0.5556492148 2.9682369738 1.6670125617
N 0.1201468472 3.0073475116 2.7359051169
C 2.4758366950 2.1273503335 0.4103792784
C 3.6695070976 2.7901553850 0.1434489928
C 4.8742914453 2.1003551263 0.2550766881
C 4.8877891404 0.7596839095 0.6149476242
C 3.6826497029 0.1090839656 0.8733875855
C 2.4723702486 0.7845518278 0.7839187868
O 3.7606348123 -1.1976673722 1.3047965678
C 2.8517585352 -2.1317056957 0.8475817858
C 2.3542455638 -2.1200358424 -0.4537450886
C 1.5238203415 -3.1569312106 -0.8673482239
C 1.1910439182 -4.1939075936 0.0005542779
C 1.6974339370 -4.1906062404 1.2981679300
C 2.5250240299 -3.1592213503 1.7290223750
H -5.0374796499 1.1588103604 -2.6005724056
H -3.6152571130 0.1657955183 -2.9512530425
H -4.3235989666 0.1519946123 -1.3280808654
H -3.6726156894 2.5445600648 -1.0105520386
H -2.3196707023 3.7284010478 -2.7476209750
H -3.9002426419 3.2599660591 -3.3851965623
H -2.4693222976 2.3166898147 -3.8190493031
H -1.2938634299 0.9505495171 -2.0605425663
H -3.0518846718 1.7803119938 1.1884726075
H -3.1074405723 0.2004294998 3.0986329577
H -0.9347200116 -2.6812416247 0.7657001535
H -0.8520922662 -1.1015545881 -1.1061944007
H -0.1350426469 -2.7648128614 2.9981568969
H 1.2819492048 3.8677116643 -0.0787515995
H 3.6606025355 3.8360234169 -0.1456132186
H 5.8099468223 2.6099182244 0.0512730149
H 5.8151630317 0.2051269614 0.7044714561
H 1.5383245463 0.2751298900 1.0008821340
H 2.6234244378 -1.3186525326 -1.1330532200
H 1.1447789268 -3.1583703620 -1.8847232738
H 0.5449465044 -4.9997393952 -0.3303947591
H 1.4436647508 -4.9944181434 1.9819282236
H 2.9383083755 -3.1439056406 2.7319034844
