51
CONF118
C 2.0425712172 -0.2385695459 0.0539287631
C 2.0549164766 -0.1999578333 1.5593476140
C 1.1625007057 -1.0050108978 2.2959955559
C 1.2005965639 -1.0189672907 3.6904118613
C 2.1299875433 -0.2484390677 4.3798831256
C 3.0060523438 0.5574257854 3.6668563622
C 2.9725124124 0.6038377201 2.2661338346
C 3.9246107801 1.5122680189 1.5792741830
C 5.2951196125 1.4346872226 1.8569888438
C 6.1951726571 2.3043336317 1.2470807223
C 5.7383385411 3.2720431940 0.3551007422
C 4.3753251383 3.3643991311 0.0783224380
C 3.4766850255 2.4911618580 0.6833189957
C 0.1639484465 -1.8769285066 1.5987089385
O -0.7810832894 -1.0032576170 0.9024606830
C -1.5973151786 -1.6054587608 0.0129536787
O -1.5862156105 -2.8019833568 -0.2100343648
C -2.4823211890 -0.6054567894 -0.6230697119
C -3.1495025873 -0.9808571191 -1.9513906031
C -3.9877679810 -0.7983997538 -0.6993221521
C -4.6244395414 -2.0429268534 -0.1248313370
C -4.8282715469 0.4473838727 -0.5246746379
C -3.1436772961 -0.0032382856 -3.0303047770
C -3.0444136478 -0.2716415389 -4.3345006274
C -3.0458114665 0.7819335436 -5.4006556246
F -3.1774130758 2.0188519054 -4.8799576684
F -1.8989807784 0.7717262567 -6.1274004885
F -4.0592471129 0.6088468553 -6.2867623328
Cl -2.8928054871 -1.8891843495 -4.9853290989
H 1.8204618807 -1.2449083731 -0.3114047977
H 1.2760523799 0.4267424523 -0.3584744097
H 3.0055827551 0.0705593827 -0.3554804346
H 0.4987046451 -1.6445512001 4.2345223622
H 2.1617279667 -0.2660306680 5.4645702470
H 3.7210909350 1.1817639238 4.1945635158
H 5.6561314502 0.6774911481 2.5470908266
H 7.2552933116 2.2234692940 1.4674600672
H 6.4391400844 3.9515736155 -0.1197800839
H 4.0095068461 4.1223306411 -0.6076890696
H 2.4150971251 2.5772775939 0.4723017822
H -0.3938153638 -2.4886062219 2.3130319263
H 0.6297884503 -2.5394688539 0.8630107826
H -2.1544477032 0.4232639252 -0.5163192172
H -2.9962403611 -2.0169077884 -2.2365815037
H -4.7685339876 -1.9254020822 0.9549677758
H -5.6078480606 -2.1894449523 -0.5837192802
H -4.0211003336 -2.9340028224 -0.3017863269
H -5.7626310961 0.3513286027 -1.0883332947
H -4.3162405532 1.3550449613 -0.8504341258
H -5.0813649056 0.5671703477 0.5337461096
H -3.2254269554 1.0461916397 -2.7637963823
