65
CONF328
C -4.7625331000 2.5560114404 -1.1543357736
C -3.5167715323 3.4362684304 -1.0836332540
C -2.2335403875 2.6925399938 -1.4787264951
C -1.0070226003 3.6147876421 -1.4264183720
C -2.0029262720 1.5294134136 -0.5385328786
O -1.9417768420 1.6320740938 0.6732205226
O -1.8426970962 0.3666088505 -1.2005844738
C -1.5779746093 -0.8274286504 -0.3965916250
C -2.8931380063 -1.4580563110 0.0287520651
C -2.6304569122 -2.6667944768 0.9391893381
C -1.5123574391 -3.5078677703 0.3992819906
C -0.6662941023 -3.1302974993 -0.5786538390
C -0.7654788160 -1.7770355198 -1.2621440554
C 0.6431643372 -1.2503618368 -1.6162556025
C 1.3044466070 -2.2589444288 -2.5782678337
C 1.2902232241 -3.6366913580 -1.9754135561
C 0.3929340453 -4.0101677907 -1.0476329610
C 2.7073854825 -1.8434834677 -3.0293543113
C 1.4737185168 -0.9618935373 -0.3446279361
C 1.6051740707 0.5401259890 -0.0779184933
C 2.0834018110 0.8557957870 1.3251846481
C 3.5149834786 0.4455758893 1.6179933615
C 3.9601041857 0.8809797371 3.0268666190
C 2.9758704181 1.9131127477 3.6170551147
C 2.4516698182 2.8786321683 2.5934020372
O 2.4082588908 4.0869299910 2.7191695581
O 1.9885802314 2.3214402737 1.4545446359
O 5.3055460993 1.3691993060 3.0339291318
C -2.3488158928 -2.2514687628 2.3945204452
H -4.8945269458 2.1454871654 -2.1613132493
H -4.6943427308 1.7150822005 -0.4545819404
H -5.6609521791 3.1262933980 -0.9005000628
H -3.6242472230 4.2938640697 -1.7580529384
H -3.3916833983 3.8380625265 -0.0710694689
H -2.3460194859 2.2941981126 -2.4927657675
H -0.0957228809 3.0858525750 -1.7226877938
H -1.1529503762 4.4577798352 -2.1081838824
H -0.8677895184 4.0062985949 -0.4138247561
H -1.0048691720 -0.5184749478 0.4825132307
H -3.5132317753 -0.7203472656 0.5485371997
H -3.4299211858 -1.7780269766 -0.8726920157
H -3.5402529418 -3.2836151526 0.9534428667
H -1.3802545424 -4.4915095037 0.8503414362
H -1.3124870454 -1.9155139727 -2.2081485606
H 0.5194336412 -0.3111784260 -2.1703291559
H 0.6757278539 -2.2804033192 -3.4837524492
H 2.0464102666 -4.3445390529 -2.3106514550
H 0.4320708692 -5.0098471676 -0.6188181311
H 3.4298219470 -1.8843199738 -2.2083960238
H 3.0656655266 -2.5146805838 -3.8165902964
H 2.6979288069 -0.8235161292 -3.4277658397
H 1.0063994492 -1.4480454048 0.5226224014
H 2.4698050339 -1.4049014992 -0.4276413460
H 2.2887178783 0.9937839925 -0.8071669568
H 0.6326864212 1.0270373567 -0.2092076686
H 1.3892055940 0.4164656728 2.0552221460
H 4.1590910596 0.9268406354 0.8704008490
H 3.6244535935 -0.6353033721 1.4963237637
H 3.9801648534 0.0213280326 3.7020220277
H 3.4386571337 2.4644896819 4.4364293216
H 2.1084417919 1.3719955927 4.0185182330
H 5.3755707600 2.0874439202 2.3902925184
H -2.1633702011 -3.1315318408 3.0185552893
H -3.2051415679 -1.7096800478 2.8092908029
H -1.4661678021 -1.6058740703 2.4556094531
