43
CONF48
C -0.2131122191 3.0816674813 1.9178579570
C -0.4773600447 2.0463270646 0.8250592050
C 0.0477538670 2.5262570488 -0.5265755904
C 0.1613401275 0.7005239336 1.2416385543
C -0.1058568509 -0.4215647241 0.2777707944
C 0.9285129087 -1.0375497346 -0.4540988271
C 0.5851171287 -2.0232147575 -1.3854931196
N -0.6605625753 -2.4225151007 -1.6139238013
C -1.6382495696 -1.8676279175 -0.9102456894
C -1.4162446958 -0.8667386791 0.0393223999
C -2.5607035790 -0.3182420698 0.8388389737
O -2.6241014024 -0.3653384708 2.0479625327
O -3.4945130472 0.2065255865 0.0387612126
C -4.6818249498 0.7150554907 0.7091006995
C -3.0401382968 -2.3909636318 -1.1889250198
F -3.6567456252 -2.6722221344 0.0173369601
F -2.9859078189 -3.5598390210 -1.8875562885
C 1.6101263553 -2.7233920942 -2.2718683349
F 1.2041236713 -3.9582383589 -2.6183768242
F 1.7992706022 -2.0296073510 -3.4230929852
F 2.8142690521 -2.8548127900 -1.6781339581
C 2.3379839511 -0.6390240023 -0.2106937819
N 2.9865542690 -1.0054101510 0.8187197488
C 4.3094903313 -0.3727255615 0.8825837859
C 4.7365900969 0.0915229535 -0.5191624176
S 3.1479667756 0.4486119659 -1.3823549960
H -0.6188924044 2.7549546571 2.8808999114
H 0.8646076621 3.2442259997 2.0375387697
H -0.6732079398 4.0401389905 1.6577369287
H -1.5639701776 1.9149187054 0.7434073645
H -0.1426542890 1.7955466182 -1.3208045790
H 1.1288072150 2.6973476881 -0.4768070631
H -0.4354803161 3.4663539349 -0.8105556683
H -0.2256874125 0.4152632569 2.2254507095
H 1.2381390035 0.8496519672 1.3486394349
H -5.1724389808 -0.0956379646 1.2521212617
H -4.4016879648 1.5157278756 1.3970985562
H -5.3191740337 1.0923355085 -0.0883634645
H -3.6728746490 -1.6852615419 -1.7367898171
H 4.2311966876 0.4804545175 1.5719947420
H 5.0410100040 -1.0721711796 1.2981753690
H 5.2577827671 -0.6945973248 -1.0724295231
H 5.3507463558 0.9932828030 -0.4917638261
