59
CONF24
C 5.7169101170 3.8719506287 -1.9261934355
C 5.7994030851 3.4230383356 -0.4668221073
C 5.0774185427 2.1017875003 -0.1855170525
C 3.5670671818 2.1551536506 -0.4210848678
C 2.8756719017 0.8573855241 -0.0075343216
C 1.3676023738 0.8511968636 -0.2696742988
O 0.7170007503 1.9180995082 0.4559986146
C 0.7705831558 -0.4971545265 0.0142021645
C -0.1403716305 -0.7792178829 0.9448589033
C -0.6844594820 -2.1479853884 1.2192023303
C -0.3086461104 -2.6349875898 2.6479370513
O 0.1628901989 -3.9997569879 2.5124239003
C -1.6168230501 -2.5827148758 3.4393268564
C -2.6652942056 -3.0117858111 2.4133540157
O -2.6534883836 -4.4328362959 2.2013544293
C -2.2458423259 -2.2089415889 1.1637345221
C -2.8246821529 -2.7572159617 -0.1454409379
C -2.5573513561 -1.8669017871 -1.3188908394
C -3.4949050601 -1.2988477976 -2.0809837365
C -3.2122584166 -0.3820788768 -3.2316098187
C -3.8725356938 1.0016745010 -3.0775846137
C -3.6164021892 1.6605727054 -1.7230500424
C -2.1575057320 1.8488293919 -1.3966280636
O -1.9384010224 1.9289201521 -0.0770007333
O -1.2657456172 1.9408768620 -2.2241972617
H 6.3138930689 4.7740296913 -2.0941828020
H 4.6876630696 4.0971042509 -2.2225943013
H 6.0940271662 3.0895929979 -2.5951379975
H 5.3829845170 4.2049679735 0.1824477731
H 6.8538986594 3.3150341978 -0.1838177734
H 5.5140986837 1.3094223551 -0.8100593992
H 5.2601941581 1.8107051526 0.8577130178
H 3.3553500244 2.3463159752 -1.4808551947
H 3.1423846974 2.9959947878 0.1418516538
H 3.0424580165 0.6576932584 1.0610440874
H 3.3152045216 0.0135435179 -0.5550845229
H 1.1910914796 1.1007019444 -1.3244476193
H 0.9097956129 1.8077604327 1.3986319474
H 1.1548819567 -1.2988048380 -0.6178538424
H -0.5379410119 0.0170174229 1.5757435394
H -0.2511171804 -2.8554329490 0.5022358154
H 0.4856773732 -2.0228131936 3.0926612792
H 0.3844607047 -4.3189610208 3.3978686740
H -1.8115451968 -1.5465858325 3.7429583294
H -1.5998769302 -3.2080225015 4.3379545522
H -3.6887620278 -2.7668013989 2.7154942261
H -1.7192509644 -4.6925390747 2.1401185927
H -2.6290629885 -1.1889934473 1.3111714295
H -3.9067206614 -2.8991759968 -0.0291904439
H -2.3874199063 -3.7494826839 -0.3203403535
H -1.5088426846 -1.6675778932 -1.5470140842
H -4.5472236173 -1.4858062213 -1.8521194294
H -3.5838836691 -0.8270696986 -4.1648587445
H -2.1287786702 -0.2651493317 -3.3406202707
H -4.9576845135 0.9025631021 -3.1970590776
H -3.5214826186 1.6545356605 -3.8836672075
H -4.0733798235 2.6593886155 -1.6980607375
H -4.0787971059 1.0902908406 -0.9119186163
H -0.9561284304 1.9874937419 0.0941473310
