51
CONF32
C -2.6945669452 -0.7046731635 -1.2858581159
C -1.2128197655 -0.3718947628 -1.4339358246
N -0.4396056280 -1.0270890183 -0.3735420168
C -0.8604591823 -0.5656642519 0.9517288139
C -2.3314842593 -0.8955185064 1.1880822993
C -3.1982723493 -0.2516154233 0.0833955034
C -4.6545640727 -0.5993728677 0.3146936543
O -5.2190089533 -1.4444557370 -0.3723955201
C -5.3892944015 0.0691243997 1.4294868066
C -4.8760342445 1.1730694013 2.1249822525
C -5.6021826011 1.7716228169 3.1468693253
C -6.8438185214 1.2448578957 3.4624754879
C -7.3899775412 0.1526254984 2.8041966233
C -6.6523093446 -0.4278199231 1.7843579438
F -7.5555779683 1.8216322188 4.4572582815
C 1.0018720944 -0.9618748552 -0.5782777982
C 1.6161023014 0.4535670605 -0.5713193673
N 3.0717882630 0.3682311228 -0.7549704479
C 3.5721710619 0.3643534393 -2.0633347519
O 2.8124861471 0.4619932729 -3.0238238696
C 5.0243659089 0.2463704334 -2.1876251277
C 5.6350396892 0.2619766991 -3.4478871486
C 7.0089894741 0.1451763401 -3.5589831897
C 7.7891249526 0.0073255205 -2.4031573636
C 7.2057926859 -0.0120773293 -1.1473740946
C 5.8156293134 0.1095481450 -1.0385306001
N 5.1965054984 0.0929128654 0.1942449785
C 3.8459289741 0.2023819119 0.3981230548
O 3.3520850492 0.1632916809 1.5204242081
H -3.2649355347 -0.2114596102 -2.0806470830
H -2.8407943501 -1.7846241199 -1.3930902449
H -1.0911763972 0.7290443829 -1.4149709343
H -0.8406340159 -0.7262905949 -2.4026731572
H -0.7246829702 0.5265679080 1.0770743798
H -0.2411303788 -1.0642496970 1.7072736738
H -2.6287834478 -0.5372716645 2.1788111143
H -3.9064612993 1.5871664230 1.8746808928
H -5.2197724930 2.6293192067 3.6889443377
H -8.3653596532 -0.2249632129 3.0909575851
H -7.0484131872 -1.2829471711 1.2480969934
H 1.4891786737 -1.5518212170 0.2084583166
H 1.2371186086 -1.4332024306 -1.5411199431
H 1.4315703786 0.9597851646 0.3765280235
H 1.2215972183 1.0567450714 -1.3895677216
H 5.0068665911 0.3676087617 -4.3255155397
H 7.4813465123 0.1590205012 -4.5349684592
H 8.8670712584 -0.0863013414 -2.4878954151
H 7.8087506818 -0.1200453757 -0.2512727604
H -2.4753978784 -1.9829857364 1.1653179592
H -3.0786177564 0.8378968418 0.1561347540
H 5.7530517456 -0.0261133451 1.0300160864
