52
CONF52
C 3.3333562705 -0.9835235614 -1.5152938900
N 3.0782436964 -0.5345887205 -0.1470813553
C 4.3000371394 -0.7408615166 0.6447875064
C 4.1410716372 -0.2691536254 2.0825195042
C 2.9792776479 -1.0032333786 2.7434940596
C 1.7210734117 -0.8058667842 1.9059025621
C 1.9276256738 -1.2401725362 0.4493233152
C 0.6446291213 -1.0189274704 -0.3647141628
C 0.3660674678 0.4567626047 -0.6643359427
N -0.9699572570 0.6411534966 -1.2395777323
C -1.1488959168 1.6020880524 -2.2584956005
C -0.2358090011 2.6389015242 -2.4809259572
C -0.4251608063 3.5365647610 -3.5276495897
C -1.5461914726 3.4472341324 -4.3435219362
C -2.4905075873 2.4547218719 -4.0991078225
C -2.2858162512 1.5324714304 -3.0792724447
S -3.4416449833 0.2029908494 -2.8317853180
C -3.3367375879 0.1151985096 -1.0622114024
C -2.0857586466 0.3127576758 -0.4519952647
C -1.9930854838 0.1632382084 0.9365516835
C -3.1128810163 -0.2076578021 1.6616284829
C -4.3592856174 -0.3731981561 1.0715100904
C -4.4629505799 -0.1944483238 -0.3045214867
S -2.8910875361 -0.4052716478 3.4651356375
O -1.4422449807 -0.0631637641 3.7657293674
C -2.9761283860 -2.2512368751 3.4545756170
H 4.2258351033 -0.4788341562 -1.8989496157
H 3.5050660965 -2.0764718108 -1.5804934664
H 2.5033874208 -0.7332181657 -2.1814478671
H 5.1134953515 -0.1931840741 0.1537554536
H 4.5882768184 -1.8144942016 0.6472882067
H 3.9499171883 0.8114133661 2.0893955947
H 5.0782233847 -0.4417112628 2.6241055667
H 2.8148081460 -0.6457993969 3.7655799008
H 3.2153754069 -2.0747808231 2.8088831354
H 0.8797093729 -1.3660215162 2.3285661431
H 1.4413564346 0.2541087247 1.9400332464
H 2.1254039928 -2.3357851188 0.4542810948
H 0.6758142779 -1.5620801144 -1.3151242848
H -0.1811618832 -1.4570455412 0.2041562901
H 0.5167530394 1.0867248991 0.2233274608
H 1.0891399741 0.7976852377 -1.4050599461
H 0.6239336528 2.7562662557 -1.8325259534
H 0.3059893128 4.3217698563 -3.6891643348
H -1.6975234384 4.1508298092 -5.1546543867
H -3.3853793026 2.3807118414 -4.7087044852
H -1.0642063914 0.3165474874 1.4749684341
H -5.2358051483 -0.6269950258 1.6598144403
H -5.4207204403 -0.3107755786 -0.8014040504
H -2.1840101518 -2.6193430740 2.7977056390
H -2.8113557746 -2.5798016782 4.4835085656
H -3.9595624042 -2.5724939886 3.1014918960
