53
CONF19
C -4.4627729310 -2.3292988196 0.5900789209
C -3.4116947652 -1.3468525841 1.1136104805
C -3.4665612157 -1.3432770529 2.6539312557
C -3.7915286438 0.0808111947 0.6437264433
O -4.0372777061 0.1975901741 -0.7525171520
C -2.8958949409 0.5064581970 -1.5630884357
C -2.2877981810 1.8480665634 -1.2353297658
C -0.9532496916 1.9374700297 -0.8534914951
C -0.4000490028 3.1804967522 -0.5566834531
C -1.1530969399 4.3418829654 -0.6456308870
C -2.4906366726 4.2471173603 -1.0294308023
C -3.0589179876 3.0122965952 -1.3147667485
O 0.9411356998 3.2862161731 -0.2198393154
C 1.3955724691 2.5234753294 0.8360704076
C 2.7099325506 2.0694418534 0.7695380746
C 3.2370464858 1.3488869185 1.8351450909
C 2.4616587416 1.0793994390 2.9609053323
C 1.1498063144 1.5437112925 3.0160143847
C 0.6077517242 2.2658826062 1.9575069204
C -1.9957302343 -1.6999212419 0.6605343581
C -0.9082973797 -0.9537647252 1.1340138093
C 0.3903711617 -1.2077400987 0.7165828435
C 0.6070474625 -2.2313205338 -0.1919274763
C -0.4306499064 -3.0177928178 -0.6619289496
C -1.7264528441 -2.7421923258 -0.2305920226
O 1.9425990553 -2.4956183953 -0.5585866704
C 2.3343641304 -2.2083118003 -1.8147075368
F 1.6901097099 -2.9428396064 -2.7521634917
F 3.6380584606 -2.4807330090 -1.9025787548
Br 2.0591735520 -0.2862339711 -2.3153955653
H -4.5083648910 -2.3261387980 -0.5015149947
H -5.4506631267 -2.0364517264 0.9590584622
H -4.2612944546 -3.3469754724 0.9399414640
H -3.1531412252 -2.3154100830 3.0457648157
H -4.4883012937 -1.1476163137 2.9956297350
H -2.8149759586 -0.5795075302 3.0885657814
H -4.7372002675 0.3510649696 1.1303377735
H -3.0283697212 0.8031257592 0.9694931003
H -3.2852492503 0.5111742982 -2.5869208332
H -2.1307364955 -0.2774953216 -1.4956944835
H -0.3390915208 1.0449923084 -0.7838133970
H -0.6928925059 5.2959650403 -0.4134726509
H -3.0891016054 5.1496491695 -1.1023657415
H -4.1034519612 2.9395622000 -1.6013644224
H 3.2968008695 2.2803796549 -0.1172084407
H 4.2591327115 0.9884922272 1.7795538543
H 2.8762365895 0.5137794897 3.7881610182
H 0.5412895540 1.3482273473 3.8937669644
H -0.4110135819 2.6368080705 1.9971717942
H -1.0648075871 -0.1339051775 1.8264268620
H 1.2241636887 -0.6154007506 1.0788595334
H -0.2355033135 -3.8315069564 -1.3497317178
H -2.5333092436 -3.3554858721 -0.6121514121
