31
CONF34
F 0.5422219150 -3.2815446829 -0.2128791395
C 1.2802257077 -2.2128547593 0.1153922142
F 1.3439861401 -2.1126155076 1.4681744023
C 0.6327880393 -0.9258384465 -0.4682773060
F 1.5340072636 0.0843056557 -0.3735890914
F 0.3358437194 -1.1457353558 -1.7646048973
C -0.6710976075 -0.4794292883 0.2864264076
F -0.3111791708 0.1167408388 1.4479818536
F -1.4126771417 -1.5736692479 0.5649644632
C -1.5512510350 0.5230182327 -0.5385280396
F -0.7420124572 1.4271772038 -1.1363159221
F -2.2193437008 -0.1678727571 -1.4886372043
C -2.5887827192 1.3005534341 0.3416303163
F -3.1516892137 0.4513564299 1.2321116238
F -1.9462538291 2.2823831184 1.0094448298
C -3.7455625141 1.9628757543 -0.4760852868
F -3.2454206235 2.6762796020 -1.4948542170
F -4.4295271800 2.7828719525 0.3331268622
F -4.5852867653 1.0400765380 -0.9552753333
S 3.0839173271 -2.5572023174 -0.5137416989
O 3.2128000130 -1.9086364746 -1.8144621881
O 3.2183310509 -3.9946127788 -0.2963829217
N 4.1160530843 -1.8184689009 0.5504305737
C 4.3583812438 -0.3650036887 0.5619089220
C 5.7743419431 -0.0919963318 1.0501305271
H 4.1352451335 -2.2912571029 1.4479551017
H 4.2313274028 -0.0088145983 -0.4633309502
H 3.6247790919 0.1515451594 1.1945329447
H 6.5083403837 -0.5679085260 0.3953382864
H 5.9242099978 -0.4652065534 2.0683877040
H 5.9579211612 0.9860995507 1.0600639863
