41
CONF2
C 4.2471092648 0.6313611011 2.2789517006
C 4.7174272345 -0.1592418405 1.0523805697
C 4.7426259739 -1.6623957400 1.3558629601
C 6.1131552842 0.3111116690 0.6349392848
N 3.8329231507 0.1167816493 -0.0988970859
C 2.5118489140 -0.1753647780 -0.1410519180
O 1.8397283329 -0.6522899259 0.7473012823
O 2.0320116321 0.1664724993 -1.3996641808
C 0.6820547199 -0.0085374775 -1.6863495209
C 0.3789884149 -0.5953297503 -2.9078959674
C -0.9584296818 -0.7085410990 -3.2691740373
C -1.9815615069 -0.2663185190 -2.4389046597
C -1.6539831970 0.3202557239 -1.2111987511
C -0.3102810914 0.4606924685 -0.8414830294
N -2.6063272325 0.7604037058 -0.2788191523
C -3.9559716601 1.0076010612 -0.5040274141
O -4.4769965904 0.9234446383 -1.6091571088
N -4.6701339480 1.3412170420 0.6340200307
C -6.0075726436 1.8908820375 0.4635583943
C -4.0655418193 1.4979166947 1.9465566337
H 4.9294442866 0.4547944643 3.1161989586
H 4.2356126741 1.7039445134 2.0614225312
H 3.2432719174 0.3206588671 2.5757813951
H 3.7474394951 -2.0166835138 1.6322144742
H 5.0861525794 -2.2236798302 0.4812765378
H 5.4280188322 -1.8612794292 2.1855940211
H 6.8195248821 0.1376333121 1.4504156770
H 6.1156045293 1.3823524976 0.4057123680
H 6.4681432416 -0.2411027992 -0.2423005810
H 4.2436871438 0.4771971424 -0.9449356718
H 1.1788980146 -0.9441202134 -3.5503447674
H -1.2156870232 -1.1609062991 -4.2215136421
H -3.0163674596 -0.3610641501 -2.7313695682
H -0.0404779823 0.9153950287 0.1044779628
H -2.2205416650 1.0255988212 0.6111198793
H -6.0200996494 2.9761613309 0.6417806720
H -6.7020498908 1.4134520012 1.1644823396
H -6.3372590472 1.6953688890 -0.5564217517
H -3.4518693215 2.4098829109 2.0347598569
H -4.8634727210 1.5683673491 2.6900322534
H -3.4591948514 0.6255226425 2.2160306208
