53
CONF469
C -1.7418382832 4.5042644312 -0.2017475779
C -1.4995126221 3.9042611496 1.1700018786
O -1.1680947230 2.4997167991 1.0608231625
C 0.1200607288 2.2140496521 0.7204592684
O 0.9871122649 3.0727903588 0.6507038731
C 0.2929856617 0.7886035562 0.4630524745
C 1.5460180932 0.2764639824 0.3314746540
N 1.7291510726 -1.0608262131 0.1055443090
C 0.7077805517 -1.9816480597 0.1125216708
C -0.5816914310 -1.5612472220 0.2482503980
C -0.9419122996 -0.0823638360 0.2876531625
C -1.7776482479 0.3531310657 -0.9208514494
C -3.0815912106 0.8136219550 -0.7020286520
C -3.9003434537 1.2451017680 -1.7340886421
C -3.4255372022 1.2295117762 -3.0430066702
C -2.1394801831 0.7776908314 -3.2997476984
C -1.3369537026 0.3464635707 -2.2451586957
Cl 0.2777283243 -0.2129882728 -2.6698921699
C -1.6536217256 -2.5470926022 0.3553783535
O -1.5640183205 -3.7565952760 0.2252523901
O -2.8460355560 -1.9453178195 0.6488983485
C -3.9635003044 -2.8423642175 0.7407188116
C 1.1591710985 -3.4029146011 -0.0357229366
C 2.8352828741 1.0795337987 0.3755845746
O 3.9783722091 0.2356586709 0.4437472273
C 4.3143755301 -0.1513074994 1.7754581107
C 5.1984691920 -1.3798379255 1.6938569716
N 4.4234995061 -2.5325114386 1.2032313957
H -2.5142814680 3.9422049239 -0.7349552801
H -0.8232679064 4.4899002688 -0.7931572050
H -2.0707132380 5.5434937691 -0.0992153884
H -2.4069917392 3.9196597089 1.7796013039
H -0.6958621051 4.4247842182 1.6991474471
H 2.6902104027 -1.3959086132 0.0778063979
H -1.5961325259 0.0841522315 1.1491078587
H -3.4444586512 0.8293614589 0.3207370201
H -4.9051333536 1.5945638278 -1.5195274474
H -4.0506859135 1.5652363148 -3.8638697211
H -1.7484109477 0.7540669750 -4.3103599965
H -4.0945949209 -3.3902571811 -0.1964740044
H -3.8182192246 -3.5609815982 1.5525530938
H -4.8295653350 -2.2095537821 0.9388414518
H 2.2464226122 -3.4464972419 -0.1323887313
H 0.8416887081 -4.0054788170 0.8186745765
H 0.6934016203 -3.8596138570 -0.9115801259
H 2.9188723993 1.6612508077 -0.5482031119
H 2.8120539368 1.7988707092 1.2003148997
H 4.8423966839 0.6710961475 2.2834770309
H 3.4033724060 -0.3774718779 2.3555399084
H 6.0038931883 -1.1728059239 0.9804620614
H 5.6654262682 -1.5447194712 2.6786494591
H 3.8876168030 -2.9367402415 1.9647560012
H 5.0447343632 -3.2624595356 0.8748840531
