47
CONF107
C -7.0779085243 0.4660346847 -0.9651772352
O -6.2640710103 1.4588692211 -0.3021973059
P -4.6693583281 1.2645620374 -0.2637754609
S -3.7251831157 0.9089796978 -1.8962542132
O -4.2128663227 2.6078231776 0.4785737604
C -4.8087472185 2.9797344239 1.7473881549
O -4.5995286728 0.0956104170 0.8873844467
C -3.4368394677 -0.6129321617 1.1683995964
C -2.2167483514 0.0285271877 1.3624353026
C -1.0986020920 -0.7241327065 1.6915055075
C -1.1925271903 -2.1133470824 1.8053687208
C -2.4229794649 -2.7415931891 1.6070682585
C -3.5498939628 -1.9895531588 1.2959397615
S 0.2120107052 -3.1154624434 2.2695879248
C 1.5199341044 -2.4039665369 1.2804788786
C 2.7741809696 -2.2268782782 1.8666136391
C 3.8319797316 -1.7254944476 1.1157316212
C 3.6161092215 -1.3876467041 -0.2111401357
C 2.3733868110 -1.5549358020 -0.8106588493
C 1.3266489731 -2.0774931453 -0.0646795495
O 4.6853487183 -0.9110580609 -0.9741526664
P 4.9059111602 0.6866601122 -1.1651184853
S 4.8704527689 1.7709958482 0.4325565135
O 3.8191269154 0.9953751834 -2.3026803684
C 3.4828413320 2.3641199540 -2.6276259994
O 6.2613333784 0.6784007666 -2.0240217564
C 7.5340768297 0.5715904604 -1.3481845735
H -7.0315957802 -0.4839039998 -0.4232643972
H -6.7400916913 0.3288553761 -1.9967271762
H -8.0964466430 0.8549358887 -0.9496936542
H -4.7078592707 2.1656636564 2.4718146564
H -4.2537293938 3.8541890433 2.0881172697
H -5.8630982258 3.2317845381 1.6089965064
H -2.1417654488 1.1058234365 1.2600791884
H -0.1462047008 -0.2302193688 1.8511265259
H -2.4963587051 -3.8215699955 1.6797746537
H -4.5105169589 -2.4635626757 1.1284861415
H 2.9192971036 -2.4655966129 2.9148451363
H 4.8086126068 -1.5658475805 1.5575133160
H 2.2406021337 -1.2867912344 -1.8524982303
H 0.3553192356 -2.2234830771 -0.5248370142
H 4.3344367481 2.8586585175 -3.1046716905
H 2.6464428069 2.3055150286 -3.3247061835
H 3.1896400147 2.9067765223 -1.7246510670
H 8.2925261989 0.6866384537 -2.1231793247
H 7.6325691472 1.3606118465 -0.5968233354
H 7.6301318244 -0.4112670221 -0.8760208067
