21
CONF3
C 2.5157134981 -0.4913778868 -0.9967915992
C 1.2024837663 -0.2102443391 -0.3183200545
O 0.7013902860 1.0498185432 -0.7891338858
C -0.7298853260 1.1219342049 -0.6705612715
O -1.1541889197 0.2864502216 0.3969123294
C -0.9603947792 -1.0878867002 0.0645501754
O 0.2806242223 -1.2391774983 -0.6505030359
C -0.9894947257 -1.8914001285 1.3405529667
C -1.1260752502 2.5435769641 -0.3787767482
H 2.3656408015 -0.5958203596 -2.0749184624
H 2.9488639486 -1.4122504245 -0.5982942466
H 3.2076089453 0.3335037342 -0.8092214013
H 1.3173152752 -0.1563605831 0.7751432830
H -1.1777094955 0.7567013548 -1.6102670152
H -1.7358882893 -1.4118544649 -0.6457177791
H -1.9486002065 -1.7498398307 1.8465934893
H -0.1824724876 -1.5771167618 2.0089604132
H -0.8688470448 -2.9513433663 1.1042460240
H -2.2154359025 2.6308778852 -0.3636356620
H -0.7205443661 2.8518084349 0.5889688794
H -0.7301043418 3.2000010009 -1.1575972011
