70
CONF127
C -1.2819775250 -1.4668019542 1.6298914628
C -2.5631221275 -1.5408581402 2.4936911782
C -2.2049167434 -1.3656997424 3.9324175121
C -2.7540150418 -1.7725484878 5.1207714121
N -1.9536359459 -1.3224075036 6.1694142765
C -0.8726539286 -0.6338694146 5.6621560774
C 0.2284295914 -0.0022238684 6.2413652522
C 1.1415595900 0.5804129700 5.3689756108
C 0.9870925072 0.5510550094 3.9664946535
C -0.1137508213 -0.0683544519 3.3892682972
C -1.0249017227 -0.6537954128 4.2640099335
C -0.4631414575 -0.1709438296 1.9192916580
C 0.7691357688 -0.0879828583 1.0191920988
C 0.3462558228 -0.2031262533 -0.4515791260
C -0.4022380178 -1.5209507467 -0.6322928087
N -1.6136637860 -1.5037435030 0.1953685987
C -2.5225037567 -2.5939565522 -0.2079151072
C -2.0158600079 -3.9868258281 0.0536660284
C -1.7096803871 -4.8607747913 -0.9008042083
C 1.5583230807 -0.1485319131 -1.3609854449
O 2.0743462252 -1.2015375650 -1.7417250382
N 2.0624849960 1.1002269917 -1.7021646974
C 1.4083666118 2.3683993442 -1.3083733307
C 0.6033258102 3.0013435304 -2.4461923693
C -0.6914226950 2.2685737177 -2.7854178796
N -1.6475335894 2.2177432052 -1.6741288191
C -2.7319316641 1.2862190219 -1.9758145165
C -2.1933350266 3.5336827525 -1.3540734784
C 3.2647726923 1.3126109735 -2.4860764319
O 3.6282212420 2.4590331945 -2.7199898016
N 3.9236955636 0.2136694197 -2.9016505651
C 5.1076514183 0.3452559628 -3.7414880842
C 4.7660528040 0.6097744258 -5.2061862991
H -0.6316616410 -2.3201767835 1.9155568466
H -3.2489717842 -0.7507385800 2.1538494828
H -3.0744445783 -2.4966427071 2.3454073321
H -3.6465482251 -2.3464178648 5.3266007382
H -2.1311382511 -1.5001473266 7.1416260919
H 0.3801292076 0.0357123688 7.3151651588
H 2.0136614900 1.0763060572 5.7832064019
H 1.7486772052 1.0218195222 3.3539983290
H -1.1246825520 0.6722932276 1.6598650944
H 1.3002057924 0.8528226440 1.1988214889
H 1.4643553031 -0.9023530520 1.2646870067
H -0.3525632307 0.6098796805 -0.6745621779
H -0.6992326911 -1.6388616168 -1.6816025826
H 0.2634999322 -2.3675762051 -0.3953017813
H -3.4881850658 -2.4462845145 0.2884769637
H -2.7074938580 -2.4768325222 -1.2828659476
H -1.8819315114 -4.2735624181 1.0967280257
H -1.8233689463 -4.6077460991 -1.9526588093
H -1.3372109431 -5.8540385934 -0.6706969524
H 2.2011713312 3.0542805912 -1.0045543318
H 0.7643183270 2.1895962206 -0.4489961316
H 0.3938806459 4.0418369362 -2.1735313561
H 1.2319945164 3.0488451874 -3.3404640519
H -0.4498550197 1.2323054950 -3.0620983229
H -1.1465872139 2.7320196175 -3.6844079362
H -2.3239582848 0.2868496514 -2.1584204479
H -3.3231348131 1.5908817603 -2.8617414338
H -3.4060896791 1.2127075988 -1.1167971465
H -1.4034621482 4.2145102963 -1.0256609775
H -2.7152793294 3.9980651049 -2.2143379053
H -2.9096711835 3.4385585536 -0.5320538689
H 3.5040675288 -0.6861634544 -2.6843601734
H 5.7221232769 1.1616710761 -3.3487767231
H 5.6788418692 -0.5837608620 -3.6415499285
H 5.6809855825 0.6995874528 -5.8004837291
H 4.2037831869 1.5427346676 -5.2969408606
H 4.1643447667 -0.2050491097 -5.6202407145
