51
CONF66
O 4.7009894940 1.8939267301 0.5981322278
C 3.4459354841 1.2470263246 0.3134124094
C 2.6201762900 2.2710844446 -0.4722890024
C 1.3119166881 1.7184692858 -1.0402675637
C 0.3470465549 1.1889364308 0.0101272795
C -0.9564845666 0.4937098285 -0.5067740881
N -1.7102457487 1.4912546060 0.2901011024
C -0.5892379272 2.1764689587 0.7081746427
O -0.4574854866 3.1929207211 1.3659500657
C -3.0849501060 1.6848397557 0.4269470110
C -3.9649466894 0.8875671989 -0.3144898744
C -5.3386932571 1.0615104802 -0.1885220385
C -5.8062116808 2.0358184768 0.6759685355
F -7.1493286100 2.2103257428 0.7998766981
C -4.9592273560 2.8401378768 1.4203433388
C -3.5864656365 2.6616650952 1.2984916824
C -1.1340126559 -0.9453200526 -0.1305583346
C -0.9769951129 -1.9373541312 -1.1013287839
C -1.0313888745 -3.2846020422 -0.7660483414
C -1.2572998484 -3.6552752092 0.5600699700
O -1.3066815239 -4.9911098617 0.8398036522
C -1.4293060888 -2.6754432710 1.5415805995
C -1.3618860256 -1.3319907523 1.1922354290
C 3.6417603557 -0.0471259966 -0.4461176509
C 3.0511019524 -1.2291143501 0.0037498316
C 3.1771527889 -2.4173058310 -0.7141227255
C 3.9162888536 -2.3930892503 -1.8827226440
F 4.0507440399 -3.5447014345 -2.5933019522
C 4.5321204623 -1.2457690967 -2.3589538515
C 4.3859791813 -0.0706327762 -1.6298869877
H 5.2241196343 1.2851871885 1.1357864157
H 2.9381757061 1.0133458467 1.2601791639
H 2.4255856958 3.1287370113 0.1822758914
H 3.2389505828 2.6307765085 -1.3034514383
H 0.8126935468 2.4963616643 -1.6297598197
H 1.5390472126 0.8962804067 -1.7304326908
H 0.8484094676 0.5493849837 0.7426739567
H -1.1039936972 0.6405622227 -1.5835865724
H -3.5786619694 0.1303850743 -0.9880031721
H -6.0346170736 0.4523245654 -0.7548273189
H -5.3674413023 3.5918422346 2.0871275680
H -2.9044342259 3.2756669150 1.8731871567
H -0.8044087481 -1.6522059201 -2.1358863052
H -0.9055899333 -4.0538395601 -1.5212722773
H -1.4685916658 -5.1187736922 1.7844736006
H -1.6129992287 -2.9683194365 2.5721761330
H -1.4901671121 -0.5761137295 1.9625968952
H 2.4808044003 -1.2298760950 0.9290014370
H 2.7192427122 -3.3399019232 -0.3735360432
H 5.1064751287 -1.2784209663 -3.2786778109
H 4.8570357282 0.8397684775 -1.9879193066
