52
CONF91
C 3.1650289767 -1.8008707455 -1.4952305729
N 3.0474949951 -1.1759672859 -0.1738505215
C 4.2722736594 -1.4773036296 0.5890269744
C 4.2585998654 -0.8408363475 1.9713710131
C 3.0441521696 -1.3280337787 2.7554396857
C 1.7791544358 -1.0506915616 1.9496546279
C 1.8502788062 -1.6623213148 0.5444562999
C 0.5577261908 -1.3817231963 -0.2350006615
C 0.4189172642 0.0736514467 -0.6905611231
N -0.9108791575 0.3188010660 -1.2647444129
C -1.0260360442 1.1534295858 -2.3975468393
C -0.0318629324 2.0704919372 -2.7610349544
C -0.1677323457 2.8394104447 -3.9144572893
C -1.3095192491 2.7421841852 -4.7035998645
C -2.3288850791 1.8709871249 -4.3265979781
C -2.1797926750 1.0754038377 -3.1950218123
S -3.4332228059 -0.1150511793 -2.7654685685
C -3.3105030826 0.0250622795 -0.9978653724
C -2.0347210189 0.2033233563 -0.4291784248
C -1.9321180461 0.2377999943 0.9659310175
C -3.0750703492 0.0759181333 1.7411060209
C -4.3312610851 -0.1106329260 1.1865451093
C -4.4432906573 -0.1098875627 -0.2022024887
S -2.8935597907 0.0465321735 3.5532601619
O -4.2468630268 -0.3822083218 4.1263277955
C -2.7948218947 1.8645779848 3.7886353845
H 2.3429978389 -1.5041411732 -2.1518138301
H 4.0994529812 -1.4755132492 -1.9634677025
H 3.1770560790 -2.9062761878 -1.4366735460
H 5.1272650053 -1.1097563510 0.0092046652
H 4.3996006444 -2.5749238362 0.6981133334
H 4.2213879651 0.2517426214 1.8692660279
H 5.1902402286 -1.0918686716 2.4911678803
H 2.9885368574 -0.8426908880 3.7363062510
H 3.1361321884 -2.4088683909 2.9312118992
H 0.8979021704 -1.4604237734 2.4573871648
H 1.6352816416 0.0345783780 1.8708503163
H 1.9200895030 -2.7650596984 0.6669139277
H 0.4845548497 -2.0250676324 -1.1182858153
H -0.2763663293 -1.6621043339 0.4161186549
H 0.6461141219 0.7830443119 0.1168356503
H 1.1474574951 0.2590637164 -1.4794744329
H 0.8505630566 2.1928575141 -2.1444225305
H 0.6241077486 3.5312052228 -4.1834405628
H -1.4168518105 3.3455763543 -5.5986220340
H -3.2348925512 1.7914821242 -4.9194981068
H -0.9694522531 0.3799245796 1.4454157294
H -5.1989134532 -0.2507772617 1.8217006564
H -5.4136427608 -0.2415320702 -0.6709214711
H -1.9066432434 2.2352681206 3.2698358372
H -3.7060019258 2.3122013582 3.3831484737
H -2.7094641656 2.0400144261 4.8637509718
