46
CONF150
C -1.7440623215 -1.5953974727 -0.2655625037
C -2.4877852154 -1.4009408112 1.0346641097
C -1.9586792236 -1.9883206241 2.3208201684
C -1.9390688782 -0.4619059100 2.1066047880
C -0.6775010766 0.2759356643 1.9100639729
O 0.3800118066 -0.1756262034 1.5112954555
O -0.8547991143 1.5807374826 2.2349857884
C 0.2841055171 2.4677266591 1.9892612553
C 0.3359838297 2.8623184609 0.5403363297
C 1.2482636135 2.2526971130 -0.3188756967
C 1.2474185113 2.5883834528 -1.6699078451
C 0.3674355291 3.5411059100 -2.1731419827
C -0.5284604495 4.1595720991 -1.3048950733
C -0.5529412685 3.8207660710 0.0441906689
O 2.1590345765 2.0424078061 -2.5556324033
C 2.5043874722 0.7070955641 -2.4175036992
C 1.5551101550 -0.2716063910 -2.1289539229
C 1.9560982054 -1.6024629146 -2.0640670265
C 3.2847148875 -1.9556570428 -2.2955768757
C 4.2174648924 -0.9652945667 -2.5959590740
C 3.8335796933 0.3719438741 -2.6542177228
C -0.7266979853 -2.7777526263 2.3640936714
C -0.4660692522 -3.7342761302 3.2555150590
Cl 1.0114730817 -4.6646616570 3.2134665495
Cl -1.5330167562 -4.1862930403 4.5597705870
C -3.9925352769 -1.3841164117 0.8748566918
H -2.0043576605 -2.5706791872 -0.6909190667
H -2.0488577901 -0.8229076260 -0.9799795477
H -0.6615818798 -1.5413370427 -0.1532884286
H -2.7201905808 -2.2895813773 3.0333291125
H -2.6879847463 0.0875154782 2.6668632046
H 1.2030395952 1.9699579573 2.3063326318
H 0.0839576497 3.3293581044 2.6284410348
H 1.9410967165 1.5104100419 0.0607958945
H 0.3931734884 3.7879479274 -3.2292824977
H -1.2145410059 4.9071601288 -1.6901668474
H -1.2591786324 4.2990311338 0.7163677302
H 0.5208307184 0.0052507372 -1.9541263567
H 1.2197791600 -2.3679047299 -1.8381177508
H 3.5895492202 -2.9956300693 -2.2443830747
H 5.2541775126 -1.2300099156 -2.7791866522
H 4.5490136928 1.1558264591 -2.8799650146
H 0.0400674692 -2.5918063094 1.6215446400
H -4.4975651668 -1.2583241823 1.8364321999
H -4.3294250171 -2.3257209361 0.4274588302
H -4.2944664104 -0.5649349369 0.2132422803
