61
CONF15
C -1.7734777684 0.2019405493 -4.4091052911
C -1.1096737646 -0.1082310585 -3.0708049542
C -1.9856833441 0.0396570927 -1.8448234651
C -3.2451261211 0.6266909505 -1.9218363318
C -4.0795305067 0.7330471501 -0.8034452847
C -3.6206168878 0.2384394032 0.4114828452
C -2.3544951649 -0.3435416900 0.5394943698
C -1.5294479529 -0.4401544213 -0.5928711172
C -0.1948674714 -1.0528732547 -0.4928106981
C 1.0145210875 -0.4408397866 -0.6555299895
N 2.0526772385 -1.3222439036 -0.6400869285
C 3.4126110383 -1.0294522574 -0.1839598181
C 3.6772654292 -1.4225365161 1.2701283476
O 4.0218232371 -2.7992461354 1.4232775360
C 2.9158125077 -3.6942860747 1.3094229942
C 2.2902982109 -3.7292453442 -0.0833552277
N 1.4847555205 -2.5602768903 -0.3746037922
C 0.0986607307 -2.4571742376 -0.2779749497
O -0.6541615765 -3.4241096473 -0.0843854869
O 1.2482467550 0.8791848119 -0.9140822021
C 1.3268118636 1.7249409936 0.1936696432
O 1.4652884934 1.2882222076 1.3057092876
C 1.1834590217 3.1715845020 -0.2246040613
C 2.1616384139 3.4948591761 -1.3666136633
C -0.2716420627 3.3613379878 -0.7031470909
C 1.4627902416 4.0634591512 0.9868391449
C -1.9084385049 -0.7989895164 1.9075699382
C -1.6348882859 0.3854180435 2.8452728224
C -5.4471999685 1.3464953195 -0.9325972946
H -2.6592417961 -0.4211375535 -4.5707996032
H -1.0705773983 0.0073973044 -5.2242960884
H -2.0789992679 1.2507080793 -4.4790736561
H -0.7187893505 -1.1337133302 -3.0859545394
H -0.2269995045 0.5339023914 -2.9548724093
H -3.6070591282 1.0010428248 -2.8743504211
H -4.2587641531 0.3068730916 1.2900435941
H 4.1299979280 -1.5378461935 -0.8377795026
H 3.5507738853 0.0468395811 -0.3143235299
H 2.8126013653 -1.1614765800 1.8990724185
H 4.5485249832 -0.8600356684 1.6186984656
H 3.3146497282 -4.6870127413 1.5391392911
H 2.1417401547 -3.4397100466 2.0503906193
H 3.0590048849 -3.8610167646 -0.8536741352
H 1.5986587936 -4.5758257167 -0.1409271723
H 1.9509631175 2.8984176953 -2.2570741910
H 2.0579209795 4.5528477858 -1.6257189526
H 3.1969202837 3.3167063692 -1.0585086438
H -0.9833299733 3.0834445728 0.0818334706
H -0.4232923212 4.4166257136 -0.9503121303
H -0.4783616282 2.7591315366 -1.5917517561
H 2.4814701469 3.9153981217 1.3568835333
H 0.7644411433 3.8530353148 1.8012730605
H 1.3487844040 5.1103758240 0.6915466826
H -1.0089901138 -1.4139269585 1.8257727149
H -1.2936978678 0.0336399942 3.8242024545
H -0.8616263482 1.0361855451 2.4260691688
H -5.3971083515 2.3183055161 -1.4346300067
H -6.1051817778 0.7078852686 -1.5332626958
H -5.9131150432 1.4859444751 0.0460338952
H -2.6905440756 -1.4318283979 2.3445617486
H -2.5386308150 0.9844861178 2.9944612072
