33
CONF1
C 0.6967410473 -2.3545354240 -0.3805112728
C 0.1688366020 -1.1588869518 0.4334894571
C -0.1093116404 -1.6450517328 1.8675875563
C -1.1408710095 -0.6011055450 -0.1337048135
C -1.8667296697 -1.2465334262 -1.1322631829
C -3.0672614200 -0.7147096303 -1.5852391893
C -3.5994642624 0.4710672665 -1.0746901687
C -2.8491735697 1.1003909461 -0.0708221232
C -1.6517856721 0.5892108502 0.3934052095
Br -3.5296925596 2.7358670176 0.6645645198
O -4.7675111648 0.9415602406 -1.5560036853
Br -4.0314529799 -1.6271775148 -2.9603693131
C 1.2334780916 -0.0578147320 0.3852709088
C 2.0324936303 0.2688169826 1.4787178417
C 3.0151134878 1.2440856593 1.3657697977
C 3.2500721277 1.9356704415 0.1751692511
C 2.4309057266 1.5886408877 -0.9088633898
C 1.4470713099 0.6219142734 -0.8178226234
Br 2.6966494216 2.5104334680 -2.5687759350
O 4.2169706173 2.8740543276 0.1271344766
Br 4.0869816412 1.6662373109 2.8909993128
H 0.0078057719 -3.2030805518 -0.3221653822
H 0.8495229824 -2.0941135943 -1.4319090204
H 1.6576268988 -2.6698939568 0.0356415036
H -0.4174675507 -0.8255366081 2.5233132972
H 0.7744718831 -2.1278335360 2.2963438590
H -0.9165448988 -2.3822812288 1.8401931638
H -1.5104949323 -2.1673666909 -1.5751760301
H -1.1061467984 1.1242897608 1.1632632168
H -4.9911638632 1.7717368702 -1.1039406348
H 1.9028274628 -0.2267162184 2.4319684755
H 0.8357848813 0.4007857210 -1.6861424917
H 4.2517185031 3.2578756302 -0.7644329035
