33
CONF610
C 5.1982877201 -3.4551249553 -0.0026107638
C 5.4084674641 -2.3729461887 -1.0702405964
C 4.7976358715 -1.0561175286 -0.6760717471
C 5.5181030047 0.0071501194 -0.3012153825
C 3.3114682321 -0.9948695029 -0.7386888491
O 2.6189871000 -1.8498701554 -1.2609304586
O 2.7949943373 0.1128055125 -0.1626003580
C 1.3539768143 0.2345177401 -0.2323395448
C 1.0351928975 1.5471072319 0.4668216878
C -0.4003052309 1.9958281822 0.3143292072
C -1.4683901522 1.0131192671 0.8869325538
C -2.8901895074 1.6269620244 1.1051263717
C -4.0299266759 0.5680068435 1.2647889671
F -4.2896423049 -0.0381759784 0.1008533117
F -3.6886242512 -0.3560266773 2.1744131022
F -5.1438643911 1.1894719475 1.6779585119
F -2.8754556477 2.3784518692 2.2289305802
F -3.2172819804 2.4140854823 0.0535368798
F -1.5793998439 -0.0408189827 0.0344064765
F -1.0285193492 0.5480001957 2.0829300059
F -0.7015513099 2.2040322817 -1.0048231937
F -0.5671676958 3.1944570417 0.9601533596
H 5.6707360840 -3.1615790653 0.9399863106
H 5.6396960478 -4.4019692582 -0.3274749016
H 4.1337440043 -3.6231750364 0.1847472085
H 6.4790135954 -2.2226106245 -1.2380069329
H 4.9677382568 -2.7055664180 -2.0164499414
H 5.0544297694 0.9433251989 -0.0126523013
H 6.6029380058 -0.0446530733 -0.2863341478
H 0.9024719943 -0.6270178653 0.2669273412
H 1.0417278101 0.2441012857 -1.2809863957
H 1.2697923880 1.4867303972 1.5327861918
H 1.6356598458 2.3518560951 0.0284422738
