47
CONF33
C -5.8979473996 -3.7664430000 -2.0431871177
O -5.9491541881 -3.4577742272 -0.6218342701
P -5.6647053577 -1.9680274255 -0.1172230875
S -6.5311163389 -0.5168557988 -1.0714099129
O -5.9517955523 -2.1060503883 1.4486011971
C -7.3189719461 -2.0354938077 1.9459776255
O -4.0410489122 -1.9549923378 -0.1243708705
C -3.2966447059 -0.7770749788 -0.0745773564
C -3.3995155607 0.0893576733 1.0049911085
C -2.5898708951 1.2213459160 1.0386884491
C -1.7019028964 1.4795752774 -0.0059077942
C -1.6196302643 0.6001722069 -1.0894889356
C -2.4130513368 -0.5382053241 -1.1208743426
S -0.7347092941 2.9836477070 0.0276804403
C 0.9455301312 2.3753373568 -0.0587203412
C 1.9119462893 3.2291264637 -0.5990835733
C 3.2462883078 2.8409360108 -0.6308033397
C 3.5998636134 1.5910450813 -0.1428525409
C 2.6508676225 0.7260941098 0.3875140092
C 1.3204207536 1.1256431145 0.4400791294
O 4.9362892098 1.1960093064 -0.2482000309
P 5.8879638052 1.0519984575 1.0705346421
S 5.6266454397 2.3978111902 2.4377247954
O 7.3135038105 0.9393155235 0.3565563320
C 7.8979516454 2.1097642968 -0.2800903098
O 5.6744571059 -0.4296140188 1.6209382003
C 5.8277840377 -1.5786636062 0.7312186949
H -4.8964568392 -3.5672478261 -2.4345157544
H -6.6430773351 -3.1750365314 -2.5809565798
H -6.1275219649 -4.8287231535 -2.1199502100
H -7.2394391012 -2.1236348479 3.0288885869
H -7.7658432465 -1.0763670909 1.6728742833
H -7.9085752612 -2.8622394018 1.5413130920
H -4.0873386734 -0.1232126765 1.8161653352
H -2.6462567966 1.8980078047 1.8845874785
H -0.9367987524 0.8051958315 -1.9074361004
H -2.3646754148 -1.2322054557 -1.9530214716
H 1.6250453797 4.1978615153 -0.9958980795
H 4.0078835879 3.4947224579 -1.0419719470
H 2.9469728024 -0.2472090946 0.7647705779
H 0.5795610867 0.4587186326 0.8671720375
H 8.8598437533 1.7813801115 -0.6723692873
H 7.2552627649 2.4544115471 -1.0946152849
H 8.0401323183 2.9034087387 0.4581411758
H 5.2295631853 -1.4400143642 -0.1731711048
H 6.8815642454 -1.7113813388 0.4784240552
H 5.4607060478 -2.4344194248 1.2967343777
