57
CONF178
C 1.3035386614 2.2505759422 -1.3987354851
C 0.1870064160 1.2563210944 -1.0936968003
C -1.1736631535 1.9866286792 -1.0138165997
C -2.3340763200 1.1249978391 -0.5933727528
C -2.7763059125 1.1411918944 0.7322914515
C -3.8513664262 0.3534336682 1.1355302582
C -4.4955545466 -0.4724592613 0.2179441160
C -4.0650846106 -0.4953864134 -1.1075359278
C -2.9961591931 0.3006462777 -1.5101054869
C 0.1577950483 0.1275693323 -2.1138648928
C 0.0507427786 0.4461729018 -3.4723622839
C -0.0184618319 -0.5555019006 -4.4344571150
C 0.0181440425 -1.8959712411 -4.0560426954
C 0.1249896083 -2.2202016525 -2.7077347433
C 0.1938351428 -1.2168335494 -1.7425651962
O 0.4430476622 0.5986560825 0.2032309391
P 0.9602919045 1.2923381408 1.5322826234
O 0.3405392471 2.5706465664 1.9416311403
O 2.5572333911 1.4533267571 1.4269786556
C 3.4441349392 0.5959029877 0.7700812562
C 4.5990348091 1.1977352948 0.2824267022
C 5.5445018338 0.4163892266 -0.3733957968
C 5.3326951080 -0.9504818496 -0.5435167259
C 4.1713414180 -1.5337832615 -0.0448818689
C 3.2168310896 -0.7676354210 0.6220242419
O 0.8609066693 0.0749489737 2.5800468299
C -0.3752312427 -0.4219724787 3.0255879937
C -1.0775988333 0.2643534578 4.0063000633
C -2.2569143115 -0.2946092056 4.4930416047
C -2.7122138779 -1.5170237920 4.0042188529
C -1.9894627469 -2.1854801005 3.0187414373
C -0.8103275307 -1.6388173681 2.5200599341
H 2.2687082750 1.7403952268 -1.4534744733
H 1.3420469321 3.0354511375 -0.6370669417
H 1.1134466647 2.7326977752 -2.3598278073
H -1.3574646057 2.4093243539 -2.0073853464
H -1.0583509546 2.8216008324 -0.3158968305
H -2.2736829931 1.7811380866 1.4522372429
H -4.1805052387 0.3811795819 2.1691870219
H -5.3330175929 -1.0885936593 0.5309876680
H -4.5682587604 -1.1283823093 -1.8324511034
H -2.6740879440 0.2865536205 -2.5474001013
H 0.0070788626 1.4833265522 -3.7895495185
H -0.1030590693 -0.2861369730 -5.4827212194
H -0.0364774783 -2.6784540170 -4.8062606344
H 0.1527723666 -3.2604684374 -2.3978903849
H 0.2705275505 -1.4865978872 -0.6969216995
H 4.7407194994 2.2647785838 0.4166821384
H 6.4468050773 0.8823313696 -0.7563365411
H 6.0692756469 -1.5569032442 -1.0598812131
H 3.9987257908 -2.5981981562 -0.1686682277
H 2.3196074383 -1.2304836937 1.0135821458
H -0.7007753386 1.2091294739 4.3823821968
H -2.8171295413 0.2287476646 5.2613423593
H -3.6309462182 -1.9473560645 4.3892460328
H -2.3417960701 -3.1368651960 2.6332433627
H -0.2283526271 -2.1438929200 1.7565080435
