38
CONF48
O 0.9862207532 -0.7767171351 1.5520153205
P 1.1783527750 -0.7421653454 0.0868484110
O 1.3556792407 -2.1447853075 -0.6753149954
C 0.2353128664 -2.9937100299 -0.7661256070
C -0.2349700022 -3.6496000763 0.3633205263
C -1.3372838958 -4.4914105892 0.2302330060
C -1.9415937441 -4.6715021815 -1.0118308239
C -1.4419112080 -4.0101952678 -2.1321902019
C -0.3455268622 -3.1597960459 -2.0151483243
O 2.5178648822 -0.0606054478 -0.4701353000
C 2.8234641610 1.2460475763 -0.0357495094
C 3.5001137025 1.4218152201 1.1625292128
C 3.8306453236 2.7170884211 1.5534905737
C 3.4854510058 3.8042739995 0.7530332190
C 2.8081902358 3.5996800344 -0.4471777506
C 2.4699019955 2.3106185934 -0.8523958066
O -0.0004257507 0.0018336863 -0.7225692363
C -1.1857219150 0.4131614231 -0.0880596637
C -1.2006307415 1.6130145503 0.6075430045
C -2.3975871338 2.0357355001 1.1803257847
C -3.5508924490 1.2641449365 1.0512391352
C -3.5094951678 0.0632180492 0.3459308917
C -2.3191573701 -0.3736375700 -0.2310149935
H 0.2497376739 -3.4993748120 1.3214502915
H -1.7198875789 -5.0091307130 1.1038379485
H -2.7991197704 -5.3292405801 -1.1077472681
H -1.9079386866 -4.1497512987 -3.1022367411
H 0.0542243813 -2.6256285253 -2.8703189030
H 3.7586119247 0.5614720659 1.7698405683
H 4.3605853196 2.8731641712 2.4875062904
H 3.7462417341 4.8106206822 1.0637036994
H 2.5401332794 4.4438299968 -1.0742309192
H 1.9425950346 2.1271190107 -1.7822014099
H -0.2902284912 2.1974155493 0.6971851354
H -2.4250373064 2.9715135077 1.7292706702
H -4.4805336009 1.5986598257 1.4997285908
H -4.4051420561 -0.5408732407 0.2425236530
H -2.2648550947 -1.3063501489 -0.7834917192
