39
CONF257
C 7.5011787113 3.0782049917 1.4997084432
C 6.7445854368 2.4156375367 0.3508442007
C 6.0652033766 1.1113023080 0.7674702986
C 5.2804375217 0.4604497193 -0.3706348936
C 4.6252059614 -0.8740940424 0.0141037552
C 5.6376459933 -2.0311853543 0.0410091774
C 5.1715713586 -3.2523101865 0.8330361818
C 3.4955947457 -1.2187077055 -0.9498815853
O 2.4197836234 -0.2361877042 -0.8757263259
C 1.5526353694 -0.4036189141 0.1407361811
O 1.5746817721 -1.3112645357 0.9357158408
C 0.5078916761 0.6705992590 0.1128975511
C -0.1542927613 0.8964159227 -1.0887500698
C -1.2060541078 1.7963061274 -1.1579533779
C -1.6036124191 2.5103778827 -0.0234607226
C -0.9146450142 2.3123143483 1.1867341768
C 0.1378817722 1.3895646743 1.2526544810
Br 1.1296952140 1.1660505406 2.8529211220
Br -1.4109353085 3.2959582406 2.7248798586
Br -3.0423676126 3.7298428270 -0.1283622204
Br -2.0645121634 2.0088632623 -2.8378390486
H 7.9764977807 4.0112036504 1.1824614089
H 6.8255509248 3.3111958329 2.3296313207
H 8.2850201275 2.4177910183 1.8862952523
H 5.9868006056 3.1070912525 -0.0404057606
H 7.4338481796 2.2141305149 -0.4796737073
H 6.8265423683 0.4204957196 1.1539716617
H 5.3800430756 1.3101760385 1.6034124057
H 5.9418985958 0.2962285972 -1.2345309183
H 4.5052479798 1.1625712574 -0.7022704121
H 4.1850623703 -0.7776878946 1.0165368370
H 6.5748943647 -1.6645132377 0.4738602404
H 5.8777741061 -2.3183111402 -0.9931487232
H 4.9727147043 -2.9835721017 1.8753349746
H 4.2526785226 -3.6860049708 0.4275752615
H 5.9352421637 -4.0357276705 0.8267320897
H 3.0752207955 -2.2072678701 -0.7500784283
H 3.8388904110 -1.1624145776 -1.9875055958
H 0.1491479052 0.3518904085 -1.9737819451
