39
CONF4
C -2.7862617858 2.0328650449 0.4248650006
C -2.1890124389 0.6810252055 0.8240539117
C -2.7229596304 -0.4473556223 -0.0776921274
C -1.8493243613 -0.3624487233 -1.3393943670
C -0.4450691511 0.0410591162 -0.8359413197
C -0.6600173003 0.5805842035 0.6231036033
C 0.1250898478 1.8772491908 0.8534426389
C 1.6084631171 1.6368590433 0.8061118066
C 2.1521681258 0.4175862926 0.7165081330
C 1.2557378514 -0.8061074303 0.6805863230
C -0.0005330242 -0.5018592530 1.4993255835
C 0.6618942009 -1.0722557632 -0.7434851216
C 1.6829656765 -0.9158334768 -1.8724295599
C 0.1185416993 -2.5078783813 -0.8039219016
C 3.6331003005 0.1900378835 0.6846069313
H -2.4163547884 2.8442141665 1.0583024644
H -3.8764714399 2.0064055377 0.5221461491
H -2.5518582256 2.2903871868 -0.6138126775
H -2.4381267399 0.4932407072 1.8773378072
H -2.5846682512 -1.4177008460 0.4127367690
H -3.7922706273 -0.3446143503 -0.2916264648
H -2.2387031330 0.4166601481 -2.0031130861
H -1.8577962361 -1.2910799562 -1.9153543617
H -0.0458594855 0.8431555636 -1.4663358004
H -0.1501176360 2.6240345313 0.0957805148
H -0.1468713732 2.3200552501 1.8253096849
H 2.2562720879 2.5113453457 0.8531676267
H 1.8121019449 -1.6802983468 1.0415889282
H -0.6389679805 -1.3845747964 1.5987676167
H 0.2293665703 -0.1339483500 2.5052742438
H 2.1440746975 0.0762745155 -1.8562518033
H 2.4744122474 -1.6710438955 -1.8003974486
H 1.1906359123 -1.0446735921 -2.8431421290
H 0.9258405418 -3.2140944911 -0.5815309681
H -0.2538880222 -2.7475115434 -1.8044659416
H -0.6920927617 -2.6921827544 -0.0942966665
H 4.1862575958 1.1332629982 0.6747214217
H 3.9277630719 -0.3931344785 -0.1961361064
H 3.9525389192 -0.3877062876 1.5615908885
