47
CONF30
C -4.4980671825 -2.3694990266 -0.2537877156
C -3.2108676436 -2.6387735191 -1.0406859955
C -3.0200849590 -4.1517053218 -1.2051620232
C -1.9407827491 -2.0170707510 -0.4223803949
C -1.8265959281 -2.0341268524 1.1059414436
C -0.5532799925 -1.2201146291 1.3740109715
C -0.4672623527 -0.1780176046 0.2225653185
C -0.5032220686 1.2762930266 0.7225387636
C 0.7320054530 1.6278281607 1.5104462570
C 0.6871616075 1.7935688801 2.8964694569
C 1.8327973949 2.0979376017 3.6293788262
C 3.0366002376 2.2387467823 2.9535014328
Cl 4.4967287924 2.6281304986 3.8659027723
C 3.1208531418 2.0857208618 1.5742310255
C 1.9642466199 1.7799980067 0.8649396227
C -1.6245472955 -0.5387930247 -0.7660364470
O -2.7689047157 0.3148181928 -0.6144339433
C -1.2280405158 -0.3971409555 -2.2372731890
N -0.7589862074 0.9406775350 -2.5820889982
C -1.4862818962 2.0425950795 -2.8459358516
N -0.6881084380 3.0908082801 -3.0276916404
C 0.5515734342 2.5540084283 -2.8528390302
N 0.5611833465 1.2542747928 -2.5811107518
H -4.6756139212 -1.3029336504 -0.0981851565
H -5.3554653924 -2.7785191909 -0.7989725810
H -2.8512502670 -4.6265065751 -0.2313109884
H -3.9090939807 -4.6102615096 -1.6510757627
H -2.1610509464 -4.3769543742 -1.8458190653
H -1.0791308960 -2.5844112330 -0.8075968904
H -2.6966173093 -1.5437209692 1.5604708867
H -1.7790266342 -3.0470882858 1.5162654058
H 0.3217384554 -1.8774980802 1.3520439741
H -0.5704526906 -0.7367261581 2.3555089716
H 0.4747328912 -0.3179140370 -0.3185413525
H -0.5964401234 1.9595433864 -0.1286918616
H -0.2588356936 1.6874613501 3.4200205231
H 1.7843146086 2.2252226639 4.7051099261
H 4.0693598730 2.2059392908 1.0626502746
H 2.0212414566 1.6621965588 -0.2138657740
H -2.0912468638 -0.6152216151 -2.8726762930
H -0.4244859211 -1.0964448872 -2.4766497736
H -2.5662364096 2.0312410202 -2.9015223780
H 1.4683399460 3.1248081171 -2.9340924760
H -4.4665856789 -2.8588329368 0.7261220192
H -3.3411239962 -2.2124979805 -2.0449634825
H -1.3847895601 1.4277088771 1.3547691768
H -3.0549649331 0.2910624501 0.3074472188
