61
CONF21
C -0.9622131945 -1.9514346697 -2.9438098541
C -2.1469918761 -1.0993820462 -2.4680005093
C -2.3273157098 -1.1885229651 -0.9732961662
C -3.1264665723 -2.2089985767 -0.4493317586
C -3.2746594773 -2.3890185025 0.9224196976
C -2.6064485704 -1.5125818914 1.7834647614
C -1.8072619929 -0.4764235377 1.3043386467
C -1.6568641336 -0.3213348083 -0.0938926798
C -0.8137590671 0.7638860482 -0.6231502488
C -1.2722231289 1.9496528535 -1.3185096718
O -2.4174033330 2.3130784302 -1.6392484230
N -0.1196019127 2.6672065322 -1.6232558797
N 1.0069116402 2.0074799221 -1.1566290683
C 0.5440221810 0.8938157061 -0.5243411822
O 1.3974348699 0.0801360625 0.1562751226
C 2.2142781428 -0.7877501019 -0.5698018766
O 2.3055251446 -0.7191102946 -1.7663701444
C 2.8775963371 -1.7811682249 0.3601714707
C 3.5637445017 -1.0441666549 1.5222289868
C 3.9006945247 -2.5939323822 -0.4357681798
C 1.7672679729 -2.7071192564 0.9015164659
C 2.1978090056 2.7687622187 -0.7737861219
C 1.8964655849 3.9760631712 0.1149947310
O 1.5021312141 5.1346433052 -0.6192820505
C 0.1680861227 5.0838303758 -1.1252592369
C -0.0489773211 4.0034968127 -2.1818422056
C -1.1190328673 0.4861902950 2.2489132365
C -1.5462375601 0.4104789568 3.7118295204
C -4.1527490469 -3.4777058071 1.4768118602
H -0.0330950566 -1.6135658385 -2.4750484173
H -1.1129200030 -3.0036083544 -2.6807303218
H -0.8427731872 -1.8818028693 -4.0298559140
H -1.9943700479 -0.0598471608 -2.7712645345
H -3.0632387701 -1.4475683505 -2.9577966549
H -3.6395349578 -2.8796505429 -1.1356364394
H -2.7314802408 -1.6444824995 2.8536949507
H 4.0694757229 -1.7820399147 2.1523779289
H 2.8408409925 -0.5017991050 2.1358905063
H 4.3129602975 -0.3373352467 1.1513569070
H 4.6792706302 -1.9471325445 -0.8506760425
H 3.4227823959 -3.1337401769 -1.2575606046
H 4.3717582001 -3.3214925901 0.2312434468
H 1.0441320167 -2.1497261382 1.5034781862
H 2.2293492778 -3.4743591924 1.5303554283
H 1.2375736315 -3.2041523664 0.0820763263
H 2.7284716845 3.0931978215 -1.6754495529
H 2.8445403306 2.0691291016 -0.2370918042
H 1.1375980511 3.7126979993 0.8689594570
H 2.8212387342 4.2539985744 0.6290162435
H -0.5471229030 4.9384452732 -0.3005145163
H -0.0111540241 6.0613289791 -1.5829086588
H -1.0169787531 4.1673523050 -2.6655505571
H 0.7307779191 4.0478703282 -2.9505107625
H -1.2808560849 1.5045734296 1.8732187008
H -0.0349529101 0.3267057907 2.1878512298
H -1.2926480292 -0.5549746698 4.1608245556
H -2.6246417362 0.5642412986 3.8241151925
H -1.0329432537 1.1868991672 4.2864623522
H -4.4412568700 -4.1888032911 0.6987185871
H -3.6450210350 -4.0242003087 2.2779882123
H -5.0695442194 -3.0562296722 1.9055767297
