45
CONF87
C 6.6881599267 1.2615063747 1.2369482304
C 6.5076927602 -0.1684752507 0.7262047613
C 5.7726078840 -0.2553645586 -0.6148812384
C 4.3277247328 0.2450189188 -0.5716106134
C 3.5965970919 0.0295439580 -1.8977767617
C 2.1866288441 0.6254859552 -1.9414991741
C 1.2175935351 -0.0054949221 -0.9425413694
C -0.2102569564 0.5437336489 -1.0942607310
C -1.1796088396 -0.0720796597 -0.1194347666
C -1.7771538022 -1.2980299613 -0.4404594175
N -2.6252666953 -1.8129852091 0.4948859044
C -2.8805024236 -1.1819411350 1.7048995224
N -3.7530836658 -1.9378338279 2.3952467002
C -3.9764100554 -2.9824321549 1.5673843639
N -3.3275932420 -2.9771913421 0.4000473891
N -2.3063231926 -0.0302288187 2.0415297662
C -1.4690027829 0.5035422276 1.1370186488
C -0.8731031861 1.8281100803 1.5361677216
C -1.7604562356 2.9967457369 1.0810188190
N -1.5724984887 -2.0246065167 -1.5533769217
H 7.1974015696 1.8793289347 0.4881246199
H 7.2879041066 1.2804419386 2.1525483562
H 5.7272681979 1.7346210946 1.4619540958
H 5.9622294938 -0.7598214730 1.4739647432
H 7.4935649029 -0.6380783548 0.6197878535
H 5.7717879372 -1.3001315982 -0.9543314308
H 6.3306184714 0.3156505475 -1.3708796597
H 4.3058942527 1.3150632238 -0.3254543520
H 3.7977251150 -0.2723503285 0.2392704937
H 3.5413003659 -1.0473877495 -2.1110597180
H 4.1938135208 0.4742738144 -2.7052105827
H 1.7775103503 0.5041095278 -2.9536454691
H 2.2419432678 1.7075639178 -1.7560306543
H 1.2093242141 -1.0958115704 -1.0764945495
H 1.5521001342 0.1789697752 0.0852204242
H -0.1937553432 1.6291899839 -0.9659375953
H -0.5555201465 0.3827034404 -2.1240340332
H -4.6451899082 -3.7976648567 1.8175676873
H 0.1346834491 1.9416739134 1.1272301281
H -1.3236531106 3.9505521633 1.3908708043
H -2.7571713698 2.9132109652 1.5244623424
H -1.0740296083 -1.6208569753 -2.3282118487
H -2.1801418970 -2.8072061230 -1.7415202053
H -0.7886110260 1.8398094609 2.6264013318
H -1.8730238356 3.0083034465 -0.0077094501
