43
CONF51
C 3.2173524691 3.0677472421 2.4797797767
C 1.7249107273 3.0020566006 2.2562287985
O 1.4860408813 1.8678106987 1.3828038804
N 0.1264328067 1.7646484417 1.1342250651
C -0.1691291825 0.7802642778 0.3696307419
C -1.5748622890 0.5234496702 0.0115503611
C -2.3912253054 1.5491557179 -0.5184997733
C -3.7173119168 1.2754072206 -0.8613744244
C -4.2330437434 -0.0044730601 -0.7010721644
C -3.4329624076 -1.0186290339 -0.1995680335
C -2.1045242431 -0.7701613791 0.1531188937
O -1.3158052086 -1.8049011569 0.5680452258
C -1.0614594381 -1.8412660658 1.9921672574
Cl -4.0877890357 -2.6330076434 -0.0018403360
O -1.8081615140 2.7555386237 -0.7006516361
C -2.5879883980 3.7954536351 -1.3132863676
O 0.8138209867 -0.1179891320 -0.0007067546
C 0.7618162455 -0.7145667609 -1.2413888686
O 0.1081570840 -0.2639223267 -2.1541595060
C 1.6186009722 -1.9131846035 -1.3004241406
C 1.7911214359 -2.5330109049 -2.5440526450
C 2.5753085006 -3.6736614829 -2.6465194293
C 3.1876298084 -4.2026829548 -1.5104423154
C 3.0157180617 -3.5888434870 -0.2707862703
C 2.2348062178 -2.4448006883 -0.1606870858
H 3.5824428062 2.1533027361 2.9561713922
H 3.7489242305 3.2129359407 1.5349796575
H 3.4444528719 3.9124605670 3.1362849995
H 1.1808860186 2.8464744880 3.1951348867
H 1.3472186595 3.9086353806 1.7689371228
H -4.3577498034 2.0470233932 -1.2673712527
H -5.2634076943 -0.2091275308 -0.9695318112
H -0.4264451172 -2.7115920272 2.1608551500
H -2.0049384195 -1.9506321613 2.5377395143
H -0.5424243922 -0.9347334736 2.3225742965
H -1.9179519717 4.6518379701 -1.3869372541
H -2.9208412383 3.4970724460 -2.3135962696
H -3.4518915125 4.0543278640 -0.6915289846
H 1.3082536856 -2.1116243225 -3.4189422606
H 2.7101751161 -4.1524370369 -3.6108023089
H 3.7991979390 -5.0958100006 -1.5916848941
H 3.4905537743 -4.0040029575 0.6121498257
H 2.0960914158 -1.9705421573 0.8034780043
