46
CONF24
C 5.8199218841 -1.5797063774 2.1874651469
C 5.6049251624 -0.2128110879 1.5711346803
O 4.9691350139 -0.3152855551 0.2695559749
C 3.6444860939 -0.4702945444 0.2170207740
N 3.1677098653 -0.5896736298 -1.0231816425
C 1.8406895727 -0.7664052965 -1.0786045173
N 1.0239329540 -0.8584839144 -0.0000258639
C 1.6269544917 -0.6640747012 1.1624816489
N 2.9414232579 -0.4662917931 1.3552603768
N 0.8603263217 -0.6393683951 2.3140341335
C -0.5349812726 -0.6940977927 2.4844483470
O -1.0340042062 -0.3501663856 3.5366616054
N -1.2197769615 -1.2002214090 1.3926163068
S -2.9190825030 -1.1353454670 1.2788751665
O -3.2054739856 -1.7187463669 -0.0348617222
O -3.5037685336 -1.6692450695 2.5006833025
C -3.2774575441 0.6259022791 1.1931605267
C -3.6549382754 1.2729192244 2.3632786589
C -3.9977418511 2.6200047684 2.3118622849
C -3.9823521072 3.2966888157 1.0970806768
C -3.6139782537 2.6368365425 -0.0710970365
C -3.2392725723 1.2945983462 -0.0341161408
C -2.7471632973 0.6528698632 -1.2956043194
O -1.6016561844 0.2980296350 -1.4769362803
O -3.7158519306 0.6020983956 -2.2183216489
C -3.3384360921 -0.0293673830 -3.4633997001
N 1.2421340445 -0.8682493655 -2.2793789417
C 1.9567528903 -0.6595154275 -3.5271633875
H 4.8649119571 -2.0586525618 2.4150760539
H 6.3894844732 -2.2217239974 1.5099344773
H 6.3842008166 -1.4748632724 3.1196202542
H 5.0072073771 0.4346241690 2.2178830181
H 6.5571987582 0.2755064217 1.3498364005
H 1.3531250652 -0.3685072473 3.1529711021
H -0.7002092872 -1.1921033922 0.4961178860
H -3.6788464463 0.7145536130 3.2917969637
H -4.2877604368 3.1345657252 3.2214953532
H -4.2636701609 4.3436163648 1.0540651189
H -3.6075139860 3.1624060386 -1.0201626694
H -3.0227194469 -1.0579127231 -3.2714084159
H -2.5267740339 0.5259660710 -3.9408006143
H -4.2358651643 -0.0093981130 -4.0801318918
H 0.2352730042 -0.7816422044 -2.2625599006
H 2.2754534988 0.3834137156 -3.6502433475
H 2.8477498727 -1.2904286869 -3.5603057393
H 1.2962978558 -0.9320182256 -4.3531697731
