40
CONF16
C 2.1559359501 1.0999023336 3.2237426109
O 2.6824118715 2.0733332307 2.2923005187
C 1.7592355473 2.8412967428 1.7015497653
O 0.5726524221 2.7959208427 1.9360164786
C 2.3570575119 3.8240082244 0.7075261190
S 3.7838007793 3.2477586158 -0.2756693985
C 3.1204055010 1.7912655306 -1.0439278463
C 1.7668902762 1.4520443725 -1.0260449370
C 1.2959184940 0.2581327290 -1.5788608629
C 2.2257105656 -0.5807182268 -2.1989760512
C 3.5681529392 -0.2596883122 -2.2747311802
C 4.0077516823 0.9207209979 -1.6925644065
Cl 5.7093511604 1.3163672134 -1.7789747530
F 1.8004428809 -1.7365923361 -2.7506596131
N -0.0681443889 -0.0366200321 -1.5512148757
C -0.4833837371 -0.9815047828 -0.8028367468
N -1.8042323448 -1.3918035990 -0.7909918049
N -2.1281283244 -2.1421551363 0.3627659982
C -1.0585095738 -2.6648904362 1.0441978326
O -1.1066804039 -3.4897957101 1.9250120139
S 0.4666189038 -1.9148226184 0.3941422444
C -3.3788490347 -2.9013917937 0.2578145580
C -4.5178985125 -1.9446095835 -0.0734766524
C -4.1759855793 -1.1385701464 -1.3263251975
C -2.8461315495 -0.4147608785 -1.1535778114
H 3.0243795830 0.5531743807 3.5888737850
H 1.4632852001 0.4293394258 2.7084228551
H 1.6361330952 1.6015500776 4.0435857485
H 2.7497871951 4.6786854040 1.2715007310
H 1.5447956312 4.1924681365 0.0762961547
H 1.0256406471 2.0985690651 -0.5738916151
H 4.2588584205 -0.9302081153 -2.7714230443
H -3.2739813874 -3.6665373872 -0.5264724074
H -3.5187563322 -3.4002066921 1.2185699966
H -5.4365219739 -2.5213291317 -0.2207554927
H -4.6816423316 -1.2690531852 0.7749329017
H -4.1117994331 -1.8070669881 -2.1936143349
H -4.9546208596 -0.3985404077 -1.5364843853
H -2.9127877103 0.3563146402 -0.3703744925
H -2.5171639606 0.0600134356 -2.0786973987
