20
CONF15
C 0.1577544319 -0.5497725095 -0.1976123221
O 0.5163301484 0.5171177334 -1.1107158596
C 1.5857443626 1.2185471137 -0.5849021192
O 2.0814014542 2.1785473904 -1.1249791675
C 1.9641422436 0.6070661232 0.6749845605
O 2.9816904122 1.0721123531 1.4399111095
C 1.1448205182 -0.4285337980 0.9161766563
O 1.0756009872 -1.2876795835 1.9466376819
C -1.3010909306 -0.3653403676 0.2344014256
O -1.4895456065 0.8448443209 0.9497776449
C -2.2578169234 -0.4263358468 -0.9630036202
O -2.1214454036 -1.6399634650 -1.7011958872
H 0.2567405006 -1.5072635224 -0.7261428604
H 3.3593721873 1.8319816677 0.9713100582
H 1.7448913144 -1.0479151983 2.6018617139
H -1.5363084916 -1.1788771319 0.9309434474
H -1.2623205284 1.5745001952 0.3578199830
H -2.0968110824 0.4551113177 -1.5993471027
H -3.2820226587 -0.3844247114 -0.5789149685
H -1.5211267185 -1.4837221867 -2.4370106859
