47
CONF150
C -6.3558923111 2.3113984703 -0.6627828227
O -5.4866471714 1.1561104386 -0.6819431133
P -5.8389542956 -0.1206435862 0.2229289185
S -6.4916458405 0.1990498885 2.0117309206
O -6.7824393943 -0.9556499226 -0.7706562635
C -7.4566085833 -2.1392831165 -0.2880255126
O -4.4622741024 -0.9687173787 0.0763896390
C -3.3352163167 -0.6374572816 0.8330742139
C -3.1319083681 -1.2541491969 2.0579668643
C -1.9674092029 -0.9807249168 2.7669682784
C -1.0312974874 -0.0778791830 2.2599228544
C -1.2620782186 0.5475450450 1.0317416063
C -2.4112467447 0.2587207237 0.3091241041
S 0.4009060957 0.3024687597 3.2583948623
C 1.7142488578 0.3564592963 2.0490228188
C 1.8432102213 -0.6162786078 1.0552524214
C 2.9047676644 -0.5722359092 0.1621220653
C 3.8612306034 0.4318865021 0.2901864052
C 3.7570103505 1.3938538616 1.2855886594
C 2.6731419374 1.3652422959 2.1548567409
O 4.9251240051 0.5606661863 -0.5927645918
P 5.7680392041 -0.7148489133 -1.1926329399
S 6.2197116726 -2.1058063002 0.0482736814
O 6.9443936330 0.1075399236 -1.9141206702
C 8.0032030227 0.6745265440 -1.1108451041
O 4.9183080533 -1.2129348930 -2.4556215450
C 4.4509535788 -0.2615090974 -3.4445709927
H -6.4963731003 2.6629313159 0.3632600663
H -7.3229531243 2.0646663287 -1.1117218451
H -5.8509685802 3.0713276157 -1.2600127789
H -8.0462167203 -1.9037660722 0.6028379668
H -8.1072352544 -2.4629313369 -1.1010519602
H -6.7274328457 -2.9231642804 -0.0598511968
H -3.8737109471 -1.9450403075 2.4409395310
H -1.7826714075 -1.4744928195 3.7150875657
H -0.5390710870 1.2546165136 0.6397761039
H -2.6064485020 0.7279702531 -0.6485258252
H 1.1074208548 -1.4090667019 0.9744736140
H 2.9997082923 -1.3277536135 -0.6100784785
H 4.5137363081 2.1668182760 1.3599724188
H 2.5721200883 2.1293096347 2.9183707487
H 8.7263367824 1.0856811817 -1.8157724155
H 7.6081722227 1.4708659592 -0.4720984537
H 8.4699502403 -0.1028675719 -0.4986440894
H 5.2988128813 0.1816358055 -3.9731062393
H 3.8344188571 -0.8356356891 -4.1367494315
H 3.8517730775 0.5215460827 -2.9696407871
