47
CONF110
C 5.6422893854 -1.4778283185 -0.6745997371
C 4.2548231177 -0.9318024119 -0.5174141862
C 3.1316682359 -1.6508826978 -1.0235418777
C 3.3376164883 -2.9658095056 -1.7091376421
C 1.8475544861 -1.1475235445 -0.8797481689
C 1.6197630833 0.0765677058 -0.2395221187
N 0.3632775980 0.6331046986 -0.0856603764
C -0.8474164956 -0.0030111173 -0.6314821354
C -1.5877644777 -0.8057425159 0.4513177498
O -0.8782257803 -2.0008312926 0.7691141421
C -3.0228309670 -1.1298087345 0.0385142484
O -2.9314245094 -1.9446653831 -1.1432983017
C -3.8898479643 0.1110651057 -0.2380358779
O -3.7976127295 1.0589690740 0.8282064433
C -5.3641652086 -0.2493361656 -0.3636710274
O -5.8904436502 -0.8107680991 0.8410993889
C 0.1934956606 1.8116045903 0.5982585729
N -1.0329830893 2.2814247101 0.7614711844
C -1.2100720848 3.4664502601 1.4228920890
O -2.3215363614 3.9536150467 1.6140000528
N -0.0786534281 4.1485244289 1.9030535308
C 1.2313795958 3.7461802989 1.7973817276
O 2.1609168202 4.3979841653 2.2505221508
C 1.3873846920 2.4542567128 1.0816234839
N 2.5926087767 1.9756250373 0.9265451368
C 2.7360932092 0.7946536034 0.2796360707
C 4.0337542028 0.2658858893 0.1218852805
H 5.8932261910 -1.6175930459 -1.7319535895
H 5.7363966544 -2.4575742621 -0.1932120544
H 6.3762766110 -0.8025921808 -0.2312257007
H 2.3901738903 -3.3965042763 -2.0370158856
H 3.8342552419 -3.6780331472 -1.0402932314
H 3.9906015690 -2.8486905066 -2.5815570157
H 1.0234074027 -1.7383259965 -1.2542463284
H -1.4724604362 0.8027600006 -1.0186508426
H -0.5720525292 -0.6415905641 -1.4688906529
H -1.6184301245 -0.2218427658 1.3748612166
H -1.0436245277 -2.6194184195 0.0414071178
H -3.4707126852 -1.6996001849 0.8631959587
H -3.6589229684 -2.5773554318 -1.1396186180
H -3.5797521683 0.5557210342 -1.1969144750
H -2.9362651697 1.5164560366 0.7800648004
H -5.5030691142 -0.9982445114 -1.1495891778
H -5.9201466413 0.6553630873 -0.6485296264
H -5.7498230827 -0.1571547249 1.5389771470
H -0.2563097519 5.0228422896 2.3843868314
H 4.8575836046 0.8434764415 0.5293950168
