56
CONF2
C 0.7703946617 1.0225299027 1.8933240328
C 1.2220959255 -0.3149218797 2.4596239959
N 2.6670193544 -0.4936379916 2.2709959245
C 2.9902333802 -0.3917734774 0.8443874309
C 2.5324799099 0.9459456705 0.2836206090
N 1.0911197596 1.1000181685 0.4703008528
C 0.5645610119 2.3143017810 -0.1512897395
C 0.5227769254 2.2184301207 -1.6797382377
C -0.0469328147 0.8780781174 -2.1520111619
N -1.3358973434 0.5851218335 -1.5123225100
C -2.4310821677 1.4272094836 -1.7639488343
C -2.5372472749 2.1542149734 -2.9571721297
C -3.6252211995 2.9920000683 -3.1853577394
C -4.6463089015 3.1006785654 -2.2469383228
C -4.5655736959 2.3698581740 -1.0640007479
C -3.4584316685 1.5645480270 -0.8157444185
S -3.2877365742 0.7786069608 0.7721335302
C -2.4132031799 -0.6813031516 0.2701843537
C -1.5103189129 -0.6087961790 -0.8065562777
C -0.7920048714 -1.7655567564 -1.1350835055
C -0.9199468895 -2.9181532450 -0.3647727906
C -1.7992652414 -2.9742538123 0.7132320191
C -2.5673500818 -1.8535549884 1.0045728716
C -0.0542399778 -4.1012394122 -0.6665725358
F 0.3482328576 -4.1421081456 -1.9592701003
F -0.6773656200 -5.2768738589 -0.4075947074
F 1.0842217631 -4.1003420733 0.0887031098
C 3.1378157051 -1.7651480626 2.8332924503
C 3.2315901620 -1.6809106951 4.3510415283
O 4.0298036001 -0.5593099476 4.7457370546
H -0.3160161832 1.1126526152 2.0142168875
H 1.2465776692 1.8429672957 2.4683954954
H 0.6574640577 -1.1303382124 1.9627718463
H 0.9857115700 -0.3479730893 3.5284040251
H 2.5079826108 -1.2069641652 0.2672495416
H 4.0749644613 -0.4882981468 0.7211583794
H 3.0940771317 1.7654296551 0.7774029488
H 2.7711590472 0.9779598231 -0.7853790592
H 1.1370457540 3.2149241705 0.1451422909
H -0.4590674084 2.4517416035 0.2184190809
H -0.0680301317 3.0582007215 -2.0615452941
H 1.5232900690 2.3205606897 -2.1156049388
H -0.1158561888 0.8410836574 -3.2465500090
H 0.6460800938 0.0960198945 -1.8460960718
H -1.7647517354 2.0727430970 -3.7123113701
H -3.6737274767 3.5534064876 -4.1129414915
H -5.4991372344 3.7460818711 -2.4276140462
H -5.3487476008 2.4440688484 -0.3156709619
H -0.1240143261 -1.7662842689 -1.9868289514
H -1.8954938630 -3.8737444048 1.3100677363
H -3.2720720113 -1.8765235715 1.8296491993
H 4.1403194315 -1.9580521635 2.4323053913
H 2.4894919794 -2.6142603739 2.5433102403
H 2.2315332604 -1.6176143635 4.8060094790
H 3.7149599663 -2.5842696247 4.7371193750
H 3.7920381597 0.1428238631 4.1180440678
