47
CONF1
C -3.2581763365 1.7279500610 2.6401906352
C -2.0658766772 1.9408732217 1.7326304042
C -1.9339424571 1.1408729651 0.4602714897
C -1.0718446944 0.7782715173 1.6799071473
C 0.3897026977 0.9370591722 1.6738329944
O 1.1465045159 0.3824984382 2.4424347362
O 0.8304370674 1.7790664322 0.6887990689
C 2.2592148729 1.9137538033 0.5960819342
C 2.4892987393 3.1313269335 -0.1841799585
N 2.7113642497 4.0780629063 -0.8065098432
C 2.9112242128 0.7120401284 -0.0710773974
C 2.1383604701 -0.1696878755 -0.8146432144
C 2.7478405969 -1.2897425259 -1.3740231368
C 4.1165028969 -1.5021820854 -1.2504296919
C 4.8801491900 -0.5878979432 -0.5300818166
C 4.2830598626 0.5122991325 0.0771803034
O 2.0250420373 -2.1982455500 -2.1197762173
C 0.7639914126 -2.5681806697 -1.6730107807
C 0.4840914148 -2.7504492183 -0.3196742079
C -0.7836007035 -3.1885510696 0.0526123347
C -1.7558931326 -3.4502701785 -0.9105005203
C -1.4550745164 -3.2697314702 -2.2585774482
C -0.1947786174 -2.8244804829 -2.6473731577
C -2.9648604136 0.2017225583 0.0151092796
C -3.2475623775 -0.0802659875 -1.2574585334
Cl -4.5365545268 -1.1648186291 -1.7063354277
Cl -2.3952701066 0.5934751754 -2.6194253095
C -1.5799524803 3.3730112093 1.7157435823
H -3.5429157881 0.6776704800 2.7287439996
H -4.1184659836 2.2909460396 2.2618307730
H -3.0240428732 2.0987948128 3.6432396525
H -1.3843028317 1.6431986680 -0.3281441624
H -1.3732234965 -0.0968183726 2.2462371588
H 2.6899947782 2.0577085602 1.5951090878
H 1.0729472034 -0.0119947868 -0.9408359293
H 4.5650286990 -2.3792529251 -1.7043205814
H 5.9472210936 -0.7511423112 -0.4207694765
H 4.8758981119 1.2054546559 0.6661696363
H 1.2438260802 -2.5557793896 0.4298439383
H -1.0059157226 -3.3327689525 1.1054728068
H -2.7424514719 -3.7882297993 -0.6121220518
H -2.2073420898 -3.4661616678 -3.0159649286
H 0.0534488310 -2.6736007487 -3.6927633477
H -3.5642676742 -0.3048683179 0.7651244015
H -0.7831924426 3.5391025677 0.9902502767
H -1.2168894531 3.6612129405 2.7084601705
H -2.4187506747 4.0287492868 1.4597680277
