37
CONF2
C 4.4326260911 0.7492163384 0.8571146571
C 3.4472131365 0.0799024701 -0.0977950643
C 2.1036755269 -0.2185434974 0.5673915046
C 1.1248695427 -0.8832878453 -0.3958751296
C -0.2539851897 -1.2027380841 0.2376832720
C -1.1902723510 -1.9404988896 -0.7896931212
N -1.6498860055 -1.0916216245 -1.8632076954
C -2.8144196169 -0.4044330199 -1.9576426421
N -2.8342591775 0.3188556035 -3.0620936034
C -1.6229486419 0.0399877215 -3.6197843736
N -0.8657618559 -0.8069923747 -2.9336043264
C -0.0345735447 -2.1867449706 1.3010913636
N 0.1402942802 -3.0030811822 2.1003838707
C -0.9669851650 0.0320603340 0.7875712905
C -0.9923940404 1.2115914180 0.0382784134
C -1.6919070342 2.3266040278 0.4816407976
C -2.3742130926 2.2607881884 1.6905325168
Cl -3.2567547511 3.6622690862 2.2573373448
C -2.3651125728 1.1025930788 2.4561577697
C -1.6614938730 -0.0058194289 1.9968327314
H 4.6332451671 0.1104330376 1.7235589594
H 4.0337232461 1.6986875074 1.2296824613
H 5.3871303185 0.9564940898 0.3647427205
H 3.2830029146 0.7235164516 -0.9721363672
H 3.8784947363 -0.8542789182 -0.4802186809
H 1.6707174227 0.7147202141 0.9494276417
H 2.2620825545 -0.8680056693 1.4385281494
H 1.5459624506 -1.8253831814 -0.7672652241
H 0.9642244160 -0.2580309996 -1.2779909586
H -0.6520232289 -2.7904734850 -1.2186752753
H -2.0711237229 -2.3093208093 -0.2567703600
H -3.5936797025 -0.4670744225 -1.2092401149
H -1.2905977732 0.4601117937 -4.5599745038
H -0.4688232314 1.2737690077 -0.9097350493
H -1.7114429192 3.2348075125 -0.1089167093
H -2.8957414688 1.0668314928 3.4003107691
H -1.6488636280 -0.9069102624 2.6023522619
