24
CONF8
C -4.4507385618 0.3638388561 -0.5491686487
C -2.9393691741 0.4633523502 -0.6997121056
C -2.2463427822 0.3547318640 0.6663560733
C -0.7318801649 0.7411432358 0.7423335128
C 0.2848662371 -0.0459371508 -0.1488803826
C 1.7709935471 0.1005260007 0.3355135238
C 2.8299467835 -0.2859534453 -0.7507250197
F 4.0306430600 -0.3932109789 -0.1638793627
F 2.9063765985 0.6498643307 -1.7030368919
F 2.5197646901 -1.4620452705 -1.3143984908
F 2.0156482887 1.3812340444 0.6987935759
F 1.9701925206 -0.7065240148 1.4003613801
F 0.2131372008 0.4243079067 -1.4161719086
F -0.0153382729 -1.3633311796 -0.1386733905
F -0.3433692832 0.5860438957 2.0390015977
F -0.6339230551 2.0568376974 0.4221018603
F -2.8477774069 1.2097038572 1.5550014766
F -2.3827927590 -0.9067037658 1.1735481611
O -2.4149307238 -0.5270581323 -1.5710869281
H -4.8959778788 0.4111982285 -1.5455541845
H -4.8469127626 1.1864710777 0.0494572998
H -4.7322600003 -0.5849842339 -0.0809904295
H -2.6624466346 1.4333337581 -1.1274591533
H -2.7877447276 -1.3823507335 -1.3143938160
