53
CONF6
C 0.4998909045 -0.5406419114 -0.9806508867
C -0.5391895457 -0.0173212529 -1.9824761853
C -1.8038589533 0.5259694985 -1.3604142176
C -2.0837819958 0.3885977010 0.0090128257
C -3.2807644310 0.9068290119 0.5084068277
C -4.1971930767 1.5350803778 -0.3257479980
O -5.3487824991 2.0065793468 0.2498827082
C -3.9297162093 1.6648808605 -1.6868939801
C -2.7369255911 1.1599066055 -2.1829213700
C -1.0544579468 -0.2221780918 0.9591426668
C -1.6852706584 -0.9377676420 2.1656302963
C -2.5160971627 -2.1532935965 1.7522814711
C -1.6603189614 -3.1476798914 0.9635519098
C -1.0024166666 -2.4651416482 -0.2381385870
C -0.1717179315 -1.2583784325 0.1964548862
O 0.8578737343 -1.7622407586 1.0563312625
C -0.1389252674 0.9236788014 1.4487984982
C 0.6807890143 1.5293388617 0.3154523540
N 1.4057460375 0.4773048306 -0.4118163367
C 2.3743813554 1.0268649436 -1.3672823519
C 3.8070863071 0.9932162426 -0.8466595388
C 4.4585731903 -0.3796941455 -0.5447920301
C 5.2169631109 0.2921513448 0.6264410890
C 4.1449597630 1.4105014079 0.6093577391
H 1.1427329052 -1.2732898424 -1.4874257596
H -0.0756730707 0.7522381597 -2.6140242135
H -0.8053019477 -0.8374284235 -2.6631338653
H -3.5297632006 0.8297279200 1.5600174675
H -5.8949815200 2.4131321190 -0.4318245143
H -4.6405901225 2.1539145678 -2.3483689827
H -2.5204749262 1.2610128309 -3.2437111074
H -0.8612560931 -1.2701460170 2.8070053377
H -2.2778236659 -0.2360546836 2.7628420603
H -2.9343800625 -2.6373889376 2.6423376614
H -3.3648344036 -1.8292782235 1.1356054590
H -2.2733058399 -3.9884796473 0.6190456893
H -0.8803559574 -3.5588577242 1.6143023809
H -1.7814051512 -2.1382313074 -0.9363369563
H -0.3446622214 -3.1637753291 -0.7694801438
H 1.5704755966 -1.1036299538 0.9916923267
H 0.5331107936 0.5310204438 2.2215963927
H -0.7561120851 1.7018715270 1.9127538686
H 1.4151095513 2.2321814747 0.7248576371
H 0.0276927547 2.1111656195 -0.3612168827
H 2.3443971053 0.4400678184 -2.2961864384
H 2.0997178529 2.0579123610 -1.6484919264
H 4.4442612509 1.5530220417 -1.5437446442
H 5.0419307625 -0.8564329012 -1.3379843275
H 3.7078906240 -1.0863442273 -0.1748707212
H 5.3424500554 -0.2789429228 1.5499175865
H 6.1925055497 0.6687356957 0.3045813951
H 3.3217754665 1.1539235648 1.2830820422
H 4.4600237489 2.4417915488 0.7942125333
