56
CONF84
C -1.4443468746 -4.5632315659 -1.3856569199
C -0.7160133142 -3.8207411042 -0.2663599860
C -0.4753530411 -4.6831982727 0.9731944786
N -1.3928181226 -2.5568917871 0.0763211893
C -2.6126883308 -2.4241125273 0.7104582295
C -3.5869903972 -3.3727105526 1.0379908319
C -4.7469507079 -2.9260046276 1.6584552829
C -4.9500061567 -1.5641289756 1.9441323778
C -3.9871033862 -0.6206683678 1.6221930584
C -2.7967633025 -1.0444287261 1.0133190194
C -1.6411906968 -0.3469118589 0.5405226264
C -0.7990048485 -1.3015283878 -0.0187942189
C 0.5035045690 -1.1089959716 -0.6366783442
C 1.4056714085 -0.2393562887 -0.1674863002
C 2.6894241877 0.1383229508 -0.8380567225
C 2.7023321033 1.6481736146 -1.1247004067
C 4.0650628332 2.1757222417 -1.5692959137
C 4.0481706363 3.6894357079 -1.7413767876
C 3.9060647852 4.4403444437 -0.4470949865
O 4.1517049846 4.0017234317 0.6578590487
O 3.4865033700 5.7076758255 -0.6534549972
O 4.4606267276 1.6426317676 -2.8416425230
O 2.9569350504 -0.6261146275 -2.0262632309
C -1.4397809687 1.1069647454 0.5816090891
C -1.1063115487 1.8283661821 -0.5743507867
C -0.8939772343 3.2013553810 -0.5329576708
C -1.0353283356 3.8509691814 0.6823407501
C -1.3857557350 3.1883636550 1.8452271298
C -1.5844204668 1.8113319229 1.7848399568
F -0.8257785298 5.1946220152 0.7318136072
H -1.5805728942 -3.9121309848 -2.2539768446
H -0.8482187440 -5.4281641451 -1.6912221173
H -2.4246133413 -4.9265174095 -1.0674564098
H 0.2654735817 -3.5256359626 -0.6463622376
H 0.1424883299 -5.5426966393 0.6974476504
H -1.4083424066 -5.0603030246 1.3985151607
H 0.0511310313 -4.1094013182 1.7414642920
H -3.4663037372 -4.4254857924 0.8168221576
H -5.5149388350 -3.6469284271 1.9207438644
H -5.8741050618 -1.2513317591 2.4201792306
H -4.1479969197 0.4315071895 1.8372904668
H 0.7233481945 -1.6743780320 -1.5407540610
H 1.1992727246 0.3021657634 0.7538602957
H 3.5264616329 -0.0928657210 -0.1630872483
H 1.9480620753 1.8737921272 -1.8916264887
H 2.4039822316 2.1727159998 -0.2096307436
H 4.8127800150 1.9107245642 -0.8054069790
H 4.9969784194 4.0113975592 -2.1918509247
H 3.2551028247 3.9923150767 -2.4332372074
H 3.4506010982 6.1564910660 0.2087780035
H 4.2491496706 0.6954189390 -2.8166296485
H 2.2421387269 -0.4490205101 -2.6557582714
H -1.0039287262 1.3020071149 -1.5176077082
H -0.6305910554 3.7619778151 -1.4236232872
H -1.4884653693 3.7359468095 2.7758967275
H -1.8343117269 1.2714199850 2.6927841329
