26
CONF170
C -2.1904594899 -1.1753690249 -0.1043115170
C -1.1232216727 -1.3705607982 0.9705333048
C -0.3309988906 -0.1218873595 1.3997279956
C 0.5510705413 0.5737281830 0.3525993096
C 1.5360586293 -0.3747598575 -0.3499776116
C 2.4849970875 0.3636294809 -1.2884616924
O 3.3870050893 1.2112411887 -0.5596922805
O 2.2806509051 -1.1173117560 0.6222558371
O -0.2375628257 1.3085676711 -0.5874381576
O -1.2306727270 0.8391453252 1.9722670530
O -1.7840814487 -1.8901675969 2.1332045642
O -1.5613985305 -0.9385716976 -1.3805536045
H -2.7879619094 -2.0930737399 -0.1479593911
H -2.8513416357 -0.3387575728 0.1658076650
H -0.4204796321 -2.1459241613 0.6428317483
H 0.3206703479 -0.4515808561 2.2159559308
H 1.1284565105 1.3289788251 0.9043104208
H 0.9774089176 -1.1079997801 -0.9441096890
H 1.9181518949 0.9314584630 -2.0354099680
H 3.1094618534 -0.3729496044 -1.8036459359
H 2.9503746327 -0.5095629470 0.9700176584
H -0.7341279235 0.6419015737 -1.1075266569
H -1.5345913084 1.3959965297 1.2386751271
H -2.2125665334 -1.1319973850 2.5581326239
H 2.9304870519 2.0380390007 -0.3619250692
H -2.2574895963 -0.8627451552 -2.0457193538
