44
CONF82
C -5.4812535719 0.1986522968 1.1174605293
C -4.0230027803 0.1416049703 1.5281084081
C -3.4539905920 -1.2719833286 1.6049090760
O -3.0079192218 -1.4953099427 0.2540893740
C -2.4457204493 -0.2661433232 -0.1570466661
O -3.1951147195 0.7546999807 0.4990602349
C -2.6750647662 -0.1136022845 -1.6752495978
N -1.7536439419 -0.9141325395 -2.4595564728
C -0.5909904368 -0.5269159769 -3.0230545373
N 0.0390149684 -1.5729769674 -3.5434387958
C -0.8045710554 -2.6035148508 -3.2519582273
N -1.9021621078 -2.2558819231 -2.5922200175
C -0.9580014921 -0.1976417095 0.2070679128
C -0.2934237122 -1.3770830637 0.5580389345
C 1.0652659923 -1.4116126854 0.8313725447
C 1.7991237004 -0.2340378757 0.7500131733
C 1.1821266879 0.9654361971 0.4075401142
C -0.1800396749 0.9619588548 0.1340598639
Cl -0.8700773747 2.5145325321 -0.3395122641
O 3.1319699388 -0.3021514582 1.0868174617
C 4.0346956196 0.5440548052 0.4634925173
C 5.0084689656 1.1291685795 1.2640989881
C 5.9924948840 1.9208678521 0.6807730510
C 5.9727253104 2.1153807780 -0.6947507725
C 5.0021801796 1.5312305169 -1.5013874233
C 4.0259453407 0.7329294670 -0.9162833375
Cl 7.2101618796 3.1245583926 -1.4371997215
H -5.7801621194 1.2311805869 0.9168629642
H -6.1094942446 -0.1929820379 1.9240425455
H -5.6483496434 -0.4002149732 0.2164450335
H -3.8520559984 0.6954655950 2.4570901561
H -2.6095190868 -1.3356508900 2.3036411223
H -4.1994278748 -2.0329552182 1.8418593973
H -3.7028898058 -0.4072699543 -1.9013709119
H -2.5257576774 0.9318815470 -1.9509860503
H -0.2617078962 0.5045986870 -3.0354528339
H -0.6133877857 -3.6306244356 -3.5368334758
H -0.8679731544 -2.2948994341 0.6044903101
H 1.5602954687 -2.3385253112 1.0987811817
H 1.7497151162 1.8866481105 0.3518335208
H 4.9963460747 0.9618980742 2.3356750969
H 6.7578567264 2.3827269846 1.2938684771
H 5.0093623524 1.6860400922 -2.5742895180
H 3.2679509780 0.2605954841 -1.5324237625
