110
CONF91
C -3.6934853620 -0.2927536499 1.3781990187
N -4.7394781126 0.0958924819 2.3464078940
C -4.4420427568 1.4793967194 2.7767924219
C -3.5845682314 2.0691831617 1.6395958959
C -3.5591551111 0.9853912301 0.5320574168
C -2.3179183683 1.0405256606 -0.3154155564
C -0.9942867624 0.8914495214 0.0550068554
C 0.0335963595 1.0028030856 -0.8881939404
C -0.3347313232 1.2907731469 -2.2225561947
O 0.7023898853 1.3654298048 -3.1020653448
C 0.4244562630 1.7236554179 -4.4613887676
C -1.6643433259 1.4763853630 -2.6107437309
C -2.6543043393 1.3256406884 -1.6368847115
N -4.0202061198 1.4016535007 -1.8112502340
C -4.5713569945 2.3224414018 -2.7975487959
C -4.7136785154 1.1827863576 -0.5286094993
C -5.7089127348 -0.0304064005 -0.5865684337
O -6.6088710932 0.0299348601 0.5077096640
C -4.8782585119 -1.3228370474 -0.6450228732
O -5.6801700868 -2.4735637570 -0.9271799448
C -4.0454427683 -1.6012581022 0.6416197067
C -2.7516166743 -2.3238028678 0.1532116794
C -1.7906229328 -2.8198556609 1.2297745206
C -4.7531740862 -2.5361999463 1.5953385217
C -5.0827577546 -2.2369090655 2.8511241073
C -4.9130535957 -0.8661150219 3.4265540805
C -6.5605026397 0.0657666615 -1.8678529350
N -7.6835776677 0.7915239173 -1.7418895824
O -6.2132618299 -0.4704107552 -2.9268165663
C 1.5104199823 0.7853765417 -0.5277245888
C 1.7277439483 0.8946258588 1.0177864157
C 3.2043684127 0.6910949628 1.3460112437
C 3.5117973349 -0.6992382289 1.9165276282
N 4.9265125769 -1.0035412429 1.7654224870
C 5.7573233434 0.0166142584 2.4076281903
C 5.4128559995 1.5049495846 2.1522186055
O 5.7858823901 1.8889731908 0.8047294525
C 6.1267819026 2.4130818890 3.1652902297
C 7.6533086119 2.3387568582 3.1440455297
C 3.8926442373 1.7268462623 2.2278836009
C 5.2869666638 -1.5005510785 0.4307770291
C 4.6556022268 -0.8920335994 -0.8647714732
C 3.2130788572 -1.2609338256 -1.1174662587
C 1.9898865964 -0.5915201961 -1.0096862266
N 0.9758369300 -1.4880129010 -1.3177924856
C 1.4869629153 -2.7115534029 -1.6409129412
C 0.8429478188 -3.8868722025 -2.0270796413
C 1.6426671418 -4.9883162790 -2.3044029565
C 3.0455708201 -4.9105769265 -2.2049547460
C 3.6777394734 -3.7352734791 -1.8209023968
C 2.8959589147 -2.6051883319 -1.5270061451
C 2.2866338700 1.9847015825 -1.1141645131
O 2.0084255254 3.1332718381 -0.8275042882
O 3.3048417270 1.6534065720 -1.9100244799
C 4.0580571953 2.7635757273 -2.4569430293
H -2.7385924094 -0.4384708962 1.9111117856
H -3.8846717103 1.4806452909 3.7249422725
H -5.3795738428 2.0237974649 2.9356394311
H -2.5605052911 2.2340596970 1.9868356263
H -3.9656562249 3.0203938010 1.2609454625
H -0.7604797822 0.6874132992 1.0934596460
H -0.2128249164 0.9725113324 -4.9417264405
H -0.0541111293 2.7079574877 -4.5166449833
H 1.3942609471 1.7556093187 -4.9589524968
H -1.9214873388 1.7020726624 -3.6371840144
H -5.6602987710 2.3196941521 -2.7366368875
H -4.2136560061 3.3511081768 -2.6336481310
H -4.2948756799 2.0109702843 -3.8097555272
H -5.3194330927 2.0624892658 -0.2704625693
H -6.0204049849 0.0656149897 1.3365602999
H -4.1659174861 -1.1741213787 -1.4691866466
H -5.9603642524 -2.3762854119 -1.8486669726
H -3.0813566273 -3.1740947145 -0.4568507365
H -2.2269402006 -1.6370058764 -0.5202792861
H -0.9652403135 -3.3671702582 0.7624977054
H -2.2877877977 -3.4950934590 1.9328948552
H -1.3517384782 -1.9979651673 1.8042237957
H -4.9132700058 -3.5462877930 1.2280312473
H -5.5055693638 -2.9967416341 3.5035469843
H -4.0533930457 -0.8436688802 4.1259865776
H -5.7993192462 -0.5882922246 4.0124716848
H -8.3088535225 0.8867785526 -2.5274740995
H -7.9636705821 1.1263425308 -0.8330550520
H 1.1219073513 0.1301276228 1.5149896351
H 1.3618470804 1.8741791528 1.3423236475
H 3.7422631986 0.7558259854 0.4052153232
H 2.9226692768 -1.4738869700 1.4135174858
H 3.2431682150 -0.7169270408 2.9862028331
H 5.6775874478 -0.1334728361 3.4969860519
H 6.8050308557 -0.1644052149 2.1381290166
H 6.6795653897 1.5638627054 0.6376350192
H 5.8062289710 3.4421805007 2.9581462248
H 5.7591688610 2.1641643559 4.1685636661
H 8.0528478545 2.5657381264 2.1496270152
H 8.0188137261 1.3508765615 3.4405557385
H 8.0775262151 3.0690945906 3.8396329451
H 3.6741024142 2.7488581564 1.8918730089
H 3.5649677869 1.6397156476 3.2720751325
H 6.3760326764 -1.4186651397 0.3351462527
H 5.0460600434 -2.5742230558 0.4099768031
H 5.2391772411 -1.3398392057 -1.6820695136
H 4.8435566768 0.1782527240 -0.9212119738
H 0.0007580854 -1.2340264637 -1.3418322584
H -0.2392289922 -3.9354063486 -2.1058147481
H 1.1794958842 -5.9229587408 -2.6053129094
H 3.6416621672 -5.7888771353 -2.4337803919
H 4.7609290335 -3.6966616365 -1.7530671931
H 4.4727559887 3.3731820231 -1.6509453109
H 4.8544635790 2.3080344159 -3.0444166077
H 3.4108942876 3.3748134902 -3.0911569197
