29
CONF54
C 2.5997326600 0.7269232022 -1.6795953010
C 2.7819234610 0.0006237183 -0.3771473761
C 1.8198625040 -0.6889006838 0.2484541043
C 0.3960159291 -0.8726201649 -0.1843389113
C -0.5449924057 0.0691550222 0.5822704907
C -2.0504406845 -0.2160992031 0.3849180890
C -2.4578815156 -0.1514410839 -1.0880924443
C -2.8366993146 0.8105959865 1.1670979185
C -3.8018800261 0.5406632115 2.0400388423
O -2.3615797282 -1.5498561568 0.8074874946
C 4.1658636090 0.1057104857 0.2012586345
H 2.8632601762 1.7854565271 -1.5615624577
H 1.5796757978 0.6753852039 -2.0631851598
H 3.2745508908 0.3222999834 -2.4444877374
H 2.0772985496 -1.1516589821 1.2020702428
H 0.0836973978 -1.9063068946 0.0057736469
H 0.2915024194 -0.7072269314 -1.2601044029
H -0.3328254073 1.1064034011 0.2933262200
H -0.3267165460 0.0045737940 1.6579643543
H -2.2058897932 0.8243704862 -1.5130508975
H -3.5359387745 -0.3064016886 -1.1759331932
H -1.9466603167 -0.9313358825 -1.6577905506
H -2.5616608309 1.8466878604 0.9696996035
H -4.1158955636 -0.4795992293 2.2387448604
H -4.3197666846 1.3363475623 2.5649798014
H -2.1352303825 -1.6151305773 1.7439229239
H 4.4334246225 1.1536929427 0.3871241669
H 4.9119699919 -0.2877904618 -0.5008135934
H 4.2552784673 -0.4445214632 1.1410729342
