21
CONF41
C 1.3024731085 -0.8653201543 0.6499265288
C 0.0250395630 -0.1297064514 0.1920828846
C 0.2590242605 1.3793377399 0.1360566294
O 1.4099024216 1.6329829974 -0.6960803109
C -0.3942727584 -0.6801673115 -1.1706909416
O -1.6986253946 -0.1547314528 -1.4938884766
C -1.0543074348 -0.4238287620 1.2560830139
O -2.1889105814 0.4293174207 1.2001462868
O 2.2985543090 -1.0024499124 -0.3538862544
H 1.0383739881 -1.8871794046 0.9511091407
H 1.7004285670 -0.3507381947 1.5408648640
H -0.6248358930 1.8849640753 -0.2686523166
H 0.4348266996 1.7513557349 1.1568512638
H 1.5384729120 2.5844791369 -0.7529350499
H 0.3349492634 -0.3926002521 -1.9361033299
H -0.4274276254 -1.7789224179 -1.1168376799
H -1.9411592113 -0.4654353807 -2.3711840277
H -1.3459704686 -1.4843215677 1.1704732442
H -0.6211694795 -0.2814322693 2.2544495464
H -2.5459167541 0.3396160120 0.3057074631
H 2.5005508046 -0.1052192630 -0.6534924888
