58
CONF8
C -0.9953661141 -1.1233953462 -2.9537935350
C -0.4574557187 -1.6399978621 -1.6290612662
O 0.2526076503 -0.5462462555 -1.0205698892
C 1.0770662896 -0.9347581440 0.0579915816
O 2.1905916845 -1.6902858130 -0.3803538154
C 3.0616249933 -0.8998039234 -1.2142372698
C 3.5467425451 0.3175493223 -0.4600437300
N 2.4091240928 1.1421276803 -0.0162904205
C 2.9114241117 2.3075595830 0.7244042862
C 3.5664732642 3.2692707177 -0.2012062431
N 4.7394607188 3.8117252732 -0.0181291044
N 4.8971250468 4.6503245767 -1.0992279404
C 3.8373466872 4.6274514067 -1.9712713647
O 3.6784703945 5.2433993704 -3.0234729213
N 2.9795688532 3.7207419405 -1.3548021435
C 1.5118654400 0.3330111383 0.8234362311
C 0.2893419188 1.0869604504 1.2904027890
C -0.3722938969 2.0018107349 0.4657385797
C -1.5326568428 2.6373851481 0.8933996027
C -2.0221483113 2.3327116216 2.1533554159
F -3.1606902548 2.9451766435 2.5743962899
C -1.4000632150 1.4348027289 3.0005143597
C -0.2331336382 0.8171501770 2.5560236169
C -1.5762156072 -2.1229452476 -0.7287221897
C -2.4117306680 -1.2030903892 -0.0930664627
C -3.4793889298 -1.6530659057 0.6759309914
C -3.7239714356 -3.0145538747 0.8394051408
C -2.8818968003 -3.9230058297 0.2090178985
C -1.8109326517 -3.4853374160 -0.5677590753
C -3.1121698006 -5.3921454476 0.4146332164
F -4.4305188265 -5.6970481395 0.4781113243
F -2.5760125408 -6.1418097871 -0.5743549236
F -2.5590359442 -5.8294755492 1.5793646896
C -4.3824903146 -0.6730015630 1.3683454530
F -5.6793166837 -1.0673592044 1.3301499079
F -4.3252533046 0.5597353910 0.8188184245
F -4.0637950849 -0.5337668378 2.6841141404
H -0.1677071072 -0.8029556809 -3.5926507952
H -1.6655766951 -0.2748808252 -2.7826774680
H -1.5535751690 -1.9124843157 -3.4647830604
H 0.2384850542 -2.4697515726 -1.8095217756
H 0.5337183674 -1.5952536897 0.7484082102
H 3.9019393847 -1.5478321842 -1.4736747845
H 2.5350609555 -0.6075008861 -2.1316507299
H 4.1865958576 0.9156992346 -1.1200263559
H 4.1579062477 -0.0030258785 0.4055299604
H 3.6364402131 2.0362354596 1.5114542194
H 2.0650563497 2.8079791627 1.2096657423
H 5.7397278448 5.1925403986 -1.2108876760
H 2.0892191379 3.4256098128 -1.7260508666
H 2.0488219370 -0.0406261760 1.7168958413
H 0.0262553067 2.2199514120 -0.5190644955
H -2.0544980551 3.3503230042 0.2639825055
H -1.8155689705 1.2280755844 3.9805420242
H 0.2754700966 0.1123448746 3.2080741655
H -2.2224350977 -0.1403813428 -0.2051002285
H -4.5577864321 -3.3581229534 1.4415151198
H -1.1598466504 -4.2037439130 -1.0554352849
