33
CONF32
O -3.7245958319 0.0825150170 3.8662007712
C -3.3385531534 -0.0939697472 2.5813100971
C -4.2578307176 -0.4180088018 1.5799161075
C -3.7981081561 -0.5821577130 0.2814555019
O -4.6794994419 -0.8642301074 -0.6910279983
C -2.4167720402 -0.4348662467 -0.0329769223
C -1.9579299109 -0.4786211601 -1.3927956933
O -2.7184672339 -0.7122109476 -2.3557955704
C -0.4998449918 -0.1723525688 -1.6115854070
C 0.3279505970 -0.6006538349 -0.4076540322
O -0.1950378429 0.0348436775 0.8037214555
C -1.5228116530 -0.1226624032 1.0235193572
C -1.9717226533 0.0530956270 2.3201934758
C 1.7800595429 -0.2425292101 -0.5110072061
C 2.7470915388 -1.2416196043 -0.5891230384
C 4.0955299088 -0.9116177352 -0.7177230894
C 4.4855344110 0.4197479328 -0.7557172804
O 5.8084723621 0.7298477342 -0.8721467306
C 3.5127793093 1.4316020448 -0.6699100759
O 3.9917583083 2.7123937041 -0.7110851964
C 2.1714900115 1.1006609570 -0.5529450560
H -4.6795323050 -0.0549634356 3.9465854794
H -5.3144059997 -0.5301771289 1.8007495850
H -4.1523376603 -0.8900926949 -1.5391944134
H -0.1468569824 -0.6829454745 -2.5118040158
H -0.4004201165 0.9095609251 -1.7774682955
H 0.2268485830 -1.6855958580 -0.2673075532
H -1.2782028897 0.2808472469 3.1207778911
H 2.4515841211 -2.2856125475 -0.5518145325
H 4.8563795168 -1.6829384866 -0.7813584036
H 5.9033051188 1.6938011712 -0.8794815303
H 3.2616782412 3.3439552673 -0.6607744818
H 1.4324688992 1.8949537086 -0.4837333896
