17
CONF1
C -2.3524067560 -0.5485409005 0.2536567219
C -2.3477138346 0.7233462407 -0.3334111062
C -1.1543285186 1.3674850787 -0.6307143682
C 0.0413114038 0.7230524941 -0.3332925743
C 0.0671914779 -0.5518731481 0.2547010755
C -1.1562888726 -1.1800984857 0.5447737007
C 1.3449648745 -1.1358495039 0.5235223476
C 2.4861347330 -0.4744855289 0.2188209701
C 2.4577076482 0.8350273880 -0.3849104626
O 3.4204379954 1.5103824445 -0.6973059786
O 1.2030619117 1.3810184388 -0.6365931098
H -3.2943794026 -1.0365571316 0.4789330902
H -3.2873296923 1.2162835232 -0.5607542035
H -1.1359813844 2.3521731610 -1.0848575694
H -1.1420265918 -2.1661795791 0.9991964618
H 1.3828025533 -2.1223048617 0.9774764914
H 3.4668426551 -0.8928792293 0.4107582138
