85
CONF85
C 4.4121779307 0.1976872542 -3.9885407418
C 5.2739103834 0.9630337325 -2.9862894536
C 4.8372322748 0.7490886844 -1.5449453679
C 5.6860651623 1.4918291312 -0.5083215057
C 5.0421126568 1.3234026130 0.8724779520
C 3.5807086579 1.7570331123 0.8511787612
C 2.8161032255 1.0188189721 -0.2551066741
O 3.4628725783 1.2000739057 -1.4874446991
C 1.3912762731 1.5366473191 -0.4591724477
C 0.4926887667 1.1414953789 0.6973981747
C 0.5430539817 -0.3556696389 0.9220735308
C 1.9858016251 -0.8236514932 1.0875739956
O 2.7919026559 -0.3989200612 -0.0158569597
C 2.0874787888 -2.3535711963 1.1487680607
C 1.4853279404 -3.0186928600 -0.0484707742
C 0.4991026182 -3.9235040853 -0.0609738996
C -0.1650609913 -4.4776893452 1.1833276416
C -1.2096138384 -3.5660395039 1.8762606805
C -2.1893124449 -2.9777162322 0.9086238810
C -2.6741404945 -1.7261940163 0.9749406519
C -3.6094449782 -1.2096222712 0.0059215158
C -4.2289294934 -0.0189226646 -0.0508287185
C -5.1990076234 0.3139294847 -1.1433859714
O -6.2149338788 1.1033064017 -0.5133839143
C -5.6275692950 1.8295597129 0.5704673335
C -4.2902092291 1.1208515233 0.9672136814
C -3.1151480583 2.1631770372 0.8383883354
C -3.1793217323 2.8736521766 -0.4806411483
C -4.3319689951 3.4469005335 -0.8337668013
C -5.4885762798 3.2974344051 0.1275377087
O -5.2520341879 4.1750079650 1.2453548304
C -4.5602191191 4.1989263032 -2.1029182539
C -1.7935429244 1.5743627098 1.2582481209
O -1.6075885554 1.1662394684 2.3955359505
O -0.8544032428 1.5808404638 0.3081493583
O -4.4064220277 0.6754314430 2.3091498171
C -1.9416115362 -4.3682989853 2.9656131416
C 0.0087546086 -4.4933214623 -1.3638122434
C 7.1332528238 1.0015158631 -0.4894235392
H 3.3746815073 0.5362367351 -3.9500939038
H 4.7835673354 0.3367492981 -5.0082252049
H 4.4224922981 -0.8754482318 -3.7687074648
H 6.3166109810 0.6412452351 -3.0803416045
H 5.2472738159 2.0388487547 -3.2039016536
H 4.8591235328 -0.3279095702 -1.3130905232
H 5.6670529368 2.5604875875 -0.7717265591
H 5.1103840889 0.2684200375 1.1715867305
H 5.5973678274 1.9056356505 1.6173733055
H 3.5106412517 2.8296013377 0.6327463090
H 3.1108251344 1.5987736485 1.8273615991
H 1.0091061512 1.0831276887 -1.3798422849
H 1.4094184666 2.6225560947 -0.5908139060
H 0.7472607888 1.6800797818 1.6181684242
H 0.0953757026 -0.8679927510 0.0628293910
H -0.0252749803 -0.6232073234 1.8146455537
H 2.4007441230 -0.4180572045 2.0260183633
H 3.1554626147 -2.6014961027 1.2200880937
H 1.6122301739 -2.6883229501 2.0762759503
H 1.9005404786 -2.6990133603 -1.0029653391
H 0.5916477242 -4.7450958585 1.9308736352
H -0.6703735255 -5.4152005687 0.9159522211
H -0.6830285388 -2.7368118624 2.3647667882
H -2.5548002179 -3.6382089017 0.1203771093
H -2.3360915673 -1.0767419456 1.7772796339
H -3.8359726314 -1.9024078031 -0.8067986266
H -4.7207647258 0.8859524097 -1.9561247953
H -5.6766912332 -0.5730628419 -1.5717459715
H -6.3088279448 1.7654869672 1.4295483025
H -3.3352692989 2.8873465220 1.6346570881
H -2.2982264121 2.9192229289 -1.1119066535
H -6.4304905817 3.5700614393 -0.3706282136
H -5.9739662043 4.0498836746 1.8736942026
H -5.3552010195 3.7257787907 -2.6932844820
H -3.6544586935 4.2484368927 -2.7125760737
H -4.8927822596 5.2218009683 -1.8872630121
H -3.5174361588 0.6785226859 2.7001407162
H -1.2267112034 -4.8169448938 3.6644404496
H -2.6239963219 -3.7245471743 3.5268676997
H -2.5304870193 -5.1756818024 2.5166415813
H 0.1732316450 -5.5780212379 -1.3983685664
H 0.5161155815 -4.0407893357 -2.2193606592
H -1.0700911412 -4.3378025961 -1.4840775885
H 7.6779200771 1.4550048149 0.3451563989
H 7.6694592047 1.2516649264 -1.4084031294
H 7.1716437197 -0.0865904226 -0.3581630238
