38
CONF20
C -6.0733778189 -1.9760932735 -1.1831771332
C -4.9247912563 -1.4047145117 -0.3636082918
C -5.4942319504 -0.6550658975 0.8426514160
O -5.8221971065 0.5030266940 0.8499284901
O -5.6277494526 -1.5011840895 1.8888532289
C -6.2424068906 -0.9173521313 3.0612105888
O -4.2151298411 -0.5183749436 -1.2155563489
C -3.0475750083 0.0251592735 -0.7534989316
C -2.4174755687 0.9128369151 -1.6298004025
C -1.2193515572 1.5088218046 -1.2739116688
C -0.6568633221 1.2142612359 -0.0402584373
C -1.2704733773 0.3467610838 0.8417757742
C -2.4757249022 -0.2566539135 0.4881795494
O 0.5172489429 1.8771380081 0.3548446958
C 1.6985426057 1.3024729964 0.0494757304
C 2.8685279155 1.9735565037 0.4629993554
C 4.0906789638 1.4099256617 0.1691399399
C 4.1211427409 0.1996170486 -0.5300900732
C 2.9196342501 -0.3868178660 -0.8969755657
N 1.7342793837 0.1590768612 -0.6102557200
C 5.4391326570 -0.4426572079 -0.8298389048
F 6.0099350833 -0.9607546870 0.2886339656
F 6.3264025439 0.4494658932 -1.3352613818
F 5.3230816359 -1.4500064140 -1.7210727882
Cl 2.7672989761 3.4803812151 1.3246498462
H -5.6745668139 -2.5017906761 -2.0538279178
H -6.7239358047 -1.1659796983 -1.5223451594
H -6.6540869994 -2.6773348216 -0.5787187448
H -4.2694830607 -2.2140202385 -0.0131847408
H -7.2467345931 -0.5589533969 2.8221179586
H -6.2812782953 -1.7179800004 3.7989859147
H -5.6395594276 -0.0812304678 3.4241045521
H -2.8863959648 1.1241161305 -2.5840824040
H -0.8112812029 0.1410079268 1.8023343203
H -2.9463178549 -0.9321302244 1.1923838825
H 5.0064733068 1.9042350276 0.4736020317
H 2.9004106089 -1.3257125614 -1.4430155593
H -0.7192472872 2.1997391067 -1.9435368445
