44
CONF28
C -4.8474712978 0.0071053560 1.0944604652
C -3.3971240483 -0.3835583014 0.9607320737
C -3.1299894216 -1.8558661887 0.7075805249
O -1.8688775416 -1.8459112380 0.0109356770
C -1.7173984251 -0.5591524053 -0.6030623964
O -2.8546981622 0.1968049774 -0.2513284462
C -1.7034632422 -0.6794877939 -2.1408131223
N -2.8376957934 -1.4413504905 -2.6258887229
C -2.9567877684 -2.7818990885 -2.7080554247
N -4.1797665515 -3.1117674490 -3.1062020198
C -4.7837091551 -1.8974465505 -3.2495044978
N -4.0131918797 -0.8551667957 -2.9675914580
C -0.4302145780 0.1024482749 -0.1077796557
C -0.4867063652 1.4141384844 0.3742672247
C 0.6364641917 2.0866949069 0.8295477072
C 1.8677078560 1.4398481840 0.8059955621
C 1.9741139228 0.1349269600 0.3330937501
C 0.8282384341 -0.5074421522 -0.1204797184
Cl 1.0573695963 -2.1537215607 -0.7120070108
O 2.9398161558 2.1277632245 1.3244528472
C 4.2212391373 1.7987035032 0.9060297849
C 5.1717199007 1.5438581235 1.8860389434
C 6.4891374823 1.2921408356 1.5140999530
C 6.8193271424 1.2945555586 0.1647915332
C 5.8716859699 1.5505383605 -0.8208503894
C 4.5591232995 1.8100610945 -0.4442741399
Cl 8.4826300468 0.9683722558 -0.3118635852
H -5.4142815770 -0.3260947702 0.2196598226
H -4.9467787535 1.0910508863 1.1946667969
H -5.2712467775 -0.4599799858 1.9884521794
H -2.8082195588 -0.0313250750 1.8210414221
H -3.0123896878 -2.4440796460 1.6207373976
H -3.9141293547 -2.2926732868 0.0721575142
H -1.7368289197 0.3219909474 -2.5760815749
H -0.7889972602 -1.1792534385 -2.4649656475
H -2.1413722872 -3.4556854695 -2.4802924529
H -5.8093339710 -1.7752146793 -3.5747539898
H -1.4479084329 1.9142584050 0.3871717955
H 0.5688818403 3.1032339021 1.2006934011
H 2.9280447433 -0.3782486111 0.3229790215
H 4.8826553775 1.5451371303 2.9314143287
H 7.2422175806 1.0921925241 2.2676608920
H 6.1519170160 1.5576033646 -1.8679801346
H 3.8062901170 2.0218979231 -1.1964086380
