52
CONF156
C -5.8470153067 1.9166109676 -0.2883072086
C -4.9112368279 1.5879896352 -1.4196488793
C -3.5907225841 1.1312982647 -1.2638662395
C -2.7551698948 0.9071246943 -2.3681503422
C -3.2712184837 1.0550664574 -3.6542587971
C -4.5822781299 1.4750191840 -3.8320637890
C -5.3739416689 1.7585312493 -2.7297987232
C -1.2980145960 0.5574835374 -2.3163817748
O -0.8244529339 -0.4305949903 -2.8378343509
O -0.5831739443 1.5311977405 -1.7374144045
C 0.8563700941 1.3309072439 -1.7406121717
S -3.0036353054 0.7743206106 0.4098749017
O -2.2598942793 1.9172074463 0.9571809914
O -4.1044298518 0.2015828627 1.1889553748
N -1.8205232550 -0.4182042214 0.1784881933
C -2.1125693181 -1.6834326995 -0.2886264769
O -3.1930821634 -2.0127998174 -0.7492366838
N -1.0526291059 -2.5870123146 -0.2406927003
C 0.2445321869 -2.4355152452 0.2136467117
N 0.5878941986 -1.2992155644 0.8143914209
C 1.8776352919 -1.2331191928 1.2297637449
N 2.7711258263 -2.2357674853 1.0516945645
C 2.2828626216 -3.2968861828 0.4400671642
N 1.0385368185 -3.4925446110 -0.0053856338
O 3.0803237960 -4.3662781042 0.2160217006
C 4.4561799259 -4.2926478151 0.5946876639
C 5.2933475410 -3.9122354708 -0.6119769953
F 5.1661686674 -4.8063385897 -1.6183304385
F 6.6000815784 -3.8685834909 -0.2655662007
F 4.9583766881 -2.7028842316 -1.1138479368
N 2.2683190900 -0.1100208608 1.8451326797
C 3.6352642943 0.0718510729 2.3275218217
C 1.2855118224 0.9286166551 2.1624329733
H -5.3480171585 2.4538712861 0.5213099342
H -6.6593739644 2.5388886729 -0.6688843745
H -6.2794081184 1.0083396670 0.1404901721
H -2.6284796185 0.8596268216 -4.5058245404
H -4.9804215003 1.5974805663 -4.8337226005
H -6.3893509272 2.1146318982 -2.8729571815
H 1.2672669830 2.2056950954 -1.2389171605
H 1.2180564924 1.2657775410 -2.7690602646
H 1.1059957593 0.4162982504 -1.1970486058
H -0.8769445437 -0.2650222374 0.5785884760
H 4.6284455784 -3.5687294734 1.3933509849
H 4.7513514991 -5.2953592900 0.9115410019
H 3.6982062218 -0.1314753614 3.4038731207
H 4.3104234047 -0.5982046049 1.7976532893
H 3.9374119762 1.1064435301 2.1453528319
H 1.7743432504 1.6811210368 2.7816689072
H 0.9084698493 1.4106541896 1.2540773664
H 0.4377446417 0.5101220111 2.7138546693
H -1.2583156315 -3.4788858293 -0.6727165014
