48
CONF87
C -1.9183374460 3.8276721181 -1.5708875008
C -1.6955126652 2.3248719678 -1.7300225745
C -0.7589863011 1.7585889560 -0.6586116265
C 0.7158482691 2.0663706741 -0.9247286591
O 1.1188955853 2.8410749784 -1.7650150016
O 1.4955090629 1.4246482476 -0.0462997260
C 2.9345900132 1.6326782465 -0.1727744370
C 3.5994212326 0.8023178016 0.9025081922
C 3.3770071621 -0.7105041650 0.7437442234
C 3.9881591894 -1.2600347672 -0.5082603714
C 3.3376651756 -1.9559334031 -1.4395253463
N -0.9563881303 0.3205539742 -0.4156540800
C -1.9177937563 -0.0184366051 0.6519696013
C -1.4249107512 0.3777634114 1.9949173376
C -1.8540655081 1.2932774478 2.9065549053
C -0.9447616928 1.2325930450 4.0092656625
C -0.0197949454 0.2898385641 3.6916053906
O -0.2967658848 -0.2470831963 2.4637654138
C -0.4169899827 -0.5278477304 -1.3163224795
O 0.1542161877 -0.1609201165 -2.3372495874
N -0.4983565384 -1.9322834270 -1.0309660985
C -0.6331980151 -2.8923266710 -2.0224286999
C -0.4487505649 -4.0920381241 -1.3991691715
N -0.1691322184 -3.9044555237 -0.0555680696
C -0.2027831473 -2.6065199064 0.1367003287
H -0.9778956626 4.3790026013 -1.6497629162
H -2.5946471377 4.1967516106 -2.3471358198
H -2.3668974777 4.0513202832 -0.5967713221
H -2.6545762086 1.8026189626 -1.6387818119
H -1.2911514132 2.0930660525 -2.7192345867
H -0.9817226403 2.2465203220 0.3020618158
H 3.1445244793 2.6993156688 -0.0490801251
H 3.2381819005 1.3231439320 -1.1787024781
H 4.6733759535 1.0236386146 0.8683266716
H 3.2360986101 1.1270883452 1.8842927825
H 2.3053025096 -0.9378088799 0.7675742175
H 3.8315518129 -1.2072065824 1.6115224853
H 5.0526306443 -1.0582893308 -0.6429272879
H 3.8429688287 -2.3340746361 -2.3234749944
H 2.2759841540 -2.1736121141 -1.3426445161
H -2.8506218519 0.5265788390 0.4648809798
H -2.1508628703 -1.0837835498 0.5994806461
H -2.7159531755 1.9357836975 2.7988948921
H -0.9754148473 1.8183740932 4.9159920886
H 0.8518913949 -0.1040822784 4.1910292116
H -0.8555945592 -2.6211360185 -3.0423396570
H -0.5030121423 -5.0795566261 -1.8354565820
H 0.0065781088 -2.0913552667 1.0638758675
