44
CONF1
C -2.3307234339 -1.2739369843 0.9538731884
C -2.2444215497 -0.4686137709 -0.3499843917
C -1.5667438684 -1.2913013121 -1.4439500705
C -0.0719811697 -1.5008612983 -1.1496288901
C 0.6710815306 -0.1781332802 -0.8839455527
C -0.0293342676 0.6643032038 0.2037565538
C -1.4826462554 0.8617366977 -0.1965956394
C -2.4051326005 1.7280327597 0.6772866379
C -3.8341196023 1.2721294762 0.2737459217
C -3.6409733153 0.0854831878 -0.7050793523
O -4.7133430919 -0.8549466827 -0.7046959650
C 0.7346803579 1.9716790689 0.3911235490
C 2.1204670142 1.6868738181 0.9602076882
C 2.8302747071 0.5440062226 0.2695748987
C 2.1514869476 -0.3558707441 -0.5734290167
C 2.8936240870 -1.3925116387 -1.1502048863
C 4.2525677536 -1.5573211551 -0.9099852386
C 4.9072222886 -0.6607470376 -0.0681703022
C 4.1950238710 0.3813585683 0.5124763539
O 6.2439555498 -0.7545623409 0.2194189912
H -1.3492688727 -1.6012506024 1.3020399954
H -2.9318290535 -2.1752932220 0.7900616761
H -2.7897878374 -0.7016934688 1.7663473742
H -2.0629351425 -2.2620075293 -1.5667233888
H -1.6688015094 -0.7554209394 -2.3983475945
H 0.0635655703 -2.1678020982 -0.2887399500
H 0.3732358287 -2.0140594134 -2.0076361413
H 0.5993279401 0.4158800381 -1.8122452422
H 0.0105761968 0.1129548128 1.1564551494
H -1.4721920534 1.3202814827 -1.2010086767
H -2.2168335689 1.5416231142 1.7408278209
H -2.2476769869 2.7963370735 0.5058003798
H -4.4180635460 2.0726246079 -0.1882171091
H -4.4024987882 0.9321834309 1.1475032901
H -3.6033943934 0.4565314013 -1.7371806001
H -4.8832072889 -1.1081011985 0.2108568306
H 0.1919911005 2.6447069269 1.0643585161
H 0.8162381134 2.4825204849 -0.5788486270
H 2.7511381824 2.5823958640 0.9188403666
H 2.0227561983 1.4340064698 2.0258429686
H 2.4071481191 -2.0994553098 -1.8128756851
H 4.7974610526 -2.3756538001 -1.3739371250
H 4.7185019819 1.0755615449 1.1643848910
H 6.6135840903 -1.5136666291 -0.2474857713
