29
CONF2
C -1.7600965993 -2.5686680460 -0.0636594476
C -1.4431174790 -1.6558483092 1.1116740479
N -1.0109129402 -0.3117219370 0.6545709759
C -1.9144438831 0.6729727880 0.5493329715
C -1.6246848091 1.9345771358 0.0788193328
C -2.7187689282 2.9321097109 0.0229612253
O -2.3655902602 4.1317164423 -0.4485967156
O -3.8654423548 2.7002185311 0.3743982413
C -0.2901233930 2.2574001520 -0.3443406355
O 0.0314994519 3.3952272820 -0.7843475896
C 0.6775426227 1.1782800990 -0.2308254499
C 2.0174291156 1.3446994189 -0.6056602299
C 2.8949917447 0.2907009247 -0.4840150002
C 2.4271314678 -0.9379575521 0.0183888079
C 3.3367652245 -2.1168645621 0.1659610568
N 1.1543401274 -1.1149521783 0.3815717799
C 0.3078257597 -0.0909325474 0.2606364628
H -2.5647373258 -2.1480806771 -0.6739359941
H -0.8785823231 -2.7194368908 -0.6916458228
H -2.0855813660 -3.5410031452 0.3165805269
H -2.3243616128 -1.4997617722 1.7375437049
H -0.6455273889 -2.0675200291 1.7307539141
H -2.9248324682 0.4318566488 0.8635888695
H -1.3739118402 4.0825671763 -0.6720885715
H 2.3391322197 2.3077621326 -0.9871151987
H 3.9360678023 0.3951205110 -0.7679244080
H 3.3081178276 -2.4873605945 1.1953951911
H 4.3645089582 -1.8627265428 -0.0971739462
H 2.9953619409 -2.9323742806 -0.4807454944
