47
CONF3
C -3.8500080166 -2.1495240439 0.2476695150
C -3.3138376195 -0.7405371028 0.3723180981
C -2.1456679866 -0.4598653656 1.2770432714
C -1.9385518933 -0.5112716103 -0.2517196655
C -1.5651783380 0.7514043657 -0.9013727438
O -1.7906136062 1.8764636970 -0.5109604119
O -0.8726747303 0.5014289402 -2.0598267299
C -0.1948495032 1.6456578589 -2.6422908029
C -1.1525791921 2.6501407685 -3.1095485551
N -1.8870154285 3.4296048220 -3.5409497975
C 0.8656169929 2.1865752944 -1.7037670834
C 1.7542093715 1.2484808342 -1.1773283419
C 2.7119324938 1.6402071317 -0.2512530932
C 2.7905327189 2.9924732003 0.0939503466
C 1.9386164891 3.9332810613 -0.4471031594
C 0.9541577348 3.5262562861 -1.3456672716
F 3.7322348457 3.3737080781 0.9830097744
O 3.6247321688 0.7984330518 0.3223116402
C 3.3586720947 -0.5705810750 0.3208542542
C 4.3462354028 -1.4070488915 -0.1812338092
C 4.1475644283 -2.7855931381 -0.1400793921
C 2.9708400233 -3.3107548680 0.3872394536
C 1.9920381107 -2.4530267141 0.8877081817
C 2.1812969256 -1.0746081693 0.8661630996
C -1.5131423985 -1.4828654549 2.1099821193
C -0.7861906026 -1.2365971987 3.2017776099
Cl -0.4407341162 0.3599572619 3.8051986519
Cl -0.0838063524 -2.5134922182 4.1597028656
C -4.3803808336 0.3250394049 0.2626135606
H -3.0595971835 -2.9027137746 0.2223994760
H -4.4284662608 -2.2394410461 -0.6772395806
H -4.5160657799 -2.3705677219 1.0888509171
H -2.1129003909 0.5543973662 1.6628834126
H -1.4533205221 -1.3953732491 -0.6506425282
H 0.2774799862 1.2217557676 -3.5360534770
H 1.6852140481 0.2060776228 -1.4675233934
H 2.0329879487 4.9703028071 -0.1438205197
H 0.2566576202 4.2555739575 -1.7423040306
H 5.2521527677 -0.9771691614 -0.5952128257
H 4.9150642677 -3.4471701848 -0.5288317688
H 2.8157530350 -4.3842770421 0.4112636774
H 1.0760990745 -2.8576004609 1.3058338957
H 1.4259329999 -0.4002811333 1.2577878142
H -1.6347899953 -2.5266203794 1.8367749528
H -4.8671155125 0.2721799456 -0.7172707885
H -3.9765978150 1.3288227010 0.3986901295
H -5.1419371750 0.1487579009 1.0296031493
