37
CONF1
C -0.7373763141 -2.6076880596 -1.5079260242
C -1.4745732559 -1.2752623328 -1.5994457356
C -2.9890346165 -1.4600519002 -1.6221358599
N -1.0657239049 -0.3609169014 -0.4975448645
C -1.3600969656 -0.7356986323 0.8545606163
C -0.4535740335 -1.5171203412 1.5732202311
C -0.7337797553 -1.8850521703 2.8843383345
C -1.9259033201 -1.4556149622 3.4443894079
C -2.8446337569 -0.6780747750 2.7594295552
C -2.5523752005 -0.3192991536 1.4477703520
F -2.2037513897 -1.8087290499 4.7233463461
C -0.4882674623 0.8329543951 -0.7838129856
O -0.2330945835 1.2312144276 -1.9189682097
C -0.1792846967 1.7128732662 0.4350332464
O 0.6654986981 2.8185689856 0.0392523509
C 1.9058576184 2.5018234683 -0.2806468155
N 2.4595326169 1.3193057770 -0.1715610116
N 3.7597887350 1.3267479916 -0.5632407000
C 4.1679402918 2.4937611989 -0.9571209378
S 2.9663172750 3.7621269233 -0.8937841335
C 5.5680133973 2.7496640396 -1.4330599868
F 5.5746832808 3.2159857799 -2.7046778481
F 6.1808816677 3.6862836749 -0.6706753814
F 6.3102244952 1.6343921843 -1.3968867641
H 0.3461393521 -2.4583683678 -1.4839140280
H -0.9852761302 -3.2124197445 -2.3852191744
H -1.0359830395 -3.1694634206 -0.6169176010
H -1.1640251675 -0.7590570097 -2.5108402152
H -3.5024879240 -0.4961383517 -1.6857284235
H -3.2631350663 -2.0584462938 -2.4958719755
H -3.3385539394 -1.9871120686 -0.7284058184
H 0.4779611349 -1.8229310631 1.1093798702
H -0.0425771389 -2.4866503919 3.4640924346
H -3.7628844403 -0.3631293792 3.2425179549
H -3.2482193030 0.2920772361 0.8828069242
H -1.0939186460 2.1835701410 0.8025751521
H 0.2956931119 1.1558745732 1.2456724267
