28
CONF60
C -1.3384571029 0.0490395422 -2.2194919845
O -1.7529140211 -0.2361026323 -0.8498887723
P -1.5450068347 0.8471689947 0.2919737033
O -0.8116192466 2.0805618472 -0.0795965815
O -3.0193339254 0.9786345083 0.8624689415
C -3.2553404502 1.8566027485 2.0059810862
O -0.8363324191 0.0144744952 1.5107904803
C 0.5432303986 -0.0929647979 1.5429241619
C 1.2275040910 0.2668814858 2.6291015656
Cl 0.4681391712 0.9782600263 4.0197946958
C 1.2151149448 -0.6376635566 0.3462857108
C 2.1447453009 0.1521757842 -0.3326125485
C 2.7741629608 -0.3098658920 -1.4815093277
C 2.4652002493 -1.5780615310 -1.9775708577
C 1.5472717374 -2.3853291374 -1.3123182971
C 0.9384115615 -1.9151894477 -0.1593060298
Cl -0.1577968059 -2.9774681030 0.6873109767
Cl 3.2111450987 -2.1839986872 -3.4255074816
Cl 3.9194179738 0.7209276806 -2.2894114763
H -1.9436980952 0.8582203849 -2.6334349300
H -1.5104133714 -0.8748730524 -2.7703633441
H -0.2788140709 0.3134558550 -2.2466133275
H -2.7607654233 1.4507399337 2.8917318150
H -2.8913482422 2.8635810881 1.7880213713
H -4.3350070314 1.8685003530 2.1479211297
H 2.2975899836 0.1196600784 2.7076861282
H 2.3604225726 1.1487666142 0.0350026473
H 1.3244912025 -3.3761347839 -1.6893695450
