33
CONF216
C 2.7556409630 2.4430691201 4.0078576630
C 1.2257249334 2.3931881429 3.9056622105
C 0.7534920650 1.4013452019 2.8797603601
C 0.1475192735 0.2486989185 3.1811759255
C 0.9823631201 1.7989886463 1.4638028161
O 1.3143068413 2.9120984613 1.1145417195
O 0.7717118893 0.7846528904 0.5855984987
C 0.8981454171 1.1521128471 -0.8014418386
C 0.6756318741 -0.0926903485 -1.6427189953
C -0.7737951257 -0.5386658342 -1.6964688333
C -0.9796248452 -1.7768371491 -2.6213851099
C -2.4649868650 -2.1452155258 -2.9409008389
C -2.6555094665 -3.5879970197 -3.5140549726
F -3.9070013478 -3.7084275675 -3.9782542947
F -1.7985678747 -3.8124796585 -4.5210596594
F -2.4643396036 -4.5103429326 -2.5639954459
F -3.2178488084 -2.0557944145 -1.8217619129
F -2.9382927677 -1.2756195106 -3.8607434310
F -0.3524270255 -1.5396381705 -3.8037134802
F -0.3775344030 -2.8419973939 -2.0287878222
F -1.5655084488 0.4710799445 -2.1772711771
F -1.2359456232 -0.8649645900 -0.4571616149
H 3.1570422748 1.4653953920 4.2918363255
H 3.0654500680 3.1726152386 4.7616326409
H 3.1992371090 2.7363229005 3.0527105317
H 0.7947586495 2.1261398406 4.8756978165
H 0.8516629564 3.3868809183 3.6362525082
H -0.1780577452 -0.4420469686 2.4124403898
H -0.0454516104 -0.0176455669 4.2161541705
H 1.9040525164 1.5452416915 -0.9815723541
H 0.1806215607 1.9433768106 -1.0416201046
H 0.9945888136 0.1213464708 -2.6665308153
H 1.2829402567 -0.9214690803 -1.2656811722
