30
CONF25
O 5.8136456503 -0.4960928625 1.1558601921
S 4.2716604313 -0.3623166993 1.6289466887
O 3.7636221677 -1.6392972007 2.1163797130
O 4.2022433427 0.8698979540 2.3959979565
C 3.4705620279 -0.0369048635 -0.0849696688
F 3.8290898528 1.1986209318 -0.4654755489
F 3.9726246347 -0.9378262164 -0.9433411412
C 1.9147442505 -0.1690014305 -0.0164115683
F 1.6072990973 -1.4821031833 0.0211262738
F 1.4883896660 0.4215673128 1.1251527132
C 1.1853424642 0.5000668349 -1.2278314980
F 1.8397019373 0.1325954911 -2.3579240837
F 1.2601271465 1.8396359721 -1.1004714901
C -0.3239271009 0.1028497508 -1.4624035153
F -0.7409843156 0.8662750640 -2.5022123518
F -0.3680966023 -1.1934708805 -1.8294661713
C -1.3022393096 0.3299291614 -0.2621268119
F -1.0327280182 1.5242855155 0.3081428946
F -1.0927796052 -0.6518920757 0.6460091208
C -2.8156781595 0.3191094253 -0.6851657507
F -3.1093322254 1.5100043404 -1.2536732632
F -3.0193603028 -0.6610055525 -1.5928487271
C -3.7856659771 0.0820203055 0.5236597694
F -3.7781313586 -1.2307527258 0.8365948151
F -3.3603983269 0.7959940766 1.5913941017
C -5.2670222382 0.4970532141 0.2378957530
F -5.3887546607 1.8274474706 0.1867850853
F -5.6837676979 -0.0285912789 -0.9223183200
F -6.0420560173 0.0343236614 1.2273111509
H 6.0071832832 -1.4099124571 0.8677533464
