43
CONF14
C -0.3126707232 2.9856423912 3.7765259780
C -0.6401795526 1.5366359395 4.0762604751
O -0.9543212941 0.7940563541 2.8808492670
N 0.2139285574 0.5837344506 2.1633887701
C -0.0056256793 0.0207638980 1.0325518841
C -1.3036995179 -0.3559049464 0.4562390209
C -1.6684684796 0.1868373270 -0.7976457222
C -2.9468045970 0.0106045911 -1.3106913531
C -3.8803616698 -0.7139773946 -0.5749331823
C -3.5335284089 -1.2857406234 0.6320534206
C -2.2339213078 -1.1481716736 1.1560185331
O -1.9931156994 -1.8007325676 2.3070347636
C -0.6983681599 -2.3651661269 2.5722660725
Cl -4.7132313942 -2.2345568434 1.5056475809
O -0.6958371956 0.9052339989 -1.4255000967
C -0.9834122412 1.4350774666 -2.7167952183
O 1.1505117644 -0.0564091508 0.2690784292
C 1.3005817027 -1.0717278046 -0.6396373184
O 0.6788662399 -2.1069552237 -0.6024315253
C 2.3291119306 -0.7340182119 -1.6496598559
C 2.9145531312 0.5337856519 -1.7259522083
C 3.8558238714 0.8000693202 -2.7126279098
C 4.2168355325 -0.1914731080 -3.6218043334
C 3.6335421228 -1.4548014104 -3.5468980793
C 2.6913258020 -1.7269124282 -2.5650594884
H 0.5872884772 3.0546166794 3.1602441302
H -1.1409026536 3.4646199844 3.2465195838
H -0.1359180329 3.5293927916 4.7102907908
H 0.1835454879 1.0374715711 4.6013380304
H -1.5503593070 1.4457764161 4.6766380835
H -3.2359751911 0.4357950231 -2.2619575134
H -4.8838723342 -0.8552055651 -0.9592438129
H -0.0996339995 -1.6865206161 3.1862997804
H -0.1747220737 -2.5930988429 1.6394678728
H -0.8943479151 -3.2860907495 3.1260140509
H -0.0622808584 1.9176982928 -3.0461276877
H -1.2497606445 0.6374197875 -3.4212320672
H -1.7911485218 2.1764359357 -2.6716678106
H 2.6249228274 1.3000078409 -1.0172107974
H 4.3106209068 1.7835020840 -2.7726193969
H 4.9540061331 0.0204320525 -4.3898279726
H 3.9154260677 -2.2267647689 -4.2553526338
H 2.2215768021 -2.7013811731 -2.4898504279
