11
CONF1
C -1.0959254397 -0.7632477747 -0.2067722202
C 0.0667596937 0.1478414886 0.0220448593
C -0.0057191701 1.4798110721 0.1403456497
C 1.4022644474 -0.4767081334 0.1259150049
O 1.5981686621 -1.6707955921 0.0368110973
H -2.0329525701 -0.2064209663 -0.2677036812
H -1.1632867375 -1.4993360767 0.6004817911
H -0.9525919055 -1.3339408323 -1.1297040365
H -0.9486313412 2.0139216075 0.0762953520
H 0.8900994461 2.0727909843 0.3063704621
H 2.2418151147 0.2360842229 0.2959156216
