59
CONF340
C 6.7599638004 1.9015961900 4.0503935581
C 7.1886521396 3.1641653525 3.2979416805
C 5.8484395742 3.7249505758 2.8138383746
C 5.0100592622 2.4839677230 2.4064349664
C 5.7140220872 1.2794127632 3.1138953653
C 4.9920208597 2.3010805021 0.8893018853
C 4.1606790391 1.1286874696 0.4433576807
O 4.4035576232 0.5014720976 -0.5784531930
N 3.0601576084 0.7877907361 1.2369046320
C 2.6641827837 1.5034871421 2.3713925822
O 1.6244730365 1.2169269558 2.9493835146
C 3.5543228455 2.6254451832 2.8395088710
C 2.2040543676 -0.3259956907 0.7890963328
C 1.1129492570 0.1432477486 -0.1696579685
C 0.2247476830 -1.0204263068 -0.6076551930
C -0.8661189107 -0.5502908204 -1.5660538678
N -1.7005241139 -1.6405513955 -2.0911621195
C -2.5132767818 -1.1488825107 -3.2125430727
C -3.3726407688 -2.2684201065 -3.7916889945
N -4.2339986877 -2.8266488695 -2.7486674485
C -3.4472063330 -3.3139181323 -1.6155743565
C -2.5824129564 -2.1896919177 -1.0516027126
C -5.5325005623 -2.4260287367 -2.6018383236
N -6.1719664974 -2.7779631886 -1.4589530573
C -7.4533163503 -2.4277695154 -1.3648224264
C -8.1293480190 -1.7333424386 -2.3614285568
C -7.3794937038 -1.4137643867 -3.4874416277
N -6.0964933470 -1.7417802586 -3.6277634577
H 6.2943498881 2.1848250958 5.0028431206
H 7.5861483239 1.2191080855 4.2711993793
H 7.7470437227 3.8731120604 3.9168299813
H 7.8204040196 2.8923578098 2.4424909710
H 5.9400337782 4.4422743399 1.9922477883
H 5.3520413018 4.2373955101 3.6472635260
H 6.2180730694 0.6556370178 2.3659011278
H 5.0020016041 0.6380308687 3.6439579196
H 4.5631328693 3.1935093064 0.4100834067
H 5.9965451536 2.1615356711 0.4803161750
H 3.4583561833 2.6735213749 3.9286477283
H 3.1297603081 3.5576851602 2.4382109996
H 1.7619592337 -0.7761519734 1.6802807879
H 2.8503437271 -1.0602686064 0.3037652695
H 0.5050886070 0.9101145541 0.3257646907
H 1.5785121608 0.6107495093 -1.0460071934
H -0.2139150472 -1.4834171245 0.2841164603
H 0.8326266384 -1.7877758288 -1.1041619888
H -0.3871454104 -0.0630705343 -2.4251566991
H -1.4895450175 0.2196043254 -1.0679144714
H -3.1762423731 -0.3171129308 -2.8974055779
H -1.8440339731 -0.7677164721 -3.9926313080
H -2.7270099904 -3.0744431606 -4.1631083873
H -3.9795163707 -1.8955327869 -4.6153108708
H -2.8030709801 -4.1255171484 -1.9773498194
H -3.2410979443 -1.4022134809 -0.6310025976
H -1.9773039916 -2.5930135627 -0.2337999263
H -7.9620558070 -2.7144461996 -0.4447460800
H -9.1709348591 -1.4543653483 -2.2644088744
H -7.8271933089 -0.8653980421 -4.3159351937
H -4.1080926213 -3.7074579070 -0.8448548662
