38
CONF22
C 3.5943717891 2.0480425784 2.0557036477
C 2.2005144111 1.5689338192 1.6548132734
C 2.1620318018 1.1296859822 0.2046668301
O 0.8263660598 0.6924552537 -0.0867455521
C 0.6862737426 0.2340288331 -1.4040037870
C -0.6887096541 -0.3628627694 -1.5932166240
N -1.6042900905 -0.5499672942 -0.7366568975
C -1.5538230587 -0.2181000879 0.6149002110
C -2.0418637171 1.0221083883 1.0425723949
C -2.0821532277 1.3473142647 2.3888235849
C -1.6546570551 0.4129372044 3.3258214979
C -1.2064365010 -0.8401735136 2.9408293465
C -1.1667336099 -1.1602771124 1.5850544873
C -0.6834458684 -2.5128862540 1.1571064370
F -1.6302780376 -3.2013473567 0.4644409050
F 0.4068740613 -2.4449824078 0.3440144527
F -0.3317561209 -3.2901068220 2.2061229883
Cl -1.6935489530 0.8214282428 5.0364156638
N -0.9593003675 -0.7786974705 -2.9152985415
C -2.1367406255 -1.3765982611 -3.3521045938
C -1.9524998253 -1.6193211857 -4.6791310760
N -0.6953894729 -1.1946543853 -5.0877351189
C -0.1270900794 -0.6991052840 -4.0165517029
H 3.6112581241 2.3597949096 3.1035464625
H 4.3352634307 1.2515657878 1.9286964229
H 3.9079854232 2.9013966348 1.4450213243
H 1.8919573146 0.7265264236 2.2861581184
H 1.4660472274 2.3699364372 1.8022600309
H 2.4345363279 1.9608809743 -0.4649134979
H 2.8665390078 0.3015389722 0.0277670414
H 0.8217428524 1.0539782065 -2.1297982789
H 1.4326730252 -0.5442713998 -1.6433355847
H -2.3660298784 1.7416103514 0.2985715841
H -2.4406823816 2.3206859029 2.7045355935
H -0.8878091998 -1.5605947052 3.6835356320
H -2.9605616591 -1.5587307202 -2.6823639736
H -2.6480099869 -2.0743545699 -5.3703350876
H 0.8673740573 -0.2778172870 -3.9716531093
