48
CONF33
C -5.8200697855 0.4835505067 0.1160314557
C -4.5151781239 0.8330138749 -0.5842801789
C -3.3245933649 0.4877522372 0.3020348151
N -2.0506190808 0.7919579775 -0.3857429816
C -1.9513210472 0.0879188268 -1.6690528527
C -3.1543412290 0.4389882829 -2.5325935985
N -4.3907883173 0.0715884228 -1.8358341600
C -0.9075856559 0.8830844557 0.3866247676
C -0.8338741175 1.7908240802 1.4784385800
C 0.2769949107 1.9359582447 2.2574584008
C 1.4373843674 1.1936642277 1.9762319898
C 1.4113682207 0.3204738779 0.8701695014
C 0.2544108157 0.1578647417 0.1062078528
N 2.5641646781 -0.4147729080 0.5706967071
C 3.6712348252 -0.3095851856 1.3330295644
C 3.7496184257 0.5166489204 2.4249585922
C 2.6205641304 1.3310899419 2.8007027305
O 2.6542723434 2.1120867019 3.7917835906
C 5.0216434112 0.5470751518 3.1888238969
O 5.9951764332 -0.1308958918 2.9006260715
O 5.0324266387 1.3796574584 4.2322648581
C 2.5908573302 -1.2935595403 -0.5614151956
C 2.6883361198 -0.7646074154 -1.8460776089
C 2.7231541985 -1.5701141445 -2.9690642170
C 2.6651001823 -2.9395998998 -2.7593245991
C 2.5743607865 -3.5149932434 -1.5018205432
C 2.5320048014 -2.6730542752 -0.3970398837
F 2.6981361895 -3.7450645059 -3.8399356431
F 2.7441768950 0.5698851897 -1.9955147469
F -1.8982704104 2.5897617342 1.7278081226
H -5.8463263401 -0.5810219695 0.3713700627
H -5.9319561901 1.0681439674 1.0341269810
H -6.6736804017 0.7031708204 -0.5331657084
H -4.4823658332 1.9234080640 -0.7754715217
H -3.3878066976 1.0473505473 1.2345403881
H -3.3558115297 -0.5896718143 0.5405669981
H -1.9063460452 -1.0050859280 -1.5201655181
H -1.0389844334 0.4093749655 -2.1809828389
H -3.1103895038 1.5172120719 -2.7731951248
H -3.0860634654 -0.1210864254 -3.4713685411
H -5.1836646616 0.2910139308 -2.4316098771
H 0.2799307313 2.6486304832 3.0744019848
H 0.2496484443 -0.5653256153 -0.6975656208
H 4.5175691842 -0.9173297761 1.0312337762
H 4.1166121993 1.8248357682 4.2645560133
H 2.7989771932 -1.1465490057 -3.9635215348
H 2.5318113778 -4.5922542341 -1.3946159920
H 2.4501001149 -3.0814138807 0.6046699547
