52
CONF104
C -0.1647391532 -0.3927460887 -3.0772086032
C -0.4138279526 -1.2899160836 -1.9003713857
C -1.4818800447 -1.1761886782 -1.0945601512
C -2.6050681287 -0.2391550194 -1.3187869017
C -2.6958947074 1.1530217651 -0.6199239155
C -3.6699376658 0.0272845247 -0.3010704640
C -3.6401131759 -0.6655703505 1.0422750836
C -5.0743153512 0.2506045910 -0.8255558737
C -1.5867351069 1.5636326210 0.2486538696
O -1.0411538093 0.9064853120 1.1151969358
O -1.1862552727 2.8261224078 -0.0805792020
C 0.0477776128 3.2840498540 0.5509953668
C 1.2306334917 2.5976777561 -0.0743637212
C 1.9372496715 1.6359171904 0.6436670701
C 2.9647182877 0.9329062448 0.0222018581
C 3.3230427567 1.2029383113 -1.2952125479
C 2.6342582824 2.1894793286 -1.9957727127
C 1.5859630479 2.8801696226 -1.3962615275
O 3.7198728722 -0.0140934929 0.6894079474
C 3.1259436338 -0.8507654685 1.6190900667
C 1.8073181116 -1.2895468464 1.5124562501
C 1.3171766637 -2.1887869860 2.4551907404
C 2.1287582845 -2.6526180770 3.4885745128
C 3.4470184131 -2.2088373824 3.5761500326
C 3.9502822673 -1.3044122313 2.6462202896
C 0.6260845902 -2.3508952840 -1.6847531924
H -0.1759028679 -0.9683626261 -4.0118762296
H -0.8918487109 0.4178952836 -3.1568533240
H 0.8348593880 0.0526838960 -2.9966842750
H -1.5575430172 -1.8510657346 -0.2441935822
H -2.9345609420 -0.1651796059 -2.3531474610
H -3.0760516603 1.9474884554 -1.2532623921
H -2.6294775974 -0.8100424813 1.4206257437
H -4.1317547581 -1.6413413057 0.9562677327
H -4.1959378107 -0.0729785464 1.7771130214
H -5.5894146197 -0.7101447760 -0.9370544094
H -5.6510509053 0.8675284344 -0.1275593073
H -5.0641482913 0.7489097341 -1.7993951434
H 0.0571627812 4.3582547616 0.3559837484
H 0.0005563150 3.1002394041 1.6270151973
H 1.6635706872 1.4179143831 1.6694150269
H 4.1312855362 0.6433058120 -1.7542063399
H 2.9132138497 2.4080957231 -3.0217669975
H 1.0365278686 3.6332638198 -1.9533104077
H 1.1662271222 -0.9333565913 0.7143211054
H 0.2896138816 -2.5301693387 2.3721632485
H 1.7378194520 -3.3537745780 4.2183315262
H 4.0901150327 -2.5628125570 4.3758925417
H 4.9739311099 -0.9488432781 2.7020061752
H 0.6861297700 -3.0080192436 -2.5620991251
H 0.4095321402 -2.9632417483 -0.8054824387
H 1.6209705167 -1.9030040534 -1.5626389648
