71
CONF85
C 5.9583410621 -2.6334913560 2.6743678547
C 6.1111872184 -2.5732570546 1.1809565428
C 5.2956547312 -1.7274168726 0.4141885445
C 5.4083253571 -1.6516989431 -0.9823348851
C 6.3831265098 -2.4356818820 -1.6047318981
C 7.2051636939 -3.2775851176 -0.8626246573
C 7.0648668518 -3.3500055367 0.5195931779
C 4.4908382983 -0.7793505152 -1.7906400153
N 4.3149511201 -0.9419298707 1.0841550262
C 4.3912891713 0.3990706000 1.2485368772
O 5.3084937381 1.1018567111 0.8187062867
C 3.2552272785 1.0033821959 2.0698073524
N 2.0692560638 0.1603144657 2.1289076736
C 1.3017471203 0.2444445818 0.8795971217
C 0.1171658385 -0.7022237757 0.9210512340
N -0.7666503640 -0.3533972645 2.0369368570
C -0.0080428967 -0.4242435475 3.2893089424
C 1.1932177916 0.5091281608 3.2545132022
C -1.9487265130 -1.2224886736 2.1078198635
C -2.8342996506 -1.1416299956 0.8653501869
C -3.3523737809 0.2703434322 0.5673533690
C -3.6488957151 0.4786265528 -0.9305452011
C -4.4643102193 1.7231184764 -1.2337264113
C -5.1921770928 1.7781972332 -2.4281651473
C -5.9294558987 2.9038158747 -2.7792223136
C -5.9242769993 3.9826506656 -1.9102820271
C -5.2220780057 3.9760152789 -0.7196309735
C -4.4912916412 2.8349210218 -0.3886739517
F -6.6441652696 5.0896967837 -2.2406432044
C -2.3457917259 0.4852668001 -1.7168464411
C -1.9878883819 -0.5950184639 -2.5256746818
C -0.7530913712 -0.6369934864 -3.1731461651
C 0.1103999020 0.4289066430 -2.9987249013
C -0.2098993643 1.5311162372 -2.2231167132
C -1.4455740368 1.5482203833 -1.5851283603
F 1.3239677073 0.3962399496 -3.6152041329
H 6.0365534705 -1.6356699772 3.1193431635
H 4.9771942104 -3.0317052192 2.9581043391
H 6.7258118278 -3.2741463407 3.1137880787
H 6.4857123179 -2.3897460046 -2.6852264089
H 7.7058073270 -4.0083041972 1.0991736295
H 4.6355887213 0.2795623276 -1.5527754849
H 3.4421337113 -1.0157217994 -1.5797160963
H 4.6690218184 -0.9221044743 -2.8586916329
H 3.6515163903 1.1429429590 3.0847492342
H 3.0554115989 2.0095070911 1.6606874815
H 0.9391694409 1.2768194171 0.7103263023
H 1.9502758711 -0.0211994790 0.0370800659
H 0.4805615013 -1.7476189727 1.0027979203
H -0.4254614986 -0.6074263996 -0.0236855002
H -0.6642004505 -0.1344389564 4.1186309497
H 0.3450299143 -1.4572993896 3.4851845050
H 1.7579378774 0.4087064516 4.1883877359
H 0.8427798674 1.5562981411 3.1768592416
H -2.5265173516 -0.9141529167 2.9900006759
H -1.6532076213 -2.2787317315 2.2685905351
H -2.2852025922 -1.5304602175 0.0009194520
H -3.6808026932 -1.8234127647 1.0083629588
H -4.2624714813 0.4611999548 1.1489606224
H -2.6048781741 1.0038993385 0.8891233319
H -4.2341916365 -0.3813326035 -1.2814203854
H -5.1824108200 0.9222067346 -3.0980463301
H -6.4989959041 2.9468609435 -3.7014813435
H -5.2477356456 4.8410152343 -0.0654904233
H -3.9418501685 2.8261336490 0.5466021953
H -2.6755831717 -1.4275468123 -2.6446629654
H -0.4657226610 -1.4781689679 -3.7948003239
H 0.4959395607 2.3480617546 -2.1175273525
H -1.7053292674 2.4022709008 -0.9659827155
H 7.9547325860 -3.8826738581 -1.3636317326
H 3.5457636666 -1.3941816091 1.5706183311
