43
CONF4
C -3.3287182489 3.8824335230 0.7058123086
N -3.2367209071 2.6924229713 -0.1439130946
C -2.6974591680 1.4765463257 0.1072912860
C -2.8695522580 0.6853834496 -1.0359263340
C -3.5352781909 1.5583938216 -1.9184591313
N -3.7445410687 2.7574867206 -1.3851855222
Cl -4.0261976509 1.2770652900 -3.5439256641
C -2.3686656492 -0.6798612614 -1.2487074733
O -1.4078765155 -1.1489707431 -0.6682888125
O -3.0873600527 -1.3320723199 -2.1698975395
C -2.6245225986 -2.6711802453 -2.4854614502
S -2.0410162307 0.9772436150 1.6952606284
O -2.2509835949 2.0751476976 2.6355228861
O -2.5413069342 -0.3625029827 2.0015459190
N -0.3878061572 0.7734354375 1.4350711990
C 0.3575951041 1.7691200589 0.8267085168
O -0.0583426768 2.9048257461 0.6418953013
N 1.6358788313 1.4031952026 0.4394428498
C 2.2841665557 0.1701904972 0.4603522587
N 3.5279695088 0.1981274218 -0.0202212910
C 4.1674804226 -0.9764427937 -0.0181123107
C 3.5955192518 -2.1595968601 0.4451435604
C 2.2941401744 -2.0501824616 0.9183132077
N 1.6268981179 -0.8879475393 0.9347337562
O 1.6976086942 -3.1549820744 1.3746489330
C 0.3403549193 -3.0350910790 1.8672943105
O 5.4215235450 -1.0429914860 -0.4798601752
C 6.0262027868 0.1795276386 -0.9641862789
H -3.7163775732 4.6809560719 0.0749219871
H -4.0069201062 3.6959801840 1.5401120615
H -2.3378979158 4.1362210584 1.0825698207
H -1.5989960322 -2.6334381665 -2.8595007717
H -2.6742685150 -3.3018607604 -1.5949970460
H -3.3049106735 -3.0328814747 -3.2545714257
H -0.0351142120 -0.1937171242 1.3375628907
H 2.1689652136 2.1605313389 0.0319649328
H 4.1290152782 -3.1003296156 0.4385058321
H 0.0690531273 -4.0417020358 2.1830721998
H 0.3009539854 -2.3481691804 2.7173070835
H -0.3265136846 -2.6910711661 1.0724324067
H 6.0776393145 0.9235712480 -0.1658114340
H 7.0274036431 -0.1113568744 -1.2801831108
H 5.4589790457 0.5785432910 -1.8084726758
