60
CONF17
C -0.0718813604 -1.9373964278 1.1305001424
C -0.4056512114 -1.9085031522 -0.3186169035
C -0.9479751780 -0.8530253585 -1.0489164845
N -1.1619509035 -1.3231106690 -2.3212182658
N -0.7523711713 -2.5909796761 -2.4576221311
C -0.3127414438 -2.9639985588 -1.2484702931
C 0.1662771666 -4.3541714293 -1.0048662923
C -1.4881307338 -0.5607142644 -3.5139215667
C -1.3374467795 0.4612164887 -0.5991903319
C -0.6013076767 1.2980766131 0.1777422763
C -1.2624581845 2.4309130212 0.7295020960
N -1.7820158322 3.3550818657 1.1987645065
C 0.8268855435 1.1230112621 0.5037972550
C 1.3055424409 1.4711751123 1.7676800463
C 2.6444230794 1.2886399744 2.0977381831
C 3.5554523423 0.7645634496 1.1790261263
C 3.0675853293 0.4449193885 -0.0968555997
C 1.7372026724 0.6230625881 -0.4348377090
C 5.0331870536 0.5443018329 1.5034052446
C 5.3780526688 -0.9452988006 1.3109593509
C 5.8939191720 1.3973258452 0.5518749031
C 5.3779145402 0.9348567660 2.9451529861
O -2.6121466572 0.8901893958 -0.9711983856
C -3.6699698653 0.3278268101 -0.2588476132
O -3.4892903683 -0.4374514435 0.6472414514
C -4.9993686059 0.8601763008 -0.7649509363
C -5.0804236937 2.3531870829 -0.3913658763
C -5.0879750893 0.6915182805 -2.2901433929
C -6.1226833791 0.0811212810 -0.0771482303
H -0.7211384606 -1.2588231159 1.6907905822
H -0.1983945986 -2.9456986082 1.5346797365
H 0.9655214506 -1.6272609079 1.3106508469
H 1.1811637243 -4.3559136576 -0.5939669831
H -0.4781502523 -4.8747917019 -0.2876765466
H 0.1653266811 -4.9172937920 -1.9399033266
H -2.1235245727 -1.1720953509 -4.1582798223
H -2.0199508819 0.3472948374 -3.2305737534
H -0.5770533666 -0.2955296795 -4.0625774146
H 0.6204786897 1.8787282897 2.5051055332
H 2.9684673113 1.5634838322 3.0940870881
H 3.7434672263 0.0570987866 -0.8520867750
H 1.3981216565 0.3745609316 -1.4345774946
H 4.7711562806 -1.5714781083 1.9727782789
H 6.4340518094 -1.1190227768 1.5444017111
H 5.2035904369 -1.2729039278 0.2822707811
H 5.7275351262 1.1290721818 -0.4952023607
H 5.6614479835 2.4604864973 0.6690945374
H 6.9566553252 1.2496973390 0.7724994875
H 5.1875855283 1.9962054430 3.1339394832
H 6.4415582710 0.7519002732 3.1254569503
H 4.8107740636 0.3434868411 3.6713022639
H -4.2860999200 2.9292575417 -0.8714189143
H -6.0484365006 2.7486795890 -0.7155583089
H -4.9941219172 2.4922681692 0.6901394466
H -6.0809080673 1.0037813811 -2.6284869382
H -4.3444587474 1.3054281361 -2.8037026622
H -4.9441808412 -0.3541350691 -2.5825750984
H -6.0614471005 0.1817857741 1.0087817316
H -6.0703271021 -0.9838782146 -0.3198072761
H -7.0893621053 0.4690947790 -0.4119225222
