85
CONF221
C 4.4174400610 1.1969771920 -4.1799625048
C 5.2580680422 1.6935630872 -3.0056271354
C 4.8103316137 1.1209126772 -1.6690170698
C 5.6374212283 1.5983988406 -0.4709000526
C 4.9829924272 1.0943756753 0.8199192708
C 3.5156391263 1.5028698442 0.8828258232
C 2.7734086709 1.0364214435 -0.3766127672
O 3.4276249110 1.5215844509 -1.5211484759
C 1.3410016250 1.5607681629 -0.4694236508
C 0.4256162225 0.8620735144 0.5208840059
C 0.5012231976 -0.6445875117 0.3504182304
C 1.9611740372 -1.0816955924 0.4752378866
O 2.7739165089 -0.3959954077 -0.4841285275
C 2.1586623226 -2.5794113114 0.2221654855
C 1.8079593672 -3.4168547747 1.4143665647
C 0.7513133570 -4.2212908840 1.5958735885
C -0.3527438554 -4.4013796061 0.5909328673
C -1.7509111625 -3.9609912668 1.1381110785
C -2.4618088466 -3.1107268604 0.1346262591
C -2.9274966818 -1.8746450286 0.3753988835
C -3.6148672708 -1.0937990294 -0.6237578459
C -4.1645991239 0.1274221321 -0.5225975488
C -4.9145773491 0.7701120608 -1.6472557646
O -5.9914745298 1.4790038016 -1.0208483601
C -5.6059514374 1.8511255087 0.3094664225
C -4.3310809280 1.0338200803 0.6927954140
C -3.1169538904 2.0218856654 0.8936407843
C -3.0687513417 3.0617195799 -0.1864045019
C -4.1843435157 3.7383537886 -0.4735058723
C -5.4285587784 3.3719720140 0.3075893046
O -5.3715929335 3.7946188662 1.6836947385
C -4.2952383197 4.7809130554 -1.5387376981
C -1.8453660885 1.2618650541 1.1778585914
O -1.6970544109 0.6110555528 2.1992075640
O -0.9083226191 1.3956104881 0.2324501604
O -4.5900907653 0.3398504355 1.9009719746
C -2.6154170379 -5.1741802537 1.5145708449
C 0.6118776344 -5.0165508943 2.8652502469
C 7.0917671022 1.1367306121 -0.5529669429
H 3.3743152645 1.5007971063 -4.0698888089
H 4.7958805873 1.5958452412 -5.1258516715
H 4.4423856767 0.1035560430 -4.2402854403
H 6.3055726770 1.4151448097 -3.1627807027
H 5.2207371678 2.7892556290 -2.9464515690
H 4.8501645799 0.0205098491 -1.7114670739
H 5.6048955804 2.6988141607 -0.4674017857
H 5.0641564648 -0.0005980156 0.8588161372
H 5.5217647469 1.4877871907 1.6900658993
H 3.4320111002 2.5958443488 0.9202620768
H 3.0392291958 1.1158197749 1.7893706719
H 0.9873883115 1.3574987785 -1.4857571068
H 1.3324755332 2.6434658327 -0.3118877752
H 0.6596124433 1.1334078414 1.5575566851
H 0.1258852595 -0.9176940241 -0.6437725386
H -0.1060299897 -1.1537074028 1.1033645604
H 2.3189324127 -0.8564782672 1.4947462204
H 1.6042941782 -2.8661680437 -0.6760796845
H 3.2228344697 -2.7192721384 -0.0053476862
H 2.5290585354 -3.3567895908 2.2307278517
H -0.4086691373 -5.4601767036 0.2999078326
H -0.1297090393 -3.8379865869 -0.3177456894
H -1.5929439444 -3.3498618792 2.0362472379
H -2.6080842780 -3.5527051253 -0.8539946751
H -2.7773808535 -1.4490523813 1.3621439708
H -3.7075148830 -1.5836101308 -1.5949254603
H -4.2811672504 1.4693113759 -2.2190232341
H -5.3446448487 0.0395768875 -2.3401875378
H -6.4066777093 1.5760279239 1.0051297620
H -3.3576081428 2.5133516433 1.8456152366
H -2.1354669111 3.2465122607 -0.7082958677
H -6.3193299190 3.7988081646 -0.1762039496
H -5.1000466038 4.7192215496 1.6942090467
H -3.3344918262 4.9667444260 -2.0254711814
H -4.6659798674 5.7298719320 -1.1304056228
H -5.0196391788 4.4655991489 -2.3003458146
H -3.7482389529 0.2310649024 2.3695130266
H -2.8468919009 -5.7651228932 0.6212705067
H -2.0959864512 -5.8270929897 2.2229663068
H -3.5601971256 -4.8539347341 1.9629658202
H -0.2999076287 -4.7484997437 3.4120519000
H 1.4634261022 -4.8587496619 3.5313011396
H 0.5411204933 -6.0887452729 2.6422856338
H 7.6315664094 1.6064128027 -1.3791838345
H 7.1461384103 0.0494569251 -0.6851863717
H 7.6225237808 1.3846457528 0.3720625575
