41
CONF47
C 6.5126065224 -0.3614764071 1.2213115743
N 5.3140830338 -0.2357633959 0.4012665361
C 4.0903500337 -0.7349874594 0.6601303836
C 3.2705602726 -0.3554860809 -0.3980556160
C 4.1276312863 0.3823039069 -1.2476372314
N 5.3651302720 0.4456267477 -0.7572633629
C 3.7812922857 1.0521053708 -2.5338361043
F 3.3908484175 2.3632859076 -2.2939891808
F 4.8861356936 1.1310355404 -3.3505127051
C 1.8390240290 -0.6034344656 -0.6161049049
O 1.1848603430 0.0624569423 -1.4223887760
N 1.2997428423 -1.6141211513 0.1341562260
C -0.0564142700 -2.0140913074 0.1007318573
C -0.3519813360 -3.3833179978 -0.0029041591
C -1.6656994598 -3.8365138135 0.0287035231
C -2.7317945698 -2.9407558549 0.1676373878
C -2.4327492842 -1.5956443185 0.2893448398
C -1.1097334770 -1.1200238796 0.2521396900
C -1.1756212923 0.3835136177 0.4324133308
C -1.8173346368 0.9677631267 -0.8698442002
C -3.2827310736 0.4384730676 -0.8276386950
C -3.3305116410 -0.3918440908 0.4944353244
C -2.3891079152 0.4403084393 1.3439588660
C -2.5710474768 1.0420334672 2.5064527410
Cl -4.0820416017 0.9841541630 3.3848960324
Cl -1.3212673076 1.9646460925 3.3096496765
H 7.2922632165 -0.8747696782 0.6534033918
H 6.2618580781 -0.9405168141 2.1103378308
H 6.8631858468 0.6314262649 1.5127572106
H 3.8881278325 -1.2936595697 1.5632691601
H 2.9729826632 0.5593873350 -3.0779686679
H 0.4656322471 -4.0914407652 -0.1027617127
H -1.8601434325 -4.9015876163 -0.0489459735
H -3.7569421608 -3.2954483470 0.2050958418
H -1.7915945757 2.0602436088 -0.8293713685
H -1.2640933058 0.6367547507 -1.7484453507
H -4.0012133722 1.2607539403 -0.7722684017
H -3.5358129337 -0.1865619000 -1.6875796071
H -4.3255566999 -0.5963428081 0.8851899032
H -0.2679409415 0.8784488148 0.7684547707
H 1.9421881189 -2.2662480818 0.5620798874
