44
CONF22
C -4.9122510976 -0.3605321841 2.5090355796
C -3.9857779849 0.2879305563 1.5028513257
C -3.8169098751 1.7808425747 1.7116526043
O -2.6758460800 -0.3657203631 1.6879812470
C -1.8364644508 -0.3634527383 0.6477391408
O -2.0741855722 0.1076109617 -0.4456118816
C -0.5562777821 -1.1271726183 0.9969404073
C -0.7675649520 -2.6053506648 0.6813529127
N 0.5836645985 -0.5268199041 0.2767100519
C 1.0816294620 -1.1222593306 -0.9260469324
C 0.6671999247 -0.6167510028 -2.1575202431
C 1.1685518495 -1.1709440749 -3.3269577161
C 2.0597736671 -2.2375565331 -3.2564566949
C 2.4631957995 -2.7547061424 -2.0372935966
C 1.9754787559 -2.1897749199 -0.8657557071
F 2.5429634979 -2.7750780641 -4.3910843708
Cl 0.6833937345 -0.5478796195 -4.8821934905
C 0.8197676724 0.7953523525 0.5716313005
O 0.1205954429 1.3956851387 1.3913274096
C 1.9609596403 1.4784276972 -0.1067297361
C 3.2393686986 0.9160515067 -0.1567843645
C 4.2865833832 1.6232760898 -0.7382266171
C 4.0598097718 2.8832242156 -1.2887689171
C 2.7863850247 3.4471878897 -1.2353386091
C 1.7424180522 2.7543630448 -0.6324093403
H -4.9820825122 -1.4382618260 2.3386670375
H -4.5574286288 -0.1830681235 3.5291095988
H -5.9119729247 0.0720422268 2.4102042725
H -4.3114201300 0.0756819061 0.4799595444
H -3.4514333913 1.9824969344 2.7235553231
H -3.1150509644 2.2024229518 0.9879601390
H -4.7842961273 2.2766426137 1.5864265257
H -0.3749420423 -1.0046270826 2.0684332208
H -0.9789893951 -2.7633126712 -0.3793990066
H -1.6200995883 -2.9619424266 1.2648894635
H 0.1093148883 -3.1923295639 0.9626524017
H -0.0416396365 0.2015387466 -2.1970332097
H 3.1636325984 -3.5823995781 -2.0190426448
H 2.3050349308 -2.5651138889 0.0964717810
H 3.4195576372 -0.0634110697 0.2730375333
H 5.2811665152 1.1893535073 -0.7617062995
H 4.8760905114 3.4275990631 -1.7530011057
H 2.6077470649 4.4299124870 -1.6599844409
H 0.7503483098 3.1908219151 -0.5753752720
