41
CONF34
C -2.3373476930 -3.0326400011 -0.0633354981
C -0.8685214750 -3.0147079756 -0.4789432160
C -0.1844922539 -1.6278203311 -0.3772347858
C -0.3597255766 -1.0814434869 1.0466384200
O 0.0944020543 -1.5958825424 2.0531780046
C -1.2004300282 0.1294851880 0.9821800189
C -1.6141888824 0.9614383154 2.0161476066
C -2.3911383798 2.0677931562 1.6853789647
C -2.7496915953 2.3288813752 0.3549250800
C -2.3348480539 1.4941528189 -0.6785320703
C -1.5512784417 0.3947767693 -0.3468816781
C -0.9380257994 -0.6106444617 -1.2395039323
O -1.0140880754 -0.6384530832 -2.4556428134
C 1.3011197220 -1.7777245343 -0.7680682357
C 2.0188791210 -0.4936656125 -1.1426838552
C 2.3098974409 -0.2212875066 -2.5537428999
O 3.3427920265 -0.7421202307 -1.6843493744
C 1.9438802030 0.6432797020 -0.1695689255
C 2.4225343300 0.4544107458 1.1298818718
C 2.2939597410 1.4837938386 2.0496355963
C 1.7070055480 2.7002951635 1.7202412491
C 1.2438895597 2.8805408588 0.4207166531
C 1.3593443863 1.8613225806 -0.5195128500
Cl 2.8771668919 1.2330173837 3.6932075048
H -2.4690752876 -2.7309362117 0.9811995855
H -2.7408596462 -4.0431738705 -0.1701923714
H -2.9415783230 -2.3654841141 -0.6875323802
H -0.2885489103 -3.7061875668 0.1434443138
H -0.7671681290 -3.3442868672 -1.5189725353
H -1.3316554173 0.7566009222 3.0437097382
H -2.7255664506 2.7437576918 2.4657551120
H -3.3568949824 3.2003417359 0.1321229654
H -2.6031011775 1.6968657260 -1.7102662910
H 1.3770857440 -2.4652916407 -1.6160668482
H 1.8157346705 -2.2444727544 0.0815890226
H 2.4733985289 0.8015539209 -2.8876308856
H 1.9511201141 -0.9211568817 -3.3064950721
H 2.8751035704 -0.4877768068 1.4195638096
H 1.6112083176 3.4856128395 2.4613131328
H 0.7785139471 3.8219535526 0.1473078497
H 0.9711886770 2.0052815917 -1.5223395733
