36
CONF26
C 1.7770839974 3.3249871865 -0.2629907600
C 2.4385633007 2.1414265212 -0.9817958873
C 2.0536371319 0.8328881689 -0.3640674353
C 1.4225341510 -0.1599856727 -0.9916901782
C 1.0232409551 -1.4609377947 -0.3612125837
C -0.4559837136 -1.8056581625 -0.5944651701
C -1.5173014564 -0.8057444095 -0.1034288581
C -2.7324396755 -1.0854252175 -1.0108987732
C -2.1193946113 -1.3685869095 -2.3821874277
C -0.7791417654 -2.0012651460 -2.0748220866
O -0.0601493281 -2.5694360571 -2.8753267009
C -1.8895159105 -0.9395524277 1.3773912131
C -0.7700496072 -0.6343985777 2.3370886741
O -0.2780823198 -1.4289509216 3.1162553166
O -0.3751358748 0.6493037375 2.2447713084
C 0.6833528906 1.0475455196 3.1511736771
H 2.0846999242 4.2766999160 -0.7073137599
H 2.0550641735 3.3391658625 0.7963596129
H 0.6860840664 3.2529177639 -0.3232197047
H 3.5293818190 2.2636677480 -0.9303598599
H 2.1652925833 2.1432948436 -2.0434861047
H 2.2997635499 0.7139113016 0.6930998238
H 1.1722763998 -0.0364283698 -2.0480088910
H 1.2446664146 -1.4427250097 0.7115641939
H 1.6148883365 -2.2788058213 -0.7945433526
H -0.6658650431 -2.7856987116 -0.1323328262
H -1.1553489666 0.2124243688 -0.2980220578
H -3.4414771219 -0.2537609497 -1.0153578107
H -3.2571396709 -1.9771871745 -0.6463516673
H -1.9008638857 -0.4313627801 -2.9154271711
H -2.7169795490 -1.9939708460 -3.0505977022
H -2.7143135388 -0.2495742197 1.5950951288
H -2.2302785903 -1.9583831469 1.5818130835
H 0.9100121609 2.0817500452 2.8951916958
H 1.5624824452 0.4146051920 3.0101601387
H 0.3364366252 0.9732495365 4.1848665063
