43
CONF26
C 0.7349237902 2.9320490313 1.8672929416
C 0.3182296714 1.5105273115 1.4893872391
C -0.8915709872 1.0586211034 2.3045686908
C 0.0381777799 1.4635152319 -0.0354396426
C -0.2108078266 0.0722850203 -0.5410920367
C 0.8706160776 -0.7977402499 -0.7831330776
C 0.5940750234 -2.1176363514 -1.1476484258
N -0.6342080557 -2.6013246088 -1.2936279615
C -1.6588511095 -1.7833643071 -1.0965616961
C -1.5036892049 -0.4464651203 -0.7115918463
C -2.7116874921 0.4251475842 -0.5282583572
O -2.9198184518 1.4394092222 -1.1581953283
O -3.5238520092 -0.0800997110 0.4042772479
C -4.7643080097 0.6489242826 0.6201667606
C -3.0396434623 -2.3857119459 -1.3139654839
F -2.9485954925 -3.5526896511 -2.0128792594
F -3.7901099312 -1.5158814660 -2.0843163933
C 1.7003635820 -3.1450807335 -1.3587459459
F 1.2705938230 -4.2101080747 -2.0557355145
F 2.7560020098 -2.6313339973 -2.0284781664
F 2.1637939032 -3.6049703593 -0.1696549307
C 2.2671156669 -0.3127651861 -0.6413981297
N 2.9863638031 -0.5529035607 0.3769242438
C 4.2863797007 0.1241504498 0.3018255788
C 4.6214516415 0.4546061559 -1.1612560492
S 2.9797866844 0.6630105839 -1.9731011062
H 1.6233911674 3.2457592743 1.3093466475
H -0.0739840912 3.6394986053 1.6494509845
H 0.9608746435 2.9941353615 2.9365290023
H 1.1547303571 0.8331877364 1.6998241333
H -1.7560122109 1.7038938840 2.1035754202
H -0.6698864140 1.1173604744 3.3749047627
H -1.1754039133 0.0253935339 2.0801590170
H 0.9030014595 1.8834347239 -0.5572978622
H -0.8162972133 2.1073215457 -0.2539170481
H -5.2889430052 0.0940452439 1.3957653381
H -4.5418218175 1.6656503518 0.9505362359
H -5.3434923307 0.6705677225 -0.3056205868
H -3.5881242832 -2.5765517578 -0.3856910124
H 4.2127200358 1.0396821777 0.9059770583
H 5.0632633204 -0.5066387960 0.7442130987
H 5.1458182799 -0.3661424540 -1.6581213071
H 5.1994348861 1.3752312000 -1.2589969371
