46
CONF3
C 0.2381894168 2.5921458154 -3.2458396131
C 0.8834813807 2.1973089763 -1.9472740755
C 0.0910819813 2.0073289747 -0.8109345304
C 0.6598736482 1.5610701961 0.3766421694
C 2.0408749249 1.3153458633 0.4774282422
C 2.8137114763 1.5313205548 -0.6567930302
C 2.2512478420 1.9613538603 -1.8574263380
C 2.6272739670 0.8351186038 1.7714997824
O -0.0460530169 1.3082681500 1.5256165551
C -1.4598532719 1.4480574629 1.5146668010
C -2.2411576628 0.5335584575 0.5929373356
C -3.5105575510 0.9795436695 0.2164972313
C -4.3301357870 0.2271109298 -0.6130521065
C -3.8722330265 -0.9875937240 -1.1123707301
C -2.6063499132 -1.4344963147 -0.7662719949
C -1.7893709653 -0.7007809086 0.1028273869
C -0.4706502706 -1.2848584191 0.4304666135
N -0.0536321624 -1.6059607079 1.6016078852
O -0.9697586725 -1.3316987686 2.6019069066
C -0.3722250162 -1.6183648332 3.8716862632
C 0.4745661175 -1.5728903280 -0.7192188338
O 0.1418212435 -1.3441248111 -1.8763246676
N 1.6779197880 -2.0935992796 -0.3763866605
C 2.7292344952 -2.2314773876 -1.3681956047
H 0.9833189112 2.9099158725 -3.9792516278
H -0.4770897680 3.4087325528 -3.1054050160
H -0.3102696218 1.7416292078 -3.6669417261
H -0.9782103236 2.1676839646 -0.8861002408
H 3.8850226384 1.3554379796 -0.5981695687
H 2.8816985970 2.1034420233 -2.7299068958
H 3.7025885911 0.6684860648 1.6689386396
H 2.1516673362 -0.0991203042 2.0928519728
H 2.4631829595 1.5595186735 2.5768635575
H -1.7276922308 2.4906873423 1.2859404911
H -1.7536841747 1.2432156046 2.5501011690
H -3.8567735240 1.9446564560 0.5789667197
H -5.3139824952 0.5972355797 -0.8829359243
H -4.4915084832 -1.5779698834 -1.7792464306
H -2.2309768319 -2.3682044867 -1.1688200054
H 0.4736148539 -0.9470960216 4.0583532247
H -0.0420637140 -2.6615678747 3.9181325695
H -1.1590946823 -1.4418239770 4.6076811214
H 1.8977147537 -2.1480342965 0.6056225929
H 3.1333096405 -1.2537517899 -1.6623748783
H 2.3296659535 -2.7153567772 -2.2628521999
H 3.5322627501 -2.8464594414 -0.9551426582
