38
CONF34
C -6.4218239300 0.3866179249 1.9131291529
C -5.1035033876 0.5920750722 1.1798078060
C -5.0268596946 -0.3678519824 -0.0075667181
O -4.5065543338 -1.4605432393 0.0175727609
O -5.6629836853 0.1546429123 -1.0646769347
C -5.7389187471 -0.7004425989 -2.2368438815
O -4.0628268176 0.3108442369 2.1125416950
C -2.7705330433 0.5769499791 1.7466908693
C -1.8020576489 0.2386229002 2.6977179172
C -0.4604422605 0.4721519925 2.4385948268
C -0.0969397250 1.0408782162 1.2255160718
C -1.0402800417 1.3861512229 0.2760330000
C -2.3910098445 1.1537332094 0.5327393389
O 1.2548628925 1.3500281236 0.9916092211
C 2.0370848748 0.4000420788 0.4369177793
C 3.3947941983 0.7204102596 0.2356049916
C 4.2220014568 -0.2215756657 -0.3328243756
C 3.6764145813 -1.4603210286 -0.6854218495
C 2.3303738116 -1.6919907528 -0.4512500147
N 1.5298162690 -0.7726863468 0.1012199678
C 4.5600606532 -2.4898802946 -1.3132060064
F 5.6285240829 -2.7860838657 -0.5275595438
F 5.0697442517 -2.0597724518 -2.4983471650
F 3.9109865829 -3.6478213502 -1.5564423454
Cl 4.0104311052 2.2824151315 0.7002242005
H -7.2573785823 0.5953977555 1.2411280797
H -6.4736291128 1.0688707612 2.7648784445
H -6.4973206266 -0.6436612886 2.2715586560
H -5.0305768705 1.6258775544 0.8193866396
H -6.2665284861 -1.6246193037 -1.9908897005
H -6.2916783460 -0.1247340149 -2.9774093110
H -4.7327473916 -0.9286998345 -2.5953124097
H -2.1170201650 -0.2052535011 3.6360590580
H -0.7279483611 1.8314618868 -0.6626019528
H -3.1173505632 1.4304511463 -0.2220580328
H 5.2711248244 -0.0010289629 -0.4989980533
H 1.8700471738 -2.6406929449 -0.7109552811
H 0.3003785894 0.2137162121 3.1675372641
