57
CONF37
C 3.6148130778 -0.3054106103 -2.9180784100
C 2.9747125600 -0.3947599535 -1.5369640405
C 1.7210420025 -1.3229612426 -1.4887082470
C 0.5982327839 -0.3964766327 -1.0229597985
C -0.7460346482 -0.9774610984 -0.5786152245
C -0.6937185398 -2.0196905781 0.5452988170
C -2.0930584703 -2.5074377678 0.9388805659
C -2.9958691660 -1.3515296852 1.2453596373
C -3.6624365563 -1.2511986168 2.4088085098
C -4.5849888404 -0.1523386149 2.7157923886
O -5.1987478058 -0.0966824540 3.7785730178
C -4.7379260251 0.8712793209 1.6722056256
C -4.0426362704 0.8178068480 0.5262967981
C -3.1307972525 -0.3143484892 0.1561485101
C -1.6987929599 0.1996133913 -0.2523363354
C -1.0486449607 1.1719665666 0.7679411206
C 0.3016214185 1.7098472323 0.2649369562
C 1.2816959223 0.5856995622 -0.0495888391
C 2.4990519963 0.9834220471 -0.9852787191
C 3.5477057612 1.8002151793 -0.2341462133
O 3.3835942849 3.0053708778 -0.1139498658
C 4.8117637000 1.1831128992 0.3225316188
O 5.5520594540 2.0977357860 1.0845953771
O 2.0540078629 1.7805216363 -2.0748496103
C 1.8241041764 -0.0121819129 1.2603073924
O -1.8305744205 2.3348177049 1.0112375145
F -1.8776424198 0.9334104658 -1.4440789107
C -3.8180211711 -0.9751872630 -1.0779998118
H 3.9992279646 -1.2862763965 -3.2147088045
H 2.8860121753 0.0234312868 -3.6619940457
H 4.4467691955 0.4061473787 -2.9351577524
H 3.7201310452 -0.7924728044 -0.8409222475
H 1.8830460385 -2.1562805355 -0.7967647407
H 1.5089119722 -1.7543077209 -2.4723183848
H 0.3521047357 0.2302935829 -1.8878866396
H -1.1727523373 -1.4738529678 -1.4608500333
H -0.0879553466 -2.8706229323 0.2165612308
H -0.2093749057 -1.6175658399 1.4359473713
H -2.0378114093 -3.1743028182 1.8040145058
H -2.5199217100 -3.0915083351 0.1125143334
H -3.5663086489 -2.0154416367 3.1759758790
H -5.4344973044 1.6781045158 1.8819614822
H -4.1609561916 1.5890175571 -0.2309913042
H -0.9132330912 0.6064170550 1.7031031562
H 0.0942648554 2.2976357623 -0.6341860485
H 0.6908312402 2.3905873604 1.0294770202
H 5.3878560744 0.8268116025 -0.5532788021
H 4.5811773649 0.2927865193 0.9227218574
H 5.1405976252 2.9647680046 0.9323723857
H 2.0627807662 2.6979571035 -1.7628166511
H 2.4053323862 -0.9259236453 1.1073003826
H 2.4612239961 0.7190496371 1.7690004809
H 1.0256797267 -0.2452101270 1.9648420288
H -2.5637904527 2.1028813980 1.5938553123
H -4.7891355158 -1.3702605469 -0.7683793211
H -3.9693467341 -0.2340117894 -1.8641837874
H -3.2253796863 -1.7943197596 -1.4865690791
