44
CONF106
C 3.8604317863 2.5923496940 2.6337125354
C 3.2006139229 1.5589521251 1.7856752212
N 2.4079844443 0.6653327567 2.3820572616
C 1.8524854512 -0.2310558874 1.5468921306
N 2.0541500502 -0.3001502077 0.2330706226
C 2.8537532384 0.6611994634 -0.2517612343
N 3.4497420443 1.6102192415 0.4631945279
O 3.0233637637 0.5954878738 -1.5650766076
C 3.8290578121 1.6265548246 -2.1907276632
N 0.9986553019 -1.1333912207 2.1474805902
C 0.1187199988 -2.0688006857 1.5900291549
O -0.7117827140 -2.6251764223 2.2885770353
N 0.2807466630 -2.2955646267 0.2401857979
S -0.9157811985 -3.0721932977 -0.6970676104
O -0.4668760535 -2.8275236691 -2.0756598708
O -1.0695005925 -4.4496481200 -0.2252464688
C -2.4387500488 -2.1720015342 -0.3689254014
C -3.5072262210 -2.9477004383 0.0733593761
C -4.7441898870 -2.3522825461 0.2860202514
C -4.8901628254 -0.9897412038 0.0593686457
C -3.8088743942 -0.2251938357 -0.3702199438
C -2.5496222956 -0.7859742166 -0.5980603922
C -1.3718642010 0.0669022495 -1.0092946519
C -1.7362464151 1.4529916709 -1.5388760336
C -0.5115889805 2.2053218676 -1.9861709715
F 0.3883045594 2.3764042655 -0.9787739650
F 0.1501009565 1.5781781373 -2.9919499300
F -0.8268814055 3.4447688113 -2.4389528916
H 3.6302461191 2.4397201335 3.6874958839
H 4.9430399451 2.5589331130 2.4772717020
H 3.5231403673 3.5865504523 2.3222215156
H 3.3865493396 2.6087719619 -2.0115079209
H 4.8495579002 1.5967854139 -1.8035543865
H 3.8112670630 1.3835602573 -3.2521034188
H 0.8772924670 -1.0096860918 3.1450829968
H 0.9427295413 -1.6834354908 -0.2633236744
H -3.3676613300 -4.0081012632 0.2452796735
H -5.5808332908 -2.9524797404 0.6263745842
H -5.8502166724 -0.5099789787 0.2197666282
H -3.9575795280 0.8359579525 -0.5301410491
H -0.7845575993 -0.4603221850 -1.7659450921
H -0.7195191900 0.1940990585 -0.1368779589
H -2.4088323126 1.3895128202 -2.4003951442
H -2.2133866013 2.0718475277 -0.7735600570
