29
CONF2
C 5.1758855983 -0.5141978791 -0.3649048631
N 4.2417224559 0.6051918633 -0.3399294944
C 2.9141348665 0.4860829769 -0.1812589025
C 2.3060397359 -0.8061186771 -0.0237243115
N 1.0274185312 -0.9950217795 0.1209479901
N 0.2137559333 0.0654725138 0.1211689347
C 0.6304470588 1.4237520408 0.0274049925
O -0.1923973770 2.3405714805 0.1096472486
C 2.0372543505 1.5640135651 -0.1496374542
Cl 2.6506687535 3.1885606659 -0.2920424432
C -1.1717154738 -0.2396046859 0.3201763977
C -1.5368760801 -1.0738624902 1.3717227491
C -2.8772770463 -1.4013335732 1.5531688395
C -3.8457219410 -0.8901250593 0.6988045188
C -3.4601608016 -0.0509211354 -0.3480362787
C -2.1249134190 0.2761748476 -0.5530981151
C -4.5135050702 0.4565410211 -1.2872923176
F -4.9426928766 -0.5174129718 -2.1376345614
F -5.6149230166 0.8914521678 -0.6238252074
F -4.0828838174 1.4813336387 -2.0557122805
H 6.1773051071 -0.1101637070 -0.5148032861
H 5.1628047065 -1.0689592721 0.5801442687
H 4.9522277575 -1.2034892466 -1.1868509693
H 4.6205587175 1.5339200567 -0.4443249000
H 2.9109327050 -1.7061689009 -0.0255136606
H -0.7763717333 -1.4587200616 2.0419380626
H -3.1660875465 -2.0503306071 2.3726530294
H -4.8916485217 -1.1383135696 0.8446086911
H -1.8239813498 0.9116769792 -1.3754967684
