61
CONF3
C -0.3067458841 -1.7306638897 -2.6454400983
C -1.6218309088 -1.0038495327 -2.3379390526
C -2.0111102453 -1.1144145871 -0.8850183210
C -2.7863159494 -2.2013094552 -0.4795984197
C -3.1553818275 -2.3918526749 0.8489067774
C -2.7420714208 -1.4447565196 1.7842822790
C -1.9708454583 -0.3408624743 1.4247997254
C -1.5784479594 -0.1853939571 0.0791035021
C -0.7153655848 0.9414858762 -0.3101766430
C -1.0792661279 2.0756024440 -1.1577506283
O -2.1091597330 2.3306677068 -1.7745140029
N 0.0286961246 2.9289987052 -1.1074198039
N 1.0425337920 2.3999321494 -0.3054076643
C 0.5583906939 1.1800428082 0.1017994965
O 1.2980918136 0.4159903086 0.9662135544
C 2.0927906904 -0.5867259436 0.4147155402
O 2.4138888237 -0.5775783483 -0.7430263965
C 2.4233162408 -1.6438641990 1.4483741106
C 2.8273954277 -1.0033215130 2.7844568544
C 3.5538822104 -2.5219729514 0.9067505241
C 1.1381335543 -2.4804501885 1.6306154109
C 2.4313116739 2.5955726069 -0.7381666044
C 2.6644938381 2.3306117795 -2.2282102439
O 2.3916841598 3.4703958421 -3.0371471804
C 1.0064936810 3.7161462552 -3.2482425987
C 0.2355208879 4.0665575091 -1.9758491049
C -1.6564023642 0.7011415978 2.4701962554
C -2.5685780335 1.9283273385 2.3366231205
C -4.0173123796 -3.5556317069 1.2548205923
H -0.0673632744 -1.6663649612 -3.7119268806
H 0.5230931107 -1.2917506965 -2.0857824555
H -0.3756187327 -2.7899498188 -2.3753372829
H -1.5488073532 0.0469859494 -2.6283675412
H -2.4257029123 -1.4376204491 -2.9433232703
H -3.1102811386 -2.9188248159 -1.2308157260
H -3.0394040282 -1.5598386758 2.8245963225
H 2.0139231718 -0.4105813636 3.2076874829
H 3.7046492732 -0.3589955572 2.6660995344
H 3.0837912376 -1.7953402916 3.4948216132
H 3.7717720412 -3.3150712926 1.6278803797
H 4.4655580737 -1.9386372397 0.7476617836
H 3.2746820383 -2.9793539072 -0.0449803418
H 0.3195204279 -1.8751812457 2.0281315700
H 1.3441658053 -3.2978085272 2.3291257670
H 0.8103095688 -2.9125646301 0.6796229063
H 3.0380005766 1.9213480305 -0.1293272704
H 2.7382302031 3.6215453237 -0.5047203120
H 3.7254924151 2.1091118083 -2.3802228692
H 2.0795689372 1.4561550611 -2.5524752412
H 0.9612099180 4.5635732008 -3.9402118930
H 0.5278528360 2.8455478883 -3.7258741983
H 0.7287800566 4.8793055110 -1.4297272011
H -0.7731324673 4.3951616721 -2.2511100036
H -0.6108548007 1.0161432762 2.4081019371
H -1.7900414878 0.2552615606 3.4622836158
H -2.4571762119 2.3937912814 1.3525842148
H -2.3318792759 2.6757439802 3.1006094348
H -3.6179806325 1.6393171939 2.4482658947
H -5.0799839768 -3.2960933712 1.1791532194
H -3.8453124926 -4.4219698911 0.6100880650
H -3.8248513348 -3.8518697986 2.2897371513
