51
CONF1
C 5.7930929359 0.3235451351 1.9423787591
C 5.1614787716 -1.0403413882 2.0155936651
C 5.7936412832 -2.1440066557 2.4890324062
C 7.1714712120 -2.2459844757 3.0469127442
O 7.1442008514 -2.7091122635 4.4191448004
C 3.7987273226 -1.1825879948 1.5439149880
C 3.0296058647 -0.1918988845 1.0164251572
C 1.6898171776 -0.4099304633 0.5684228274
C 0.8315042286 0.5076562109 0.0226451440
C 1.1908669770 1.9509217271 -0.1898504436
C -0.4844720523 0.0604571988 -0.3707026574
C -1.4512442639 0.8414941858 -0.9120002306
C -2.7889674717 0.4070798515 -1.3080050079
C -3.0261376562 -0.7753286424 -1.9328781180
C -1.9559922565 -1.6997949903 -2.4449536714
C -4.4166611578 -1.2780073764 -2.2220648663
C -5.5024409085 -0.5273400310 -1.4662775497
C -5.2487220508 0.9653352593 -1.6077743549
C -3.9177517021 1.3983094991 -0.9680913456
C -3.5918017432 2.8057641723 -1.5060951841
C -4.0705357297 1.4878914000 0.5618637065
H 5.1712169078 1.0594627561 2.4634749736
H 6.7892219920 0.3469618238 2.3826206541
H 5.8742940395 0.6541463454 0.9006737681
H 5.2337119603 -3.0796869174 2.4995697355
H 7.7425452489 -3.0098109886 2.5060699967
H 7.7247425189 -1.3030500735 2.9750800735
H 6.5944628641 -2.0860099699 4.9120180199
H 3.3679589523 -2.1812655223 1.6216047985
H 3.4489044434 0.8060128687 0.9269875038
H 1.3168220324 -1.4293807354 0.6749485188
H 2.1991573912 2.1859493210 0.1491239482
H 1.1172381734 2.2147455395 -1.2511505262
H 0.4927710245 2.6033829157 0.3476482228
H -0.6988149022 -0.9915197326 -0.1908335152
H -1.2419333148 1.9038784519 -1.0082970689
H -2.2610195545 -2.0971678901 -3.4211491602
H -1.8285304759 -2.5673795096 -1.7841677642
H -0.9856514935 -1.2106602980 -2.5470805228
H -4.5973395674 -1.2119510637 -3.3070153961
H -4.4472744183 -2.3519162151 -1.9892323024
H -6.4914829700 -0.7924255635 -1.8558225730
H -5.4865110025 -0.8160577576 -0.4081144565
H -6.0590612820 1.5538240197 -1.1602125766
H -5.2243456020 1.2149180904 -2.6781531657
H -4.4756062039 3.4438058609 -1.3937508234
H -2.7731616710 3.2845395418 -0.9616201690
H -3.3306427455 2.7685722077 -2.5693734494
H -4.3620823873 0.5244798653 0.9921427577
H -3.1256006928 1.7892488257 1.0262909934
H -4.8336708651 2.2302313189 0.8231860580
