34
CONF6
C 5.0308293528 1.8425107097 -0.4671490851
C 3.8080421528 1.0388300156 -0.1265736469
C 2.7993840473 1.5728325062 0.6791040662
C 1.6532791591 0.8483291232 0.9719719361
C 1.4845338096 -0.4408511216 0.4549968285
C 2.4941209445 -0.9877329109 -0.3435967426
C 3.6368631680 -0.2545767757 -0.6267669911
C 0.3046576136 -1.2388370044 0.7738813319
C 0.1972398553 -2.5122543149 1.3173884612
N -1.0806226052 -2.8875923966 1.5218647254
C -1.8099128040 -1.8625151336 1.1023965465
N -1.0135469419 -0.8273866463 0.6391075439
S -1.5286371134 0.6764194465 -0.2207877858
O -0.6822316330 0.6745599745 -1.4039092381
O -1.5060113184 1.7255025627 0.7874105255
N -3.0742020338 0.3283825007 -0.6034471898
C -4.1951756680 1.0480741685 0.0102867941
C -3.3549122938 -0.4566627978 -1.8095906673
C -3.2181951406 -1.8535043613 1.1583617631
N -4.3737979897 -1.9150818615 1.2383956424
Cl 1.5131370482 -3.5338558725 1.7610923143
H 5.8978827691 1.1975628385 -0.6321924492
H 4.8691237881 2.4187308750 -1.3859165879
H 5.2737891484 2.5530628821 0.3272129250
H 2.9166736982 2.5706696319 1.0920366728
H 0.8922870656 1.2778314881 1.6139544719
H 2.3743332923 -1.9869257629 -0.7482421757
H 4.4095295748 -0.6925124781 -1.2522718325
H -4.5667707194 1.8215136143 -0.6725956583
H -4.9858650823 0.3241357337 0.2279860552
H -3.8777777686 1.5136655417 0.9426375657
H -2.4796228380 -1.0422508756 -2.0958817037
H -4.1807612535 -1.1390216929 -1.5861219096
H -3.6276636864 0.1989477005 -2.6450423052
