48
CONF47
C -3.9387898139 0.4083042095 -2.1026663899
C -4.3161946613 0.2805577251 -0.6200561281
C -4.6947388670 -1.1722675767 -0.3011664004
C -5.5379419033 1.1734704130 -0.3452209824
C -3.1665520011 0.8254927326 0.2766633431
C -1.7583770783 0.2919829999 -0.0439556806
N -1.5917042473 -1.1331896594 0.2192450173
C -1.1585723960 -2.1070381519 -0.6109118690
N -1.1699466762 -3.2767047940 0.0111111239
C -1.6254952770 -2.9548941703 1.2547728907
N -1.8910264384 -1.6684125068 1.4318685833
O -0.8587723849 1.0396153096 0.7647012445
C 0.4977812241 0.8809920328 0.5689669821
C 1.2986839250 1.1725250556 1.6730348689
C 2.6788012811 1.0967399990 1.5659927708
C 3.2944701371 0.7157973037 0.3643878714
C 2.4695134143 0.4244954374 -0.7279336830
C 1.0833745562 0.5055586727 -0.6389837710
C 4.7645854100 0.6269554756 0.2538207980
C 5.5920635138 1.5483256599 0.9120996459
C 6.9764836737 1.4656236370 0.8053284419
C 7.5637940380 0.4621117081 0.0373636527
C 6.7528583101 -0.4595731168 -0.6218818144
C 5.3684219661 -0.3792996701 -0.5142268626
O -3.4628854329 0.7282284945 1.6641739493
H -4.8224690795 0.2262153402 -2.7227442015
H -3.1768566434 -0.3204173189 -2.3990952958
H -3.5678151414 1.4141879107 -2.3332126191
H -3.9123385521 -1.8822181535 -0.5838997150
H -4.9185575114 -1.3017406061 0.7623743366
H -5.5950935438 -1.4382302660 -0.8649418158
H -6.3856740804 0.8397256946 -0.9519984787
H -5.8278572124 1.1268396542 0.7079652276
H -5.3240507517 2.2176402867 -0.6000170149
H -3.0890158491 1.9002700994 0.0623201256
H -1.5539910609 0.4332343008 -1.1090882644
H -0.8631165651 -1.9170513114 -1.6346722970
H -1.7612947918 -3.6786343275 2.0483229475
H 0.8247476914 1.4495976166 2.6090104356
H 3.2869511193 1.3064896276 2.4403354686
H 2.9146658654 0.1547161357 -1.6805357502
H 0.4890353602 0.2996996849 -1.5210603209
H 5.1463737758 2.3501943465 1.4929520197
H 7.5987178216 2.1940849372 1.3163457579
H 8.6441078545 0.3986271721 -0.0463200835
H 7.2002600513 -1.2512533449 -1.2151961384
H 4.7481188281 -1.1187031187 -1.0117070215
H -3.2246798667 -0.1665742867 1.9583347036
