71
CONF198
C 6.3799570720 -1.6828794996 2.1923278781
C 5.6491893552 -2.2407559712 1.0052946010
C 4.4733243737 -1.6532564398 0.5087181414
C 3.7440873495 -2.2382892475 -0.5428841322
C 4.2342447836 -3.4092722780 -1.1204346596
C 5.4188232388 -3.9845649458 -0.6703634890
C 6.1116770650 -3.4059919157 0.3855943666
C 2.4671727898 -1.6172525833 -1.0361097622
N 3.9607442881 -0.4708566265 1.0993124430
C 4.6069286696 0.7210091180 1.1880478754
O 5.7498831557 0.9328691290 0.7866619689
C 3.7971424759 1.8043759982 1.9012279338
N 2.3591992253 1.6076639302 1.7725083047
C 1.5886165734 2.2515380823 2.8424376635
C 0.1132105758 1.9103272851 2.6796224468
N -0.3674460116 2.3620367132 1.3727268050
C 0.4094357887 1.7364149330 0.3012327596
C 1.8802896485 2.0796666067 0.4665600003
C -1.8151454782 2.1914478557 1.1961423941
C -2.3589580458 0.7641305904 1.3824397853
C -3.7505121567 0.5526316629 0.7789954141
C -3.8317652275 0.7802542978 -0.7483355512
C -2.7610494228 0.0433605931 -1.5334795955
C -2.3719618002 -1.2663878253 -1.2330764732
C -1.3908407985 -1.9177832625 -1.9759783732
C -0.8008610745 -1.2349245180 -3.0255954991
C -1.1456430907 0.0630675246 -3.3566892654
C -2.1300702320 0.6921334588 -2.5988124641
F 0.1593868727 -1.8633130927 -3.7558643119
C -5.2323715778 0.4736285802 -1.2554658389
C -6.0790471198 1.5178434413 -1.6360202818
C -7.3786634246 1.2755723975 -2.0772566698
C -7.8144760787 -0.0356419305 -2.1296656448
C -7.0123328646 -1.1031552528 -1.7622215692
C -5.7187841851 -0.8358504946 -1.3247337423
F -9.0794423757 -0.2885482695 -2.5608806217
H 6.9859575890 -2.4611017809 2.6624598386
H 7.0381949704 -0.8586773731 1.8997244222
H 5.6819122625 -1.2836687754 2.9348892600
H 3.6812665297 -3.8658847107 -1.9364085981
H 5.7924861539 -4.8923847550 -1.1339438696
H 7.0200739306 -3.8713247926 0.7580878963
H 2.0569032693 -2.1971079955 -1.8648430841
H 2.6301803886 -0.5898605404 -1.3801772576
H 1.7052482997 -1.5720535479 -0.2481690262
H 2.9745087722 -0.4193905487 1.3430858342
H 4.0774510459 1.7512523532 2.9620745401
H 4.1438544180 2.7800265850 1.5211050109
H 1.9458270716 1.8784357963 3.8089044912
H 1.7182829306 3.3503610237 2.8264878999
H -0.4673854564 2.4123265948 3.4635400931
H -0.0078689815 0.8185999841 2.8145332656
H 0.3087813532 0.6329791180 0.2862633472
H 0.0504784340 2.1145122388 -0.6636146495
H 2.0218809620 3.1728039603 0.3691537113
H 2.4631023705 1.5933888922 -0.3246021006
H -2.0452835540 2.5482037152 0.1850686134
H -2.3277565389 2.8669108843 1.8954269513
H -1.6647345348 0.0472426083 0.9314775657
H -2.4050371279 0.5232359913 2.4506610375
H -4.0920630847 -0.4641178160 1.0095625769
H -4.4743904980 1.2303488747 1.2503922365
H -3.6733215340 1.8465540084 -0.9379162823
H -2.8210657178 -1.7924385397 -0.3966333844
H -1.0820953529 -2.9312155899 -1.7429976420
H -0.6537501313 0.5664836547 -4.1819500704
H -2.4101856078 1.7138885391 -2.8408357688
H -5.7203053254 2.5422692161 -1.5887633018
H -8.0377710937 2.0836009724 -2.3758468900
H -7.3937861853 -2.1169030555 -1.8204619732
H -5.0835325436 -1.6685430494 -1.0402590313
