48
CONF23
Cl -5.6417371429 3.1243754868 0.9000876037
C -4.6471260628 1.6726511992 1.0250543593
C -4.9736616980 0.7189635845 1.9832089603
C -4.1758208363 -0.4174294515 2.0426412091
C -3.0905658058 -0.5943992383 1.1903280847
C -2.7741403285 0.3765039705 0.2225802188
C -3.5835793141 1.5281065307 0.1530406997
N -1.7208676331 0.2165507816 -0.6877001273
C -0.8238898430 1.3738882366 -0.8489914268
C 0.1278037647 1.1776912607 -2.0155686265
N 0.9084458037 -0.0445601598 -1.8369077045
C 1.9085177008 -0.1942425000 -2.9002246466
C 3.0189419262 -1.1910654647 -2.5656887308
C 3.9693349765 -0.7300986820 -1.4579400225
N 3.3205881622 -0.6082447090 -0.1651455943
N 2.8346590890 -1.7341568873 0.4636583186
C 2.0896170101 -1.2602157129 1.4395759768
C 1.3274054619 -1.9303867132 2.4270234231
C 0.5882910931 -1.1821291738 3.2994659723
C 0.5841246677 0.2464195297 3.2395890267
C 1.3346687302 0.8890428029 2.3076472027
N 2.0780776101 0.1350749223 1.4389046792
C 2.8541481191 0.5746269217 0.3484582035
O 3.0511168196 1.7314601937 -0.0026577717
C -0.0130918809 -1.1764881439 -1.7814877298
C -0.9704632262 -1.0364555355 -0.6080496241
H -5.8138141941 0.8619318391 2.6512436017
H -4.3962488422 -1.1807282629 2.7826611711
H -2.4860956592 -1.4851228923 1.2987183038
H -3.4057079441 2.2880794379 -0.5967049017
H -1.4090365721 2.2778184067 -1.0248762987
H -0.2358753383 1.5240127159 0.0735528293
H -0.4476839376 1.1598004944 -2.9639968852
H 0.8113757589 2.0337544331 -2.0462989681
H 1.4298471639 -0.4891442678 -3.8555577436
H 2.3647448656 0.7905072981 -3.0648245261
H 3.6240747551 -1.3385056075 -3.4681264452
H 2.6070961429 -2.1719458220 -2.3056663117
H 4.3811811321 0.2576883437 -1.6884221217
H 4.7997033702 -1.4368414460 -1.3546979737
H 1.3385383902 -3.0135886793 2.4517387213
H -0.0139253646 -1.6767428345 4.0538554220
H -0.0129830305 0.8236530643 3.9338786364
H 1.4051787993 1.9635428052 2.1839048583
H 0.5494494269 -2.1058664144 -1.6448562281
H -0.5951484441 -1.2648603299 -2.7222138309
H -0.4000235848 -1.1048618121 0.3353527814
H -1.6754434854 -1.8736238339 -0.6395655267
