43
CONF152
C 4.2204840680 -2.4567949846 -0.6202482510
O 4.4780062693 -1.4022057095 0.3167051316
C 3.6715537633 -0.3054445019 0.2648253191
C 2.6257564005 -0.1545157228 -0.6432145528
C 1.9033077772 1.0336182256 -0.5387224201
C 2.1880698292 2.0413302109 0.4109597393
C 3.2491418217 1.8629612757 1.3056994027
C 3.9770687808 0.6922318609 1.2227445873
N 1.2984510218 3.0977453402 0.2731626000
C 0.5056818141 2.7211915341 -0.7029312530
N 0.8213714201 1.5053933493 -1.2466731579
S -0.8775066018 3.6986317334 -1.3134030003
O -1.0326057298 3.3012942809 -2.7779749551
C -2.2637666205 2.8346753120 -0.3370609080
C -2.3430724843 1.3677262725 -0.5857136480
N -2.9550776478 1.0157059475 -1.7290492542
C -3.0079420330 -0.2799289496 -2.0468190861
C -2.4887932523 -1.3027900065 -1.2571171729
C -2.5599815605 -2.7401941791 -1.6718427948
C -1.8944721125 -0.9168522658 -0.0513051346
O -1.3542404600 -1.8954788920 0.7496170339
C -2.2054440978 -2.2774145456 1.8530931854
C -1.7917092797 0.4313998520 0.3103830929
C -1.1275418140 0.8261112459 1.5982828734
H 3.2119455951 -2.8641545274 -0.4826793805
H 4.3396780803 -2.1025580253 -1.6509450593
H 4.9611810220 -3.2280493753 -0.4084137256
H 2.3725947811 -0.9020474865 -1.3835636094
H 3.4902613839 2.6197196435 2.0449180108
H 4.8059048715 0.5074538971 1.8980521733
H 0.3421023510 1.0540210984 -2.0133331813
H -2.0829445519 3.1147231468 0.7032867086
H -3.1531391788 3.3503932987 -0.7103097826
H -3.5031514669 -0.5299600376 -2.9850035051
H -3.0889920861 -3.3439681453 -0.9277431689
H -1.5559451512 -3.1650550606 -1.7726360694
H -3.0775735171 -2.8362458606 -2.6289261571
H -1.6643126931 -3.0479935711 2.4040561649
H -2.4038464384 -1.4232134710 2.5094553492
H -3.1536727470 -2.6820084723 1.4808649452
H -0.5024709487 1.7119519657 1.4791122369
H -1.8747103281 1.0548667841 2.3678012155
H -0.4996495567 0.0137281241 1.9683367607
