33
CONF13
C -3.7607536212 -1.0845307425 -1.1371975657
C -2.9324462011 -0.2460118231 -2.1152602422
C -3.4367897184 1.1774786751 -2.2799932047
O -3.9025996678 1.7038413274 -1.1311923394
O -3.3942226893 1.7981379130 -3.3229234818
C -1.4600018586 -0.1711170322 -1.7349917985
C -0.4777115617 -0.5193990228 -2.6675165585
C 0.8728534086 -0.4529351953 -2.3362165245
C 1.2616159161 -0.0512123938 -1.0639114353
C 0.2892408729 0.3092731515 -0.1233346387
C -1.0644353312 0.2589457240 -0.4706932186
C 0.6549108040 0.8280684578 1.2252205125
O -0.0556016663 1.6646028391 1.7795512786
C 1.8871189435 0.3270947315 1.8932353657
C 2.3376799263 -0.9875743108 1.7192115238
C 3.4495926987 -1.4422959744 2.4206088887
C 4.1328389140 -0.5833877452 3.2786141323
C 3.6915545937 0.7291276803 3.4523171233
C 2.5662887624 1.1782028793 2.7747108328
H -3.7065221402 -0.6911354315 -0.1202390092
H -3.3814317830 -2.1098863550 -1.1338066049
H -4.8104426017 -1.1023676106 -1.4439203393
H -2.9927103579 -0.6862854185 -3.1142290007
H -4.1587540963 2.6272075867 -1.2999657429
H -0.7745858882 -0.8465603476 -3.6598224342
H 1.6234936166 -0.7176302543 -3.0738761119
H 2.3145818237 0.0099586060 -0.8109662587
H -1.8011860927 0.5541129851 0.2689819451
H 1.8024029500 -1.6621085030 1.0591657321
H 3.7836464284 -2.4673644022 2.2962465830
H 5.0079041652 -0.9364904576 3.8153168622
H 4.2261345260 1.3985119618 4.1188129137
H 2.2083371318 2.1937286234 2.9087843301
