51
CONF15
C 5.5742133278 1.4383257915 2.1060465498
C 5.5526998620 0.6463156570 0.8277813813
C 6.6842427201 0.2208686284 0.2110579463
C 8.0806230826 0.4335174014 0.7067829832
O 8.4130175883 -0.4227991951 1.8302141568
C 4.2718221630 0.3147771322 0.2430132871
C 3.0549445804 0.6484091784 0.7524460201
C 1.8250713061 0.2841991427 0.1228239250
C 0.5536575937 0.5592975415 0.5511663464
C 0.2525514877 1.3256542908 1.8075296727
C -0.5529948794 0.0827727614 -0.2465639742
C -1.8639799817 0.2405873893 0.0546756677
C -3.0051457008 -0.2575985785 -0.7106910122
C -3.0995547806 -0.1660357235 -2.0614003102
C -2.0613318603 0.4777671945 -2.9396895466
C -4.2801332242 -0.7046721245 -2.8322042125
C -5.5070764240 -0.9897507572 -1.9749412985
C -5.0819331987 -1.7058530400 -0.7030505593
C -4.1235365064 -0.8647623534 0.1568678190
C -4.9006530069 0.2596257514 0.8685413288
C -3.5215689329 -1.7977093688 1.2236325922
H 5.0838407225 0.8775115495 2.9099486681
H 6.5894574965 1.6667202620 2.4297599418
H 5.0238103652 2.3782887744 1.9891431855
H 6.5755401663 -0.3644312542 -0.7012310853
H 8.7937215079 0.2654851750 -0.1108094165
H 8.2312788442 1.4530708395 1.0743294573
H 8.1945355662 -1.3265898416 1.5686607041
H 4.3027709933 -0.2559721354 -0.6856255182
H 3.0138501231 1.2131081785 1.6795311608
H 1.9192422257 -0.2807958520 -0.8053969895
H -0.3336250493 2.2235333055 1.5805063252
H -0.3499398315 0.7182624663 2.4930916137
H 1.1534208830 1.6347316312 2.3364894081
H -0.2835739804 -0.4716179540 -1.1436380200
H -2.1089939825 0.7208728906 1.0006577995
H -1.3857848524 1.1314499671 -2.3854428559
H -2.5512311811 1.0609269368 -3.7277385033
H -1.4485416429 -0.2794200106 -3.4475200129
H -4.5294803395 0.0001443602 -3.6354333028
H -3.9589785635 -1.6272998197 -3.3428947322
H -6.0110107488 -0.0475728472 -1.7289060356
H -6.2269869055 -1.5956878027 -2.5363379690
H -4.5762125428 -2.6423576449 -0.9779834678
H -5.9522486254 -1.9798010810 -0.0932969465
H -5.3910421049 0.9229980077 0.1504601559
H -5.6676383873 -0.1725238471 1.5219596545
H -4.2390976503 0.8704753561 1.4905554285
H -2.9055960070 -1.2534219119 1.9457372959
H -4.3282911470 -2.2952677665 1.7741409920
H -2.8981325521 -2.5677576509 0.7563515863
