70
CONF109
C -2.7317183032 -0.3501360399 -0.4043502567
C -4.1529869491 0.2281316796 -0.5992561007
C -5.1219722977 -0.8904495325 -0.8023967094
C -6.3329289809 -1.0178044761 -1.4381339444
N -6.7775212737 -2.3311288926 -1.3148933879
C -5.8519330576 -3.0663073463 -0.6096619264
C -5.7773320274 -4.4053748299 -0.2181318834
C -4.6385683118 -4.7855349812 0.4877950679
C -3.5962080373 -3.8853172733 0.8066874887
C -3.6737407162 -2.5500051222 0.4262358666
C -4.8126264262 -2.1724085582 -0.2822316789
C -2.6789022739 -1.4419858320 0.7076074829
C -1.2559063540 -1.9729232321 0.8817198077
C -0.2871229069 -0.8304021810 1.1539922272
C -0.4056910123 0.2050961905 0.0302635153
N -1.7761717117 0.7175077526 -0.0491446404
C -1.8136919072 1.9107562958 -0.9222530170
C -1.4759305970 1.6610257358 -2.3675149620
C -0.4331321411 2.2053828327 -2.9918455191
C 1.1479224807 -1.3337844074 1.2413875285
O 1.4345707193 -2.5044373588 1.0010242754
N 2.1549284311 -0.4145064460 1.4872528529
C 3.5473984316 -0.8732330265 1.2788436377
C 3.9054342323 -1.1327377616 -0.1876171734
C 3.6014228103 0.0180371196 -1.1409059918
N 4.2023543514 1.3009323248 -0.7442833539
C 3.7268078045 2.3707079360 -1.6272389477
C 5.6667327905 1.2543772162 -0.7390905185
C 1.9061554916 0.8666767924 2.0999981259
O 1.0591156356 0.9951395940 2.9847968339
N 2.6850204894 1.8513751128 1.6244130219
C 2.7255907767 3.1806784370 2.2210498277
C 4.1070657150 3.4918368668 2.7900360598
H -2.4370757578 -0.8488818567 -1.3509897996
H -4.4094072837 0.8196452843 0.2921002152
H -4.1767159329 0.9087632162 -1.4551775010
H -6.9293515073 -0.2929577343 -1.9750485075
H -7.6377659001 -2.6832575829 -1.7013031166
H -6.5591973768 -5.1212935204 -0.4507825062
H -4.5441456932 -5.8197931883 0.8054334510
H -2.7384389329 -4.2605924254 1.3553485998
H -2.9810149874 -0.9435536215 1.6434446837
H -1.2189563533 -2.6945485996 1.7031731064
H -0.9573341444 -2.5068982630 -0.0291067468
H -0.5510671968 -0.3413434705 2.0952933745
H 0.2600655647 1.0570408920 0.2081557922
H -0.0809838552 -0.2659774267 -0.9191853488
H -2.8061628446 2.3681279932 -0.8459169417
H -1.1020406740 2.6351724532 -0.5074350856
H -2.1339356912 0.9873052013 -2.9168120404
H 0.2418475332 2.8813174266 -2.4700031559
H -0.2230141112 2.0039234828 -4.0384732100
H 3.6882162289 -1.7979862112 1.8479110017
H 4.2063875526 -0.1178906229 1.7118157734
H 4.9675515978 -1.4005366285 -0.2221849514
H 3.3550805514 -2.0075984022 -0.5456111474
H 2.5142998288 0.1711771534 -1.1795784068
H 3.9216391144 -0.2667632917 -2.1608725424
H 2.6339894233 2.4289920115 -1.5749946097
H 4.0159319975 2.2029895047 -2.6800385509
H 4.1431126339 3.3297495838 -1.3019159323
H 6.0756462936 0.9726170549 -1.7262306678
H 6.0577657035 2.2409810235 -0.4723353011
H 6.0264761609 0.5362520481 0.0026530021
H 3.3169290540 1.6633213247 0.8190098909
H 2.4592811650 3.9199858435 1.4544852703
H 1.9625749515 3.2250273414 3.0019273151
H 4.3642644243 2.7855111590 3.5853099830
H 4.1259691510 4.5047171900 3.2038801510
H 4.8731429452 3.4280707724 2.0099015388
