45
CONF232
N 4.4506744005 -1.2187259717 -1.3941185168
C 3.3743882735 -1.0778979292 -0.4019195041
C 3.3972553679 0.3264067240 0.2066121868
C 2.4203128838 0.4759421983 1.3773475750
C 2.0707213578 1.9261950026 1.7237111027
C 1.3348496250 2.6774189203 0.5960813919
N 0.2242663193 1.9456774557 -0.0284692122
C -0.8394936252 1.5624944583 0.9030913611
C -1.8765131288 0.7571308554 0.1375537930
O -2.2622260836 1.4318444381 -1.0466145533
O -1.2922490251 -0.5195852412 -0.1550057106
C -2.3191878211 -1.5382880124 -0.2090139236
C -2.3021769331 -2.2274228717 -1.5495429111
O -1.0789300060 -2.9838389151 -1.6542850350
C -3.6441136222 -0.8239657059 0.0990513367
O -4.6023594138 -1.6339938157 0.7590291410
C -3.1662898869 0.4057698843 0.8856707770
O -4.0969960462 1.4626355152 0.9811905898
C 2.0050658956 -1.3105560013 -1.0441390604
O 1.3470886668 -2.3589621446 -0.5400894924
O 1.5702487351 -0.6153025633 -1.9484821090
H 4.2757612804 -0.5707049724 -2.1585104382
H 4.4194430171 -2.1483140760 -1.8033308771
H 3.5249833340 -1.8274194598 0.3834362570
H 3.1600502087 1.0375109083 -0.5947555346
H 4.4196361184 0.5427277457 0.5358130064
H 2.8443186397 -0.0150877983 2.2611666668
H 1.4924446970 -0.0706886104 1.1578461089
H 1.4578329364 1.9336551398 2.6329253914
H 2.9848045819 2.4850351675 1.9640108784
H 0.9453267872 3.6246416927 0.9906974045
H 2.0397114668 2.9364377389 -0.2021738761
H 0.5938910521 1.1039399892 -0.4661779137
H -1.3116390785 2.4724735132 1.2963630886
H -0.5062502152 0.9545476929 1.7585446916
H -1.4912330883 1.9681634257 -1.3073749419
H -2.1086186147 -2.2738885463 0.5824573735
H -3.1663677641 -2.9031520050 -1.6165418773
H -2.3624909830 -1.4770050047 -2.3478569001
H -0.9882818802 -3.2941976613 -2.5641506005
H -4.1262111934 -0.4871769697 -0.8269123579
H -4.2246179319 -1.9220677130 1.6014438225
H -2.9145805671 0.1010797175 1.9102959038
H -4.1364931604 1.8758640361 0.1056667586
H 0.4642437357 -2.4494750145 -0.9905412667
