47
CONF220
C -6.3211413121 -1.9697889814 2.8011190638
O -6.6947160610 -1.0543475201 1.7316212812
P -5.5919858786 -0.5290249113 0.7026679223
S -4.3500157480 -1.8336505400 -0.0262594411
O -6.4861875773 0.2998469987 -0.3287852073
C -7.1820889794 -0.3860214096 -1.4099968174
O -4.9250718759 0.6777674287 1.5595704212
C -3.7029502055 1.2476551630 1.1941700765
C -3.6088029546 2.0371016618 0.0570672775
C -2.3813428775 2.6114331051 -0.2625774941
C -1.2782411944 2.4121539995 0.5682781321
C -1.4003069934 1.6353880483 1.7245138739
C -2.6140552978 1.0359134399 2.0315636223
S 0.2611741668 3.2312160758 0.1706616705
C 1.4287393436 1.8769000980 0.1108102129
C 1.0593903676 0.5789767611 -0.2511223768
C 2.0216361701 -0.4214065446 -0.3231447386
C 3.3474640929 -0.1085863536 -0.0541998084
C 3.7347550511 1.1767879883 0.2981202186
C 2.7666541873 2.1709675182 0.3898069698
O 4.3006033112 -1.1363292844 -0.0743548706
P 5.1882301708 -1.4325846116 -1.3969047577
S 4.2406254569 -1.7635715088 -3.0567121130
O 6.0346715072 -2.6999829365 -0.9274786775
C 6.8668365266 -2.6292122151 0.2732078642
O 6.1643388373 -0.1596394762 -1.3628117367
C 7.1130490749 0.0522484564 -2.4474930243
H -5.9147733381 -2.8913991908 2.3775420754
H -7.2427242347 -2.1746319822 3.3446966744
H -5.5896178338 -1.4963107557 3.4615015875
H -7.9183869271 -1.0820240360 -0.9999443985
H -7.6799931764 0.3984464987 -1.9786509654
H -6.4625112455 -0.9149086238 -2.0396514583
H -4.4753303039 2.1895292942 -0.5769278249
H -2.2854171730 3.2118642014 -1.1608846448
H -0.5457645538 1.4896062534 2.3770051905
H -2.7268875801 0.4181871083 2.9160001231
H 0.0249742067 0.3417871523 -0.4746413545
H 1.7494508159 -1.4357197559 -0.5935893362
H 4.7742101961 1.3915832286 0.5186982789
H 3.0558253083 3.1741897979 0.6866108852
H 7.5775646905 -1.8034834838 0.1907921632
H 6.2356733606 -2.5076862825 1.1561332609
H 7.3965784362 -3.5801493284 0.3139556449
H 7.6620710527 0.9554710565 -2.1831845592
H 7.7971925285 -0.7977147402 -2.5207359475
H 6.5766033931 0.1931533395 -3.3890169414
