27
CONF274
C 3.0316203051 -0.3474683475 -0.2846652068
C 4.2812819044 -0.3941912041 0.5941297898
C 5.4855693943 -0.9688522673 -0.1292368399
O 5.1863884832 -2.3270563010 -0.4684220689
C 1.8361273213 0.2092782191 0.4904575119
C 0.5872043163 0.2821077482 -0.3601568959
C -0.6250911127 0.9064223798 0.3927145296
C -2.0252386592 0.8462519962 -0.3305139128
C -2.9608919856 -0.3344634870 0.0902475453
F -3.3889269583 -0.1752878500 1.3494942648
F -2.3427842406 -1.5157278170 -0.0165514688
F -4.0298614154 -0.3357700437 -0.7214250913
F -1.8476969403 0.7761169031 -1.6684558231
F -2.7036516879 1.9833054141 -0.0479476284
F -0.3287394517 2.2089693497 0.6233362825
F -0.7475817992 0.2877438949 1.6012433937
F 0.2211435905 -0.9651085940 -0.7885671101
F 0.8131858025 1.0466777420 -1.4729348083
H 3.2256207894 0.2772274062 -1.1640619810
H 2.8039311934 -1.3540310062 -0.6461446474
H 4.5361807489 0.6161421976 0.9400236959
H 4.0890318582 -1.0010274993 1.4883468512
H 6.3697424092 -0.9159150420 0.5246307879
H 5.6946679386 -0.3772805113 -1.0355105476
H 2.0475096238 1.2192589727 0.8597738180
H 1.6164416052 -0.4208322583 1.3580171390
H 5.9271545322 -2.6860019274 -0.9667797338
