35
CONF2
C 1.0655011968 -2.1556924865 -0.9621958169
C -0.0793130942 -1.2829135207 -0.5453320652
C -1.4162509138 -1.5761550333 -0.8680846252
N -2.4392548037 -0.8069776680 -0.4820021794
C -2.1466981698 0.2986281757 0.2366601691
N -0.8985870043 0.6765178048 0.5965405302
C 0.0752661626 -0.1127437077 0.1894229634
O 1.3388231366 0.2669228995 0.6304905122
C 2.2081617460 0.7421826358 -0.3402417196
O 1.8294845420 1.0266120219 -1.4675284724
N 3.4627300998 0.8361262556 0.1398487031
C 4.4784626054 1.5241064619 -0.6519839746
C 3.8050063796 0.5435316659 1.5322079976
N -3.1792382330 1.1074248732 0.6104175822
C -4.5533412169 0.6388067939 0.4515763149
C -2.9437465872 2.1695621802 1.5846211932
C -1.7512142965 -2.7993472352 -1.6661209986
H 1.3078820739 -2.0161256206 -2.0226654740
H 1.9640439154 -1.9350265476 -0.3817553658
H 0.8242200498 -3.2126978415 -0.8178903203
H 5.3970593763 0.9293108862 -0.6621200246
H 4.7005366755 2.5078266858 -0.2190609117
H 4.1210259487 1.6533936898 -1.6727563542
H 3.2608234867 -0.3315264103 1.8875127136
H 4.8762000884 0.3339846533 1.5797872668
H 3.5840783231 1.3963037167 2.1866763609
H -5.2259355676 1.4835531685 0.6115549851
H -4.8027720967 -0.1530151737 1.1727771651
H -4.7109227441 0.2484590989 -0.5548355794
H -2.7789697043 1.7693996842 2.5956546877
H -2.0712225542 2.7613188549 1.3034497891
H -3.8194134852 2.8210664091 1.6039013715
H -1.1619109062 -2.8353880841 -2.5882658224
H -1.5070216527 -3.7049140711 -1.0983735382
H -2.8134936811 -2.8125150144 -1.9118872696
