53
CONF171
C 2.6571876073 -1.3316481231 0.8624581823
N 2.9514188892 -0.0312972359 0.2569870608
C 4.4105159436 0.1531656227 0.2493937509
C 4.8195244276 1.4988659489 -0.3311416832
C 4.2858166198 1.6309174876 -1.7534130247
C 2.7768781744 1.4105606323 -1.7441675664
C 2.3972336021 0.0681407109 -1.1054703782
C 0.8727604558 -0.1361300742 -1.1216380707
C 0.1269382004 0.7755421182 -0.1425956669
N -1.3229277687 0.7422541831 -0.3722288232
C -2.0683423540 1.9324055142 -0.2542232920
C -1.6153418963 3.0308712292 0.4845199648
C -2.3653238817 4.2019665031 0.5412798284
C -3.5963138966 4.2863708253 -0.0976930375
C -4.0814190862 3.1839963248 -0.7955325905
C -3.3171156049 2.0266767161 -0.8882550605
S -3.8857602365 0.6612082153 -1.8788919103
C -3.2460355853 -0.6579506528 -0.8831373752
C -2.0080269253 -0.4734068027 -0.2394540131
C -1.4895416921 -1.5324642991 0.5081617415
C -2.1620283333 -2.7474691372 0.5403081903
C -3.3714260320 -2.9451876780 -0.1126418328
C -3.9239266471 -1.8715062562 -0.8036845880
S -1.4146619148 -4.1000134272 1.4627731144
O -1.9097645464 -5.3691739955 0.9031850758
O 0.0309814839 -3.8240907107 1.5742301242
C -2.1291941420 -3.9195732670 3.1212837108
H 3.0276197634 -2.1802697430 0.2559374678
H 1.5859838227 -1.4794414529 1.0111864790
H 3.1327242038 -1.3863110557 1.8465545759
H 4.7642070005 0.0630020933 1.2832569584
H 4.9029695244 -0.6549988138 -0.3333530715
H 5.9119123655 1.5845448643 -0.3099149307
H 4.4125654746 2.3025333513 0.2956552281
H 4.5280942938 2.6121537208 -2.1765316810
H 4.7642434578 0.8764862679 -2.3933137965
H 2.3743865758 1.4355645512 -2.7633915195
H 2.3062393414 2.2297631822 -1.1865482104
H 2.8317280619 -0.7334657902 -1.7438143657
H 0.6308915221 -1.1867390606 -0.9392912315
H 0.5147569495 0.0867012049 -2.1335262584
H 0.4406031501 1.8043778139 -0.3216273483
H 0.3939738799 0.5463495143 0.8993040793
H -0.6779985951 2.9722859356 1.0250415862
H -1.9855416802 5.0461637800 1.1072058938
H -4.1842093169 5.1960119086 -0.0462389002
H -5.0481447532 3.2230345199 -1.2871867552
H -0.5526705540 -1.4349121226 1.0411611947
H -3.8572036743 -3.9138689811 -0.0925142238
H -4.8748358598 -1.9818428123 -1.3146614549
H -1.8518365742 -2.9414110079 3.5192153822
H -3.2132614622 -4.0274653924 3.0495836458
H -1.6993016778 -4.7212770490 3.7273997267
