45
CONF1
C 3.9561157256 -0.0219280454 -1.7726341253
C 3.5848341963 0.5549687342 -0.3994127216
C 4.5385439086 0.0667271945 0.6871385025
O 4.3117404118 -1.3213455903 0.9646820852
C 3.0607423834 -1.4987978153 1.6249833076
C 1.9148241115 -0.8051532122 0.9274424731
C 2.1628327850 0.1952625657 -0.0216407041
C 1.0823509808 0.8472025123 -0.6287294644
C -0.2202624914 0.5148229937 -0.2838545500
C -0.4622550198 -0.4807548212 0.6656836036
C 0.5999006017 -1.1405553745 1.2683555015
C -1.9458395286 -0.7104819676 0.8748588306
C -2.5571734535 0.5620094199 0.1984641722
C -1.5090192299 1.0900711341 -0.8371546946
C -1.4964657946 2.6233857319 -0.8623044429
C -1.7330675424 0.5803993492 -2.2716257795
C -3.9768242734 0.4083758599 -0.3275804817
C -2.3687681438 -2.0346659157 0.2151790108
C -2.3213832693 -0.7663010867 2.3607617760
H 3.2561689427 0.3219835118 -2.5399465639
H 3.9230635263 -1.1158130516 -1.7479676925
H 4.9657963302 0.2895725911 -2.0614537303
H 3.6654960438 1.6494941801 -0.4488375944
H 5.5804986047 0.1524555244 0.3637738153
H 4.4045388657 0.6531785862 1.6103549685
H 2.8830823708 -2.5784003827 1.6685829566
H 3.1369397888 -1.1292325495 2.6633932522
H 1.2800218359 1.6237324098 -1.3657218718
H 0.4209573928 -1.9188081972 2.0085208141
H -2.5788048393 1.3219040866 0.9928293185
H -0.7593428238 2.9986122634 -1.5803865072
H -2.4785692173 3.0078102395 -1.1605793179
H -1.2518253974 3.0275626965 0.1254694902
H -0.9092058466 0.9166471456 -2.9104710147
H -2.6658187307 0.9771507029 -2.6864528696
H -1.7707409061 -0.5111628467 -2.3203658802
H -4.6558125897 0.0961590111 0.4732656855
H -4.3476133749 1.3608826008 -0.7216042847
H -4.0397811143 -0.3327229500 -1.1294603923
H -3.4416418675 -2.2096622848 0.3480583212
H -2.1455169679 -2.0519305059 -0.8548644248
H -1.8300242126 -2.8647544768 0.6848286603
H -1.8901672823 -1.6501371640 2.8433002698
H -1.9625490548 0.1239729880 2.8875638039
H -3.4099765541 -0.8217357102 2.4755582775
