41
CONF8
C -4.2905049864 -2.2578022141 1.2543304355
C -5.4979980484 -1.4246516239 1.6302407836
O -5.1161322886 -0.0293736425 1.8176984238
C -5.0316165545 0.7102179801 0.6910322795
O -5.2712679238 0.3163778930 -0.4220759172
C -4.6372930052 2.1478064714 1.0404326835
C -5.8946876837 2.9854114940 1.2178256940
O -3.8988354268 2.7345063022 -0.0234329748
C -2.6739794541 2.2038378410 -0.3198166253
C -2.0252881184 2.7712614512 -1.4206577558
C -0.7781621951 2.3142797779 -1.8005832626
C -0.1729853719 1.2846213309 -1.0837379714
C -0.7968750265 0.7081367844 0.0098409901
C -2.0564138120 1.1765008224 0.3902996354
O 1.0861816453 0.9297736745 -1.5907878952
C 1.8496879022 -0.0245379969 -1.0993193319
N 1.6985069548 -0.8410351337 -0.1062085668
C 2.8739094543 -1.5947503187 -0.1258238831
C 3.6824362723 -1.1548843506 -1.1789456218
O 3.0189890190 -0.1306428836 -1.8167882193
C 4.9174077829 -1.6798605622 -1.4889656013
C 5.3303622536 -2.7193949028 -0.6547382835
C 4.5576994460 -3.1924002400 0.4089705098
C 3.3126059417 -2.6316547124 0.6869816674
Cl 6.8908636184 -3.4609275753 -0.9594651790
H -3.8827470419 -1.9358492144 0.2929835610
H -3.5118154609 -2.1787155984 2.0183548636
H -4.5823392837 -3.3092050349 1.1693638282
H -6.2762731727 -1.4746444451 0.8638148270
H -5.9118950381 -1.7210513388 2.5967048379
H -4.0457236206 2.1483140743 1.9661814032
H -6.4806547264 2.9728107120 0.2953339543
H -5.6185319055 4.0161932515 1.4519075095
H -6.4993370983 2.5845550257 2.0352421297
H -2.5184090452 3.5664373224 -1.9678942532
H -0.2625182938 2.7414324038 -2.6531864306
H -0.3246009474 -0.0908183230 0.5618923202
H -2.5317273979 0.7132543270 1.2467998241
H 5.5242120897 -1.3210920459 -2.3101034309
H 2.7084743415 -2.9941337762 1.5105323239
H 4.9390593879 -4.0032638348 1.0176954746
