44
CONF19
C -4.9359828740 -0.7083405444 0.5105378661
C -3.5407971342 -0.2863254234 0.9251413330
C -2.6194030757 -1.4528145129 1.2913942450
O -1.9881386604 -1.7645141497 0.0374178659
C -1.7503089118 -0.5052769449 -0.5631851399
O -2.8575269694 0.3098771725 -0.2134453082
C -1.7218277939 -0.6606162431 -2.0920110058
N -2.9500438132 -1.2369602555 -2.6047518644
C -3.3233136547 -2.5319759977 -2.6189612018
N -4.5481191240 -2.6521588207 -3.1179076287
C -4.8851302773 -1.3603067730 -3.3948263107
N -3.9511778405 -0.4659545896 -3.0992908514
C -0.4429523026 0.1255075799 -0.0660882521
C -0.4564311380 1.4412971898 0.4085979178
C 0.6876662443 2.0804860913 0.8605821188
C 1.8960803653 1.3923928758 0.8456726177
C 1.9591658947 0.0792698169 0.3882690491
C 0.7943416327 -0.5280848464 -0.0647427455
Cl 0.9739248630 -2.1904349267 -0.6301354670
O 2.9910845727 2.0455761886 1.3615390167
C 4.2581228595 1.6978670032 0.9170233074
C 5.2304710554 1.4581240626 1.8796309075
C 6.5366367217 1.1875518140 1.4826938823
C 6.8347730604 1.1559747810 0.1262032345
C 5.8657208806 1.3969320143 -0.8420360474
C 4.5643386002 1.6755180800 -0.4409054841
Cl 8.4836140701 0.8049834254 -0.3822826341
H -5.4868814425 0.1424656238 0.1000015895
H -5.4820356875 -1.0876050094 1.3802850514
H -4.8862093009 -1.4968694248 -0.2478828819
H -3.5743377585 0.4612915318 1.7253924418
H -1.8649793508 -1.1592998222 2.0332590205
H -3.1551127928 -2.3412770062 1.6297744522
H -1.5924892396 0.3263909129 -2.5403562582
H -0.8840299557 -1.2967504570 -2.3836309436
H -2.6805646958 -3.3301210137 -2.2728623927
H -5.8344952833 -1.0699037434 -3.8272498626
H -1.4014273937 1.9709698586 0.4159172807
H 0.6534835025 3.1014454323 1.2241529785
H 2.8950686305 -0.4662934559 0.3899345182
H 4.9663869322 1.4856149246 2.9312342822
H 7.3057912427 0.9988066345 2.2227866539
H 6.1204916673 1.3777346222 -1.8955042791
H 3.7965526691 1.8758065200 -1.1809074522
