45
CONF31
C 0.0687582996 2.8739349255 -0.1909817078
O -0.2832465555 1.5503762796 -0.6604944053
C -1.4988808289 1.1132686439 -0.2682910276
O -2.2435262887 1.7049239972 0.4948150691
N -1.7710696652 -0.1096459210 -0.8295907784
C -1.0824706659 -0.7321263164 -1.9057777547
C -0.9113791963 -0.0338302257 -3.1044457547
C -0.2549568353 -0.6319051534 -4.1711841865
C 0.2056480642 -1.9427801473 -4.0545783567
C 0.0108446005 -2.6412602026 -2.8695012062
C -0.6253191927 -2.0497566314 -1.7742584281
C -0.7662278287 -2.8490168046 -0.5051806016
O 0.5450455945 -3.2719352342 -0.0345290291
C 1.2653175993 -2.3270419836 0.6057257667
N 0.7262703762 -1.2279872483 1.1200305329
N 1.7792753379 -0.5721943210 1.6844570275
C 2.9484728020 -1.2582433186 1.5315685195
C 2.6587899201 -2.4063767943 0.8312224971
C 1.5662750870 0.6453345194 2.3607427504
C 0.3138365466 0.9192065594 2.9142759956
C 0.0984113828 2.1178904057 3.5822962300
C 1.1422528549 3.0282203383 3.6968210262
C 2.3937948589 2.7686493166 3.1507254102
C 2.6027535879 1.5745118297 2.4721157233
Cl 0.8704350600 4.5480963042 4.5406086225
O -2.9923181431 -0.6864212107 -0.4630626197
C -4.0425821045 -0.2628469572 -1.3652146763
H -0.6342272160 3.6127448398 -0.5839560780
H 0.0721619904 2.9043417930 0.9005664269
H 1.0702034411 3.0542875245 -0.5803510046
H -1.2901322868 0.9796506733 -3.1851148601
H -0.1203076222 -0.0830277660 -5.0975784816
H 0.7063291564 -2.4216725061 -4.8898298928
H 0.3660133753 -3.6636569904 -2.7781696790
H -1.2944773529 -3.7852634910 -0.7001986186
H -1.2844372753 -2.2980382153 0.2793347078
H 3.8788605657 -0.8972261380 1.9437140219
H 3.3373728434 -3.1890621442 0.5306749567
H -0.4891008683 0.1985681402 2.8216337451
H -0.8732559434 2.3342575203 4.0115517923
H 3.1946980077 3.4941765097 3.2341202961
H 3.5680215369 1.3842278625 2.0166420867
H -3.8214619372 -0.5827405237 -2.3895151726
H -4.9415280673 -0.7652508714 -1.0031998429
H -4.1689369305 0.8234999115 -1.3186394330
