24
CONF89
C 1.2904496073 0.5031668614 1.9787736772
C 0.9022397578 -0.7751415788 1.2454143877
C 1.2696054210 -0.8792477243 -0.2446645778
C 0.5655931529 0.1063039650 -1.2140527462
C -0.9383034348 -0.1229419374 -1.2843128650
O -1.4049124084 -1.2381267586 -1.4982302776
C -1.8597807244 1.0626742618 -1.1851605745
O -3.2096634434 0.6943756505 -1.2765052317
O 0.9223063151 1.4530974890 -1.0151246094
O 1.0506793747 -2.2277977769 -0.6583807817
O -0.5039690678 -0.9272800245 1.4616315771
O 0.4239686203 1.6045227984 1.6641719675
H 1.2605073685 0.3150798039 3.0596687115
H 2.3040054411 0.8111240382 1.7061493299
H 1.4539260458 -1.6004575396 1.7256154821
H 2.3465584636 -0.6772374512 -0.3336781706
H 0.9350619340 -0.1683325704 -2.2139358505
H -1.5686450131 1.7651844939 -1.9851038545
H -1.6601084412 1.5916370788 -0.2406283610
H -3.2169835455 -0.2611833762 -1.4490459991
H 0.7027802460 1.6957967964 -0.0918912288
H 0.1826055496 -2.2634530771 -1.0950539132
H -0.7758740789 -1.7673646815 1.0708522298
H -0.4720471401 1.3056011638 1.8734917635
