56
CONF2
C -3.2396480601 4.4573383463 0.3801763837
C -3.7541909841 3.0735656275 -0.0168780511
C -5.2471204898 2.9434839386 0.2928903722
C -2.9623486769 1.9798357566 0.7222045035
C -1.4553535248 2.0292762699 0.5099316774
C -0.9129473454 1.9198966271 -0.7712156094
C 0.4626695237 1.9091224024 -0.9810282832
C 1.3058751386 2.0027638044 0.1219414169
C 0.7907264863 2.1167785855 1.4083497874
C -0.5850098091 2.1245438509 1.5967224489
O 2.7019606683 1.9957398534 0.0670871616
C 3.3687694152 1.7801347716 -1.1013942394
F 3.1079880863 2.7631425493 -2.0263916336
F 2.9966927298 0.5986958747 -1.6925036697
C -3.3437855396 0.5871178657 0.2690601380
O -3.6664560677 0.2600264055 -0.8485942673
O -3.1657508964 -0.3103888896 1.2821886357
C -2.9617659184 -1.6957220478 0.8788510291
C -4.1281569341 -2.2463385877 0.1864642933
N -5.0498835511 -2.7455943146 -0.2979760755
C -1.6578512513 -1.8310773206 0.1224552807
C -0.4904657892 -1.5946997925 0.8492935535
C 0.7369654450 -1.6290200085 0.2004097038
C 0.8166176769 -1.9037936854 -1.1645259987
C -0.3535706987 -2.1570041868 -1.8701261330
C -1.5947283912 -2.1189888697 -1.2380849074
O 1.8403926134 -1.3043074135 0.9612992131
C 3.0485241161 -1.9439158157 0.7404994600
C 3.1296521974 -3.2932009081 0.4033312296
C 4.3852451268 -3.8791020173 0.2664485101
C 5.5446200785 -3.1341966645 0.4733947148
C 5.4435277564 -1.7901013812 0.8275760251
C 4.1962933144 -1.1881197098 0.9608748470
H -3.8154631273 5.2357948507 -0.1295734427
H -3.3466447569 4.6099049868 1.4609292479
H -2.1847502706 4.5866671551 0.1209150129
H -3.6027305955 2.9315859739 -1.0940933211
H -5.4264488631 3.0866093238 1.3650628209
H -5.6389809835 1.9621705001 0.0077213878
H -5.8170943563 3.7044346011 -0.2488352260
H -3.1572599683 2.0581877427 1.7977315797
H -1.5688773274 1.8299907897 -1.6315348916
H 0.8464800981 1.8179961442 -1.9879697076
H 1.4719683332 2.1855897583 2.2496945875
H -0.9848930100 2.2005177799 2.6035207034
H 4.4403217508 1.7598854286 -0.8900150533
H -2.8922931384 -2.2216490763 1.8368785493
H -0.5271545565 -1.3702202192 1.9106428513
H 1.7782634338 -1.9175022435 -1.6644923393
H -0.2983903277 -2.3694913987 -2.9327725692
H -2.5019389501 -2.2992503013 -1.8041720204
H 2.2279624824 -3.8771603941 0.2535229533
H 4.4527369245 -4.9302733806 0.0038291304
H 6.5187119833 -3.5994099620 0.3651702736
H 6.3397768342 -1.2018553489 0.9980599058
H 4.0987921173 -0.1438060684 1.2382198908
