49
CONF64
C -3.0942259992 -1.7057817279 -1.2708591347
C -3.1787488147 -1.4399564917 0.2178686205
C -2.4151531342 -0.2555779182 0.8415591429
C -2.0073520208 -1.7253155043 1.1099303140
C -2.2248176505 -2.2088322239 2.5304070005
C -0.7158358818 -2.2608804381 0.5288750389
C -1.5719913484 0.6512687505 0.0661689841
O -0.9353047786 0.4294143797 -0.9437097078
O -1.5711309877 1.8977730695 0.6660539287
C -0.6831861704 2.8685288545 0.0504665750
C -1.2878484048 4.1748073438 0.3027737346
N -1.7441998541 5.2179412903 0.4945574756
C 0.7112893233 2.7554800520 0.6257541716
C 1.6880173311 2.1075556423 -0.1254383905
C 2.9501183894 1.9143086566 0.4301603387
C 3.2513332585 2.3861268500 1.7046512303
C 2.2692149438 3.0481839796 2.4351378530
C 0.9948899823 3.2285758789 1.9078260318
O 3.9714244977 1.3102812655 -0.2726632772
C 3.6593485841 0.2831505633 -1.1537793914
C 2.7873469496 -0.7431868629 -0.7966562619
C 2.5661843685 -1.7817146359 -1.6958910102
C 3.2138781960 -1.8007400471 -2.9304333393
C 4.0906119759 -0.7712040666 -3.2650821005
C 4.3155192307 0.2797895279 -2.3792411931
C -4.5921533628 -1.6342421293 0.7343760529
H -3.4025917764 -2.7398626233 -1.4631294232
H -2.1004944585 -1.5561284966 -1.6867129063
H -3.7870513610 -1.0466313868 -1.8052731244
H -2.9181050883 0.2299232693 1.6713492680
H -2.3581315003 -3.2971063143 2.5340949384
H -1.3440301453 -1.9772070843 3.1386122070
H -3.0933146573 -1.7567318922 3.0106959764
H 0.1196883290 -2.0172190412 1.1946992871
H -0.4860499237 -1.8610088271 -0.4564968664
H -0.7793466800 -3.3528475501 0.4573367598
H -0.6593200982 2.7043489759 -1.0330317052
H 1.4633070448 1.7435954726 -1.1213356811
H 4.2457860032 2.2298148488 2.1089308543
H 2.5007525679 3.4174294897 3.4288168093
H 0.2279195116 3.7324822230 2.4877954630
H 2.2900459586 -0.7273459648 0.1676688509
H 1.8884927520 -2.5846858186 -1.4229421939
H 3.0374349536 -2.6149983268 -3.6253918836
H 4.6000965456 -0.7786826701 -4.2235393399
H 4.9909417664 1.0923477782 -2.6255888390
H -5.2893714927 -1.0449741524 0.1293423963
H -4.8789123785 -2.6886128868 0.6460659779
H -4.7149735006 -1.3316520541 1.7748900141
