39
CONF113
C -3.2897919820 -3.2877199555 -0.2764793391
C -2.8353694818 -2.0231660857 0.4484941213
C -1.6062929621 -1.4168734453 -0.2277315002
N -1.1219251458 -0.2173054948 0.4818213405
C -0.4225717861 -0.4517831345 1.7552869714
C 0.9455277019 0.1911800502 1.7852535438
O 1.7390158399 -0.4219043513 0.7300612047
C 2.9639437508 0.1431067092 0.5703008196
C 3.1587313521 1.2488928470 -0.2675844991
Cl 1.7782098631 1.9353078865 -1.0872378966
C 4.4127275056 1.8073162060 -0.4783966301
C 5.4987201982 1.2367439101 0.1722309444
Cl 7.0905045674 1.9245687232 -0.0771279922
C 5.3669354325 0.1374285751 1.0102067595
C 4.0960148641 -0.3902524143 1.1988204338
Cl 3.8978927450 -1.7737888299 2.2446048690
C -1.5932054897 1.0341694095 0.2859872970
O -1.5521713207 1.9386385977 1.1108995810
N -2.1415187433 1.3022418100 -1.0188203452
C -3.2469022735 2.1052583592 -1.2421982745
C -3.3232588526 2.2542904862 -2.5977303116
N -2.2776141509 1.5929166541 -3.2193708484
C -1.5880166311 1.0350459369 -2.2508291623
H -3.5408722628 -3.0711409201 -1.3203834294
H -2.5014829083 -4.0480274556 -0.2697058463
H -4.1749622398 -3.7154503994 0.2021294123
H -3.6378241998 -1.2747835235 0.4485684210
H -2.6077415296 -2.2510090372 1.4965365409
H -0.7807688946 -2.1364288553 -0.2512129738
H -1.8460091046 -1.1690970630 -1.2616003315
H -0.3186708310 -1.5322171651 1.8802415012
H -1.0061671827 -0.0623155119 2.5971330870
H 0.8861439801 1.2707131475 1.6151423444
H 1.4201671871 0.0002215487 2.7555047488
H 4.5346532519 2.6606971194 -1.1336773563
H 6.2254021505 -0.2978564485 1.5062032281
H -3.8544549825 2.4671359449 -0.4276320476
H -4.0685699542 2.7958293117 -3.1631730111
H -0.6784275811 0.4594172548 -2.3602754036
