52
CONF73
C 2.0587742490 2.8031652610 0.2490834452
C 2.1561461309 1.3457088345 -0.1399299563
C 3.4688769369 0.9935495695 -0.8443508916
C 3.4501343152 -0.4537970702 -1.3488592946
C 2.2142949325 -0.6958002484 -2.2295303190
C 0.9385558180 -0.1890643235 -1.5609604562
O 1.0351405811 1.0938077610 -1.0394441766
O 0.6462324905 -1.1995256040 -0.5438084036
C -0.1637413356 -0.8541122859 0.5049973085
C -1.4600524515 -0.4332194525 0.3658853597
O -2.1808652088 -0.0323096153 1.4512150087
C -1.6607393570 -0.0882131079 2.7118053452
C -2.4716061459 0.3593649048 3.7396336482
C -1.9622322277 0.2916590705 5.0370457725
C -0.6799079765 -0.2045206079 5.3067695436
C 0.1129616533 -0.6450676959 4.2592214454
C -0.3710936639 -0.6000273216 2.9235685871
C 0.4370948213 -1.0007582193 1.8080041968
O 1.6182739679 -1.4331181683 1.9451979655
O 1.3483043016 -1.1118755975 4.5091884032
O -2.7731218325 0.7304794622 6.0288046452
C -2.2281356372 -0.3378853448 -0.8677601300
C -2.0615827946 -1.2981320351 -1.8801257400
C -2.8024472752 -1.2126708452 -3.0446784619
C -3.7254356464 -0.1647305765 -3.2211238224
C -3.8973710672 0.7790669179 -2.2140212939
C -3.1602861818 0.6936103944 -1.0412033926
O -4.4536066065 -0.0627236916 -4.3606836696
O -2.7147059688 -2.0983876062 -4.0790524412
O 2.3138844803 0.0410796030 -3.4492169012
O 3.5577578598 -1.3764011081 -0.2627986247
O 4.5765814758 1.1958208616 0.0311057987
H 1.0973828904 3.0024397318 0.7310085079
H 2.8583772142 3.0529826961 0.9498669414
H 2.1531183975 3.4404406630 -0.6361359906
H 2.0490032229 0.7151921208 0.7532258148
H 3.6018505886 1.6684410163 -1.6977222140
H 4.3445491476 -0.6219904313 -1.9620445336
H 2.1039478468 -1.7722634064 -2.4200382891
H 0.1180714675 -0.1513585306 -2.2850407676
H -3.4657335987 0.7423831377 3.5450045515
H -0.3017049535 -0.2450460830 6.3234226473
H 1.7378368542 -1.3469735512 3.6215783965
H -2.3307779263 0.6348715727 6.8842450801
H -1.3653482409 -2.1210995493 -1.7504385809
H -4.6111161760 1.5820341941 -2.3661583422
H -3.2957394904 1.4392270695 -0.2665991769
H -4.2162552761 -0.7915131185 -4.9543583698
H -2.0402293174 -2.7653274999 -3.8918009059
H 3.0443702746 -0.3293878969 -3.9609415173
H 2.7355974269 -1.3771725320 0.2656606478
H 4.6167164078 0.4091475945 0.5972656060
