46
CONF269
C -0.5610103550 0.9925668434 -2.5412176372
C 0.2226736458 1.4721990314 -1.3217667446
C 0.0969186594 2.9776893142 -1.0653299796
C -1.2812798601 3.4493252223 -0.6334819217
O -1.5795601716 2.9963117690 0.7242691367
C -2.3656218040 1.9101782406 0.8562895821
O -2.8242615515 1.2566984432 -0.0475902605
C -2.6596747751 1.6414469003 2.3374320206
C -4.0494522267 2.1545497104 2.6756846095
O -2.6695263207 0.2355338256 2.5802739209
C -1.5227362837 -0.4575459658 2.3040658482
C -1.6678583508 -1.8377856752 2.1495639682
C -0.5669379485 -2.6234065961 1.8434978470
C 0.6773142061 -2.0236600329 1.6990908698
C 0.8419483821 -0.6612379520 1.8822965478
C -0.2620131475 0.1313332254 2.1830559722
O 1.7816842608 -2.8248587929 1.3980147804
C 2.3081979189 -2.7142562356 0.1488156253
C 3.5407645207 -3.3463337216 -0.0668823182
C 4.1717003243 -3.3149125438 -1.2892842684
C 3.5633297868 -2.6282272504 -2.3517102656
C 2.3300086773 -1.9969608703 -2.1555347982
C 1.7079921605 -2.0417302823 -0.9165069739
C 4.2019151602 -2.5761945658 -3.6208116412
N 4.7190250301 -2.5318452550 -4.6566031953
F 4.1154786907 -3.9951998310 0.9587830529
H -1.6346859758 1.1525994780 -2.4124759269
H -0.2351794192 1.5126485444 -3.4489578777
H -0.4177248527 -0.0807707799 -2.7028204932
H -0.1045622260 0.9217285576 -0.4322948806
H 1.2865199586 1.2366194201 -1.4522729073
H 0.8208409204 3.2928239654 -0.3038786090
H 0.3511279787 3.5258619702 -1.9832207207
H -1.3136561102 4.5397823830 -0.5671265729
H -2.0715456862 3.0994540941 -1.3024473935
H -1.9092611324 2.1419479082 2.9623465002
H -4.2750761020 1.9380307506 3.7225568133
H -4.0986388446 3.2354365211 2.5191077064
H -4.7888480780 1.6634684749 2.0385474029
H -2.6557281518 -2.2727075451 2.2498764098
H -0.6658688569 -3.6937541707 1.6999532384
H 1.8260574180 -0.2172382561 1.7739055932
H -0.1215506890 1.1976329592 2.3110054663
H 5.1259619389 -3.8130219292 -1.4126716847
H 1.8598957940 -1.4723563730 -2.9792822932
H 0.7529037894 -1.5518630180 -0.7672408559
