40
CONF133
C 2.8371616112 -0.2779811226 -1.6098694956
C 2.1321598752 1.0548733054 -1.5545822375
O 1.9567555029 1.4014300429 -0.1429903461
P 0.7296778520 2.2739497951 0.3956139693
S -0.3062867849 3.3205013238 -0.8467437400
O 1.3782046361 3.1325610370 1.5703021281
C 2.3047459642 2.5324324046 2.5364222190
C 2.5370288371 3.5543902000 3.6223587717
O -0.1254031156 1.2081135365 1.3461435379
C -0.7866993788 0.1334315668 0.8336901170
C -1.6426550043 -0.5612705289 1.6847472708
C -2.2920145597 -1.6554438298 1.1322975172
N -2.1009387909 -2.0133277966 -0.1550696376
C -1.2600417489 -1.2765373555 -0.8758630626
N -0.5805529158 -0.2039663005 -0.4253330529
C -1.0600480230 -1.6022597651 -2.3369855604
C -1.3899484411 -3.0499670665 -2.6866997777
C -1.8961392948 -0.6182368509 -3.1744649586
C -3.2424414437 -2.4948715956 1.9261387852
H 3.0108286644 -0.5498347974 -2.6558680913
H 2.2230176809 -1.0542484280 -1.1447003092
H 3.8033394751 -0.2352537368 -1.0993621544
H 1.1514087894 1.0126851298 -2.0338289238
H 2.7245205514 1.8541363772 -2.0107690217
H 1.8567622246 1.6157598245 2.9344094071
H 3.2292795139 2.2805701542 2.0081855130
H 3.2411016527 3.1486365227 4.3552070047
H 1.6019827874 3.7964404659 4.1339986124
H 2.9597701244 4.4721836544 3.2053986188
H -1.7868896950 -0.2533996636 2.7128763399
H -0.0012983687 -1.4072691333 -2.5517015701
H -1.1535747551 -3.2363841313 -3.7388234221
H -2.4513924600 -3.2578618234 -2.5288187458
H -0.8158346813 -3.7501451360 -2.0728687531
H -1.6403198034 0.4184842316 -2.9366211120
H -1.7174224513 -0.7871185308 -4.2408487551
H -2.9632529937 -0.7670840814 -2.9768096358
H -4.2306289149 -2.4796960066 1.4555137384
H -2.9044581814 -3.5358939156 1.9275656509
H -3.3295051538 -2.1425279919 2.9554581712
