47
CONF33
C -7.6232071233 1.2952781309 0.1496967177
O -6.7808724431 0.3222057009 -0.5072222832
P -5.7249194961 -0.5246759847 0.3549647949
S -6.3237610956 -1.2243604449 2.0524859211
O -5.1967172152 -1.5716912559 -0.7386388287
C -5.8942358214 -2.8234659090 -0.9308163776
O -4.4834516475 0.5207545935 0.3780190411
C -3.3059789447 0.2165816436 1.0671004148
C -3.1710169578 0.6025059460 2.3920379235
C -1.9650000936 0.3699704825 3.0434747801
C -0.9162522029 -0.2656946225 2.3755519152
C -1.0763270122 -0.6625436965 1.0454556483
C -2.2708797606 -0.4104097674 0.3848019057
S 0.5754326343 -0.6127779619 3.2974650624
C 1.8509602781 -0.3491623094 2.0752854229
C 2.8843769703 -1.2813178177 1.9733787905
C 3.9230926099 -1.0778863947 1.0718808951
C 3.9141712669 0.0497807247 0.2642319303
C 2.8894503421 0.9885820677 0.3523968448
C 1.8658198032 0.7908100251 1.2676355637
O 4.9923042348 0.2217284428 -0.5954087410
P 4.8096589893 0.6426236209 -2.1729699082
S 3.3652680270 -0.1988742830 -3.1145951827
O 6.3205893833 0.3892817755 -2.6572454079
C 6.7772529080 -0.9673859670 -2.8550377797
O 4.7494407232 2.2427828930 -2.1718862560
C 5.7546888136 3.0108700312 -1.4627677784
H -8.1797525066 0.8258669879 0.9661668176
H -8.3068579356 1.6616183171 -0.6168009467
H -7.0179421512 2.1221779727 0.5345811249
H -5.9820495796 -3.3580128121 0.0192142407
H -6.8871372011 -2.6419119533 -1.3536513082
H -5.2881535908 -3.3946116240 -1.6347081577
H -3.9981294701 1.0867708292 2.8976490106
H -1.8365453322 0.6887280333 4.0725853096
H -0.2658441107 -1.1596341404 0.5236813720
H -2.4118161137 -0.7022850692 -0.6496726852
H 2.8679015572 -2.1747890326 2.5884140467
H 4.7283742632 -1.7973109738 0.9743735351
H 2.8942205625 1.8662701368 -0.2849204527
H 1.0677704698 1.5209732220 1.3484247786
H 6.1179403330 -1.4887131808 -3.5553823558
H 7.7824477441 -0.8875651472 -3.2698640483
H 6.8077925554 -1.4989151591 -1.8986688267
H 5.4316889384 4.0501567387 -1.5290600092
H 5.8061397117 2.7000531857 -0.4146471959
H 6.7300635751 2.8876242171 -1.9399432711
