45
CONF348
C 2.2981230101 -3.0200678576 0.7192469706
C 2.4865654261 -1.8344354166 -0.2264567180
C 3.1273394998 -0.6066711274 0.4233783293
C 2.3782587319 -0.0794034341 1.6557326407
N 0.9494679422 0.1345970784 1.4557301363
C 0.4162974840 1.1278106007 0.6950104686
C -0.9820692472 1.1661538112 0.4581059961
C -1.5573059798 2.2216425739 -0.2401248603
C -0.7911442608 3.2570955931 -0.7632087979
C 0.5897508749 3.2105597983 -0.5628972502
C 1.1825227427 2.1709983421 0.1515766161
C 1.4835576429 4.2690489871 -1.0953480748
O 2.6933638750 4.2744368329 -0.9679082988
O 0.8130735514 5.2421986323 -1.7466978319
S -3.3513049500 2.3098765959 -0.4343655806
O -3.9674842664 2.3183348479 0.8998521442
O -3.6133023206 3.4106261062 -1.3719610276
N -3.8898690629 0.9141377066 -1.1914086607
O -1.7880224450 0.1939369578 1.0118309883
C -1.6843164578 -1.1062396176 0.5109934782
C -2.1149977015 -2.1209823444 1.3602627503
C -2.0773529630 -3.4358228034 0.9086625455
C -1.6129399937 -3.7305221619 -0.3726120017
C -1.1914688262 -2.6991744543 -1.2069942854
C -1.2258986327 -1.3751897515 -0.7739517013
H 1.9384879304 -3.8983354775 0.1739220213
H 3.2411001818 -3.2890686224 1.2090687466
H 1.5635601603 -2.8029030368 1.5027591855
H 1.5152659501 -1.5509848177 -0.6483678747
H 3.1125598467 -2.1397333924 -1.0734765401
H 3.2157434337 0.1870545613 -0.3277527330
H 4.1489272778 -0.8440792871 0.7483537782
H 2.8438230784 0.8528234637 2.0007811631
H 2.4681310560 -0.7944457162 2.4785059984
H 0.3313236692 -0.5971819615 1.7645981186
H -1.2611473933 4.0635697571 -1.3078252419
H 2.2544860205 2.1945364890 0.2990722039
H 1.4648249023 5.8899649619 -2.0628401928
H -3.7891463874 0.0957042062 -0.5952153121
H -3.4342147692 0.7718742164 -2.0910213946
H -2.4688973897 -1.8714890451 2.3550554787
H -2.4090521372 -4.2333107618 1.5657670484
H -1.5811583402 -4.7582821281 -0.7181086568
H -0.8291386237 -2.9188770034 -2.2063040257
H -0.8963218384 -0.5697816999 -1.4225587619
