45
CONF114
C 7.1495108092 -1.0345428616 -1.2219368424
C 6.7705086032 -0.7844685640 0.2382684847
C 5.7241962719 0.3187975434 0.4247598939
C 4.3637011444 0.0045087997 -0.1983202334
C 3.3180393872 1.0814772568 0.0886491641
C 1.9556346376 0.7733532117 -0.5308098351
C 0.9221181081 1.8632278685 -0.2546998790
C -0.4768944281 1.5669899437 -0.8274123889
C -1.1553074389 0.3776089462 -0.1910006427
C -1.0731218744 -0.8833615153 -0.7953169536
N -1.6991723673 -1.9027579527 -0.1395673842
C -2.3818409369 -1.7226228930 1.0546295874
N -2.8726567805 -2.9133003016 1.4413641628
C -2.4607167597 -3.7477061024 0.4613958750
N -1.7458978592 -3.2083546589 -0.5294472352
N -2.4810161900 -0.5342773980 1.6429420547
C -1.8757596906 0.4895556585 1.0207004344
C -2.0824782591 1.8282998982 1.6800381178
C -3.3936158058 2.4734559306 1.2041606582
N -0.4893970474 -1.1859333650 -1.9712533124
H 7.4899248297 -0.1079197657 -1.6986580210
H 6.3024022377 -1.4156664247 -1.8006749550
H 7.9580857539 -1.7684905349 -1.2985046229
H 7.6726714028 -0.5130702344 0.8006151438
H 6.3956560906 -1.7149543943 0.6855095553
H 6.1087865857 1.2567498257 -0.0009782975
H 5.5854078730 0.5004587978 1.4991254039
H 4.0045686547 -0.9619583840 0.1841437896
H 4.4659054716 -0.1106419338 -1.2851729893
H 3.6793553313 2.0485370366 -0.2888318615
H 3.2021542080 1.1970625325 1.1753944727
H 1.5948989889 -0.1877559885 -0.1387799073
H 2.0747902295 0.6489765014 -1.6172094955
H 0.8428925395 2.0125686714 0.8299271409
H 1.2740949459 2.8125056501 -0.6785102927
H -1.1097877573 2.4494644615 -0.6980827660
H -0.4006801553 1.4268182676 -1.9121609173
H -2.6877434857 -4.8074252238 0.4576501168
H -1.2456978395 2.5005948421 1.4813675160
H -4.2441072291 1.8258128802 1.4363236354
H -3.3797351830 2.6430687101 0.1226814751
H -0.3641825335 -2.1605700326 -2.2012429122
H 0.1586443773 -0.5343365898 -2.3799848691
H -2.1279850512 1.6671945855 2.7609311593
H -3.5464355069 3.4362079613 1.7003729481
