35
CONF354
C 0.0548871542 2.7498058423 1.4794393019
C -1.0722152680 2.8534324717 0.4759769815
C -2.1343931122 3.8511793871 0.8678267080
Br -3.1594213312 3.1487968715 2.4270953035
Br -0.3389129221 3.4867445778 -1.2749564347
O 1.0583652356 1.7890197579 1.0730383055
P 0.8751958954 0.2359452193 1.4021882720
O 0.4393813367 -0.1394877455 2.7650159450
O 2.3178543535 -0.3457106383 1.0566000266
C 2.9270077266 -0.1173412912 -0.2385988704
C 3.7784402671 -1.3099143722 -0.5950773976
C 4.7428975869 -1.7783220469 0.4668545850
Br 6.1019400115 -0.3623476411 0.8048811232
Br 2.5922843857 -2.8871112533 -0.9558063024
O -0.1076525970 -0.2307604779 0.2138569891
C -0.7649906157 -1.5165311677 0.3243141493
C -2.1517735660 -1.3600924741 0.9048103019
C -2.8776216727 -2.6681851460 1.1039572355
Br -2.0208422656 -3.6906989285 2.5837659529
Br -3.2809485535 -0.3117967631 -0.3804874740
H -0.3593730720 2.4595705237 2.4522361050
H 0.5777984409 3.7033110247 1.5824168236
H -1.5049377874 1.8801580976 0.2419905617
H -1.7209324790 4.8086385131 1.1849781726
H -2.8751382988 3.9835014196 0.0828684057
H 3.5681293770 0.7680596561 -0.1635750101
H 2.1671133031 0.0518984888 -1.0063530255
H 4.2789530748 -1.1223774573 -1.5464245601
H 4.2562306854 -1.9583517207 1.4234734537
H 5.3115168641 -2.6467148229 0.1428025604
H -0.8004294882 -1.9381517946 -0.6829850545
H -0.1874223392 -2.1886798502 0.9695637623
H -2.1412713764 -0.7530034774 1.8115088618
H -2.8311216909 -3.3132164528 0.2264660184
H -3.9054643366 -2.5173297324 1.4249284459
