41
CONF109
C 6.8435717779 -0.1447425430 2.3991273692
C 6.0047370607 1.0905558778 2.1708487622
O 4.6862579604 0.8176570467 2.7215216376
C 3.7834004444 1.8241118708 2.5989110385
O 4.0193927027 2.8987590288 2.0621752075
N 2.6039856329 1.4832983977 3.1787040398
C 1.4219202960 2.3145287772 3.0134831793
C 0.7261051181 2.1094717062 1.6807940791
O 0.2449119109 0.7567083746 1.6603132374
C -0.3899323756 0.3215129970 0.5332470856
C -0.6203664899 1.1085990323 -0.5969389743
C -1.2895743473 0.5595242877 -1.6919881826
C -1.7132128855 -0.7582522303 -1.6554664827
C -1.4806014048 -1.5514178100 -0.5336657709
C -0.8223738945 -1.0108191761 0.5590477028
O -2.3124855417 -1.3030855497 -2.7886835626
C -3.6482804751 -1.6404452568 -2.7227657682
C -4.5028234303 -1.1915810842 -1.7164590624
C -5.8464097079 -1.5600214197 -1.7561657296
C -6.3378351990 -2.3619489989 -2.7825752522
C -5.4697965994 -2.7985022502 -3.7835995531
C -4.1262729685 -2.4438833789 -3.7586938377
H 6.9312361609 -0.3663441884 3.4665454327
H 7.8472838341 0.0229935110 1.9979586946
H 6.4097407984 -1.0113913622 1.8923204060
H 5.9012107590 1.3209655594 1.1057018532
H 6.4238480442 1.9656950804 2.6777556534
H 2.4796798458 0.5216719336 3.4565741584
H 1.7128375003 3.3656956118 3.0942978634
H 0.7292863950 2.0892915758 3.8302071239
H -0.1137177671 2.8117180915 1.5865755415
H 1.4264747832 2.2724516588 0.8509020790
H -0.2943046432 2.1401028648 -0.6427189985
H -1.4790552292 1.1600895198 -2.5756934368
H -1.8158689184 -2.5837462524 -0.5221549811
H -0.6285089908 -1.6103824127 1.4424665809
H -4.1277554971 -0.5630522960 -0.9166426316
H -6.5122532432 -1.2091587283 -0.9735426053
H -7.3851801350 -2.6439346450 -2.8041085352
H -5.8389564078 -3.4243839010 -4.5903266010
H -3.4403138470 -2.7783092300 -4.5301302559
