54
CONF396
C -4.6114569021 -1.7364780986 0.7801676682
N -4.0717230757 -1.6482869011 -0.5857127361
C -4.8506480951 -1.5050223663 -1.7055906812
C -6.3344274310 -1.4258725395 -1.4740816479
O -4.3428320906 -1.4444299896 -2.8269556173
C -2.6693341352 -1.7491780478 -0.7639568898
C -1.8571569366 -0.6128425030 -0.6978664459
I -2.7803373720 1.2629104066 -0.3829890034
C -0.4726578380 -0.6922486950 -0.8392916766
C 0.3835931339 0.5507770418 -0.8334996837
O 0.6052620833 1.1591259979 -1.8851647939
N 0.8674055731 0.9093542155 0.3662151339
C 1.8388226129 1.9875570362 0.5199508687
C 1.1677019848 3.3714580470 0.5899567938
O 0.4171630806 3.6740916746 -0.5405925936
O 2.1933432347 4.3634135730 0.7066996272
C 2.9155111793 4.2569488820 1.9380862334
C 3.8611705075 5.4488672206 1.9503234265
O 4.5815447286 5.4255971819 3.1938045595
C 3.6490051265 2.9105051913 1.9780572244
O 4.2858506563 2.6749916579 3.2337066796
C 2.6610728674 1.7662057656 1.7834312241
O 3.3339555633 0.5147854870 1.6593631766
C 0.0996499208 -1.9419409168 -1.0762480337
I 2.1912851885 -2.0975968448 -1.3556523452
C -0.6739601885 -3.1059984807 -1.1506178988
N -0.0748787251 -4.3594505721 -1.3912388561
C -0.0793833102 -4.9324120352 -2.6373063214
C 0.6043175155 -6.2693267718 -2.7317256643
O -0.6384053460 -4.3983291499 -3.5912979778
C -2.0591542294 -2.9872204988 -0.9860397964
I -3.2644740870 -4.7160932566 -1.0422881358
H -5.1969826249 -2.6521363944 0.9124976207
H -5.2333049508 -0.8665510101 1.0083613838
H -3.7726047757 -1.7546801399 1.4779923148
H -6.8333025368 -1.3521404944 -2.4396063493
H -6.6951656318 -2.3105158513 -0.9394042962
H -6.5853382820 -0.5501379311 -0.8663151051
H 0.6332539968 0.3459848361 1.1727922173
H 2.5042916202 1.9796268676 -0.3552487264
H 0.5085564119 3.4354047535 1.4723982374
H 0.6802130410 3.0822704652 -1.2669477639
H 2.2247705458 4.3183747870 2.7968700001
H 4.5489717840 5.3714680633 1.0975358497
H 3.2775004525 6.3739292857 1.8545896051
H 5.3445054371 6.0100578134 3.1094603676
H 4.3823834207 2.8866697474 1.1538921093
H 4.7595176452 3.4938948312 3.4581553393
H 1.9837387914 1.7494497883 2.6552746999
H 3.8371475367 0.3812124169 2.4740517273
H 0.4971173824 -4.7628868975 -0.6617118084
H 1.1293906036 -6.3312126475 -3.6866517643
H 1.2982620829 -6.4562107272 -1.9097313287
H -0.1687449644 -7.0457329877 -2.7198999249
