40
CONF69
C 0.2672360160 2.8323305672 -1.8679200265
C 1.1631652075 2.3990261648 -0.7347145023
O 1.7913309011 1.1292952256 -1.1228640147
P 2.1269297200 -0.0435819764 -0.0956890563
S 2.2230978092 0.4064142910 1.7907288697
O 3.4106333822 -0.7273720597 -0.7553276123
C 4.7125821797 -0.0640759907 -0.6253362848
C 5.7050375764 -0.8704005671 -1.4257930151
O 1.1325297464 -1.2958239662 -0.5003946971
C -0.2246751640 -1.2275597894 -0.3683787174
N -0.7742614268 -0.0679254787 -0.0492678604
C -2.1165007378 -0.0519508887 0.0414486535
N -2.9123581952 -1.1027547892 -0.1579488944
C -2.3299270496 -2.2758020157 -0.4769586914
C -3.2377737070 -3.4437582697 -0.6951099878
C -0.9500283801 -2.3896440430 -0.5972543021
C -2.7541726290 1.2599197827 0.4299568352
C -3.2451720251 1.1821450557 1.8833403177
C -3.8924561532 1.6427106355 -0.5198605858
H -0.1843977013 3.7966386145 -1.6142289513
H -0.5333003557 2.1038425194 -2.0246160287
H 0.8332154120 2.9491698405 -2.7962207074
H 1.9757025322 3.1095342593 -0.5564706317
H 0.6011968186 2.2494850732 0.1893449379
H 4.9754497472 -0.0320035114 0.4368510641
H 4.6231048401 0.9594099022 -1.0062506924
H 5.4249649355 -0.8970164246 -2.4821940319
H 5.7678851312 -1.8938966734 -1.0465179947
H 6.6920585122 -0.4066586110 -1.3390174342
H -2.6780169499 -4.3477239222 -0.9403170183
H -3.9372342808 -3.2214528028 -1.5075091033
H -3.8349424006 -3.6218185966 0.2049329571
H -0.4620021627 -3.3212617866 -0.8552160088
H -4.0287833300 0.4236723876 1.9791958551
H -2.4277930378 0.9258737402 2.5647523493
H -3.6596347142 2.1480096518 2.1885981080
H -3.5460542822 1.6833872118 -1.5575034251
H -4.7090331609 0.9181502745 -0.4566642354
H -1.9658479328 2.0180096868 0.3685574697
H -4.2831517482 2.6283108557 -0.2485422643
