70
CONF202
C -2.7317800259 -0.3789329048 -0.9077956962
C -4.1222831651 0.3027106765 -0.8883667064
C -5.1602401406 -0.6802066636 -0.4537744330
C -6.5108088270 -0.8155992923 -0.6662236056
N -6.9628733947 -1.9606309984 -0.0165542883
C -5.9063215854 -2.5822198652 0.6094685306
C -5.7830286116 -3.7470674920 1.3709981697
C -4.5049235441 -4.0608712998 1.8269149052
C -3.3724634849 -3.2610265609 1.5502310613
C -3.4962958381 -2.0960572005 0.8010422277
C -4.7744420601 -1.7859803613 0.3434893967
C -2.4116144782 -1.1020240120 0.4388347109
C -1.0285054705 -1.7519049402 0.4107617469
C 0.0357541743 -0.7321693108 0.0116929200
C -0.3668109765 -0.0825596573 -1.3124562117
N -1.6576084435 0.6029981440 -1.1756653337
C -1.8918559157 1.4143528760 -2.3851574058
C -0.8623998358 2.4946759922 -2.5312023903
C -0.1842156737 2.7513802316 -3.6472539735
C 1.3926484665 -1.3900152144 -0.1631666493
O 1.5893499789 -2.2011553089 -1.0702167100
N 2.4204050485 -0.9822895061 0.6529532158
C 3.7768106840 -1.5053034261 0.3754031470
C 4.4580589843 -0.9024108024 -0.8583898504
C 5.1712144201 0.4310130280 -0.6442328336
N 4.2998515765 1.5483652421 -0.2457982134
C 5.1126389605 2.7119853170 0.1268513243
C 3.3523056464 1.9171243505 -1.3015559867
C 2.1596637682 -0.3250957578 1.9168236137
O 1.3256834047 -0.7720453971 2.7040612941
N 2.9342457302 0.7477267276 2.1101756526
C 2.8376475660 1.5525416981 3.3219777113
C 1.7531312625 2.6226602838 3.2136709910
H -2.7457906515 -1.1548794639 -1.7025481544
H -4.0754773866 1.1615426095 -0.2023862726
H -4.3731253665 0.6915926028 -1.8784424093
H -7.2036734924 -0.2018097815 -1.2253299828
H -7.9151080853 -2.2870676980 -0.0275202462
H -6.6323732212 -4.3836378772 1.5974692522
H -4.3697905673 -4.9614107925 2.4186984150
H -2.4093614107 -3.5763576508 1.9381295873
H -2.4034328773 -0.3153584901 1.2112018557
H -0.7887282394 -2.1692724084 1.3934018826
H -1.0272360172 -2.5760786459 -0.3147510149
H 0.0796408097 0.0542884691 0.7697411529
H 0.3863068720 0.6565425484 -1.6028574032
H -0.4006685469 -0.8524694593 -2.1062211105
H -1.9261473561 0.7947017771 -3.3025634470
H -2.8624680741 1.9109134530 -2.2881108745
H -0.7104163289 3.1138962501 -1.6462615888
H -0.3119339228 2.1409344663 -4.5384458433
H 0.5155952683 3.5796404680 -3.7064422186
H 3.6816025220 -2.5869884081 0.2355500810
H 4.3836511495 -1.3335868162 1.2691956493
H 5.2275847508 -1.6143402021 -1.1803399028
H 3.7402742853 -0.8479547044 -1.6820713588
H 5.7257474907 0.6887176213 -1.5670513886
H 5.9173078989 0.3042659139 0.1514181915
H 5.7247354938 3.0786026776 -0.7162824797
H 5.7824853170 2.4453809052 0.9510056880
H 4.4584951236 3.5254645340 0.4577864145
H 3.8672471585 2.2537707082 -2.2192321698
H 2.7133795186 1.0684885285 -1.5566983909
H 2.7095524065 2.7293865945 -0.9463911654
H 3.4592775259 1.1050706159 1.2801393996
H 2.6316561827 0.8859075399 4.1652060386
H 3.8150479492 2.0172573780 3.4908271995
H 1.7091623413 3.2142334199 4.1334748477
H 0.7748299055 2.1602015187 3.0511640397
H 1.9612118928 3.2984428801 2.3779980786
