71
CONF177
C 5.3657698422 0.5469323038 -1.8940224641
C 4.9806471214 -0.7684714596 -1.2811955648
C 4.0189043767 -0.8549897764 -0.2608350615
C 3.6079797349 -2.0920249406 0.2641918461
C 4.1983148236 -3.2534665240 -0.2338053464
C 5.1739603191 -3.1882745619 -1.2231582733
C 5.5559960863 -1.9562698640 -1.7414153088
C 2.5654149917 -2.1596538160 1.3437051422
N 3.4009665914 0.3230038606 0.2343632155
C 4.0331239847 1.3385271668 0.8742901980
O 5.2435671335 1.3892349832 1.0901318335
C 3.1064900512 2.4881650659 1.2713189754
N 1.7163390672 2.0767452473 1.4127291761
C 1.4668633564 1.4787670021 2.7306695583
C 0.0482696653 0.9328655086 2.7933874936
N -0.9113972435 2.0039273024 2.5317785973
C -0.6544851242 2.5967415627 1.2201180352
C 0.7589630842 3.1609322362 1.1703175540
C -2.3065507945 1.6145513144 2.7835757369
C -2.8876243178 0.4407599815 1.9705810991
C -3.4512784389 0.8174097589 0.5983749224
C -3.7529903599 -0.4213238738 -0.2604602453
C -4.5000570205 -0.1126768213 -1.5481076392
C -5.2595364930 -1.1249406120 -2.1460464358
C -5.9320589431 -0.9178693013 -3.3454365922
C -5.8297422674 0.3276835522 -3.9427232556
C -5.0938166090 1.3591773108 -3.3899501692
C -4.4289997931 1.1277752797 -2.1859470642
F -6.4826104448 0.5445532328 -5.1161712757
C -2.4769522587 -1.1940469064 -0.5655647291
C -2.2895929878 -2.4872571712 -0.0750937645
C -1.1189454860 -3.1983398567 -0.3355823149
C -0.1399845431 -2.5860887566 -1.0963730678
C -0.2778823393 -1.3014538132 -1.5975032833
C -1.4574583399 -0.6143295366 -1.3282326086
F 1.0018099383 -3.2719557652 -1.3667324694
H 5.8570384732 0.3882442107 -2.8566863548
H 4.4874653456 1.1824842417 -2.0468620447
H 6.0488254297 1.0993492601 -1.2406423492
H 3.8881083218 -4.2153793884 0.1642573433
H 5.6283217211 -4.0998707470 -1.5991087897
H 6.3009362728 -1.9067380831 -2.5306961379
H 1.6192388462 -1.7051619957 1.0260688927
H 2.8928640758 -1.6217641632 2.2405806707
H 2.3632589247 -3.1978149160 1.6160909192
H 2.3855551474 0.3870088328 0.2641762445
H 3.5238230450 2.9515310725 2.1808750370
H 3.1849106277 3.2315026663 0.4665224493
H 2.1798849368 0.6614418290 2.8909799567
H 1.6169064285 2.2238889605 3.5348131360
H -0.1402521474 0.5192846364 3.7916178458
H -0.0353855229 0.1032500406 2.0628467999
H -0.7447858553 1.8608820832 0.3980978638
H -1.3803988872 3.3989627949 1.0409344237
H 0.8649661572 3.9708378052 1.9167943371
H 0.9471855817 3.5828923652 0.1765715791
H -2.9306927224 2.5066859840 2.6344091308
H -2.3668182521 1.3593174904 3.8496638601
H -2.1210415171 -0.3347793606 1.8576947848
H -3.6916836920 -0.0199277605 2.5594336918
H -4.3735585713 1.3983051470 0.7275515812
H -2.7498909360 1.4627832933 0.0641551723
H -4.3956995205 -1.0870486606 0.3301288798
H -5.3239506606 -2.0967768463 -1.6636936562
H -6.5248705208 -1.6992330579 -3.8087213064
H -5.0438832363 2.3213199206 -3.8883870791
H -3.8535466682 1.9374408439 -1.7504564783
H -3.0684578929 -2.9508411524 0.5237871707
H -0.9683314497 -4.2044072678 0.0409251582
H 0.5167878781 -0.8598666137 -2.1897732735
H -1.5842457518 0.3878773910 -1.7276673889
