40
CONF59
C 2.6251116891 -1.1953643473 1.9767646455
C 2.6618485847 -1.8443628393 0.6146809837
O 3.3632323630 -0.9250266956 -0.2781296538
C 3.2066195662 -1.1611817020 -1.5910630672
O 2.6248924468 -2.1046732708 -2.0663090696
C 3.7641810341 0.0117464766 -2.3904826826
C 2.5866118171 0.8322199318 -2.9425161522
C 1.7463494377 1.3441571503 -1.8026066128
C 0.6533451013 0.5999165880 -1.3599947367
C -0.0886007634 0.9738224049 -0.2441571063
C 0.2746179582 2.1312569876 0.4423653991
C 1.3297509206 2.9172705781 0.0178276181
C 2.0597103174 2.5074580046 -1.0909844552
Cl 3.4252574015 3.4934779018 -1.5742028639
F -0.3815980241 2.4758142735 1.5576852932
N -1.1579162487 0.1807233751 0.2067026728
C -2.4463337277 0.6198181313 0.4685050877
O -2.9258382202 1.7303169858 0.4186462803
N -3.0962179297 -0.5960878340 0.7922804028
C -2.1898975346 -1.6390369204 0.6572371492
N -1.0231174719 -1.1967314375 0.2993635917
C -2.5093780092 -3.0646587474 0.8965241671
C -4.4668534185 -0.6416300681 1.1534407254
F -4.6174153342 -1.2100028957 2.3886276005
F -5.1689871676 -1.4290574874 0.2825762697
Cl 4.7825814278 -0.6056978243 -3.7538891592
H 3.6330963689 -1.0032975603 2.3539578461
H 2.1111303256 -1.8568137912 2.6802909060
H 2.0784763887 -0.2483388158 1.9361911635
H 1.6577657879 -2.0146985312 0.2159083835
H 3.2056455869 -2.7948234655 0.6157326395
H 2.9829481528 1.6515073860 -3.5463177595
H 1.9897802673 0.1811428118 -3.5870355932
H 0.3832307796 -0.3144895581 -1.8788882337
H 1.5891629908 3.8123346152 0.5692722002
H -3.3127091606 -3.4013623614 0.2344759375
H -2.8380571784 -3.2235803594 1.9280482657
H -1.6131714137 -3.6560342693 0.7060932507
H -4.8768098178 0.3740538341 1.1540265453
H 4.4097459867 0.6270631250 -1.7613437998
