47
CONF70
C -2.1069352480 0.4440520453 4.1114948230
C -2.7201619563 0.7335970741 2.7582921252
C -3.2290512151 -0.4589497552 1.9911842760
C -1.9073522951 0.2248576327 1.5681915138
C -1.8182360195 0.9738949535 0.3103088884
O -2.6999671703 1.5587362728 -0.2846013622
O -0.5273998597 0.9363581645 -0.1558310489
C -0.2905738256 1.6744683997 -1.3814751278
C -0.9297462176 0.9763432396 -2.5043651485
N -1.4039308287 0.4240111819 -3.4011368829
C 1.2021294927 1.7793894201 -1.5758950866
C 1.8068110756 3.0334102015 -1.5812330164
C 3.1876071264 3.1215223620 -1.7499482313
C 3.9560851427 1.9743747388 -1.8955802809
C 3.3342815690 0.7248998252 -1.8826382729
C 1.9555523175 0.6163689671 -1.7357154463
O 4.1491933916 -0.3651848132 -2.0883492632
C 3.7620942659 -1.6039715130 -1.5900471714
C 3.4046362216 -1.7623987356 -0.2534612697
C 3.0986153135 -3.0369967603 0.2137424236
C 3.1594850836 -4.1376853232 -0.6405113833
C 3.5291660527 -3.9599367051 -1.9716912552
C 3.8291251163 -2.6884024082 -2.4560438365
C -4.4237833314 -0.3918694762 1.1493276624
C -5.2053274170 -1.4268262270 0.8405607134
Br -6.7677256399 -1.2097562928 -0.2299040239
Br -4.8905027675 -3.2174224837 1.4062930892
C -3.4320874285 2.0640346141 2.6906101965
H -1.3728477069 1.2158589140 4.3658986201
H -1.6098607205 -0.5296016778 4.1285438139
H -2.8882504640 0.4482489287 4.8791049188
H -3.0504617338 -1.4217323786 2.4596726757
H -1.0091907885 -0.3297138451 1.8165332472
H -0.7407757088 2.6700705541 -1.3069460590
H 1.2079049691 3.9290357999 -1.4542539890
H 3.6702863804 4.0932059005 -1.7574551000
H 5.0322746610 2.0297296477 -2.0208862650
H 1.4740710549 -0.3560968234 -1.7418307671
H 3.3682089912 -0.9020583614 0.4070759477
H 2.8201188420 -3.1695161042 1.2545231450
H 2.9226132221 -5.1289391098 -0.2682372067
H 3.5807637645 -4.8119726741 -2.6422194115
H 4.1151304643 -2.5303742912 -3.4906831269
H -4.7172644110 0.5693510542 0.7424532018
H -3.8260252743 2.2968014661 1.7019354323
H -2.7381518741 2.8617147293 2.9754266067
H -4.2605437274 2.0650704073 3.4068134019
