63
CONF12
C 4.8930060954 -2.6287224210 2.6153373380
O 4.0858981183 -3.6926853235 2.0483221120
C 3.5917740656 -3.4407319592 0.8375784548
O 3.7652239658 -2.4417554166 0.1770257305
O 2.8772138080 -4.5260859070 0.4661191784
C 2.1407403254 -4.3828180874 -0.7577196773
O 0.9695991595 -3.6299901764 -0.4768260083
C 0.8082293760 -2.4462051105 -1.1223029325
C 0.6037519133 -1.2824787701 -0.4159600457
C 0.8534508737 -1.1412493083 1.0585339134
O 1.0975393078 -2.1099538200 1.7755085454
N 0.8519274872 0.1393929773 1.5349740239
C 1.5980451131 0.4769764549 2.7505505133
C 2.9215323774 1.1096393105 2.3246357903
O 2.7053354929 2.2483534093 1.4790887328
C 2.0011431127 1.8997695744 0.2861987065
C 0.6420855398 1.3108195492 0.6708135447
N -0.1917849325 0.9983524981 -0.4673797257
N 0.3330363152 -0.1273993989 -1.1344390980
C 0.3229170310 -0.0992299855 -2.4893073255
C 0.5648900001 -1.2208574081 -3.2215297268
C 0.7761387082 -2.4885726291 -2.5899185468
O 0.9295866148 -3.5666492258 -3.2019903722
C -1.6408643520 0.7579867419 -0.0885035131
C -2.2515498664 1.9882564770 0.5410696995
C -2.2690090351 3.2335641430 -0.1118921005
C -1.6335784111 3.4336429677 -1.4476174602
S -2.6014210658 2.6524634276 -2.8000982434
C -2.8264325080 0.9270924263 -2.4067122670
C -3.5231377406 0.2573072435 -3.4268520949
C -3.8123735332 -1.0944695159 -3.3382618055
C -3.4236731452 -1.8138399910 -2.2107991622
C -2.7441894780 -1.1563772601 -1.1974312147
C -2.4204134803 0.2077392233 -1.2655155564
C -2.9152680701 4.2880954619 0.5218668001
C -3.5162842201 4.1347271975 1.7645067441
C -3.4936062806 2.9168180651 2.4129908759
C -2.8554628361 1.8483454620 1.7910655043
F -4.1162845159 5.2014764489 2.3272964471
F -2.9698090613 5.5007246849 -0.0651410699
H 5.7280681430 -2.3939722985 1.9521471137
H 5.2528105516 -3.0210474950 3.5651806614
H 4.2748212143 -1.7428796126 2.7753872388
H 1.8520037568 -5.3982196411 -1.0252037119
H 2.7575176096 -3.9059102366 -1.5193262443
H 1.7681157581 -0.4288796490 3.3351053713
H 1.0071446363 1.1858615120 3.3420469015
H 3.4699329451 1.4722449096 3.1979194864
H 3.5324659439 0.3639787474 1.7921704148
H 2.5789682103 1.1752567570 -0.3096466211
H 1.8605675553 2.8210704024 -0.2851491170
H 0.1066410077 2.0611566041 1.2657904296
H 0.0982873761 0.8675242237 -2.9252065910
H 0.5531134632 -1.1639981006 -4.3037707114
H -1.6711133152 -0.0241438367 0.6803337812
H -0.6134423412 3.0524483486 -1.4674634040
H -1.6234019199 4.4885159773 -1.7298409179
H -3.8360998391 0.8133761944 -4.3064994774
H -4.3451057223 -1.5806661848 -4.1492193036
H -3.6472172933 -2.8714226443 -2.1211329911
H -2.4399070780 -1.7125344937 -0.3152712908
H -3.9634568887 2.8150976147 3.3849248633
H -2.8286387308 0.8856701839 2.2912819104
