47
CONF51
C -2.1492653090 -2.3674986312 -0.9075334086
C -1.5485239620 -1.8640160738 0.3849374361
C -2.3461263261 -1.9088895143 1.6659696628
C -2.1612911615 -0.5737549161 0.9406255613
C -1.3077457577 0.4485092262 1.5561832567
O -0.4996569685 0.2968632004 2.4459200019
O -1.5245810385 1.6578195787 0.9360157394
C -0.6860115167 2.7527826812 1.3611675225
C -1.5805971517 3.8475848386 1.7352259713
N -2.2881103278 4.7064026560 2.0419817714
C 0.2934948758 3.1310685820 0.2628006364
C 0.8585627887 2.1084353424 -0.4965099934
C 1.7985780927 2.4312192983 -1.4709848176
C 2.1753794234 3.7523820439 -1.6990750735
C 1.6008260125 4.7593592622 -0.9338448080
C 0.6625990760 4.4581340460 0.0505954122
O 2.3382776078 1.4786265661 -2.3091515120
C 2.6065162544 0.2075662697 -1.8203332867
C 3.2295472158 0.0132223783 -0.5897078197
C 3.5589019400 -1.2817733641 -0.1998857844
C 3.2779086548 -2.3660174813 -1.0297415379
C 2.6568613708 -2.1515686286 -2.2579295125
C 2.3129417839 -0.8628441659 -2.6585406316
C -3.6929071102 -2.4796734971 1.7353599140
C -4.1813579118 -3.1736878128 2.7636272028
Cl -5.8011741811 -3.8234597845 2.7622577683
Cl -3.2903032240 -3.5241226290 4.2196705816
C -0.0589478972 -2.0911630164 0.4870960181
H -1.6074390194 -1.9324852907 -1.7540120984
H -3.2046763269 -2.1094275928 -1.0138060250
H -2.0483073767 -3.4569294568 -0.9637987873
H -1.7404618382 -2.0017033522 2.5619870420
H -3.0064626501 -0.1908192177 0.3792322088
H -0.1350118208 2.4460978816 2.2618790008
H 0.5700796010 1.0734784318 -0.3505001372
H 2.9041677292 3.9743498384 -2.4711697235
H 1.8866210308 5.7919417045 -1.1052645786
H 0.2247418454 5.2552032949 0.6421316735
H 3.4587985885 0.8613331195 0.0470706330
H 4.0467771340 -1.4399455234 0.7568918316
H 3.5390848629 -3.3720923877 -0.7185694749
H 2.4300655894 -2.9902008549 -2.9087895403
H 1.8278808479 -0.6775938325 -3.6112547155
H -4.3601779786 -2.3328854298 0.8915513977
H 0.3458842591 -1.7747266277 1.4493776800
H 0.4625007141 -1.5472541983 -0.3086200972
H 0.1521410742 -3.1578462624 0.3565141449
