29
CONF49
C -4.7368824939 -1.0973145958 -0.6902651195
C -3.3247483890 -0.7991617872 -1.1255972046
O -2.8151367043 0.2664658743 -0.2464634444
P -1.3659325201 0.8866514325 -0.4666845212
S -0.9013381986 1.5959193394 -2.2059444586
O -1.2454112313 1.9401942682 0.7074941685
C -1.5067222840 1.5674396593 2.1172339641
C -2.7789320278 2.2324984554 2.5792911906
O -0.4779311624 -0.4410866094 -0.0090753080
C 0.8751094420 -0.5089520423 -0.1077500921
N 1.5951086407 0.5758099575 0.1146644811
C 2.9109327721 0.5155071667 0.0541432179
Cl 3.7762725512 2.0029487076 0.3486425317
C 3.5954054147 -0.6684680180 -0.2253708329
Cl 5.3278707743 -0.7412807263 -0.2950322907
C 2.8469946926 -1.8182335487 -0.4565918553
C 1.4650632265 -1.7423196546 -0.4033995580
Cl 0.4881427477 -3.1465837176 -0.7012572149
H -5.3702475935 -0.2120522168 -0.7921325191
H -5.1426041901 -1.8898298459 -1.3259984428
H -4.7608854706 -1.4391022077 0.3479288878
H -2.6708532809 -1.6700705365 -1.0169103499
H -1.5591593330 0.4784357021 2.2014430750
H -0.6310882074 1.9250126601 2.6633978671
H -3.6404746721 1.8636900178 2.0166013674
H -2.9317099488 2.0038207865 3.6388617499
H -2.7129913862 3.3178839775 2.4663035518
H 3.3396271783 -2.7568986606 -0.6818176569
H -3.2819418119 -0.4361689375 -2.1572601647
