41
CONF117
C -3.9224917726 3.1894779518 0.6706833360
C -3.8966941104 2.5259465899 -0.7056596007
N -3.5500289308 1.0979226326 -0.6666850884
C -4.6526751654 0.1395778583 -0.6611666834
C -5.0333892269 -0.3165136183 0.7472762236
O -5.9901611376 -1.3670796790 0.5832525222
C -2.2604097820 0.6836257940 -0.5345841774
C -1.9255350947 -0.6957876482 -0.4422020191
C -0.6139824497 -1.0946205651 -0.3398587716
C 0.4423270957 -0.1624406223 -0.3146353494
C 0.1196168523 1.2115275946 -0.3967627616
C -1.1848830033 1.6224428919 -0.4979113093
N 1.7120419134 -0.6860074007 -0.1984478113
N 2.6704452673 0.1570859078 -0.1934433432
C 3.9387793669 -0.4154806694 -0.0428132350
C 4.1883156992 -1.7804937863 0.2084845647
C 5.4840336841 -2.2320075154 0.3550758763
C 6.5409511861 -1.3229081491 0.2506861491
C 6.3210611964 0.0322066965 0.0043709047
C 5.0206784545 0.4780570088 -0.1372274154
N 7.9056252502 -1.8020669876 0.4086874974
O 8.0807755040 -3.0002092850 0.6414136281
O 8.8261261702 -0.9886212091 0.3051738270
H -4.6885048570 2.7394536168 1.3076013498
H -4.1522506933 4.2534405441 0.5580003048
H -2.9571902923 3.0985684345 1.1767026699
H -3.1986586155 3.0444576689 -1.3706357876
H -4.8820816127 2.6011615071 -1.1722100243
H -4.3963151388 -0.7363958118 -1.2672892945
H -5.5167517926 0.6119668199 -1.1355569797
H -4.1403036749 -0.6715183316 1.2818135507
H -5.4614217016 0.5232702866 1.3110093902
H -6.3051193830 -1.6229643396 1.4581297784
H -2.6975289264 -1.4536016578 -0.4467053211
H -0.3717205359 -2.1508543933 -0.2710497425
H 0.9137308618 1.9486445510 -0.3731146611
H -1.3865363280 2.6841888378 -0.5470896809
H 3.3585382244 -2.4711455016 0.2916758276
H 5.6890918262 -3.2770716476 0.5512425070
H 7.1573123402 0.7154162724 -0.0705147281
H 4.8151843533 1.5265078308 -0.3257166247
