39
CONF309
C 9.0483940417 -0.0833349461 -1.0023224245
C 8.0639503614 0.9410940854 -0.4420089874
C 6.6869944850 0.3401351267 -0.1574839227
C 5.7152562908 1.3735687436 0.4148630848
C 4.2953673315 0.8632384783 0.7229586252
C 4.2540008536 -0.3225215899 1.6966378382
C 4.9228539951 -0.0344010581 3.0390941276
C 3.5797956065 0.5266729654 -0.5804064462
O 2.1674383153 0.2140711579 -0.3393156173
C 1.3365181198 1.2540794794 -0.2327027656
O 1.6407705944 2.4207002239 -0.3526848506
C -0.0677995592 0.7810368257 -0.0011782684
C -0.6168574292 -0.0910439663 -0.9340514817
C -1.9421440859 -0.4844683841 -0.8311976026
C -2.7402280184 -0.0285661164 0.2220976895
C -2.1794371942 0.8291370687 1.1845617467
C -0.8443435410 1.2338363703 1.0667271264
Br -0.0383959084 2.3285846886 2.3937923706
Br -3.2302083145 1.4344326076 2.6397037463
Br -4.5474822340 -0.5714098743 0.3486542625
Br -2.6100315960 -1.6552894225 -2.1702798356
H 9.1936805792 -0.9100475614 -0.2979914117
H 8.6772598378 -0.5078320380 -1.9418634123
H 10.0266721677 0.3662175520 -1.1997498432
H 8.4650592814 1.3718580777 0.4851999454
H 7.9545901471 1.7750021726 -1.1480471178
H 6.2879882094 -0.0883923502 -1.0868259094
H 6.8032844843 -0.4961875280 0.5441994911
H 5.6343130163 2.2158773951 -0.2857922695
H 6.1418738081 1.7886483410 1.3359813783
H 3.7511585019 1.6995404152 1.1843240276
H 4.7204989494 -1.1982072789 1.2266908930
H 3.2048349677 -0.5895943702 1.8691935532
H 4.7706353592 -0.8654272124 3.7345344794
H 6.0018375094 0.1146568281 2.9314477459
H 4.5039750655 0.8687724392 3.4976085724
H 3.9700014595 -0.3863848953 -1.0351637255
H 3.6358410315 1.3520761201 -1.2955023634
H -0.0071580452 -0.4499618535 -1.7543496493
