37
CONF64
C -5.6507758185 1.6785164297 -2.1133607648
C -6.5446329927 1.3103941299 -1.1143596256
C -6.0926497163 0.6046224546 -0.0037667674
C -4.7490430696 0.2514765937 0.1039894939
C -3.8432987079 0.6096009165 -0.9054411219
C -4.3068525128 1.3336563703 -2.0047123223
C -2.4049533856 0.1660649091 -0.8924827519
O -2.1045793686 -1.0297526713 -0.9118914677
N -1.5016105008 1.1671227163 -0.9165397794
C -0.0652593222 0.9127738193 -0.8914303113
C 0.4040390707 0.5824183598 0.5255761777
C 1.8740858134 0.3040368730 0.6257136709
C 2.4713331999 -0.0659866746 1.8429764621
C 3.8277377216 -0.3180240956 1.9206825297
C 4.5777095374 -0.1852660242 0.7550934161
C 3.9352902818 0.1837655028 -0.4198054730
N 2.6221419149 0.4203615674 -0.4775059939
C 6.0473968640 -0.4779657424 0.7776382556
F 6.2962690951 -1.8124461613 0.7026468911
F 6.6982623344 0.1012820184 -0.2547241498
F 6.6302536091 -0.0406194787 1.9197856048
Cl 1.4975082071 -0.2068813162 3.2904667641
C -4.2970021858 -0.5006709419 1.3269959767
F -3.0671511648 -0.1101153175 1.7474667935
F -5.1387366754 -0.3114130502 2.3726979545
F -4.2390174069 -1.8410934452 1.1235816263
H -5.9962680017 2.2336715216 -2.9792771147
H -7.5932419574 1.5772054746 -1.1903859776
H -6.7865432755 0.3365346433 0.7844452386
H 0.4430894172 1.8008179048 -1.2732298109
H 0.1545365050 0.0816851402 -1.5666312921
H -0.1496501189 -0.2882103844 0.8983043307
H 4.2878184300 -0.6035171151 2.8601823158
H 4.4919550204 0.2971221246 -1.3462640199
H -3.6080154224 1.6115675046 -2.7874074953
H 0.1529091514 1.4093265050 1.2032561389
H -1.8287787991 2.1147950704 -0.8026507078
