52
CONF80
C 2.2229639621 -0.1290415094 -3.8199932518
C 2.0805403567 0.7779338902 -2.6195529684
C 3.2541507847 1.7457344995 -2.4503724893
C 3.1411146838 2.5165504174 -1.1289818371
C 2.9645047129 1.5480507664 0.0484960889
C 1.8408701942 0.5473526120 -0.2252491981
O 1.9981198103 -0.1019834369 -1.4530239563
O 0.5974271893 1.2923541603 -0.1461558665
C -0.5438632843 0.5226309610 -0.1098317523
C -0.8755890069 -0.1926801115 1.0100622022
O -1.9697314397 -1.0030936963 1.0219844871
C -2.7862815482 -1.1063031785 -0.0684276889
C -3.8556677735 -1.9806601354 0.0385581205
C -4.7131246839 -2.0844837521 -1.0583445780
C -4.5168801602 -1.3390867984 -2.2265959005
C -3.4406707689 -0.4707939976 -2.3065373457
C -2.5413256011 -0.3365133069 -1.2125483258
C -1.3946663186 0.5329965461 -1.2774048275
O -1.1511746755 1.2489689767 -2.2834679313
O -3.2403845684 0.2440378396 -3.4256395035
O -5.7856351714 -2.9131961836 -1.0482179570
C -0.1488825366 -0.2340597925 2.2758222528
C 0.5040606110 0.9079451156 2.7662901285
C 1.1985055847 0.8545298565 3.9613366254
C 1.2516738783 -0.3494515975 4.6875818086
C 0.5941612718 -1.4783782071 4.2110836072
C -0.1080167871 -1.4244680610 3.0141673966
O 1.9649371465 -0.3078310081 5.8458170549
O 1.8168561102 1.9780406886 4.4187069646
O 4.1702068095 0.8305522192 0.3075924230
O 2.0795089496 3.4777663371 -1.2027867127
O 3.3181954636 2.6555188280 -3.5456167100
H 2.2784958981 0.4718336305 -4.7305742408
H 3.1335833476 -0.7319760554 -3.7393024104
H 1.3599669873 -0.7966634467 -3.8946997880
H 1.1436349595 1.3451986461 -2.6852938059
H 4.1928773499 1.1760879926 -2.4609272465
H 4.0577297058 3.0949939144 -0.9711315058
H 2.7362470752 2.1135662292 0.9578636500
H 1.8416077058 -0.2442549493 0.5321146691
H -4.0127505152 -2.5532922831 0.9459355224
H -5.2017766946 -1.4417334114 -3.0603737069
H 0.4642474669 1.8484937141 2.2305892210
H 0.6411364906 -2.4025479132 4.7803329123
H -0.6067253142 -2.3123222527 2.6445729213
H 1.9463639397 -1.1699799490 6.2833119772
H 2.2488089725 1.7795640726 5.2623750459
H 4.2895634954 0.1698135630 -0.3892059390
H 1.2364855571 3.0101964501 -1.0947903729
H 2.6524628206 3.3374062780 -3.3653470026
H -5.8340913021 -3.3804295157 -0.2026258059
H -2.4172989457 0.7868988522 -3.2563651042
