36
CONF82
C 2.6242039606 2.1686941322 -2.9016704726
C 2.2889583839 2.5604402910 -1.4559047428
C 2.1874740231 1.3614480068 -0.5644162021
C 1.0819255075 0.9717463927 0.0735682342
C 0.9815475688 -0.2575126827 0.9268221576
C 0.1310276740 -1.3717761087 0.2934686306
C -1.3086240581 -1.0507463765 -0.1475974207
C -1.6198234124 -2.1583917316 -1.1707184426
C -0.3153561316 -2.3019435739 -1.9576328748
C 0.7706362676 -1.9757950107 -0.9527454461
O 1.9626030597 -2.1621864448 -1.1089287725
C -2.3250089864 -1.0039313015 0.9943038373
C -2.1261924345 0.1951351137 1.8849587788
O -2.0868431448 1.3457280610 1.4920978435
O -1.9963820963 -0.1496521758 3.1794318300
C -1.7957580476 0.9499027887 4.1042242421
H 2.7309225502 3.0555941874 -3.5340486286
H 1.8343623749 1.5381574376 -3.3230264689
H 3.5630707534 1.6062658371 -2.9448555991
H 1.3476392389 3.1216977517 -1.4275816251
H 3.0753702866 3.2298215744 -1.0809818444
H 3.0934392207 0.7591147146 -0.4651774198
H 0.1780531263 1.5730501953 -0.0288634275
H 0.5568978154 -0.0035161868 1.9066074234
H 1.9826377372 -0.6633334177 1.1102834154
H 0.0770390738 -2.2125772564 1.0078187935
H -1.3187988843 -0.0854061105 -0.6691334058
H -2.4794525322 -1.9097638582 -1.7982739725
H -1.8436168797 -3.0926353127 -0.6406979200
H -0.2483799684 -1.5336280259 -2.7422259319
H -0.1482309418 -3.2722930857 -2.4323286016
H -3.3335840396 -0.9148153314 0.5705037316
H -2.2825493699 -1.9258680667 1.5810881524
H -0.8767554681 1.4859450630 3.8544002729
H -1.7160583914 0.4886880357 5.0876143177
H -2.6463935128 1.6343418771 4.0665411675
