27
CONF1
C -3.1798838548 -0.0424968123 0.9404718913
C -3.8587264744 -0.0522680309 -0.4306777025
O -3.3934488572 -1.0925872152 -1.2920218432
C -1.7973869426 0.5657484455 1.0040919453
C -0.6799325834 -0.1352563952 0.1701620596
C 0.7845854447 0.2358209054 0.5960108399
C 1.8528298673 -0.0917583660 -0.5070658671
C 3.3157344836 -0.1645904377 0.0512382940
C 4.4234667310 -0.0441860445 -1.0468624611
F 4.4956712441 1.2029634040 -1.5228501208
F 4.1726602396 -0.8880535726 -2.0578267603
F 5.6058161778 -0.3615432013 -0.5016477763
F 3.4870757244 -1.3508043522 0.6737171332
F 3.5135035894 0.8356283906 0.9410517521
F 1.5607707280 -1.2866331353 -1.0711575003
F 1.8015474762 0.8667538650 -1.4607289304
F 0.8534996818 1.5598777492 0.8641051178
F 1.1053885463 -0.4570811065 1.7150465072
F -0.8159289870 -1.4776149074 0.3008866213
F -0.8332218248 0.2020508590 -1.1354464206
F -1.3708211210 0.5604086887 2.3140337719
F -1.8379700082 1.8762317685 0.6045682795
H -3.7757032781 0.5703173528 1.6277652429
H -3.1399190587 -1.0544243328 1.3550391545
H -4.9398988789 -0.1419976100 -0.2653392515
H -3.6801169313 0.8899308641 -0.9572644636
H -3.6695915257 -1.9350603858 -0.9092994227
