15
CONF14
C -1.4314861166 1.0326593021 -0.1117169270
C -0.6116851594 0.1195284984 0.7920771667
C 0.6578205312 -0.5658891719 0.2012578983
C 1.6776846172 0.3696110420 -0.5085589363
F 2.7744096492 -0.3312904557 -0.8313182646
F 2.0358979627 1.3824935755 0.2937056192
F 1.1503077890 0.8742819100 -1.6340617739
F 0.2868286754 -1.5125744198 -0.6936485760
F 1.3176759518 -1.1803704298 1.2191020380
F -1.3971942750 -0.9125779921 1.2416937638
F -0.2156173747 0.8354033988 1.8875518571
O -1.8620231429 0.3881166982 -1.2918403492
H -0.8186030424 1.8923115816 -0.3957759270
H -2.2650845877 1.3930884232 0.5068607129
H -2.5765996629 -0.2213671452 -1.0645458223
