94
CONF31
C 9.3148035508 -1.4777876744 -3.5936201129
C 8.3828153284 -1.4957784593 -2.4004842155
C 7.5506339231 -2.7879560376 -2.3145078238
C 6.5841558391 -2.7639709323 -1.1764135568
C 5.3097886045 -2.3415155265 -1.3029797293
C 4.3722125591 -2.2219901985 -0.2224860621
C 3.1224089232 -1.7096114380 -0.3750987978
C 2.1567589830 -1.6033040301 0.6738074609
C 0.9146378935 -1.0801906662 0.4993682478
C -0.0897366005 -1.0125882419 1.5233861189
C -1.3065195488 -0.4703484097 1.3263538861
C -2.3572442134 -0.3690236840 2.3814011425
C -2.6355678524 1.0680876813 2.8262396802
C -2.9752570091 1.9898951711 1.6554356567
C -4.0467827528 3.0449237238 1.9998939127
C -4.2334691207 3.9824784014 0.7940248983
C -2.8889487049 4.5792530242 0.3978257578
C -1.8598856837 3.4826764398 0.1205414459
O -1.7567888571 2.6345309330 1.2763094832
C -0.4502006669 4.0369484615 -0.0838882221
C 0.6012273650 2.9630792143 -0.3659991513
C 2.0109281212 3.5460103633 -0.3265630462
C 3.0586012985 2.5644403648 -0.7702908068
C 4.3992120787 3.0316511567 -1.1749949708
O 3.4450605576 2.6077824235 -2.1629099096
C 5.5921850240 2.1971762793 -0.9820943969
C 5.9422006169 1.1897668348 -1.7883405434
C 7.1311204158 0.3682960387 -1.5059311092
O 7.7666381390 0.3808316191 -0.4648714505
O 7.4287232898 -0.4036037142 -2.5747172987
O 0.3438553279 2.2987869607 -1.6288256160
O -2.3143240979 2.7542834683 -1.0062971146
O -5.2104815006 4.9912109641 1.0655042497
C -5.3516832209 2.3549414597 2.3041978609
O -5.9169470070 1.5886462910 1.5454284845
O -5.8375255667 2.6716832261 3.5184032796
O -3.6523927019 -0.8246549941 1.9062374005
C -3.7697271313 -2.1588332902 1.5254093992
C -5.2588182225 -2.5084725267 1.6193217708
C -5.4927960325 -3.9082651411 1.0441204262
C -4.8673169590 -4.0350725805 -0.3468849119
C -3.3925597018 -3.6382756107 -0.3022876485
O -3.2994071363 -2.2874016061 0.1835603955
C -2.7246128827 -3.6727443397 -1.6602862988
O -4.9575266435 -5.3878158521 -0.8019322546
N -6.8980711441 -4.3238811102 0.9710668107
O -6.0514625657 -1.5743143887 0.8858654471
H 10.0297153325 -2.3014713134 -3.5106726041
H 9.8713729775 -0.5375059487 -3.6339414534
H 8.7517710858 -1.5983336692 -4.5243679448
H 8.9308055690 -1.3293799246 -1.4695394093
H 8.2561915191 -3.6209392971 -2.2141572691
H 7.0189900120 -2.9057294676 -3.2663077115
H 6.9598216731 -3.0339078796 -0.1893085708
H 4.9519470273 -2.0515687948 -2.2923305579
H 4.6929736064 -2.5570571488 0.7644750341
H 2.8196212971 -1.3614648613 -1.3640111201
H 2.4390788777 -1.9789537208 1.6580801165
H 0.6423798557 -0.6951896775 -0.4844478063
H 0.1584654087 -1.4322926414 2.4992844086
H -1.5535971154 -0.0513469927 0.3527406748
H -2.0693461284 -0.9707734776 3.2557546174
H -3.4653334735 1.0329772146 3.5413927886
H -1.7651506390 1.4686666650 3.3544026014
H -3.3562054460 1.4012099045 0.8113088164
H -3.7208307884 3.6305786255 2.8681457435
H -4.6447435738 3.3999347948 -0.0371129525
H -2.5177880490 5.2093433718 1.2155156604
H -3.0080478134 5.2006270125 -0.4948584373
H -0.4687721325 4.7539550324 -0.9139966794
H -0.1656742620 4.5852913364 0.8205829242
H 0.5208024090 2.1615303318 0.3765586746
H 2.2263563352 3.8555443699 0.7039751531
H 2.0729783857 4.4419733904 -0.9579129792
H 2.9843496024 1.5490527801 -0.3742791925
H 4.5675147012 4.1107154395 -1.1364414918
H 6.2166648268 2.4492946974 -0.1262015230
H 5.3590439071 0.9456857679 -2.6702220758
H 0.5068085437 2.9377312366 -2.3383232953
H -1.5316139292 2.3215960849 -1.3974401593
H -4.8596432799 5.5664142151 1.7595049526
H -6.6764922903 2.1940344658 3.6460700211
H -3.1808441839 -2.8233814555 2.1861655983
H -5.5421705552 -2.5007805565 2.6843913432
H -4.9658469272 -4.6175188802 1.6990033486
H -5.3872568419 -3.3611825629 -1.0482796456
H -2.8698648662 -4.3149710696 0.3967961959
H -3.2417776323 -3.0001403460 -2.3526266050
H -1.6801727426 -3.3586816492 -1.5757054089
H -2.7527664727 -4.6855921964 -2.0688088389
H -5.8404794113 -5.6859726711 -0.5313098935
H -7.2687610552 -4.4505618881 1.9074543538
H -7.4400421869 -3.5748344268 0.5487883281
H -5.8363456826 -0.6866052724 1.2112139167
