73
CONF710
C -0.8336604104 3.0792619478 -0.7387007514
C -1.6606239806 2.3235019978 0.2783937279
O -2.9355645458 2.0458464324 -0.3478625501
C -3.8345441361 1.3024922979 0.4477953982
O -3.3447299021 0.0045452715 0.7550478761
C -3.4018978345 -0.9311087643 -0.3252783119
C -4.5954722364 -1.8616315108 -0.1455215463
O -5.7805345263 -1.0822126548 -0.2919391709
C -4.5577879395 -3.0124406043 -1.1497291645
O -5.6591616353 -3.8973662633 -0.9385686388
C -3.2127969876 -3.7375863223 -1.0620677399
C -3.0298500370 -4.8174040027 -2.1132818169
O -3.1664061612 -4.3186642857 -3.4441731477
O -2.1612053369 -2.7767631688 -1.2820421693
C -2.1219054680 -1.7611202124 -0.2971590807
O -1.0514394211 -0.9054516518 -0.6294542465
C 0.2202326842 -1.2880208465 -0.3136682991
C 0.5441118202 -2.5527872190 0.1788522323
C 1.8748305424 -2.8199250247 0.4808916515
O 2.1988159233 -4.0426690130 0.9284760060
C 2.8879483383 -1.8398618870 0.2958547340
C 4.2762741615 -2.1618989806 0.4859339139
O 4.6601292550 -3.2806088921 0.8838188182
C 5.2612287743 -1.0818938142 0.1263749958
C 4.6562055408 0.2988454307 0.3436165129
O 3.4070624643 0.4159216696 -0.4116859186
C 2.5023842902 -0.5707636136 -0.2044333934
C 1.1836342473 -0.2934671652 -0.5136076832
C 5.5508404091 1.4212165071 -0.0888422380
C 5.8826936777 1.5944439049 -1.4352565609
C 6.7336735890 2.6172461570 -1.8329051873
C 7.2766226305 3.4776651008 -0.8739651350
O 8.1243009192 4.4954687006 -1.2010415674
C 6.9553870163 3.3158891500 0.4740038054
C 6.0915650446 2.2958806815 0.8547876216
C -4.1195290478 1.9830340764 1.7925883028
O -4.8106666457 3.2189725667 1.5828867039
C -2.8103406611 2.3203066065 2.4961933344
O -3.0336392188 3.0287565251 3.7184706262
C -1.8960479405 3.1125519120 1.5652800047
O -0.6243652747 3.3313140961 2.1817025783
H -0.7272428741 2.4871192173 -1.6524507873
H -1.3136559321 4.0311796691 -0.9886085777
H 0.1622812004 3.2821307443 -0.3376527402
H -1.1729693990 1.3732071284 0.5370384670
H -4.7535982171 1.2384404063 -0.1461692883
H -3.4616803472 -0.4113296532 -1.2912328185
H -4.5443804676 -2.2863720402 0.8734388876
H -6.5282504201 -1.6913436446 -0.2170192270
H -4.6827961045 -2.6140608906 -2.1628133989
H -5.5664972367 -4.2918229694 -0.0590168715
H -3.1003226476 -4.1951856942 -0.0630956212
H -3.8035813903 -5.5778148085 -1.9778694270
H -2.0474802913 -5.2881641285 -1.9663257862
H -2.4694237108 -3.6635476469 -3.5799814493
H -1.9728061973 -2.1931062741 0.7066725883
H -0.1880268809 -3.3400369320 0.2998844659
H 3.1922932177 -4.0418755726 1.0340431417
H 6.1684694896 -1.1944424540 0.7262099276
H 5.5375970619 -1.2121653790 -0.9295045760
H 4.3985534461 0.4185679766 1.4050308629
H 0.8960664398 0.6837178987 -0.8811395970
H 5.4669464992 0.9296944233 -2.1868463454
H 6.9812972437 2.7506487410 -2.8827720609
H 8.2672609320 4.5041739876 -2.1575137334
H 7.3778470896 3.9934956646 1.2087796561
H 5.8369150560 2.1784656481 1.9045252516
H -4.7165514919 1.3049683728 2.4158041607
H -5.7494677653 3.0246996398 1.4725161939
H -2.3024312503 1.3884930300 2.7706788992
H -3.6539039511 3.7439914405 3.5120743058
H -2.3708176227 4.0749102076 1.3138751069
H -0.8054143372 3.6700220520 3.0696569441
