123
CONF3
C -1.5104701945 3.9847342759 2.7843404104
C -0.3595056909 3.3189895818 2.0138232372
C 0.5007856966 2.5643402713 2.9901410317
C 1.8503941789 2.5527194934 3.0673594797
C 2.7382734140 3.1522815679 2.0991724176
C 4.0895726789 3.1576065061 2.0598451311
C 5.0265466547 2.6647953690 3.1225609201
O 5.8665855999 3.4424339575 3.5847511505
N 5.0284338774 1.3541515968 3.5381756546
C 4.0898006018 0.3565113617 3.2352739790
C 3.5104475386 -0.3677725861 4.2499102138
C 2.3576932192 -1.2450672456 4.0285581640
C 1.6811974710 -1.1906271288 2.7920310309
C 0.3844497378 -1.7170119361 2.7092403356
C -0.1608392898 -2.4314271023 3.7857058070
C 0.5289907313 -2.6580361795 4.9716201787
C 1.7762651376 -2.0328976818 5.0663469969
O 2.5147599686 -2.1698306462 6.1975997248
C -0.0436944291 -3.4634578847 6.0982256531
O -1.4331477896 -2.8467456188 3.5883633868
C -1.9567282770 -2.0874560956 2.4345396173
C -0.6941228954 -1.4626224077 1.7919763523
O -0.7565570389 -0.7962081279 0.7702966485
O -2.6879307988 -2.9147565474 1.5899986550
C -1.9981731941 -3.5780347539 0.5711526033
C -2.2299721311 -3.2698582527 -0.7004204155
C -3.1657903029 -2.1796388878 -1.1523180228
C -2.5315709461 -1.2745248974 -2.2264485758
C -3.1357664075 0.1371305825 -2.2875877039
C -2.9107219166 0.9845786212 -1.0025421277
C -2.1762265878 2.2937793709 -1.3632262102
C -1.7593068966 3.1743446504 -0.1590708522
C -0.9057723664 2.4145287227 0.8820401672
O 0.2097595320 1.7944790920 0.2063193515
C -1.0689774601 4.4430960707 -0.6767441961
O -1.0439557722 2.0187005985 -2.2066441695
C -4.1970917539 1.2639405810 -0.2201156148
O -4.5579505673 -0.0112413548 -2.5944321361
C -5.1487607806 0.9394488675 -3.3372307676
O -4.5799666148 1.9211713288 -3.7767180614
C -6.6033204945 0.6242551613 -3.5390086418
C -2.5084356907 -1.9270052677 -3.6102832462
O -4.3628346690 -2.7704958441 -1.6905649741
C -5.2243902822 -3.2747086715 -0.6749953374
C -2.8812236323 -1.0138276392 2.9650797178
C 2.4222594114 -0.6460657879 1.6745523243
N 2.2051222709 -0.7998879788 0.4099442475
C 3.3670102164 -0.2010751364 -0.2489906373
C 2.9347705279 0.9258185462 -1.2115269105
C 2.0715586570 0.3783219997 -2.3369590948
N 2.7779033773 -0.6490918110 -3.1114970356
C 3.1747908099 -1.7623160693 -2.2404729693
C 4.0642115695 -1.2919443393 -1.0943942359
C 1.9038383723 -1.1096198625 -4.1968400055
C 2.5482895585 -2.0806195852 -5.1914868293
C 3.8517071727 -1.5255258675 -5.7637174509
C 1.5425965478 -2.3767062408 -6.3075599099
N 4.2691239103 0.3315118805 0.7682723946
C 3.6891943469 0.0651178720 1.8985784640
O 3.9629737436 -0.1129796067 5.4980342857
C 4.8227365593 3.8298591795 0.9311460216
H -1.1208095723 4.5630844066 3.6271199743
H -2.0841586501 4.6620543909 2.1467995680
H -2.1936752186 3.2247761838 3.1823000766
H 0.2457576081 4.0975624938 1.5396158990
H -0.0466118920 2.0148773666 3.7579517512
H 2.2986620508 2.0306541120 3.9090892777
H 2.2522198469 3.6381841394 1.2559307499
H 5.6289469682 1.1889738913 4.3380437269
H 2.0213622897 -2.6250646059 6.8959805876
H -0.1641348192 -2.8561916858 7.0042435693
H 0.5971484056 -4.3189776414 6.3424305628
H -1.0263056890 -3.8483910820 5.8259586621
H -1.3168982547 -4.3583353847 0.9056699189
H -1.7321710067 -3.8658247153 -1.4612161687
H -3.4327398869 -1.5653289793 -0.2817987440
H -1.4933250093 -1.1103364778 -1.9047323445
H -2.6760845529 0.6518300649 -3.1339447251
H -2.2454313305 0.3995421380 -0.3616191881
H -2.8588533929 2.8952911382 -1.9786130358
H -2.6881738011 3.4719800422 0.3413238443
H -1.5223722385 1.6291761627 1.3424744306
H 0.2195984404 0.8502765895 0.4422988141
H -1.6324265757 4.8576187927 -1.5187273600
H -0.0547326337 4.2309897784 -1.0276392729
H -1.0101261958 5.2141910402 0.0962409927
H -0.3317286730 1.7866077483 -1.5837803298
H -4.7690173981 0.3475755438 -0.0505518827
H -3.9659503288 1.6975068365 0.7572509351
H -4.8451398238 1.9688189633 -0.7541962488
H -6.7166355280 -0.3839396978 -3.9467024628
H -7.1137216726 0.6456383941 -2.5708089289
H -7.0533711079 1.3562445515 -4.2084185961
H -3.5190576498 -2.0256672255 -4.0139149117
H -1.9184260854 -1.3147392742 -4.2998647390
H -2.0595855399 -2.9241987940 -3.5773489453
H -4.7476000885 -4.0785489193 -0.0961110997
H -5.5277151658 -2.4742255436 0.0167699365
H -6.1089999676 -3.6725995841 -1.1780476592
H -3.7537250910 -1.4863036779 3.4236724381
H -3.1982287673 -0.3830024057 2.1301269430
H -2.3631978268 -0.3996362333 3.7060966336
H 3.8495021851 1.3704608492 -1.6173364568
H 2.3937934603 1.6911262291 -0.6507397004
H 1.8078264911 1.1989892357 -3.0156905836
H 1.1255713567 -0.0213009282 -1.9186894139
H 3.7425250221 -2.4881871934 -2.8321317943
H 2.2870054863 -2.2869385698 -1.8368528989
H 4.9886769423 -0.8573921121 -1.4884153477
H 4.3267733901 -2.1380113453 -0.4506751101
H 1.5792711550 -0.2188282630 -4.7535963210
H 0.9858157332 -1.5802916054 -3.7830328936
H 2.7632517195 -3.0289556949 -4.6811065541
H 4.5986411783 -1.3657550154 -4.9809481856
H 3.6700552129 -0.5621111030 -6.2559177411
H 4.2714741238 -2.2120608317 -6.5067019985
H 1.9462998802 -3.1121948982 -7.0105469449
H 1.3122523604 -1.4634383459 -6.8693926267
H 0.6037703035 -2.7713898936 -5.9032733714
H 3.5506536702 -0.7269771016 6.1310315246
H 4.1209660225 4.1825053241 0.1722183237
H 5.5247055869 3.1308474002 0.4610952077
H 5.4097649485 4.6781986512 1.2981702924
