29
CONF41
C -0.9209589729 2.2398254113 -2.7515139127
C 0.0676098550 1.3754540777 -2.0092397038
O 0.1677174497 1.8416408634 -0.6091124694
P -0.3820692044 0.9781053505 0.5972301060
S -0.0539288169 1.7530047682 2.3367630984
O -1.8809010866 0.6651581748 0.1580259223
C -2.7607741938 -0.1506446064 1.0086725632
C -4.1180782105 -0.1741897373 0.3524513352
O 0.2327864872 -0.5554520269 0.3996605714
C 1.4983705821 -0.9016981969 0.7504470068
N 2.4783921034 -0.0344051105 0.5717491307
C 3.7164846732 -0.3673263790 0.8788544536
C 4.0515981895 -1.6261761538 1.3811579784
C 3.0282978307 -2.5499394801 1.5672769025
C 1.7290931215 -2.1863593678 1.2534260656
Cl 0.4171337812 -3.3007741767 1.4826317050
Cl 5.6847770459 -2.0603129833 1.7758239739
Cl 4.9411219184 0.8491732277 0.6217501602
H -0.9454074980 1.9286860602 -3.8007662599
H -1.9252167350 2.1323672742 -2.3335449999
H -0.6250308640 3.2913679897 -2.7096738363
H 1.0807223454 1.4722418907 -2.4060200880
H -0.2201764729 0.3204274394 -2.0222240658
H -2.7938978031 0.3086283158 2.0017201498
H -2.3259863469 -1.1523647165 1.0851377593
H -4.0614411738 -0.6184569723 -0.6449441572
H -4.7966573863 -0.7772540392 0.9628914964
H -4.5281066818 0.8360470139 0.2719997851
H 3.2445263707 -3.5367742070 1.9594718388
