37
CONF3
C 8.3928045191 -1.0622703798 0.3674425361
C 7.6138390608 -1.4785988561 -0.7076335343
C 6.2650512916 -1.1770955862 -0.6942902111
C 5.6439068895 -0.4880739042 0.3492742509
C 6.4741997364 -0.1031196792 1.4062924802
C 7.8307120957 -0.3656920909 1.4336781989
F 5.9298073105 0.5843743381 2.4269040211
C 4.1733963905 -0.2364969871 0.4086196647
O 3.5196441502 -0.5213700922 1.4079164578
N 3.6370345916 0.3331261091 -0.7207006011
C 2.2858498270 0.6395097222 -1.0233166127
O 2.0210565555 1.1140337366 -2.1174752639
N 1.4053240112 0.3608507903 -0.0222642438
C 0.0196464015 0.5364592325 -0.0388967408
C -0.6828256426 1.0715730869 -1.1231555421
C -2.0625611777 1.1926628849 -1.0370370254
C -2.7726788707 0.7759659916 0.0899540489
C -2.0437567578 0.3010315204 1.1838914191
C -0.6676160190 0.1678939630 1.1245506454
Cl -2.8583988450 -0.0831311533 2.6754777282
O -4.1496796174 0.9532474407 0.1697493845
C -4.9475824106 -0.0814703136 -0.2484715635
C -6.4072822695 0.4065331965 -0.1798376303
F -7.2175190187 -0.6213721388 -0.5558676266
F -6.5691936856 1.4220063579 -1.0723879721
F -4.6427257337 -0.4933103591 -1.5076164323
F -4.8156734461 -1.1828882432 0.5436020486
Cl -2.9127810196 1.9376858664 -2.3645160461
F 5.5021700470 -1.5919374632 -1.7294279836
H 9.4544065731 -1.2833229198 0.3745074758
H 8.0333108553 -2.0291077244 -1.5415283859
H 8.4258475800 -0.0262833912 2.2733160481
H 1.8233785394 -0.0273656408 0.8244021410
H -0.1664738483 1.3980882710 -2.0126874790
H -0.1281696962 -0.2103319628 1.9857492648
H -6.6755119045 0.7454294559 0.8266108438
H 4.2629196713 0.5696547068 -1.4797920746
