54
CONF381
C -3.2463837577 -2.3356228312 -1.7462943924
C -2.7570718541 -3.0325195271 -0.4739015217
C -3.9227719485 -3.5247500598 0.3847185829
C -1.7880185142 -2.1592373229 0.3543753036
C -0.5263534727 -1.8685305733 -0.4719979357
O 0.2524721641 -2.7819018874 -0.7464579815
N -0.3618463260 -0.5974221529 -0.8956248249
C 0.7870673604 -0.1743590480 -1.6796808544
C 0.3644356242 1.0247359450 -2.5463026216
C -0.7584814995 0.6178408192 -3.4709390281
O -0.6847548386 -0.2885624200 -4.2754429786
O -1.8580859364 1.3681203445 -3.2868756695
C -2.9896505071 1.0366785156 -4.1335737428
C 1.9996073770 0.1702296290 -0.8327181860
C 3.2584840576 0.2070622123 -1.4368127880
C 4.3928688772 0.5494546451 -0.7101086436
C 4.2527456170 0.8557582769 0.6388413208
C 3.0163365559 0.8208609396 1.2685787727
C 1.8916114115 0.4760168582 0.5227025493
Cl 5.6826192805 1.2880955529 1.5728856120
N -2.4444442347 -0.9663194393 0.8609700382
C -1.9661443038 -0.3095045897 1.9516718663
O -0.9228730539 -0.5964372812 2.5242002728
O -2.7948812536 0.7020201857 2.3021104507
C -2.3230839012 1.5955746274 3.3677627024
C -1.3526181166 2.6032882637 2.7791902939
C -3.5690613387 2.2345493865 3.9454808811
H -3.8699676748 -3.0224783463 -2.3264465202
H -3.8583571912 -1.4530905305 -1.5250245524
H -2.4128202558 -2.0196322123 -2.3821038010
H -2.1585098678 -3.9007481749 -0.7723302676
H -3.5624143729 -4.0178599062 1.2933270728
H -4.5821778656 -2.7019518464 0.6816110691
H -1.4385733147 -2.7550522504 1.2063012631
H -1.0169103587 0.1011254247 -0.5719531508
H 1.0531449558 -1.0048735517 -2.3430022195
H 0.0684910165 1.8666560074 -1.9139718651
H 1.2145190482 1.3345259418 -3.1618127966
H -3.7798392454 1.7264254853 -3.8407477833
H -3.2950225537 0.0019703278 -3.9613480834
H -2.7240706857 1.1754924747 -5.1840675828
H 3.3612760546 -0.0414679849 -2.4899835188
H 5.3683696540 0.5705188877 -1.1825312593
H 2.9271775694 1.0533305182 2.3238804664
H 0.9280163629 0.4309153244 1.0202623525
H -1.8240450461 0.9764432638 4.1193225422
H -1.0012447772 3.2769012526 3.5667061848
H -1.8484559859 3.2004079412 2.0070003695
H -0.4839246048 2.1030988003 2.3427132277
H -3.2861418989 2.9072581163 4.7599938483
H -4.2492555309 1.4756739316 4.3413371754
H -4.0925759355 2.8179649463 3.1814156645
H -4.5248443803 -4.2432403247 -0.1798364485
H -3.3312024729 -0.6740075395 0.4792155313
