43
CONF23
C -0.9653012503 2.5136022077 0.2555630722
C 0.0332766579 1.8083729909 1.1714042177
C 0.1090312143 2.5005824028 2.5326010699
C -0.3334416391 0.3183222211 1.3910221939
C -0.2623840322 -0.4945182450 0.1301543149
C 0.9796075414 -0.9776597866 -0.3245444336
C 1.0303610250 -1.6306548289 -1.5590378445
N -0.0376660918 -1.8604425654 -2.3124331139
C -1.2183241122 -1.4467869607 -1.8754494559
C -1.3833967254 -0.7357535258 -0.6800387750
C -2.7467654647 -0.2718998284 -0.2637503293
O -3.2756169723 -0.5395209521 0.7901361387
O -3.3043373249 0.4780124995 -1.2293124648
C -4.6654287352 0.9046514113 -0.9671018988
C -2.4060670843 -1.7983494865 -2.7625343467
F -3.4411584051 -2.2506396774 -1.9670447749
F -2.0842488306 -2.8088504500 -3.6121270965
C 2.3481308351 -2.0819791372 -2.1815342450
F 2.1611764368 -2.9986564176 -3.1408964795
F 2.9900968956 -1.0288073718 -2.7430387768
F 3.1864047953 -2.6221352068 -1.2675323113
C 2.1986532055 -0.7804264180 0.4990114499
N 3.0329841173 0.1544416893 0.3008724749
C 4.0880636362 0.1708518362 1.3170586650
C 4.1981196461 -1.2111809616 1.9839630761
S 2.5034579253 -1.9209010619 1.8595754815
H -0.9963271595 2.0647686537 -0.7420715365
H -1.9758627884 2.4743754864 0.6814645919
H -0.6931173248 3.5669716635 0.1355089781
H 1.0240803078 1.8452720290 0.7019395442
H -0.8638332012 2.4645965703 3.0370690281
H 0.3907333637 3.5519312708 2.4170379812
H 0.8459846194 2.0182872878 3.1832290282
H -1.3329622758 0.2584405458 1.8263852478
H 0.3645556138 -0.1020775312 2.1210707625
H -4.9581209453 1.4842971290 -1.8412269555
H -5.3086954869 0.0302025653 -0.8433092984
H -4.6976772232 1.5186405761 -0.0641766740
H -2.7774171895 -0.9513401786 -3.3502577916
H 5.0399243319 0.4605211612 0.8612229609
H 3.8217505093 0.9434185962 2.0531170871
H 4.4968563780 -1.1471242499 3.0320655640
H 4.8849012175 -1.8708564498 1.4459459701
