63
CONF572
C 6.8293411153 0.1358938680 -4.4438299839
C 7.3437529898 0.3743365147 -3.0266530840
N 6.2689736782 0.2848350932 -2.0314183344
C 5.3149116064 1.3902469544 -1.9255257724
C 4.8177865177 1.5022114270 -0.5061364988
N 4.1868872406 0.2311738001 -0.0954192084
C 4.7453916877 -0.9497288850 -0.5159636928
O 4.3206054966 -2.0649896988 -0.2356081832
C 6.0210156157 -0.8777537647 -1.4026732015
O 6.7078801797 -1.8935604896 -1.4935704481
C 3.0876531247 0.3458719957 0.8216188502
O 2.7292147671 1.4555555229 1.2049007586
N 2.5066371272 -0.8011932936 1.2192732413
C 1.3367451126 -0.7405668386 2.0719226286
C 0.8422365519 -2.1340602724 2.4008936968
C 0.6541728659 -2.5099127940 3.7311707031
C 0.1687900093 -3.7786495134 4.0386683659
C -0.1291216525 -4.6785667805 3.0185278613
C 0.0564777167 -4.3054912589 1.6882552419
C 0.5354981376 -3.0365023768 1.3781267375
C 0.2004643690 0.0267733166 1.3613389448
O 0.0649195357 0.0337333190 0.1425324345
N -0.6661937478 0.6477381846 2.1977851812
C -1.8299685774 1.3136781426 1.7069999180
C -2.9640580820 0.5221682240 0.9604453127
N -2.7494587869 1.4052496954 -0.1934782237
C -1.7465061254 2.1271895757 0.4060261076
O -1.1184523190 3.1024751105 0.0176807579
C -3.9375176884 1.7652034326 -0.9501847380
C -5.0391615046 2.0791066572 0.1230957785
S -4.7286710307 0.7584333729 1.4325552882
C -6.4481741556 1.8841866089 -0.4223733693
C -4.8646145369 3.4728756563 0.7205782272
C -3.8046798194 2.8883307406 -1.9831174212
O -2.7568535506 3.7057908932 -1.9685419446
O -4.6840864052 3.0258927768 -2.8088151530
H 7.6598664194 0.2095719434 -5.1516811625
H 6.0767575697 0.8792484019 -4.7228068809
H 6.3865088494 -0.8608033517 -4.5297118832
H 8.1008362925 -0.3659894941 -2.7606537394
H 7.7895253831 1.3706008337 -2.9385704522
H 4.4769938133 1.2521475541 -2.6223327647
H 5.8327154946 2.3157121508 -2.1911698486
H 5.6388187076 1.7441410385 0.1794699102
H 4.0640335829 2.2856103323 -0.4384992116
H 2.8389929422 -1.6799418437 0.8358622924
H 1.5817668920 -0.2158215762 3.0028182852
H 0.8914805200 -1.8090144870 4.5263715325
H 0.0287265958 -4.0644414634 5.0764189755
H -0.5043388696 -5.6684819240 3.2582850797
H -0.1765640628 -5.0025326770 0.8894814619
H 0.6654198749 -2.7458832901 0.3394331566
H -2.2534957725 1.9398613762 2.4972749822
H -2.7494379390 -0.5338727152 0.7780110084
H -4.2555485917 0.8826039833 -1.5167389758
H -6.5613438401 0.9028349671 -0.8901150392
H -6.6606664982 2.6587292456 -1.1647035338
H -7.1795128515 1.9789372938 0.3855001831
H -5.0813188587 4.2344938071 -0.0384738886
H -3.8530909162 3.6380639874 1.1030595738
H -5.5641753287 3.6113465023 1.5484410106
H -0.5050054580 0.6296166735 3.1944147298
H -2.0851023088 3.5143183539 -1.2519169267
