30
CONF5
O -1.9269087848 2.4830576756 -2.1280053025
C -2.3265876201 1.8504891574 -1.1724830402
O -2.4503463767 2.3796841087 0.0603832732
C -2.8033707431 0.4139804731 -1.2254829616
C -2.3928120415 -0.4278855368 -0.0465260228
C -1.0287964618 -0.6445933648 0.2300754748
N -0.0736035127 -0.0465616897 -0.6189408061
C 1.2971035612 -0.1009968426 -0.3513653796
C 2.1917782689 -0.8055114814 -1.1762389293
Cl 1.5498998300 -1.7032076163 -2.5435232072
C 3.5616122215 -0.8241875719 -0.9548957665
C 4.0789712019 -0.1442907625 0.1412675083
C 3.2353914001 0.5658934159 0.9883393226
C 1.8731319081 0.5964593100 0.7257642428
Cl 0.8467318669 1.5712030584 1.7576675498
C -0.6570323422 -1.4201514474 1.3311055629
C -1.6278315495 -1.9698020678 2.1617750523
C -2.9786201516 -1.7661611921 1.8956431215
C -3.3468205317 -1.0017018026 0.7907645227
H -3.8981268638 0.4549612572 -1.2739312720
H -2.4626118220 -0.0030000592 -2.1789525122
H 4.2097075668 -1.3787611388 -1.6233898819
H 3.6316606666 1.1140841188 1.8350808947
H 0.3939278417 -1.5995932458 1.5336252591
H -1.3211204329 -2.5688266707 3.0136487535
H -3.7389580311 -2.1966849779 2.5387501330
H -4.3983181846 -0.8331692840 0.5749256368
H -2.1552354310 3.3058636231 0.0239210870
H 5.1461354604 -0.1616880341 0.3328251773
H -0.2893229020 -0.1361745884 -1.6038843741
