37
CONF686
C 1.0407441229 -3.8623220602 0.1393698917
C -0.2187478600 -3.0341568813 0.1867784724
O -0.2635187031 -2.2361154097 -1.0437763689
P -1.1255713539 -0.9155573987 -1.1565093690
O -0.9502334716 -0.2086697382 -2.4397333835
O -2.5923134345 -1.3872875884 -0.7558030374
C -3.6937418713 -0.4226534390 -0.8257002327
C -4.9689538791 -1.1727318809 -0.5300298855
O -0.7409038400 -0.0100474535 0.1499629246
P 0.6841487233 0.6973264787 0.4896122900
O 1.8002385124 -0.2583808729 0.6783495783
O 0.8920674391 1.8083204414 -0.6304096933
C 1.7228421270 1.5256110426 -1.8098324211
C 3.0912906984 2.1362990929 -1.6231606366
O 0.1990606951 1.5297038036 1.7532339237
C 1.1757250094 1.9224835986 2.7724098946
C 2.0116525911 3.0997508338 2.3224539912
H 1.0935115726 -4.4886509409 1.0351731875
H 1.9195675161 -3.2133280796 0.1138843985
H 1.0466151411 -4.5119683089 -0.7399766455
H -1.1216243752 -3.6524698540 0.2112890931
H -0.2160375183 -2.3589694810 1.0481019294
H -3.7032826567 0.0178389098 -1.8279830269
H -3.5077587240 0.3652472176 -0.0871961223
H -4.9352312139 -1.6184409004 0.4676879832
H -5.8136987903 -0.4787162421 -0.5719758445
H -5.1320370834 -1.9635135335 -1.2670049360
H 1.1782084050 1.9690071404 -2.6456305149
H 1.7801127208 0.4454902215 -1.9699974769
H 3.6828535641 1.9830217069 -2.5315408993
H 3.0150414028 3.2114604075 -1.4369563423
H 3.6139179194 1.6636025731 -0.7868298990
H 0.5608322747 2.1750979887 3.6387725767
H 1.7943452473 1.0523767118 3.0142806487
H 1.3747635116 3.9384803998 2.0285939213
H 2.6514501066 3.4201976054 3.1510013078
H 2.6546662737 2.8326635928 1.4790911198
