46
CONF15
C 4.7990049779 3.9518272643 2.0352620672
C 4.0572595507 3.1355058709 3.0713874308
O 4.1613437746 1.7066251653 2.7879763137
C 3.3377255306 1.1641833792 1.8889077641
N 3.5630652075 -0.1281478501 1.6666302354
C 2.7312296623 -0.6863212462 0.7633151778
N 1.7448026097 -0.0224928940 0.1133199641
C 1.6314151987 1.2592964120 0.4452623240
N 2.3923594562 1.9264064999 1.3222596731
N 0.6402293272 2.0210693477 -0.1496490226
C -0.3533917382 1.6759694600 -1.0648793657
O -1.1916486434 2.4956913961 -1.4079904286
N -0.2934192800 0.3816444393 -1.5351593831
S -1.5357700329 -0.2943781343 -2.4717350223
O -1.6772248867 0.4883902561 -3.7007181753
O -1.1823015766 -1.7192127644 -2.5419231450
C -3.0519412056 -0.1241078252 -1.5204250913
C -3.9647396686 0.8400113996 -1.9308927665
C -5.1978803673 0.9255882953 -1.2919224900
C -5.5157030667 0.0362524336 -0.2712580683
C -4.6019392096 -0.9368768379 0.1228450514
C -3.3503755571 -1.0212937940 -0.4873194342
C -2.3599459153 -2.0019991017 0.0555701273
O -1.2790027359 -1.6881988289 0.5106618703
O -2.8493897568 -3.2448675891 0.0375284051
C -1.9807468899 -4.2643086379 0.6033515665
N 2.8863733835 -1.9860392284 0.4847695252
C 2.0769856401 -2.7034074740 -0.4913229883
H 4.7676973856 5.0075123707 2.3227723471
H 5.8462040667 3.6417296252 1.9773531828
H 4.3404051518 3.8493625941 1.0485838139
H 4.5192785074 3.2307211404 4.0562090582
H 3.0031248154 3.4128245486 3.1383022921
H 0.5916523667 2.9837364976 0.1582608563
H 0.3507140115 -0.2641213731 -1.0447751045
H -3.7137148133 1.5064500999 -2.7468180474
H -5.9106826926 1.6811079789 -1.6037897795
H -6.4809990846 0.0936392020 0.2204922092
H -4.8490350087 -1.6304671281 0.9194075730
H -1.0463188174 -4.3068929858 0.0391263986
H -2.5346109739 -5.1964880213 0.5069071293
H -1.7755648787 -4.0386353082 1.6520224450
H 3.6374127293 -2.4649316859 0.9560319388
H 2.3851754818 -3.7496742100 -0.4823160929
H 1.0133433985 -2.6426369648 -0.2382587539
H 2.2195442647 -2.3000462112 -1.5004208845
