42
CONF27
C -2.9818012147 -2.2727808618 0.0246906593
C -2.4034743492 -0.9247954624 -0.2382214512
C -3.0707610734 0.2194717730 -0.5604997443
C -2.1046330866 1.3039054815 -0.7157264872
C -0.8053356568 0.8016032777 -0.4547372850
C -0.9630925067 -0.6274284758 -0.1194453659
C -0.0536913887 -1.5764611824 0.2128242340
C 1.3632550523 -1.4274493110 0.5253238927
C 2.2637029621 -2.4212200145 0.1015100093
C 3.6146399773 -2.3355319729 0.4054693084
C 4.0703840128 -1.2533590527 1.1545621363
C 3.1973012100 -0.2857512840 1.6350975103
C 1.8481241757 -0.3749938016 1.3167059118
S 5.8327573441 -1.1529996317 1.6009647225
O 5.9729695430 0.0052695979 2.5918917713
C 6.4214993393 -0.5151483171 -0.0174388278
C 0.2998987561 1.6192918030 -0.6544544312
C 0.1160652201 2.9475797500 -1.0527137790
C -1.1737513004 3.4119067839 -1.2507081060
C -2.3071335332 2.6232679414 -1.1039667166
F -1.3413449165 4.7089830473 -1.6259124689
C -4.5347731226 0.4151268919 -0.7428950670
C -5.1854459700 1.1544106074 0.4071672383
O -4.6563442937 1.4351879854 1.4611587347
O -6.4669290072 1.4616497573 0.1189445516
H -2.7739885800 -2.5947374315 1.0517032235
H -4.0639479948 -2.2813375394 -0.1162404848
H -2.5473699613 -3.0272665693 -0.6415921858
H -0.4159625578 -2.6026258275 0.2559217600
H 1.8943692530 -3.2630157170 -0.4766310862
H 4.3015577765 -3.1061158239 0.0666759110
H 3.5720162257 0.5188646502 2.2595737539
H 1.1553350737 0.3622291367 1.7087418853
H 6.2146482777 -1.2664046578 -0.7845050989
H 5.8986906070 0.4213973254 -0.2280390374
H 7.4981829774 -0.3571126107 0.0808923106
H 1.3094080985 1.2532274447 -0.5122140973
H 0.9597007888 3.6107198757 -1.2077433569
H -3.2908682397 3.0346970106 -1.3057774574
H -5.0647577522 -0.5373165190 -0.8500117421
H -4.7465711395 0.9796810057 -1.6601818844
H -6.8525293278 1.9153814357 0.8878883450
