29
CONF6
C 0.1318287297 2.5489955529 3.9148439154
C -0.5362480163 2.6490355795 2.5530190860
N -0.1292150689 1.5198865001 1.7186336010
C -0.5493323051 1.3242344685 0.4606630668
N -0.1328939900 0.2021302429 -0.1640366990
C -0.5995092040 0.0550406939 -1.3998461771
N -1.4200104093 0.9246307762 -2.0540710708
C -1.7195792640 1.9738606044 -1.3196310538
N -1.3560153719 2.2687605002 -0.0874693960
Cl -2.7695395251 3.1615591414 -2.0967937494
N -0.2499014139 -1.0480759224 -2.1103130844
C 0.5213083101 -2.1787504513 -1.5935971059
C 1.9906400032 -1.8018420933 -1.3394036701
C 0.4360683645 -3.3079246372 -2.6339803875
C -0.0783065753 -2.6822906355 -0.3383495192
N -0.5198447701 -3.1511128755 0.6208029042
H 1.2223797185 2.5692893415 3.8218927649
H -0.1715065258 3.3937599089 4.5377698928
H -0.1584080115 1.6276001470 4.4302551868
H -0.2578494120 3.5839899648 2.0537577465
H -1.6282864608 2.6543464170 2.6579297850
H 0.4173929770 0.7774968782 2.1280956682
H -0.7451097455 -1.1777665036 -2.9795704548
H 2.5339302873 -2.6714589774 -0.9607976619
H 2.0618165437 -0.9903876050 -0.6153888233
H 2.4344905394 -1.4858339825 -2.2872954152
H 0.9960272399 -4.1756576154 -2.2816987533
H 0.8779994081 -2.9592829728 -3.5720388300
H -0.6023252690 -3.6042325408 -2.8050819050
