39
CONF234
C 6.1267103534 -1.1851023605 -0.2457747301
C 6.6168688794 -2.3776509732 0.5632057874
O 6.3545101906 -2.1483119127 1.9508822294
C 4.6197776250 -1.0816951815 -0.3357274246
C 4.1472644193 0.0532076662 -1.2893325954
C 2.6170557569 0.1618700305 -1.6414432379
C 1.6045739425 0.2760198538 -0.4542093579
C 0.1944709199 0.8161898616 -0.8974831657
C -0.9362713754 0.4901696177 0.1442253212
C -2.2113365260 1.3907062660 -0.0333638141
C -3.4855289908 0.7893526904 0.6589344824
C -4.6205245608 1.8471858074 0.8850107854
C -6.0269501680 1.2138481402 1.1492207192
F -6.8565004525 2.1685975268 1.5891047541
F -5.9357259380 0.2546637442 2.0812987549
F -6.5334044378 0.6909973615 0.0278194859
F -4.3022197324 2.6060406327 1.9547065310
F -4.7237603613 2.6395500840 -0.2069331671
F -3.9691341823 -0.2077509294 -0.1156037623
F -3.1333572002 0.2817340227 1.8619109864
F -2.4677602176 1.5312745089 -1.3531628998
F -1.9610600729 2.6060695125 0.5025739809
F -0.4504054593 0.6772702089 1.3914924597
F -1.2969594567 -0.8045604426 -0.0029211123
F -0.1433114588 0.2599219851 -2.0816382139
F 0.2725864598 2.1581191716 -1.0442350704
F 1.4407373200 -0.9526173744 0.0895316645
F 2.1006740781 1.1190752289 0.4769670021
F 2.4914134298 1.2818264530 -2.4031889557
F 2.2789579872 -0.9080325348 -2.3935288503
F 4.5509290398 1.2406329509 -0.7739752463
F 4.7641633154 -0.1150367684 -2.4915785213
F 4.0567926298 -0.8329673532 0.8871392087
F 4.0748126212 -2.2544905413 -0.7955623397
H 6.5123296676 -0.2536333893 0.1807192119
H 6.5156175917 -1.2765170206 -1.2639028877
H 6.1303878286 -3.2991852905 0.2159937296
H 7.6960231240 -2.4742303069 0.3822411452
H 6.6823750556 -2.9132824527 2.4388746592
