41
CONF44
C -5.0958153576 -2.1107006582 -0.3671017859
C -4.8400875252 -1.7791063870 0.9629791125
C -4.1333653286 -0.6214049053 1.2713664319
C -3.6722169064 0.2224344982 0.2551551597
C -3.9355438022 -0.1162640663 -1.0748230308
C -4.6436961449 -1.2762079889 -1.3852252069
C -2.8716656154 1.4541196480 0.5935348472
C -1.4495423598 1.1021300905 1.0438734623
N -0.7675213818 0.3341134316 0.0020116560
C 0.5771586508 0.1569857465 -0.0292552870
C 1.4701370558 0.8607087773 0.8050595394
C 2.8444166409 0.7094125471 0.6972108562
C 3.3935312255 -0.1666179359 -0.2264434088
C 2.5205206388 -0.9102358167 -1.0555950267
C 1.1544236482 -0.7352423623 -0.9579780218
C 2.9991044930 -1.8978095189 -2.1011882528
F 3.3924750540 -1.2750257232 -3.2358283898
F 2.0152382817 -2.7567818260 -2.4572351994
F 4.0276579620 -2.6545668190 -1.6658265234
S 5.2009264529 -0.3130843250 -0.2826953331
O 5.6023721157 -0.2473182139 -1.6939825341
O 5.6043791143 -1.4513314026 0.5561000120
N 5.8451816625 1.0401853294 0.4491141728
S 0.8168150766 2.0194188339 1.9918694748
O 1.5930761013 3.2648769397 1.9496147570
O 0.6076094574 1.3355516086 3.2754553767
N -0.7151196965 2.3372747125 1.3456622806
H -5.6489061600 -3.0133471575 -0.6068102995
H -5.1959839895 -2.4226369934 1.7616123656
H -3.9410406388 -0.3646986078 2.3099593012
H -3.5891925273 0.5368429999 -1.8718213787
H -4.8435511173 -1.5242028469 -2.4230503426
H -2.8129573675 2.1199844007 -0.2744561304
H -3.3386541918 2.0028496877 1.4169147951
H -1.4964728067 0.5213890085 1.9765369038
H -1.3377076545 -0.2836426350 -0.5595192201
H 3.4803994966 1.2993698205 1.3470493815
H 0.4912971650 -1.2958225974 -1.6067072616
H 5.5639201197 1.9146920876 0.0130984907
H 5.7413870329 1.0484600636 1.4596873502
H -0.6129846885 2.9352484654 0.5223164035
