39
CONF105
C 5.8148090676 -0.4533350593 -0.4348321441
C 7.2905032760 -0.6702808208 -0.0808364506
O 7.4997488788 -1.0593310257 1.2771627892
C 5.0387504502 -1.7369310803 -0.5921515525
C 3.5668201623 -1.5919545538 -1.1006006503
C 2.6630348237 -0.6177096750 -0.2756020434
C 1.1265964540 -0.8161354168 -0.5347268234
C 0.2642855130 0.4217719694 -0.0976396809
C -1.2599793155 0.0784926663 0.0725246769
C -2.1786985855 1.3525477518 0.0525004425
C -3.6042221614 1.0909722378 0.6567893587
C -4.6560507374 2.1757899902 0.2416143815
C -5.9379512042 2.1935723683 1.1390796620
F -6.4361704729 0.9559523750 1.2660876554
F -6.8580588895 2.9745525651 0.5576586464
F -5.6669703925 2.6850919676 2.3522507237
F -4.0897532326 3.4026612649 0.3129859566
F -5.0474290845 1.9407619779 -1.0284237360
F -4.0479031258 -0.1138103099 0.2314800945
F -3.5064060770 1.0733360744 2.0048573269
F -2.3191438773 1.7627179730 -1.2277008129
F -1.5824038152 2.3314175702 0.7691607811
F -1.4292554732 -0.5597962660 1.2518527894
F -1.6382067669 -0.7393437311 -0.9348301144
F 0.3897074226 1.3863576095 -1.0368683908
F 0.7335368274 0.8865880149 1.0816736580
F 0.9274346011 -1.0307259627 -1.8540901310
F 0.7110103842 -1.8998070344 0.1594601532
F 2.8992259882 -0.8012524572 1.0431372847
F 2.9978634757 0.6549820440 -0.6050785251
F 3.6103939466 -1.1465135240 -2.3805926244
F 2.9900137772 -2.8220419865 -1.0916809495
F 4.9973982561 -2.4529859713 0.5781977872
F 5.6425755665 -2.5559689527 -1.5164095318
H 5.3413714332 0.1591038023 0.3379696218
H 5.7505386446 0.0892402928 -1.3846596318
H 7.7523078911 -1.3837985168 -0.7748783859
H 7.7989372798 0.2899852980 -0.2007409409
H 7.2465607208 -1.9849149760 1.3741868661
