46
CONF143
C -0.1869332509 -1.9312575742 0.5616465270
C -1.6075246646 -1.9983641568 0.0563616744
C -2.7731412689 -1.8916519392 1.0065187670
C -2.4767456494 -0.7422451076 0.0202860713
C -1.9704050019 0.5596454444 0.4855640841
O -1.3623635238 0.7937790468 1.5119069682
O -2.2706844937 1.5170024234 -0.4348100000
C -1.8026108114 2.8507690787 -0.1518668885
C -0.3777251777 3.0786804852 -0.5907056807
C 0.4375892262 2.0437670002 -1.0348916496
C 1.7485058364 2.3214329003 -1.4150645906
C 2.2607064763 3.6097319884 -1.3811986921
C 1.4330414426 4.6438355744 -0.9451421689
C 0.1276166396 4.3832694804 -0.5473043575
O 2.5554256233 1.3055942531 -1.9097396135
C 2.8227688312 0.2266805942 -1.0871923223
C 2.8317287100 0.3265011943 0.3032488932
C 3.1767860266 -0.7917125826 1.0578395216
C 3.5107686926 -1.9939616962 0.4392955603
C 3.4971107263 -2.0757380853 -0.9523400508
C 3.1511443446 -0.9697775404 -1.7217897898
C -2.5873566145 -1.7305022704 2.4496587119
C -3.4757382545 -2.0906769863 3.3762888061
Cl -3.1622163919 -1.9068207293 5.0842364255
Cl -5.0397820939 -2.7802303541 3.0283946523
C -1.7841966205 -2.9308887236 -1.1225087123
H 0.1164539614 -2.9183239397 0.9274419021
H 0.4842496435 -1.6578530662 -0.2596160692
H -0.0435331767 -1.2057100879 1.3616759750
H -3.6555583361 -2.4542867889 0.7181500881
H -3.1578839437 -0.6746978993 -0.8209276786
H -1.9073188780 3.0559018014 0.9187893720
H -2.4781490106 3.5086614111 -0.7048301251
H 0.0761469881 1.0228108551 -1.0973081877
H 3.2848624858 3.7917233554 -1.6884379625
H 1.8155942261 5.6589943801 -0.9125084558
H -0.5083800315 5.1951217728 -0.2056824957
H 2.5750425127 1.2621331243 0.7880385497
H 3.1841280351 -0.7160784364 2.1409003454
H 3.7760382320 -2.8605644180 1.0357139777
H 3.7515319446 -3.0083810030 -1.4464246432
H 3.1347075618 -1.0187294958 -2.8056501048
H -1.6641792614 -1.2954150237 2.8130262756
H -2.8238273213 -2.9630867271 -1.4598290838
H -1.4786857797 -3.9451220325 -0.8430500190
H -1.1570073035 -2.6039594625 -1.9591402098
