41
CONF2
C -4.9672227342 -2.2310927953 -0.4952634236
C -4.7318482759 -1.9771320533 0.8554890162
C -4.1039442153 -0.7989615887 1.2461410446
C -3.7027801996 0.1433080764 0.2929549629
C -3.9454863793 -0.1181921353 -1.0583192437
C -4.5741418893 -1.2987913465 -1.4511134653
C -2.9858707724 1.3989693789 0.7193329866
C -1.5385479524 1.1132955006 1.1351829704
N -0.8173693936 0.4751847390 0.0339613813
C 0.5348577270 0.3813496754 -0.0097639919
C 1.3873199753 1.0790330456 0.8716385499
C 2.7665956512 1.0121094172 0.7573179367
C 3.3592899370 0.2273166001 -0.2212102046
C 2.5314607562 -0.5001889778 -1.1074316620
C 1.1580315790 -0.4098373687 -0.9991855805
C 3.0619304742 -1.3797347071 -2.2208980489
F 3.4369413805 -0.6563436570 -3.2991990988
F 2.1247676624 -2.2543398064 -2.6530513160
F 4.1224404088 -2.1231642626 -1.8321361902
S 5.1624324717 0.2868573256 -0.2699212411
O 5.5661720993 1.3649107118 0.6470602146
O 5.5841999265 0.3193837300 -1.6776940517
N 5.6454577032 -1.1634329008 0.4428833609
S 0.6719484111 2.1106595918 2.1377540855
O 1.3607343280 3.4060666298 2.1753161526
O 0.5240799916 1.3282422712 3.3726849613
N -0.8862673909 2.3688513052 1.5265005123
H -5.4589210185 -3.1497755127 -0.7992810909
H -5.0422796834 -2.6974166955 1.6060790208
H -3.9268118074 -0.6031814721 2.3006046548
H -3.6466679995 0.6112921120 -1.8068621144
H -4.7590276170 -1.4862602773 -2.5042995454
H -2.9814084313 2.1302542150 -0.0963533687
H -3.4812422875 1.8514170139 1.5835768972
H -1.5358446740 0.4611089606 2.0206138544
H -1.3509244813 -0.1377601757 -0.5673679690
H 3.3893817662 1.5848912483 1.4354327753
H 0.5244552113 -0.9585540456 -1.6862415571
H 6.0802633003 -1.7790724316 -0.2396264160
H 6.2795793215 -0.9661033960 1.2134703873
H -0.8357306778 3.0348339465 0.7518633567
