37
CONF2
C 1.5925439259 0.5282238963 -2.0198745076
Si 0.7225867368 -0.0736852299 -0.4784392128
C 0.2453418843 -1.9262806840 -0.6394842872
N -0.9288678598 -2.0867252655 -1.4881964532
C -2.2060351263 -2.2994589665 -1.1210178578
N -3.0073962471 -2.2524564208 -2.1832237961
C -2.1398633541 -1.9897328569 -3.1961103696
N -0.8677706756 -1.8720933443 -2.8244350344
C 1.8349668628 0.0754101162 1.0276955095
C 2.7669645671 -0.9284487137 1.3345229618
C 3.6270696345 -0.8168498129 2.4237454074
C 3.5411851495 0.3225811139 3.2058005448
F 4.3731884598 0.4414018454 4.2715415702
C 2.6432523345 1.3444554883 2.9485597172
C 1.7931047440 1.2083755363 1.8540187855
C -0.8946925967 0.8317831636 -0.1971784285
C -1.5924289346 0.6750853237 1.0110017774
C -2.8418320680 1.2535537292 1.2110499898
C -3.3892181490 1.9919697891 0.1743558935
F -4.6083615673 2.5590198506 0.3568190330
C -2.7475787600 2.1768843367 -1.0377605093
C -1.4969195149 1.5883454205 -1.2123431806
H 0.9729467747 0.3920074895 -2.9111835107
H 2.5230882440 -0.0318852665 -2.1621438351
H 1.8455281605 1.5899737450 -1.9260679458
H 1.0610618794 -2.5347393466 -1.0453151582
H -0.0106751900 -2.3232567625 0.3486271220
H -2.4973515540 -2.4840103164 -0.0952776965
H -2.4409317573 -1.8871083042 -4.2311442016
H 2.8353642710 -1.8213048969 0.7183568126
H 4.3468432976 -1.5913927442 2.6659432746
H 2.6127099858 2.2183171825 3.5905868147
H 1.0824213719 2.0043814079 1.6478760260
H -1.1576905187 0.0911171677 1.8188456571
H -3.3845263698 1.1375071810 2.1430639643
H -3.2176279687 2.7633134341 -1.8198770358
H -0.9903988761 1.7257209099 -2.1633380206
