49
CONF29
C -5.3920634576 0.4672645344 -2.3174531608
C -4.0652543339 -0.2707687406 -2.1170065546
C -3.0544570374 0.1480658285 -3.1889828827
C -3.5023361606 0.0030344671 -0.7216675706
C -4.3525176530 -0.4551064221 0.4996437809
C -4.2996618089 -2.0056354735 0.3500814528
C -2.8567146648 -2.2591072656 -0.1737821888
C -2.2561466469 -0.8232255920 -0.2888144993
C -2.1055978124 -0.3317158327 1.1271463238
C -3.4038465681 -0.1219192676 1.6238021742
C -3.6246228625 0.2197245082 2.9480585518
C -2.5148301061 0.3764182381 3.7866540785
C -1.2239508700 0.1907370133 3.3019462069
C -1.0104774143 -0.1701744982 1.9631661403
N 0.3215994383 -0.3775353256 1.5128810885
C 0.8881533485 0.2700435737 0.4548141438
O 0.2628401934 1.0213166202 -0.2968225989
C 2.3267187796 0.0076630431 0.2267021369
C 2.9233021898 0.1754557448 -1.0150496897
N 4.2340076994 -0.1024028955 -0.8712908329
N 4.5547896542 -0.4291118485 0.3895245456
C 3.4050138422 -0.3722914410 1.0675096343
C 3.4729988507 -0.6309573704 2.5274999509
F 2.9307814239 0.4208293101 3.2370240603
F 2.7065053105 -1.7407781318 2.8722854052
C 5.2585917435 -0.1033397606 -1.9075014331
H -5.7753037557 0.3047259425 -3.3302757952
H -5.2550886166 1.5465304972 -2.1772946921
H -6.1549969414 0.1279738201 -1.6100761410
H -4.2542001638 -1.3455357040 -2.2308523944
H -2.1149944266 -0.4060037896 -3.0986277465
H -3.4568049465 -0.0306889411 -4.1916710161
H -2.8263462549 1.2174003243 -3.1020569014
H -3.2828425262 1.0772195058 -0.6419726160
H -5.3575500076 -0.0420756019 0.5985400823
H -5.0522712032 -2.3437518418 -0.3687559647
H -4.4990103423 -2.5031694124 1.3028220012
H -2.8651524068 -2.7451992915 -1.1540379172
H -4.6307368908 0.3641788053 3.3310720846
H -2.6558792778 0.6593633121 4.8252946874
H 2.4944427864 0.4621653664 -1.9639826821
H 4.4947259838 -0.8049098918 2.8755483006
H 6.0987162190 0.5162657485 -1.5867177172
H 4.8244781153 0.3062582832 -2.8198719155
H 5.6035424825 -1.1246877072 -2.0885458548
H -2.2646369407 -2.8818265429 0.5020976465
H -1.3677555532 -0.7478065206 -0.9122717166
H 0.9206900930 -0.9256300139 2.1137644049
H -0.3669982708 0.3365481587 3.9534340731
