13
CONF1
C -1.7955304261 0.2537013284 0.4073952665
O -0.9333266469 0.2621995817 -0.7375933143
C 0.0095414491 -0.7874569693 -0.7166748521
O 0.9374619094 -0.6963918398 0.3422123078
C 1.7868991379 0.4532485456 0.2360969065
H -2.2981167043 -0.7185874246 0.5069076528
H -2.5416066513 1.0343898747 0.2466750127
H -1.2389302110 0.4668927146 1.3276191563
H -0.4907653108 -1.7570085517 -0.5813277123
H 0.5217089314 -0.7360833563 -1.6881275369
H 2.5276541510 0.3732458473 1.0340910896
H 1.2181228524 1.3823450232 0.3599698476
H 2.2968875191 0.4695049299 -0.7372437235
