45
CONF318
C 10.5347342712 0.2843720536 -0.7437982938
C 9.4131756156 -0.2615979357 -1.2119627584
C 8.0935996611 0.3107409104 -0.8775327383
O 7.8911711728 1.2883613749 -0.1843455365
O 7.1054447205 -0.4145301325 -1.4604811657
C 5.7516622167 0.0368036125 -1.2164683511
C 5.2907264171 -0.4909930078 0.1401636145
C 3.8040849945 -0.3803014036 0.3895690193
C 3.2376973826 1.0686143619 0.3814229785
C 1.7962013133 1.3198920070 0.9612617459
C 0.6266980279 0.4790208440 0.3500330222
C -0.7948343524 1.0744316591 0.6665250704
C -1.9499059392 0.0256442039 0.4760783329
C -3.3643477353 0.6929003940 0.3309724523
C -4.5452415853 -0.3095661328 0.5889820877
C -5.9145184819 0.1957943164 0.0173836484
C -7.1615016092 -0.5398817547 0.6106682237
F -6.9906662355 -1.8679021098 0.5512688725
F -8.2398208869 -0.2084175663 -0.1114788032
F -7.3716620215 -0.1798233676 1.8809015117
F -6.0538005605 1.5156962068 0.2808192216
F -5.9250602907 0.0065406869 -1.3190741650
F -4.2538813998 -1.4941521329 0.0055657797
F -4.6716334783 -0.4949279445 1.9220664162
F -3.4628507403 1.7060257435 1.2205974071
F -3.4819384321 1.1882219671 -0.9211197666
F -1.7019374468 -0.7003900583 -0.6366446957
F -1.9666694309 -0.7959587109 1.5495706329
F -0.8196057202 1.5102390321 1.9449722112
F -1.0182328457 2.1189358793 -0.1624487113
F 0.6920044944 -0.7751804290 0.8545024032
F 0.7707617117 0.4294828058 -0.9921422054
F 1.8317370541 1.1141783881 2.2946103329
F 1.5276571371 2.6329318476 0.7333846429
F 3.2651924156 1.5365314021 -0.8916232826
F 4.0623437904 1.8443322760 1.1347471458
F 3.5152986948 -0.9275129621 1.6124706693
F 3.1029414432 -1.0939617714 -0.5478732783
H 11.5055196269 -0.1335661248 -0.9875210294
H 9.4210745157 -1.1397287419 -1.8499121650
H 5.1640697829 -0.3903670620 -2.0307058330
H 5.7235130954 1.1271394275 -1.2665943705
H 5.8155802270 0.0170508172 0.9526352056
H 5.5115533215 -1.5624078149 0.2035335251
H 10.5013281120 1.1629496777 -0.1060147642
