42
CONF188
C -5.9839561884 1.0668525426 3.4014434907
C -4.7317276055 1.7526427562 2.8610712733
C -4.3101183206 1.1931017161 1.5258848770
O -5.2904810630 1.4577552637 0.5336014556
C -4.5895952024 1.3144184475 -0.6947102476
C -3.1489209809 1.7773344669 -0.3641005715
O -3.1242918645 1.8348221930 1.0665485573
C -2.1164129033 0.8134263112 -0.9086281227
O -0.8318349813 1.3886268755 -0.7081438519
C 0.2592237309 0.6598600996 -1.0881542327
C 1.4994026024 1.2555835622 -0.8312137599
C 2.6705876886 0.6079230415 -1.1826624148
C 2.6100404275 -0.6483132059 -1.7852206939
C 1.3878819842 -1.2454050045 -2.0425052501
C 0.2032184557 -0.5921348131 -1.7005570794
O 3.7626931951 -1.2906419153 -2.2136522143
C 4.7236591174 -1.6114705456 -1.2790461630
C 6.0012483394 -1.8633918726 -1.7764616411
C 7.0128680429 -2.2387086225 -0.9021249704
C 6.7612652467 -2.3585101357 0.4630683967
C 5.4811687999 -2.1055325757 0.9452780242
C 4.4537232628 -1.7334073275 0.0829509037
H -6.2545162507 1.4728336244 4.3797083210
H -5.8253947245 -0.0104822888 3.5187761585
H -6.8303574056 1.2119989340 2.7251714418
H -3.8898742183 1.6247232490 3.5501696818
H -4.8925236882 2.8283687297 2.7332352661
H -4.1400082957 0.0973373429 1.5814204881
H -4.5957720479 0.2615512291 -1.0253899825
H -5.0796211814 1.9308872163 -1.4512768495
H -2.9394198005 2.7855818803 -0.7397546303
H -2.2989424237 0.6473035865 -1.9840557092
H -2.1973426804 -0.1507285878 -0.3832143267
H 1.5196054781 2.2324020355 -0.3605910146
H 3.6354152096 1.0657205457 -0.9908445108
H 1.3641710886 -2.2206198411 -2.5164846324
H -0.7426625395 -1.0734947122 -1.9151092346
H 6.1791182022 -1.7631124506 -2.8415982929
H 8.0071313108 -2.4338197737 -1.2914504400
H 7.5550770354 -2.6477747197 1.1429830766
H 5.2709124739 -2.2025410188 2.0057786868
H 3.4553638857 -1.5429143342 0.4598608276
