37
CONF1
C -2.1159414270 -0.8853635933 -1.9972603219
Si -0.8619787211 -0.5311916032 -0.6545254772
C -1.4036991533 -1.5405721001 0.8828893509
N -0.7123106294 -1.1375375993 2.1006740937
C -1.1545965796 -0.3385984554 3.0889285596
N -0.1879594496 -0.1261497822 3.9804709726
C 0.8514994934 -0.8331612670 3.4637130953
N 0.5851521621 -1.4599235023 2.3204645742
C 0.8601981110 -1.0543511129 -1.1923507221
C 1.8281854838 -0.1153852882 -1.5763677135
C 3.0870659781 -0.5073610288 -2.0271537603
C 3.3619898909 -1.8620511258 -2.0892258770
F 4.5859449375 -2.2585847779 -2.5245988194
C 2.4428392008 -2.8333334004 -1.7274779633
C 1.1931760198 -2.4154626467 -1.2801034522
C -0.8598275564 1.2766287911 -0.1547532224
C -1.8347008331 2.1670182421 -0.6279896509
C -1.8707610764 3.4970412114 -0.2144894057
C -0.9133069690 3.9226984849 0.6895327617
F -0.9385190932 5.2162279010 1.1014834838
C 0.0721950135 3.0883516402 1.1908219412
C 0.0884303572 1.7656334213 0.7595448194
H -1.8882880631 -0.3129033627 -2.9026467013
H -3.1316077621 -0.6350244547 -1.6728283992
H -2.0929175705 -1.9498820988 -2.2552262587
H -2.4735949095 -1.3715281758 1.0458945878
H -1.2580329252 -2.6160037096 0.7333726543
H -2.1639829741 0.0505725575 3.1190947631
H 1.8253027826 -0.8979706875 3.9329955213
H 1.6050900447 0.9466339779 -1.5262654030
H 3.8385416564 0.2168077383 -2.3233095562
H 2.7041627643 -3.8840937266 -1.7942834792
H 0.4707161687 -3.1757631959 -0.9942440087
H -2.5858299305 1.8280345298 -1.3355757557
H -2.6213395703 4.1890122593 -0.5811585671
H 0.8030575113 3.4678216416 1.8968999822
H 0.8656488130 1.1097134786 1.1450531473
