47
CONF32
C -1.4286548507 -0.2088396674 -4.1528558706
C -2.5500556226 0.1714718759 -3.2146476722
C -3.8808382662 0.3664769211 -3.9081384162
C -2.5830684188 -0.3633655102 -1.8149769711
C -1.5729533036 -1.3153965620 -1.3214742804
C -1.4470286165 -1.6871819914 -0.0498424544
Br -0.1572338748 -2.9682767313 0.5086143514
Br -2.4909808542 -0.9372870493 1.3510524749
C -2.2849120888 1.1312453917 -2.0468595298
C -0.9912279922 1.7828645950 -1.7964350402
O -0.8385567182 2.9857225469 -1.7290717536
O 0.0383733142 0.9034668081 -1.6317720967
C 1.3226558221 1.5107978455 -1.3414621487
C 2.3077218887 0.4736668772 -1.6521263105
N 3.1076180635 -0.3317349871 -1.8637281035
C 1.4326458796 1.9438722755 0.1055278450
C 1.7965402859 3.2532705008 0.4091371053
C 1.8855463303 3.6439367595 1.7424213222
C 1.6231516101 2.7366132424 2.7619759260
C 1.2632473861 1.4291301387 2.4404639211
O 0.9467619944 0.5994534215 3.4949648664
C 1.3131323897 -0.7371154961 3.4623900382
C 2.4995509452 -1.1736724257 2.8775402733
C 2.8274858995 -2.5247525268 2.9496552493
C 1.9929387880 -3.4255255996 3.6084490690
C 0.8196313205 -2.9664998540 4.2032804757
C 0.4711117960 -1.6220028088 4.1295342056
C 1.1608344694 1.0213843840 1.1143744359
H -1.3372614912 0.5453977835 -4.9412454452
H -1.6639283096 -1.1668141956 -4.6294404019
H -0.4610157314 -0.3002875332 -3.6584990704
H -4.1686277251 -0.5572428846 -4.4220263535
H -3.8094813119 1.1646380599 -4.6544549954
H -4.6695280678 0.6248209651 -3.1963312115
H -3.5719394539 -0.5034392710 -1.3833915554
H -0.8934225735 -1.7753906468 -2.0332320691
H -3.1037597643 1.8067296794 -1.8215010501
H 1.4892454646 2.3663818461 -2.0053931584
H 1.9956747103 3.9609177145 -0.3887032501
H 2.1625033176 4.6632290584 1.9904320516
H 1.6905246007 3.0259754896 3.8052739954
H 3.1570932656 -0.4719108028 2.3757123630
H 3.7495681276 -2.8701605232 2.4924326394
H 2.2576919209 -4.4764236785 3.6606759872
H 0.1628148671 -3.6590631170 4.7202989710
H -0.4423221553 -1.2493760102 4.5810208742
H 0.8727324472 0.0030949837 0.8723798951
