54
CONF39
C -1.9775752960 1.5281326192 0.5915355626
C -1.7135928716 0.1429277663 -0.0169646688
C -1.1532788646 0.2730517429 -1.4276971054
C 0.2722970290 0.8558659623 -1.4291234279
C 1.2514587501 0.0344108928 -0.5656112775
C 0.6735535949 -0.0847725688 0.8764740989
C -0.7193595298 -0.7005725650 0.8047859198
C -1.4789424343 -1.0000480174 2.1007522451
C -2.9565694371 -1.1375298134 1.6420143177
C -2.9950416776 -0.7546406875 0.1420128661
C -4.2700085363 -0.0299708102 -0.2678971278
O -4.8713675687 0.7199056823 0.4813723603
C -4.7778498576 -0.2322147817 -1.6812856072
O -5.8312704582 0.6449509633 -1.9819760684
O -2.8102151038 -1.8953932402 -0.7103285345
C 1.5762189450 -0.9058872565 1.7930464238
C 2.9883286487 -0.3181160192 1.8365170899
C 3.5271106755 -0.2666979587 0.4423486726
C 4.5983928640 -1.0024784874 0.0978825207
C 5.1303575273 -1.0710477018 -1.2643969734
O 6.1026818491 -1.7674034864 -1.5508429554
C 4.4363546200 -0.2410361105 -2.2512044279
C 3.3657235384 0.4953943467 -1.9305471909
C 2.7509021555 0.5687380154 -0.5585375199
C 2.8022774327 2.0604828607 -0.1414752647
O 0.7384722395 0.8847885505 -2.7846977924
H -2.6236946799 2.1169951973 -0.0660788175
H -1.0486933021 2.0861293929 0.7219876761
H -2.4745226144 1.4741817398 1.5619223903
H -1.1163420212 -0.7075405958 -1.9129814145
H -1.7866440840 0.9304930823 -2.0416411383
H 0.2452346248 1.8840318851 -1.0350841194
H 1.2940715878 -0.9787050637 -0.9930783828
H 0.5981759077 0.9218225381 1.3121102421
H -0.6132790988 -1.6510180450 0.2627527060
H -1.1174936351 -1.9061627762 2.5928045998
H -1.3712174949 -0.1767722298 2.8159560970
H -3.3339255693 -2.1580074360 1.7709104688
H -3.6237563490 -0.4789421531 2.2020572910
H -3.9409945320 -0.1050244802 -2.3848107528
H -5.0915907671 -1.2849471706 -1.7834031582
H -6.0515027101 1.0882517962 -1.1454975522
H -3.3543518625 -2.6134922028 -0.3684597923
H 1.6255253571 -1.9416014264 1.4292137030
H 1.1503046660 -0.9337116483 2.8020840535
H 2.9459056770 0.6867712115 2.2780518586
H 3.6441688921 -0.9235689307 2.4687194599
H 5.1226415314 -1.5987589238 0.8409283909
H 4.8458762780 -0.2357360013 -3.2570380584
H 2.9021304612 1.1211525473 -2.6820997565
H 2.3653282679 2.6862569243 -0.9243711195
H 3.8424717338 2.3688422295 -0.0043925567
H 2.2625615647 2.2466291377 0.7903459735
H 0.0445535294 1.2815913981 -3.3239140437
