18
CONF3
C 0.5230687209 1.1328449632 0.0300860094
C 1.0319162764 -0.1704481638 0.0724218597
C 0.1690122498 -1.2707252860 0.0176779679
C -1.1965312343 -1.0582942188 -0.0790787139
C -1.7203291313 0.2417513764 -0.1222561588
C -0.8481690163 1.3368615141 -0.0660520331
O -1.4240684942 2.5718787995 -0.1104592281
O -3.0542943907 0.4713806579 -0.2158931573
O -2.1297954404 -2.0545217323 -0.1405054070
C 2.4784497029 -0.4344297743 0.1743242866
O 2.9804263212 -1.5456652308 0.2169773515
O 3.2235167303 0.6946906969 0.2166287418
H 1.1862605622 1.9895283656 0.0729008671
H 0.5679185696 -2.2790334945 0.0508236747
H -0.7321947862 3.2460035326 -0.0648882192
H -3.5122582270 -0.3825705119 -0.2439861166
H -1.6984972161 -2.9182155743 -0.0916176250
H 4.1555682031 0.4289637806 0.2828958004
