49
CONF74
C -3.2928760308 0.3812075160 4.5045572436
C -3.3412696745 -0.5636144688 3.3228082131
C -2.3775526673 -0.3574267138 2.1305289698
C -3.8970446595 -0.1082329531 2.0074571478
C -4.6377448645 -1.0843657771 1.1129417570
C -4.4217959881 1.3024528901 1.8420793461
C -1.3903321231 0.7172158840 2.0927274245
O -1.4736069983 1.8583851764 2.5015033043
O -0.2345509770 0.2576289549 1.4867650838
C 0.8198842437 1.2389767965 1.3494487173
C 1.3888831899 1.5418637817 2.6699264600
N 1.8629363637 1.7647496521 3.6993985309
C 1.8622979388 0.6647206798 0.4207253078
C 2.6270421096 -0.4358646377 0.8104138506
C 3.5525845446 -0.9699504798 -0.0789533278
C 3.7257022581 -0.4187749551 -1.3458020446
C 2.9503106062 0.6765242942 -1.7196819821
C 2.0173242367 1.2252991376 -0.8430000552
O 3.1032138361 1.3185147008 -2.9295759840
C 3.4693173640 0.5740197660 -4.0440679536
C 4.4661274750 1.0973855990 -4.8590802209
C 4.8065161886 0.4224022090 -6.0293920623
C 4.1612560756 -0.7636200507 -6.3723645353
C 3.1623290307 -1.2719668450 -5.5425901156
C 2.8053630479 -0.6045205087 -4.3747678379
C -3.5129713900 -2.0036482001 3.7668765034
H -3.1123081542 1.4176486916 4.2275238359
H -2.4997280831 0.0714916742 5.1938417554
H -4.2453501772 0.3247531273 5.0439717658
H -2.0291974911 -1.2752077477 1.6686053849
H -5.6849339989 -1.1549273197 1.4295463798
H -4.6230891675 -0.7210751771 0.0799417778
H -4.2083045837 -2.0866699858 1.1223435242
H -5.4775050605 1.3254527243 2.1360586855
H -4.3620565936 1.5982768901 0.7889610757
H -3.8818002039 2.0413620684 2.4302035127
H 0.4094263856 2.1696784035 0.9430351503
H 2.4999515526 -0.8701214286 1.7970886820
H 4.1574483538 -1.8208235171 0.2169915073
H 4.4571156709 -0.8317591757 -2.0316943289
H 1.4240635502 2.0780856733 -1.1567321989
H 4.9609266804 2.0198779719 -4.5737943195
H 5.5840702124 0.8259310481 -6.6703187370
H 4.4323507960 -1.2883205874 -7.2825068309
H 2.6485804405 -2.1905557838 -5.8083866771
H 2.0227742325 -0.9898095691 -3.7292171763
H -2.7478663733 -2.2541858428 4.5092865489
H -3.4317871070 -2.7177285239 2.9468416421
H -4.4941244140 -2.1307352531 4.2391963124
