29
CONF15
C 0.4512241524 -0.6292303625 -3.2391807789
C -0.8540993157 -0.0314662629 -2.7716123692
O -1.1204474458 -0.4140502616 -1.3844746750
P -0.7973792751 0.5411967086 -0.1573980971
S 0.4070533527 2.0303600633 -0.3892534665
O -2.2684624500 0.8392984072 0.3854855921
C -2.4569704684 1.7072622654 1.5471736864
C -3.1533176086 2.9752741640 1.1121858677
O -0.3509795378 -0.5465510552 1.0161082295
C 0.8993213718 -1.0538503188 1.1264364180
N 1.6298331870 -1.2387035208 0.0424822705
C 2.8379675040 -1.7558509639 0.1352203197
C 3.3944673105 -2.1426514030 1.3567966768
C 2.6323470111 -1.9575096877 2.5062585493
C 1.3685693065 -1.4012947790 2.3998454469
Cl 0.3962881513 -1.1389990555 3.8143120987
Cl 4.9811129888 -2.8328324137 1.4811975090
Cl 3.7294646043 -1.9502543366 -1.3501176628
H 1.2897979897 -0.2077317230 -2.6811316012
H 0.4526301928 -1.7138409087 -3.1028951867
H 0.5871527321 -0.4087543052 -4.3032343000
H -1.7097645832 -0.4236558666 -3.3277153192
H -0.8463851305 1.0604967939 -2.8482858784
H -1.4878094514 1.9236935623 2.0098922047
H -3.0594928521 1.1245448247 2.2499856376
H -3.3527953041 3.6031123579 1.9864735249
H -2.5229512192 3.5349712122 0.4164149433
H -4.1045300560 2.7456033624 0.6246901530
H 3.0281551184 -2.2385868093 3.4744427110
