44
CONF4
C -0.7961817630 -3.7377230939 -0.9609864705
C -1.2501497018 -2.4071295074 -1.5397538366
N -1.7132645390 -1.4651633183 -0.4798799203
C -3.0213310929 -1.5088069356 -0.1789938084
C -3.6364133970 -0.6906566823 0.7365692346
C -2.8689907198 0.2998234333 1.4319325335
O -3.3840259454 1.0978909629 2.2643821779
C -1.4480591796 0.3270222574 1.1318272727
C -0.6395539432 1.2620190023 1.7957039601
C 0.6963992711 1.3123476010 1.5321212973
C 1.3478123285 0.4255091256 0.6404970252
C 0.5195294071 -0.5214914475 0.0243345534
C -0.8769536490 -0.5691416695 0.1917081714
F 1.1424698769 -1.4659374856 -0.7172648452
N 2.6999502937 0.5441694625 0.4032419093
C 3.6448392043 0.4326055733 1.5257660453
C 4.8758179417 1.2892292010 1.2453374690
N 5.5053919687 0.9855873259 -0.0473467139
C 4.5269591715 1.0540778937 -1.1454824263
C 3.2906774873 0.1788182737 -0.8864549355
C 5.1900320842 0.6526149089 -2.4555411623
F 1.4446907244 2.2729705146 2.1164954764
C -5.0936691155 -0.8479700286 0.9571239491
O -5.7761858000 -1.6823407316 0.3832640415
O -5.6236684415 -0.0000209941 1.8429248014
H -1.6235727499 -4.2293473867 -0.4405271169
H -0.4671600674 -4.3882950128 -1.7763509652
H 0.0340955961 -3.6127554412 -0.2626317179
H -2.1076464725 -2.5529500791 -2.2001203890
H -0.4736925979 -1.9183590832 -2.1243159861
H -3.6093977999 -2.2406460190 -0.7230275987
H -1.0948619352 1.9632634198 2.4848330403
H 3.9464077267 -0.6236960498 1.6385077035
H 3.1598974234 0.7432535804 2.4530678228
H 5.6106255618 1.1420819071 2.0446142461
H 4.5832722702 2.3476481603 1.2463628936
H 5.8714968462 0.0350835558 -0.0116864530
H 4.1903228845 2.0994489971 -1.2085643208
H 2.5527226086 0.3457217813 -1.6766245517
H 5.5486934435 -0.3821960608 -2.4043192897
H 6.0435323136 1.3030383783 -2.6651212311
H 4.4825957805 0.7260096880 -3.2871048522
H -4.8636734882 0.5895235502 2.1770317779
H 3.5958520742 -0.8811063741 -0.9086239660
