41
CONF20
C -7.3511221307 -1.2443873381 2.3626918456
C -6.7959840204 -0.7344958338 1.0546356071
O -5.8221496550 0.3023530603 1.3733397157
C -5.2145461193 0.8669633888 0.3084990105
O -5.4059397323 0.5593613780 -0.8401626673
C -4.2924733597 1.9971066364 0.7736672605
C -5.0774572657 3.3004423756 0.8088496208
O -3.2260974979 2.1843239823 -0.1458501406
C -2.2946784030 1.1903460175 -0.2622691147
C -1.2981661248 1.4173031386 -1.2165754449
C -0.2923896981 0.4877559314 -1.4135055409
C -0.2898164504 -0.6684901676 -0.6449586993
C -1.2674330130 -0.9153811072 0.2972903492
C -2.2830422430 0.0187663668 0.4948535425
O 0.6594775790 -1.6880298783 -0.8628041390
C 1.9412182915 -1.3760419238 -0.7499742903
N 2.5109752621 -0.2734310203 -0.3918448465
C 3.8712107427 -0.5835674353 -0.4609377297
C 4.0190371050 -1.9124133886 -0.8745400678
O 2.7553601934 -2.4331591659 -1.0660418145
C 5.2266229801 -2.5507242771 -1.0471249281
C 6.3428046079 -1.7585867866 -0.7746901165
C 6.2465797069 -0.4282206787 -0.3594711154
C 5.0021090240 0.1778758187 -0.1967894818
Cl 7.9350283052 -2.4716262825 -0.9646065268
H -7.8412010260 -0.4415610674 2.9198479137
H -8.0891490182 -2.0272858738 2.1654106632
H -6.5586087426 -1.6676941602 2.9855473055
H -6.2889617291 -1.5181214181 0.4826620465
H -7.5699632621 -0.2970725940 0.4156412021
H -3.9038674778 1.7616310981 1.7739666341
H -5.9112494272 3.2160278947 1.5102038495
H -5.4646662523 3.5260948252 -0.1880384082
H -4.4227427933 4.1139220664 1.1299642544
H -1.3335995575 2.3311430266 -1.7985538284
H 0.4848149220 0.6604171607 -2.1481110427
H -1.2401956231 -1.8344774940 0.8715602295
H -3.0452691471 -0.1902196081 1.2355475244
H 5.3123193007 -3.5807614065 -1.3679651397
H 4.9207360588 1.2090735576 0.1265511812
H 7.1542588667 0.1298803802 -0.1639859169
