43
CONF54
C -1.7198612094 2.1271085618 -1.7062713474
C -0.4510394480 1.5779022664 -2.2477688754
N -0.3576393621 0.9172055290 -3.3773312566
N 0.9009612775 0.4971550825 -3.6686114414
C 1.7809954709 0.8343063022 -2.7616122030
S 1.0824072395 1.7349367950 -1.4283880189
S 3.4969084872 0.4420006414 -2.8361532906
C 3.4400054361 -1.3458959491 -2.2272625498
C 2.8345959094 -1.4233089864 -0.8699980444
C 1.5444303448 -1.8014480769 -0.6853489407
N 0.9304289014 -1.6152389392 0.5456728706
C 1.4512697993 -0.8223989640 1.6523535915
C 0.3744208352 -1.4798471968 2.5669854991
C -0.0719777253 -2.2310466829 1.2807219211
O -0.9000882954 -3.0648543337 1.0131528107
N -0.5831109739 -0.6340607538 3.2204520167
C -1.4300931498 0.1430701571 2.5079085515
O -1.4322633835 0.1866389829 1.2832550255
C -2.4257667340 0.9505379247 3.3487231006
N -3.0129025798 1.9957053807 2.5391552551
C -4.0793576174 1.9568723165 1.7213754336
N -4.1602917993 3.1054388571 1.0757364613
N -3.1012464383 3.8416110399 1.5090364973
N -2.4019459673 3.1866606680 2.3762680619
S 3.1986755342 -1.2648280878 1.9566182623
C 3.7000189181 -0.8655755946 0.2317795310
C 0.6644916977 -2.3259186428 -1.7762577397
O 1.0089072735 -3.1201235023 -2.6256466133
O -0.5660258114 -1.7960250804 -1.6935596854
H -1.6460268415 3.2086997737 -1.5582287028
H -1.9476787618 1.6716620590 -0.7369624482
H -2.5292257307 1.9127664716 -2.4066097147
H 4.4958738146 -1.6320530277 -2.2183648267
H 2.9091970012 -1.9307969106 -2.9740147159
H 1.3396429591 0.2550883868 1.4979430226
H 0.8029207224 -2.1734934934 3.2952209522
H -0.6063081834 -0.6176952902 4.2297468711
H -3.2227657898 0.2869062091 3.6991300964
H -1.9426651577 1.4056725858 4.2172549755
H -4.7491679109 1.1126160250 1.6376266899
H 4.7140748392 -1.2653173571 0.1197401558
H 3.7748980716 0.2239710921 0.1272020099
H -1.1076771491 -2.1646057304 -2.4131424591
