45
CONF4
C -1.4449987442 -1.5715332799 1.9899172233
O -1.9500017646 -0.9911050044 0.7638958389
C -1.7825936536 0.3409657036 0.6702309069
O -1.2734819242 1.0482254164 1.5262385890
N -2.2257818062 0.8228715052 -0.5371325240
C -2.1901135585 2.1965582766 -0.9031654448
C -3.3970018018 2.8525074506 -1.1455790723
C -3.3994817903 4.1854192441 -1.5380340471
C -2.1955600008 4.8689449429 -1.6849622432
C -0.9943285541 4.2053292009 -1.4575639061
C -0.9644600268 2.8619832700 -1.0780852873
C 0.3554750488 2.1844288252 -0.8612606439
O 0.4690160242 1.0677441887 -1.7897649186
C 1.0451452434 -0.0563210035 -1.3303606163
N 1.5643019846 -0.1824830513 -0.1150198017
N 2.0152059920 -1.4711700563 -0.0727651949
C 1.7812048967 -2.1268416780 -1.2472709637
C 1.1583956883 -1.2428004779 -2.0940459915
C 2.6152042604 -1.9656723384 1.1011739246
C 2.5184544661 -1.2371828452 2.2905468947
C 3.0992266436 -1.7244520957 3.4545091947
C 3.7706755344 -2.9400292451 3.4242331834
C 3.8807831133 -3.6723758412 2.2483387124
C 3.3074641691 -3.1800727038 1.0832086411
Cl 4.5014108717 -3.5616647886 4.8990280777
O -3.1359935462 0.0346138774 -1.2555794950
C -2.4941865313 -0.5322695557 -2.4183892736
H -1.9560673814 -1.1426022916 2.8550022213
H -1.6595396552 -2.6364358076 1.9077178355
H -0.3682855829 -1.4025804859 2.0708794265
H -4.3278607986 2.3110806168 -1.0194882734
H -4.3429134286 4.6901990955 -1.7189182600
H -2.1902359486 5.9107119907 -1.9881605922
H -0.0527536677 4.7297194850 -1.5930173908
H 0.4475936925 1.8189493971 0.1633399716
H 1.1764460946 2.8780624257 -1.0678336843
H 2.0484548306 -3.1618995717 -1.3934542567
H 0.8210449300 -1.4176880435 -3.1033932933
H 1.9878816587 -0.2937775122 2.3062022494
H 3.0216652581 -1.1597046242 4.3765492957
H 4.4177825388 -4.6137818148 2.2321012340
H 3.4206386084 -3.7468530959 0.1670315318
H -3.2848997733 -1.0844514935 -2.9304893626
H -2.1040402016 0.2580220258 -3.0690772439
H -1.6888912966 -1.2097274439 -2.1173335894
