48
CONF9
C -3.4789730924 1.6720825757 -1.8327573338
C -3.1754878957 0.8690402080 -0.5687188910
C -3.0192151075 1.7365850195 0.6940908432
C -3.4341463568 0.7733754859 1.8083064838
N -4.5941367493 0.0252853162 1.2681092283
C -4.3270085072 -0.1324926678 -0.1757816087
N -3.7972195196 -1.4534077054 -0.5304617852
C -2.4283954077 -1.3957410477 -0.6849929449
C -1.9963585589 -0.0599583066 -0.7595195465
C -0.6665168444 0.2410129520 -0.9698047823
C 0.2346431718 -0.8177301259 -1.0976192946
C -0.1705663073 -2.1391445442 -1.0088392181
C -1.5176117522 -2.4487616226 -0.7965527862
O 1.5857131627 -0.5401373804 -1.3759521448
C 2.3747760532 -0.2091027540 -0.2995280285
O 1.9827249387 -0.1709574146 0.8495762039
N 3.6319239197 0.0525117992 -0.7557867491
C 4.7640600414 0.4307708984 -0.0150585457
C 5.9317929899 0.7032627013 -0.7422209961
C 7.0951071039 1.0788829686 -0.0844914901
C 7.1164794486 1.1907405448 1.3047381448
C 5.9556649212 0.9188632755 2.0226825576
C 4.7795227495 0.5393271633 1.3804772982
C -4.4752285044 -2.6525731879 -0.0830324849
C -5.8600897742 0.7287603440 1.5183691136
H -4.3856369865 2.2707502100 -1.6948963232
H -2.6494146286 2.3486532489 -2.0634282639
H -3.6252649907 1.0070546258 -2.6901677157
H -2.0004796927 2.1192607564 0.8065792588
H -3.7036175845 2.5915673589 0.6463883962
H -3.7017514749 1.2684371871 2.7461272662
H -5.2562598039 0.0434479399 -0.7318351865
H -0.3139850403 1.2671778757 -1.0249784933
H 0.5672279043 -2.9299679571 -1.0996395061
H -1.8320935656 -3.4837312459 -0.7193705488
H 3.7550342165 -0.0202824811 -1.7560105794
H 5.9214675102 0.6187506524 -1.8254030790
H 7.9892314286 1.2857700601 -0.6642455638
H 8.0254848080 1.4849258903 1.8187146465
H 5.9561978704 1.0000307512 3.1054412375
H 3.8870245637 0.3302591950 1.9523228307
H -5.5554527278 -2.4874991753 -0.1247201867
H -4.2332885967 -3.4903712903 -0.7459653426
H -4.2072492640 -2.9323210095 0.9470913302
H -5.8927069723 1.7520432015 1.1046504764
H -6.0294144070 0.7916976644 2.5977676127
H -6.6861368311 0.1591948197 1.0807874385
H -2.6169710719 0.0699138902 2.0174604003
