49
CONF132
C -1.5388122593 -1.6998446768 0.2617670014
C -2.2296074609 -0.3536705330 0.3000797023
C -1.6382966596 0.7852087672 1.1747349931
C -2.9625815462 0.0897630350 1.5311642519
C -4.1973758858 0.9629625120 1.4057534159
C -3.0484648150 -0.8178579113 2.7411065793
C -0.3913862667 0.5977473495 1.9068591709
O -0.0312673811 -0.3295892849 2.6021818757
O 0.4361743683 1.6878169385 1.6854511206
C 1.7766910026 1.5644945487 2.1820811330
C 1.7901674372 1.4269281469 3.6440792587
N 1.8398565672 1.3930749587 4.7974241728
C 2.5832095437 0.4822960894 1.4755861503
C 3.7059654088 -0.0752648280 2.0815633499
C 4.4585944803 -1.0199993496 1.3865918401
C 4.1033917386 -1.4061329059 0.1013072236
C 2.9776211656 -0.8358003161 -0.4914256708
C 2.2128392950 0.1113438424 0.1847525669
O 2.6466891043 -1.3119615606 -1.7404734777
C 1.8184053771 -0.5643277889 -2.5684223500
C 2.1180063041 0.7576207975 -2.8870422956
C 1.2961643451 1.4363273270 -3.7819342547
C 0.1991225203 0.7980022481 -4.3599370879
C -0.0755214941 -0.5293516636 -4.0403379072
C 0.7317969778 -1.2176606237 -3.1373170902
C -2.6986535082 0.0729727721 -1.0762917623
H -1.0946967410 -1.9904285652 1.2121170127
H -0.7452704050 -1.6860443805 -0.4938455430
H -2.2650524805 -2.4667962738 -0.0311409478
H -1.7347521345 1.7734627153 0.7373811454
H -5.0724101783 0.3402188375 1.1868614004
H -4.3797860075 1.4784949662 2.3545768314
H -4.1105544020 1.7201034923 0.6253651724
H -2.1740672544 -1.4500995104 2.8756061062
H -3.9322326354 -1.4583330109 2.6405644442
H -3.1738583142 -0.2163323577 3.6479278914
H 2.2236665707 2.5426344343 1.9624166105
H 3.9948039489 0.2156916555 3.0861765440
H 5.3320693992 -1.4614744696 1.8553206417
H 4.6780205874 -2.1454633577 -0.4462592362
H 1.3360764547 0.5415270818 -0.2848228473
H 2.9796870007 1.2439651035 -2.4413603274
H 1.5222265990 2.4674178866 -4.0350011478
H -0.4354305993 1.3328852367 -5.0589060581
H -0.9261848818 -1.0341331295 -4.4874387182
H 0.5308582488 -2.2506740252 -2.8732665216
H -3.4520104417 -0.6328055224 -1.4459520740
H -1.8540685028 0.0566826874 -1.7741851086
H -3.1297625766 1.0744024191 -1.0917681834
