24
CONF4
C -1.9617168520 2.2388137624 0.8163757467
O -2.3321154589 1.3623171293 -0.2437272751
C -1.3964493124 0.4474812905 -0.6592700018
C -0.1166149993 0.3079270281 -0.1447111232
C 0.7483587511 -0.6700427656 -0.6549393918
C 0.2979523893 -1.5002039783 -1.6752757809
C -0.9891961127 -1.3635784820 -2.1958964040
C -1.8411304131 -0.3943025808 -1.6950433743
O -3.1005793311 -0.2646354331 -2.2017229135
C 2.1483737559 -0.7943556378 -0.0891546262
C 2.1532129415 -0.9391092685 1.4039215978
C 2.7467174191 -0.0987541655 2.2475844375
H -1.1064190576 2.8640431110 0.5302424434
H -2.8304094374 2.8717514570 1.0016752370
H -1.7160255329 1.6754656950 1.7254025374
H 0.2301186347 0.9433123194 0.6628470490
H 0.9556875772 -2.2642495065 -2.0785656122
H -1.3463646500 -2.0082387019 -2.9918464189
H -3.5324396596 0.4556163534 -1.7224628212
H 2.6288678320 -1.6705162018 -0.5424812441
H 2.7498223223 0.0798654406 -0.3707204707
H 1.6025337882 -1.7946613957 1.7948466660
H 2.7112232298 -0.2514489770 3.3214097415
H 3.2965927742 0.7675033228 1.8872052085
