50
CONF51
C 2.4652548220 -2.1017665693 2.2804949912
C 2.8860285185 -0.7138649797 1.7629807826
C 4.3352921574 -0.7762387420 1.2447886519
C 2.8394934747 0.2698163719 2.9382314238
C 1.9579116217 -0.2986250104 0.6188832138
C 1.8950223141 -1.0826112079 -0.5413480113
C 1.0717545021 -0.7469507378 -1.6056339414
C 0.2819416911 0.3901908880 -1.5117466395
C 0.3202752884 1.1976479925 -0.3897161989
C 1.1593946046 0.8456900974 0.6664192562
O -0.5373313234 0.7321814807 -2.5949996544
P -2.0755061581 0.2716994718 -2.7545936995
O -2.3562695071 -0.5279057986 -3.9534159916
O -2.9002745420 1.6494480111 -2.7368718100
C -2.6461709521 2.6437075409 -1.7860353315
C -1.7917477721 3.6838881978 -2.1254212543
C -1.5564424691 4.6901797215 -1.1938100329
C -2.1701157465 4.6489330231 0.0555908833
C -3.0315605406 3.6012918520 0.3713318972
C -3.2781832650 2.5889208919 -0.5512422347
O -2.4867963033 -0.3473973072 -1.3187293789
C -2.0329080510 -1.5863541275 -0.8492855389
C -1.9643416010 -2.7056441774 -1.6695701532
C -1.5085572885 -3.9012412677 -1.1193609978
C -1.1484601591 -3.9768289249 0.2222430099
C -1.2501443133 -2.8454300268 1.0280938648
C -1.6909235179 -1.6407782560 0.4953831239
H 3.1349873485 -2.4251147716 3.0850101608
H 2.4959194467 -2.8562801266 1.4894321215
H 1.4440511237 -2.0704097552 2.6727799766
H 5.0142159314 -1.0632831712 2.0551344144
H 4.4466233461 -1.5073691464 0.4393050437
H 4.6493262496 0.1991460958 0.8599161651
H 3.5168862828 -0.0741853198 3.7258836329
H 1.8358208267 0.3373263853 3.3706060369
H 3.1594115231 1.2734204104 2.6396571428
H 2.4973993078 -1.9814458439 -0.6218221220
H 1.0200308802 -1.3630476142 -2.4968165635
H -0.3010831238 2.0853271543 -0.3372989149
H 1.1756619338 1.4899324593 1.5372602976
H -1.3178608573 3.6878915768 -3.1004683349
H -0.8878630359 5.5064498500 -1.4467337045
H -1.9822081287 5.4348787555 0.7792565625
H -3.5184887760 3.5701200872 1.3405662305
H -3.9422075076 1.7629762640 -0.3254168724
H -2.2531407151 -2.6352687144 -2.7118254081
H -1.4444716630 -4.7816129146 -1.7507177697
H -0.7981197341 -4.9141770735 0.6409995188
H -0.9793019255 -2.8974036041 2.0773826817
H -1.7522258211 -0.7398297030 1.0952481990
