40
CONF10
C -1.7084667350 -0.3905898214 2.0107867154
C -0.8189730720 -1.5974246352 1.6749785954
C -1.1195642085 -2.7230571618 2.6804847688
C -1.0504005596 -2.1553209249 0.2661086406
C -2.1710939704 -1.8150206671 -0.4949869065
C -2.3723068435 -2.3765085003 -1.7566141240
C -1.4575917830 -3.2860801245 -2.2748621636
C -0.3356734853 -3.6326798592 -1.5223147832
C -0.1359792625 -3.0726267218 -0.2664111272
N 0.6089517149 -1.2580477069 1.8604981152
C 1.3468776899 -0.3028911943 1.1974104224
O 2.4277030124 0.0966497695 1.6559334490
N 0.8608461073 0.1531304877 0.0049907034
C 1.6376719677 1.0553771736 -0.8176977109
C 1.4879406172 2.5213859921 -0.4611107516
C 0.6828159247 2.9541512534 0.5932095235
C 0.5624194823 4.3040386535 0.9099974061
C 1.2530057561 5.2587228511 0.1697701322
C 2.0641993095 4.8590411778 -0.8881561322
C 2.1671320279 3.5055044626 -1.1824677131
Cl 3.2035770285 3.0271758911 -2.5323929889
H -1.5902430754 0.4247142870 1.2917137013
H -1.4340547079 -0.0204352401 3.0025190572
H -2.7631888411 -0.6775375048 2.0375132319
H -2.1588971848 -3.0421183275 2.5710158781
H -0.4684940780 -3.5839831132 2.5046789490
H -0.9708161766 -2.3651222790 3.7054212041
H -2.8970922178 -1.1042578490 -0.1171806994
H -3.2482753996 -2.0952379143 -2.3331150577
H -1.6127258167 -3.7197088514 -3.2577741887
H 0.3879984396 -4.3390085003 -1.9176795158
H 0.7462444996 -3.3369803768 0.3086092482
H 0.9648759178 -1.4197308856 2.7919216072
H 0.0287839719 -0.2554542680 -0.3912774791
H 1.3334553229 0.9061132871 -1.8596642506
H 2.6979689325 0.7840823413 -0.7535684243
H 0.1448910271 2.2114607849 1.1728302582
H -0.0705229383 4.6079030953 1.7373688824
H 1.1667197096 6.3136445106 0.4086044284
H 2.6102810021 5.5867271072 -1.4780452800
