47
CONF10
C 3.5605024105 -1.9955111259 4.1876437459
C 3.6435836425 -2.0076398150 2.7121618990
C 2.7593355064 -1.6755682814 1.7156944585
C 3.4897883286 -1.9297744090 0.5068656613
N 4.7012541021 -2.3731810273 0.7634219768
O 4.7999211659 -2.4109001803 2.1655307910
C 3.0717560891 -1.7881086617 -0.8973138302
C 3.9325354178 -1.1857755062 -1.8215572458
C 3.5440582605 -1.0488850118 -3.1486870745
C 2.2955948457 -1.5043255798 -3.5646833967
C 1.4374881360 -2.1116733084 -2.6520543983
C 1.8247382153 -2.2614018809 -1.3255406788
C 1.4184509576 -1.1257127049 1.9790353672
O 0.8548539701 -1.2804170232 3.0572937981
N 0.8589528235 -0.4030430778 0.9517007349
C -0.5146060071 -0.0172305330 0.9689371341
C -0.9063146785 1.4887318527 0.7738923945
N -1.5702284258 1.1089595841 -0.4785179882
C -1.3235615058 -0.2578592292 -0.3315716151
O -1.6455033267 -1.2091382305 -0.9954406346
C -2.8173045462 1.7582685156 -0.7975078699
C -3.5769773418 1.9417598088 0.5693151806
S -2.2204392004 2.2406164027 1.8268465359
C -4.5277401878 3.1358716702 0.5869887625
C -4.3310204782 0.6506875995 0.8936130850
C -2.5473791862 3.0805879917 -1.4966017872
O -1.5823608315 3.7779346604 -1.3158063490
O -3.5543313937 3.3907216411 -2.3507069061
H 4.5608642188 -2.0483264533 4.6215205008
H 2.9685870277 -2.8475314566 4.5367349141
H 3.0421661304 -1.0962794984 4.5265191791
H 4.8991026680 -0.8266455413 -1.4857625637
H 4.2157164431 -0.5780838117 -3.8591752544
H 1.9911837238 -1.3860495371 -4.5995096043
H 0.4626831402 -2.4693134027 -2.9652444814
H 1.1581543694 -2.7502838351 -0.6221150939
H 1.3529328315 -0.3622071066 0.0713984896
H -0.9995652157 -0.4547266308 1.8469446871
H -0.0745107607 2.1880803176 0.6598552692
H -3.4067220733 1.1113885030 -1.4557433916
H -5.0137168040 3.2103175186 1.5638121511
H -5.3085733006 3.0051856168 -0.1695000427
H -4.0020654978 4.0753135439 0.3981341598
H -3.6804730690 -0.2261421559 0.8396955837
H -4.7443002380 0.7004305485 1.9040153174
H -5.1567146178 0.5111230572 0.1851803453
H -3.3397964683 4.2557563739 -2.7362867151
