47
CONF81
C -2.6546841624 -2.6589711364 0.1660924679
C -2.9162497162 -1.1807211900 -0.0170901515
C -3.9196311272 -0.4735268639 0.8633501849
C -2.4241305633 -0.2734576127 1.1138268417
C -1.8372463425 1.0403848567 0.8162293725
O -2.3178458637 1.9262885657 0.1431184159
O -0.6043586983 1.1431343849 1.4061308416
C 0.1235768816 2.3547796272 1.0716116834
C 1.1066553699 2.5246609718 2.1413720106
N 1.9067443025 2.6794806486 2.9594304492
C 0.7940619907 2.2422928817 -0.2786253256
C 1.6802863065 1.1885552175 -0.5071426733
C 2.2879666185 1.0546096021 -1.7489182154
C 1.9858395929 1.9893781605 -2.7446776776
C 1.1087893875 3.0329955585 -2.5289689421
C 0.5067027756 3.1642429067 -1.2799320775
F 2.5748470239 1.8499566821 -3.9501325385
O 3.1372781293 0.0388080117 -2.0899770937
C 3.8294063470 -0.6108319511 -1.0671626217
C 3.7045969486 -1.9903231191 -0.9825225569
C 4.4435428983 -2.6737962187 -0.0185271268
C 5.2847925816 -1.9788143167 0.8466451193
C 5.3955267119 -0.5924898604 0.7435201114
C 4.6703754708 0.1026622489 -0.2192918279
C -4.7092390186 -1.1742447950 1.8783216578
C -5.9823124345 -0.9127347211 2.1772001671
Cl -6.9355214493 0.3216643059 1.4008792663
Cl -6.8502113625 -1.7991490589 3.4044126745
C -2.8047744098 -0.7208040581 -1.4525305835
H -2.6424898012 -2.9609746436 1.2151005078
H -1.6841328692 -2.9155779425 -0.2706752499
H -3.4249520336 -3.2394463419 -0.3536046849
H -4.3974877947 0.3813112713 0.3947515055
H -1.9865745418 -0.7917064237 1.9602217605
H -0.5584846469 3.2121814959 1.0842050897
H 1.8968728016 0.4691496601 0.2761241161
H 0.9059363117 3.7313534682 -3.3335425611
H -0.1889027623 3.9756690154 -1.0957013941
H 3.0407590971 -2.5120920553 -1.6636317478
H 4.3546631624 -3.7528734025 0.0561109710
H 5.8551391461 -2.5144894280 1.5982581482
H 6.0558227651 -0.0471972835 1.4103611090
H 4.7531100852 1.1806505708 -0.3148002489
H -4.2354702906 -1.9700154836 2.4451705278
H -1.7895960343 -0.8966763647 -1.8261365212
H -3.0407869569 0.3378390511 -1.5690798482
H -3.4982095251 -1.3011348125 -2.0701432560
