46
CONF22
C -4.5392007775 -1.2873320208 1.2161153642
C -3.3259680899 -1.6463035388 2.0436892499
C -1.9660958516 -1.8078402681 1.4012830846
C -2.2595442677 -0.6286907187 2.3781634904
C -2.1919245543 0.7374464857 1.8273985294
O -2.7854333125 1.1761920964 0.8616770185
O -1.2853966883 1.4692990563 2.5294263369
C -0.8882077046 2.7158257021 1.9023238256
C -0.1135155274 2.4616408703 0.6339614096
C 0.7187820707 1.3478119615 0.5362181844
C 1.4184153062 1.1096641497 -0.6420225149
C 1.3118604155 1.9745466147 -1.7299480745
C 0.4940774744 3.0944274184 -1.6132346063
C -0.2212291217 3.3406178863 -0.4439061597
O 2.1502656161 -0.0601797255 -0.6850585956
C 3.2866024457 -0.1251384570 -1.4753743524
C 3.4622116408 -1.2743044378 -2.2387133374
C 4.6302390491 -1.4227195260 -2.9827255432
C 5.6062993578 -0.4289848514 -2.9689455375
C 5.4146130925 0.7159512778 -2.1963521571
C 4.2569034078 0.8740988427 -1.4406923762
C -1.7313730745 -1.5359118530 -0.0159431113
C -0.7847280551 -2.1069599497 -0.7621563781
Cl -0.5770469251 -1.7175869854 -2.4504294710
Cl 0.3490101048 -3.2935196364 -0.1753165725
C -3.6352859977 -2.6230036922 3.1604785594
H -5.3003073590 -0.8355517930 1.8611455565
H -4.3222118229 -0.5851605944 0.4138556978
H -4.9609579381 -2.2020150061 0.7858778657
H -1.3244265969 -2.5627369355 1.8437029505
H -1.7709565245 -0.7363743100 3.3408128330
H -0.2668332194 3.2046638150 2.6577608868
H -1.7671426307 3.3350460266 1.7041046125
H 0.8165630271 0.6465346856 1.3585541277
H 1.8482272624 1.7720803155 -2.6502377676
H 0.3967022856 3.7697701785 -2.4575444149
H -0.8770697336 4.2032628061 -0.3762090517
H 2.6894757232 -2.0357516787 -2.2387044881
H 4.7719686218 -2.3184674180 -3.5792760861
H 6.5129616126 -0.5462933837 -3.5532293131
H 6.1751419521 1.4902063376 -2.1722444208
H 4.1061574748 1.7580746395 -0.8298264443
H -2.3560560131 -0.8027124082 -0.5146532603
H -2.7393438635 -2.8763090488 3.7342016416
H -4.0524402862 -3.5462246596 2.7444624696
H -4.3737806983 -2.1910882643 3.8445539529
