51
CONF25
C 3.7191651226 -2.7703998399 1.8113142677
C 2.9637538619 -1.5983817214 2.4558719958
C 2.6436591726 -0.5139929045 1.4631607182
N 3.5349771852 0.3705544970 1.1270086340
O 4.7657412303 0.2320359276 1.7625156353
C 5.6506299681 1.2869867887 1.3187661529
C 6.9669485275 1.0764871477 2.0303655677
C 1.3066928145 -0.3183221857 0.8753869937
C 0.9778279046 0.8833164020 0.2520847587
C -0.3883741478 1.2232362256 -0.2504203969
C -1.1715845711 -0.0331328742 -0.6316600010
C -1.1245826212 -1.0289085159 0.5336787047
C 0.2991628228 -1.3786638306 0.9263920065
O 0.5608248092 -2.5363521365 1.2632084654
C -2.5698652150 0.1869870760 -1.1839238192
C -3.5609536303 0.9452904508 -0.5254488023
C -4.8285495334 1.0719843221 -1.1048983296
C -5.1596192561 0.4718324211 -2.3152822952
C -4.1807977869 -0.2949227390 -2.9440926817
C -2.9042284704 -0.4497224304 -2.4026712233
C -1.9225774605 -1.3177801912 -3.1533785292
C -6.5188150251 0.6540907507 -2.9327715075
C -3.3494169727 1.6618259806 0.7875707347
O 1.8545738161 1.8519139951 0.0733772812
H 3.9557925425 -3.5226336238 2.5695898106
H 3.1052936335 -3.2401806223 1.0395595347
H 4.6557348196 -2.4310336716 1.3607754324
H 2.0430237505 -1.9581538045 2.9115646179
H 3.5878628168 -1.1524880686 3.2370039160
H 5.7660899473 1.2221209277 0.2295991515
H 5.2047028962 2.2575314339 1.5719317233
H 6.8390242936 1.1364011354 3.1149729597
H 7.3946128512 0.1021524685 1.7771143205
H 7.6719975200 1.8536735105 1.7224392386
H -0.8804771974 1.7919010985 0.5457583358
H -0.2846613878 1.8978511997 -1.1061982175
H -0.5849855932 -0.4918353021 -1.4324499792
H -1.6351682802 -1.9603311857 0.2745897330
H -1.6209538534 -0.6161858236 1.4217251703
H -5.5813372842 1.6578341179 -0.5819261074
H -4.4180611660 -0.7929125138 -3.8814861148
H -2.4055980791 -1.7562310890 -4.0294087835
H -1.0550733767 -0.7465565351 -3.5031574929
H -1.5434443150 -2.1381235040 -2.5341059953
H -6.5019735814 1.4625775685 -3.6735736088
H -6.8440675586 -0.2534966639 -3.4495626175
H -7.2656047468 0.9139450602 -2.1777829435
H -2.7453404227 1.0943776264 1.4968181506
H -4.3153121641 1.8609787796 1.2585017844
H -2.8591464901 2.6306853744 0.6363554433
H 2.7524759972 1.5021689829 0.4475473219
