45
CONF30
C 5.0582344489 -0.3766823514 0.3405056900
C 4.4348866164 -1.4191725697 -0.5897432966
C 2.9498774909 -1.1721692059 -0.8721043500
C 2.0596042955 -1.4434161067 0.3451766797
N 0.6595434028 -1.0820470029 0.1359424091
C 0.2494297670 0.2196374624 0.0578521475
C -1.0517234098 0.5173904391 -0.4118482336
C -1.4968802361 1.8318217454 -0.4949832496
C -0.6999578145 2.9018176722 -0.1084251852
C 0.5757801666 2.6153612578 0.3827205615
C 1.0434137581 1.3047918884 0.4603869266
C 1.4977316234 3.6938403327 0.8202726971
O 2.6264330441 3.5056976387 1.2330042448
O 0.9528386482 4.9231088592 0.7131743710
S -3.1625449294 2.1617484344 -1.1035884769
O -4.1121864053 1.3726036334 -0.3065607726
O -3.3060141919 3.6215400192 -1.1910801517
N -3.2657316589 1.5822610087 -2.6759335143
O -1.8450421228 -0.5023088550 -0.8923976532
C -2.4594859847 -1.3579769311 0.0229041033
C -3.0736354111 -2.4791501357 -0.5243015141
C -3.7255737311 -3.3695080331 0.3224463439
C -3.7570463647 -3.1432661631 1.6977848530
C -3.1335850093 -2.0142066211 2.2228907795
C -2.4806313116 -1.1086787402 1.3895511038
H 4.9291890229 0.6317149231 -0.0689193762
H 4.6055971660 -0.3921210709 1.3370965156
H 6.1308801008 -0.5544363449 0.4654482730
H 4.5630351172 -2.4236813745 -0.1640865574
H 4.9766533383 -1.4174127189 -1.5426802290
H 2.6110424788 -1.8150624677 -1.6936966120
H 2.8106056217 -0.1343220889 -1.2026236568
H 2.4274134294 -0.9131882476 1.2296491361
H 2.0846132551 -2.5104646894 0.5906968138
H 0.1181790041 -1.7394881175 -0.4067402847
H -1.0684407000 3.9151811957 -0.1855691957
H 2.0494729539 1.1420912737 0.8263292231
H 1.6128344890 5.5679755075 1.0179075649
H -2.6009851554 2.0595510084 -3.2825807692
H -3.1130855047 0.5750497068 -2.7008705431
H -3.0381796241 -2.6395148379 -1.5968671256
H -4.2099668732 -4.2450556777 -0.0982220768
H -4.2654424801 -3.8410730705 2.3546422414
H -3.1556357013 -1.8263553749 3.2917581377
H -2.0055143014 -0.2224250298 1.7965430236
