21
CONF3
C -1.9207940393 -0.0084814804 -0.6618835238
C -1.2192001036 0.7300411293 0.4789120564
C 0.0960428071 1.4107513670 0.0967786623
C 1.0613639625 0.4359208097 -0.6073483915
C 1.0063196033 -0.9764764077 0.0105384587
C -0.4156057797 -1.3403110163 0.4667588896
O -1.3133674504 -1.3254963200 -0.6421052195
O -0.8995209953 -0.3639892163 1.3744044842
O 1.8912715129 -0.9600114976 1.1364334594
O 0.7186956190 0.4272505376 -1.9943525512
O 0.7029603571 1.9565444790 1.2701201085
H -2.9921842086 -0.1128139120 -0.4619532125
H -1.7597067969 0.4575414397 -1.6363724069
H -1.8707339654 1.4247983934 1.0132442080
H -0.1002192700 2.2517178968 -0.5771148547
H 2.0824922172 0.8183203841 -0.4655435239
H 1.3364466251 -1.7113515752 -0.7394832405
H -0.4467203463 -2.3207987181 0.9567168323
H 1.8764189304 -1.8340147143 1.5489562728
H 1.3237195840 -0.1751689010 -2.4459824085
H 0.8423216365 1.2160273275 1.8792753929
