40
CONF262
C 1.4929559711 -2.1727649497 0.1455222945
C 2.9335716986 -2.2897131546 -0.3002634781
O 3.5391586188 -0.9602121055 -0.4606419669
C 3.3079075994 -0.3297697889 -1.6135501026
O 2.6753978588 -0.7730012519 -2.5473402040
C 3.9152858985 1.0702392405 -1.5836175962
C 2.8209681606 2.1345586546 -1.7028313305
C 1.9044079457 2.0545710871 -0.5095574242
C 0.7349743824 1.3001487323 -0.5869706507
C -0.1139477921 1.1428986292 0.5047794732
C 0.2074807562 1.7929892546 1.6942681077
C 1.3668825207 2.5350078796 1.8243653714
C 2.2053418160 2.6472472774 0.7228928098
Cl 3.6742058597 3.5876641248 0.9121178858
F -0.6382278775 1.7318733107 2.7369845146
N -1.2693883408 0.3479832302 0.4035672812
C -1.6051988179 -0.6961792458 1.2475160127
O -1.0842731940 -1.0573679006 2.2868569003
N -2.7100573623 -1.2624597738 0.5802071288
C -2.9107027636 -0.5776189313 -0.6109425927
N -2.0505177895 0.3865308116 -0.7431683238
C -3.9704452171 -0.8986320825 -1.5912863583
C -3.4307561659 -2.3984715892 1.0485486939
F -3.9305775204 -2.1562723273 2.2969271637
F -2.5915993298 -3.4728016365 1.1705305600
Cl 5.0704605102 1.2073447229 -2.9925007133
H 0.8679438553 -1.7275163845 -0.6334760819
H 1.4164143561 -1.5680125490 1.0533375420
H 1.1073385898 -3.1732578303 0.3655309618
H 3.0339471298 -2.8295252314 -1.2446749463
H 3.5543442538 -2.7625160446 0.4622780649
H 3.2934005055 3.1173002879 -1.7695818204
H 2.2521071057 1.9579390649 -2.6192364298
H 0.4784438618 0.8087394992 -1.5195561479
H 1.5891690937 3.0268620828 2.7638987875
H -4.9629927459 -0.8021620749 -1.1391153807
H -3.8612892080 -1.9229293163 -1.9624820602
H -3.8908922447 -0.2050983794 -2.4287482658
H -4.2492192222 -2.6531381948 0.3703244083
H 4.5155907034 1.2082256540 -0.6835882105
