30
CONF2
C 3.1134649071 1.3671434270 0.3845419686
C 3.9455153043 0.3888852689 -0.1453253399
C 3.4693606730 -0.8681911696 -0.5064759194
C 2.1216713877 -1.1426614026 -0.3323862644
C 1.2562230131 -0.1818293410 0.2031931372
C 1.7671620027 1.0713894339 0.5533979086
Cl 0.6993148151 2.2712777213 1.2132211266
N -0.1168685155 -0.4684266425 0.3768027777
C -1.1241023698 -0.1636809320 -0.4998879957
C -2.2919222998 -0.6291733656 0.1138062519
C -1.8590800415 -1.2078371151 1.3355177293
N -0.5444611127 -1.1017412566 1.5050504756
C -2.6619504429 -1.8310376814 2.3200401439
N -3.3468734048 -2.3369652710 3.1036543830
S -3.9085835830 -0.6467474665 -0.5916896590
O -3.7426420300 -0.5434452183 -2.0992584537
C -4.3704786294 1.1438444290 -0.0509622367
F -5.5903138583 1.4265657556 -0.5217963257
F -4.3818763465 1.2203626581 1.2854223650
F -3.5013149420 2.0365231863 -0.5392669110
N -0.9330905300 0.4918705892 -1.6611923181
Cl 1.4914432695 -2.6941422293 -0.7915473288
C 5.4201133214 0.6612581721 -0.3015953294
F 6.1334106133 0.0506457232 0.6772693861
F 5.8896559554 0.1928457251 -1.4800350287
F 5.7074249285 1.9765830109 -0.2446494145
H 3.4957733840 2.3408580864 0.6635116231
H 4.1297046306 -1.6211260033 -0.9200601004
H -0.0081216413 0.4819554994 -2.0680500267
H -1.7000340349 0.4359348756 -2.3196637227
