38
CONF35
C 4.6362158114 1.5510728544 1.7765049696
C 3.4641080363 0.7685375753 1.2889742702
N 2.3209510191 0.8917383334 1.9711126206
C 1.2985433484 0.1718377108 1.4837467455
N 1.3442811192 -0.6247261617 0.4153484151
C 2.5416120014 -0.6669658911 -0.1817085868
N 3.6311247222 -0.0006792413 0.1995453402
O 2.5809642178 -1.4644104952 -1.2420796858
C 3.8362354574 -1.5657814886 -1.9634909872
N 0.1158712456 0.2998965308 2.1812383507
C -1.1526119618 -0.2409924574 1.9597151486
O -2.0904823322 0.0855328898 2.6687706866
N -1.2424861193 -1.1447690297 0.9225319436
S -2.7479244025 -1.6719340341 0.3340252759
O -3.4426529995 -2.3941324345 1.4012635766
O -2.4275253888 -2.3627874423 -0.9168459600
C -3.6932308283 -0.1799957654 0.0298557526
C -3.3726452532 0.8749779122 -0.8114458121
S -4.6397272646 2.0602745025 -0.7775313974
C -5.5633487712 1.1354688721 0.3376038897
C -4.9381976911 -0.0314699721 0.6855049136
C -2.2293929999 1.1970070956 -1.6786148697
O -2.1654944841 2.2267671372 -2.3266930191
O -1.2927772907 0.2454101385 -1.6725424068
C -0.1452895038 0.4880705911 -2.5286864577
H 4.8215601558 1.3206306118 2.8299344087
H 5.5242308942 1.3326007081 1.1844427082
H 4.4087810115 2.6206811138 1.7177577602
H 4.6158428713 -1.9625595909 -1.3101905295
H 4.1297623933 -0.5873696148 -2.3490465975
H 3.6286500999 -2.2559348568 -2.7798681157
H 0.1499854604 0.9329510256 2.9706328189
H -0.4352946948 -1.2272052951 0.2890227768
H -6.5203069156 1.5017004923 0.6859113848
H -5.3402150723 -0.7538803459 1.3824183838
H 0.4079971824 1.3587220179 -2.1683227334
H -0.4770055760 0.6525793155 -3.5558749926
H 0.4598911950 -0.4133279072 -2.4529199891
