37
CONF6
C 3.5928870642 -2.9440163230 1.3891608896
C 3.8813312103 -1.4894579234 1.0864085750
C 3.8760666026 -0.6036356078 2.3174060144
O 2.7976088623 -1.0516650612 0.1834381848
C 3.0473363919 -0.0059586102 -0.6156390738
O 4.1169113509 0.5640667857 -0.7030061221
C 1.8179266869 0.3892824684 -1.3642602693
C 1.8429714688 0.8631376531 -2.6829471868
C 0.6805162164 1.2762414807 -3.3203306865
C -0.5072176132 1.2344077468 -2.6138651692
C -0.5930595875 0.7922227259 -1.2948798036
C 0.5894319173 0.3552504427 -0.6995391836
C -1.8620441411 0.7502419592 -0.5652938271
N -2.2564334978 -0.3780232643 0.0433530707
N -3.4058789504 -0.0918240011 0.6576604730
C -3.7825093128 1.2009637220 0.4614642152
C -2.7946453561 1.7781746678 -0.3263065385
Br -2.6091780479 3.5721230242 -0.8527421641
C -5.0288127927 1.7546042854 1.0617105431
F -4.9485895988 1.8328027060 2.4159759378
F -6.1053366055 0.9760806928 0.7853232802
F -5.2950860754 2.9884239970 0.6038410137
C -4.1305959338 -1.1474551992 1.3624140038
F -1.6321421478 1.5984967788 -3.2564354567
Cl 3.3143006367 0.8849739521 -3.6258532043
H 2.6313289546 -3.0468266228 1.9016966255
H 3.5746515956 -3.5384445567 0.4718784965
H 4.3772318832 -3.3367830576 2.0423197486
H 4.8213583745 -1.3846925346 0.5367829692
H 2.9189038378 -0.6902132732 2.8413233104
H 4.0477986751 0.4428768116 2.0530201283
H 4.6731364807 -0.9231808271 2.9953754478
H 0.6857776686 1.6056933097 -4.3524016817
H 0.5574710407 0.0041597490 0.3252745917
H -4.9409923217 -1.5318374381 0.7374714788
H -4.5356318772 -0.7577262538 2.2978450751
H -3.4167934510 -1.9424848124 1.5760513223
