47
CONF75
C -8.0096156642 0.2021200373 1.1505282743
O -7.2070719127 0.4836305969 -0.0178047071
P -5.9592701072 -0.4691665743 -0.3588194294
S -6.2090451074 -2.3700360865 -0.3988860414
O -5.4597257527 0.1567126431 -1.7458401126
C -5.1875110734 1.5770467548 -1.8514176240
O -4.9103999854 0.1075181817 0.7671326771
C -3.6942292877 -0.4967485877 1.0561491955
C -2.8462400940 -0.9707749575 0.0577988490
C -1.6260426399 -1.5278010889 0.4134737533
C -1.2363898229 -1.5796800231 1.7541071954
C -2.0908246650 -1.0864405809 2.7410035382
C -3.3289306100 -0.5586199283 2.3935221660
S 0.2951648277 -2.3498481887 2.2550778659
C 1.4876934378 -1.6006499439 1.1555756226
C 2.5524358741 -2.3890632413 0.7133458243
C 3.5501698322 -1.8359903744 -0.0808103075
C 3.4589964530 -0.5020621692 -0.4473425274
C 2.4019561952 0.2947819634 -0.0257193215
C 1.4203605930 -0.2544193024 0.7881860103
O 4.4205519205 0.0382062754 -1.3066107400
P 5.7216632792 0.8028767324 -0.7072670570
S 6.6758240124 -0.0750334252 0.7229458159
O 5.0927476705 2.2485844084 -0.4086582099
C 5.8570735622 3.2185465821 0.3434627433
O 6.5244382399 1.0927142649 -2.0665029654
C 7.3820069124 0.0705575469 -2.6214486610
H -7.4175316551 0.3463035728 2.0597635265
H -8.3916176510 -0.8221130331 1.1079659651
H -8.8344036042 0.9148244155 1.1254738238
H -4.4595652240 1.8851049618 -1.0945436059
H -4.7739854673 1.7240280217 -2.8495297644
H -6.1124020004 2.1481243607 -1.7383159154
H -3.1470073018 -0.9292945991 -0.9833645449
H -0.9692925772 -1.9201486606 -0.3554943582
H -1.7871640881 -1.1163310676 3.7819779749
H -4.0081978378 -0.1794568254 3.1487486486
H 2.5996331583 -3.4374694545 0.9885083026
H 4.3894169224 -2.4302802398 -0.4228520373
H 2.3650057542 1.3359680099 -0.3254969719
H 0.5984884339 0.3623765247 1.1351563147
H 6.1715136209 2.7933966614 1.3007937045
H 6.7316224323 3.5387426885 -0.2312729699
H 5.1869703929 4.0637578872 0.5036386622
H 8.1060969396 -0.2652048004 -1.8733419941
H 6.7831590856 -0.7761484950 -2.9718575614
H 7.8934734732 0.5368587520 -3.4640930457
