58
CONF3
C 6.1170922365 -0.4567231728 3.1686003227
C 6.6792508759 -0.3744484801 1.7468917848
C 7.6738674790 -1.5125058945 1.5053754421
C 5.5680904741 -0.4073733253 0.6886419577
C 4.5938618704 0.7685026486 0.7365211939
C 3.5424362151 0.7039618773 -0.3700497029
C 2.5049875519 1.8210469091 -0.2799369608
C 1.3451479647 1.6251294231 -1.2525868647
C 0.2409828375 2.6692715244 -1.0861816703
C -1.0545764167 2.2788260935 -1.7650611091
O -1.5963784019 1.0262202161 -1.1999621472
P -2.2409983626 1.0192088282 0.2516498028
O -2.8570904405 2.2799247823 0.7193940444
O -1.1353371797 0.5374783071 1.3126116179
C -0.2119084671 -0.5053738785 1.1963324418
C -0.3132874511 -1.5258876162 0.2571719392
C 0.6653272904 -2.5193437971 0.2453804593
C 1.7196455545 -2.4955673851 1.1537533994
C 1.7988718359 -1.4644358420 2.0878193349
C 0.8341725183 -0.4633398788 2.1125548965
O -3.1906567376 -0.2801815905 0.1956333312
C -4.1328799947 -0.5071895275 -0.8141814938
C -4.8314773088 0.5280622379 -1.4245114495
C -5.7709347404 0.2105313904 -2.4036259466
C -6.0107280165 -1.1158274454 -2.7539921084
C -5.3033073656 -2.1364216639 -2.1215821879
C -4.3554094637 -1.8371825022 -1.1474569388
H 5.4700821148 0.3930771110 3.4053340638
H 5.5271364453 -1.3744796525 3.2888658151
H 6.9257783442 -0.4768818380 3.9071409243
H 7.2166190891 0.5799241500 1.6420278860
H 8.4917398916 -1.4849848857 2.2333495354
H 8.1080184738 -1.4543570125 0.5013837184
H 7.1716666382 -2.4833612230 1.6002279246
H 6.0316335179 -0.4420874046 -0.3073518406
H 5.0052344162 -1.3470240732 0.8017973877
H 5.1524669592 1.7126969365 0.6630894385
H 4.0760669116 0.7861542230 1.7043680718
H 4.0334394801 0.7300346922 -1.3528582905
H 3.0239804630 -0.2631032433 -0.3041644217
H 2.1022037829 1.8477245065 0.7426745730
H 2.9843161258 2.7949914907 -0.4519628474
H 0.9226215023 0.6263657601 -1.0865481888
H 1.7106052847 1.6405220399 -2.2880900183
H 0.0470653987 2.8474614228 -0.0191603213
H 0.5532390365 3.6338621199 -1.5064406700
H -0.9054626949 2.0401045931 -2.8206706488
H -1.8209649499 3.0529913122 -1.6698375164
H -1.1285212560 -1.5592491754 -0.4549071580
H 0.5940724431 -3.3171498542 -0.4870542769
H 2.4760493170 -3.2730252638 1.1332045544
H 2.6184936105 -1.4309664382 2.7988193000
H 0.8818983347 0.3496276820 2.8289834132
H -4.6538330929 1.5604943377 -1.1420425124
H -6.3203004371 1.0113743926 -2.8881037892
H -6.7466765699 -1.3532462399 -3.5149468807
H -5.4840869900 -3.1730521732 -2.3873731071
H -3.7911045954 -2.6167187151 -0.6467509509
