48
CONF29
C -3.1344393365 2.0795627618 -1.1074333824
C -3.7637772386 1.2329412002 0.0076439234
C -5.2945221007 1.3794167580 -0.0416612016
C -3.2905462802 1.7549193392 1.3744653471
C -3.4318918690 -0.2793474560 -0.1577494935
C -1.9514289604 -0.5932261136 -0.4629398483
N -1.7659736131 -2.0293325326 -0.6721642839
C -1.4830141141 -2.6822117727 -1.8178425136
N -1.4888778410 -3.9920472225 -1.6107871052
C -1.7962601534 -4.0827728289 -0.2842347452
N -1.9814923845 -2.9203404024 0.3260096292
O -1.1676963429 -0.1625870218 0.6252315616
C 0.2001805903 -0.0708401793 0.4885789828
C 0.9014868883 -0.2563422170 -0.7013616150
C 2.2863523932 -0.1103507109 -0.7030800340
C 2.9954168126 0.2157752135 0.4577234639
C 2.2627435267 0.3953504250 1.6414594692
C 0.8848952475 0.2521292412 1.6616136290
C 4.4649583447 0.3649297737 0.4386652843
C 5.0998038695 1.3355072583 1.2277784267
C 6.4837748169 1.4759631562 1.2086882581
C 7.2633544878 0.6519735878 0.3992128971
C 6.6450630700 -0.3156018555 -0.3905212548
C 5.2615014124 -0.4589836523 -0.3703013889
O -4.2049152990 -0.9083961222 -1.1807852896
H -3.4030563838 1.7165403960 -2.1068926917
H -2.0420037713 2.1041493626 -1.0304842826
H -3.4939399228 3.1105742931 -1.0287028257
H -5.5637200042 2.4161722378 0.1838950394
H -5.6977744680 1.1269678184 -1.0253224515
H -5.7728204637 0.7314317613 0.7013868188
H -3.6754446391 2.7697775608 1.5206968500
H -3.6748946786 1.1278923877 2.1868266516
H -2.2030607735 1.7893676667 1.4505254522
H -3.7026120818 -0.7968402261 0.7701951848
H -1.6603771257 -0.1096747649 -1.4038420943
H -1.2845513537 -2.1708898012 -2.7512479680
H -1.8829023955 -5.0234703994 0.2450938419
H 0.4036809440 -0.4985577182 -1.6315956109
H 2.8176420027 -0.2350102229 -1.6413331394
H 2.7802047925 0.6269097895 2.5671330922
H 0.3235320818 0.3801424502 2.5814417324
H 4.5030052801 2.0009570135 1.8441229932
H 6.9539954163 2.2390311565 1.8215934283
H 8.3430031554 0.7628369291 0.3840823837
H 7.2432212782 -0.9689931419 -1.0184129162
H 4.7949370148 -1.2330526594 -0.9720049452
H -4.1007578515 -0.4102531963 -2.0033636774
