34
CONF2
C 0.2730311584 1.8690035398 -1.7471058712
C -0.6458192577 1.0571455989 -0.8780590382
C -0.2287784790 0.1738614544 0.0676584958
C -1.2053432169 -0.6024785194 0.9696846224
C -2.6209626626 -0.5815263296 0.3702209705
C -3.0484672471 0.8112562260 -0.0623960331
C -2.1053250675 1.3202545713 -1.1451104456
C -1.2172005771 0.0121041521 2.3824984455
C -0.7678340680 -2.0754418596 1.0751211834
C 1.1732992810 -0.0810703707 0.3559598328
C 2.2030520458 -0.2004802957 -0.5090375599
C 3.5677226549 -0.4891937323 -0.0425896745
O 3.8655021651 -0.5612945245 1.1512371710
C 4.5988441686 -0.6975859202 -1.1222236125
H -0.1518041184 2.8651590850 -1.9078940983
H 0.3750793614 1.4070498639 -2.7381318306
H 1.2750106999 1.9748416337 -1.3284471241
H -3.3173474697 -0.9991353685 1.1076937728
H -2.6429481144 -1.2462290068 -0.5049210711
H -4.0774576696 0.8002528096 -0.4377753815
H -3.0324239426 1.4966522015 0.7930389073
H -2.2462063855 2.3958758853 -1.3071691908
H -2.3515398033 0.8467633037 -2.1096713025
H -0.2212314872 -0.0045718759 2.8362095365
H -1.5595861646 1.0504739091 2.3642521214
H -1.8873817627 -0.5636827282 3.0311789696
H -0.6737565893 -2.5244213870 0.0804547321
H 0.1898911999 -2.1843791061 1.5932802633
H -1.5188759042 -2.6410326142 1.6381109708
H 1.4226725514 -0.2559828282 1.4032866460
H 2.0527610734 -0.1378482199 -1.5824347243
H 5.5755446323 -0.9160203448 -0.6891092750
H 4.2880216025 -1.5175354609 -1.7800837496
H 4.6598570910 0.1992166708 -1.7500528762
