57
CONF113
C -3.7983323309 -1.5700442002 -2.9049096736
C -3.9555743706 -1.1087892258 -1.4507028054
C -2.9755009742 0.0103611001 -1.1340004365
O -3.1836736242 1.1353978016 -1.6022451621
N -1.8891858906 -0.2773144661 -0.3497606850
C -1.6776723233 -1.6237865654 0.1062042640
C -1.0416189538 -2.5428185215 -0.7269056975
C -0.8415173800 -3.8505265682 -0.2925842339
C -1.2692107442 -4.2388667014 0.9751060872
C -1.8975118523 -3.3149996682 1.8087414633
C -2.1015092676 -2.0077008408 1.3777743048
C -0.8983277901 0.7969108521 0.0377851693
C 0.2233885859 0.1781883957 0.8919906121
C 1.3762689986 1.1477286860 1.1317730569
N 1.9622946933 1.5821724648 -0.1380401395
C 0.9506681984 2.2836919325 -0.9312145383
C -0.2452533355 1.3834934785 -1.2308228334
C 3.1382804305 2.4281224365 0.0582950610
C 4.3348185659 1.6784156835 0.6663059769
C 4.6857989686 0.4227918863 -0.0636377799
C 4.6150588379 -0.8711061899 0.3801283167
C 4.9885346840 -1.8358852862 -0.5981848188
C 5.3425399900 -1.2742378116 -1.7922599787
S 5.2207734134 0.4572200925 -1.7272756041
C -1.6306925861 1.8878884921 0.8278945759
O -2.2013811951 1.3193101711 2.0038234170
C -2.9137200979 2.2948441932 2.7571117034
H -2.8206280284 -2.0341098193 -3.0668077368
H -3.8951327101 -0.7230548605 -3.5898888641
H -4.5693340752 -2.3044190973 -3.1541331636
H -4.9516998190 -0.6754623841 -1.3129603410
H -3.8606380081 -1.9574842264 -0.7719157250
H -0.7047684425 -2.2267211680 -1.7092476800
H -0.3484004740 -4.5647123001 -0.9445688926
H -1.1128107573 -5.2583392893 1.3132913326
H -2.2325715487 -3.6135576279 2.7972672154
H -2.5882223886 -1.2751288149 2.0131758678
H 0.6272643249 -0.6964739964 0.3724131856
H -0.1696167529 -0.1587047797 1.8544889886
H 2.1355113947 0.6190466117 1.7165960917
H 1.0479919600 2.0138524638 1.7413844081
H 1.4045297621 2.5876002834 -1.8822285795
H 0.6172732315 3.2130422334 -0.4267268620
H -0.9826163395 1.9429216626 -1.8092268912
H 0.0932625414 0.5397949636 -1.8445928579
H 3.4330938227 2.8161128957 -0.9250412418
H 2.9129732751 3.3052774244 0.6974004699
H 5.1837103882 2.3729190064 0.6753265419
H 4.1406391102 1.4153945074 1.7108881559
H 4.2975895498 -1.1205929935 1.3868647750
H 4.9947314230 -2.9054267041 -0.4218830518
H 5.6699147022 -1.7625329682 -2.7003385866
H -0.9170577934 2.6766774940 1.1063892638
H -2.4124235940 2.3385652117 0.2049988039
H -3.7310607135 2.7335937916 2.1657400424
H -3.3318135601 1.7884289872 3.6303364492
H -2.2474339401 3.1039098849 3.0926086520
