55
CONF15
C 5.8003352639 -2.1138883434 -3.6959319870
O 5.8401047964 -2.1846041922 -2.2634685085
C 4.7005923055 -1.8749816899 -1.5844726035
C 3.4980758222 -1.4934256384 -2.1884208499
C 2.3927265793 -1.2050639717 -1.3926948652
C 2.4556053516 -1.2895961752 -0.0026694183
C 3.6653696097 -1.6774952190 0.5850255997
C 4.7779979474 -1.9664296170 -0.1903452898
C 1.2914511365 -0.9386267769 0.8866063292
S -0.3392729247 -1.6650400472 0.3407271188
C -1.1388519197 -0.3398779193 -0.5446524840
C -1.4600890869 -0.5402217235 -1.8885759984
C -2.1638448522 0.4228180430 -2.6043717584
C -2.5274776642 1.6133642908 -1.9817739014
C -2.2042795552 1.8293516053 -0.6472627756
C -1.5313769178 0.8534775361 0.0901862731
N -1.2568813572 1.0915294650 1.4634519183
C -2.3691337676 1.4765516432 2.3554021178
C -3.0804510901 0.2724574555 2.9642755996
N -3.7583378745 -0.5701656850 1.9777093579
C -4.1380022027 -1.8454752900 2.5894762452
C -4.9440629749 0.0865195165 1.4251580303
C -0.0465485558 0.8548060877 2.0434540407
O 0.1236861599 0.8644764225 3.2624793502
C 1.1685881943 0.5661438483 1.1546703441
O 1.1860987131 1.2563634440 -0.1099686407
C 1.1984714559 2.6106271294 -0.0512343230
C 1.2645708186 3.2027599424 -1.4227919918
O 1.1711864069 3.2229932960 0.9961003359
H 6.7970723011 -2.3995438662 -4.0327542770
H 5.5751642767 -1.0954393783 -4.0330143405
H 5.0593004796 -2.8114411947 -4.1030850098
H 3.4078455552 -1.4204147616 -3.2651605530
H 1.4631574036 -0.9179094085 -1.8732993999
H 3.7370577017 -1.7564636607 1.6667233053
H 5.7126953700 -2.2731728287 0.2681917733
H 1.4509521201 -1.3938357063 1.8701278409
H -1.1527602283 -1.4629796047 -2.3699876433
H -2.4104198488 0.2480339179 -3.6463587197
H -3.0523136697 2.3845856708 -2.5360593795
H -2.4696575167 2.7681954305 -0.1721811015
H -3.0616682501 2.0999551445 1.7880528277
H -1.9554048167 2.0867888124 3.1616554318
H -2.3366273616 -0.3401242358 3.4854338641
H -3.7869616590 0.6531870864 3.7305847745
H -3.2453373119 -2.3588020110 2.9619303834
H -4.6175574086 -2.4846015824 1.8409094598
H -4.8422391303 -1.7173481786 3.4342408588
H -5.6829160603 0.3471774381 2.2075763879
H -4.6701905521 1.0023801791 0.8927372949
H -5.4272110733 -0.5829477323 0.7063869300
H 2.0401154664 0.8831347936 1.7369040962
H 2.2860511587 3.0914051269 -1.8029282131
H 0.5956408788 2.6696946897 -2.1026044730
H 1.0099605692 4.2611397457 -1.3801098015
