44
CONF11
C -0.5328840215 -3.2250310223 -0.2013959424
C -1.3920431255 -2.1096525773 -0.8196531719
C -2.8108265664 -2.6359082145 -1.0298718648
C -0.7450498444 -1.6308616577 -2.1318380199
C 0.4543692843 -0.7782780636 -1.6919117140
C 0.0767722092 -0.2017409909 -0.2981246454
C 0.1353441172 1.3361752574 -0.2691271298
C 1.5444327993 1.8434311233 -0.4382664920
C 2.4733249146 1.7062475607 0.5991071641
C 3.7859345101 2.1442272367 0.4606153523
C 4.1697423809 2.7287305882 -0.7410500822
Cl 5.8324130355 3.2902013511 -0.9307496849
C 3.2769975979 2.8864061828 -1.7918205079
C 1.9666902276 2.4407160482 -1.6279497409
C -1.3289515098 -0.7994444608 0.0306324279
O -2.3784643077 0.0481280621 -0.4579522506
C -1.5387165979 -1.0793320358 1.5270194684
N -1.4078542362 0.1168312221 2.3527090263
C -0.4089063058 0.4576162647 3.1879266252
N -0.6170512842 1.6736813317 3.6856743113
C -1.7866087224 2.0420705420 3.0980503161
N -2.3078698967 1.1309618620 2.2815688834
H 0.4727914138 -2.8856866473 0.0650280437
H -1.0005083412 -3.6475902731 0.6937281057
H -0.4288138829 -4.0354096905 -0.9301406694
H -3.2883015147 -2.8969406054 -0.0787357831
H -2.7723924057 -3.5451123442 -1.6401802755
H -3.4383520786 -1.9040580223 -1.5422051139
H -1.4648749567 -1.0172481716 -2.6840924843
H -0.4609967287 -2.4720864359 -2.7726605196
H 0.6657917701 0.0200533522 -2.4093653953
H 1.3608861303 -1.3867912018 -1.6192675104
H 0.7815543421 -0.5736579293 0.4558810046
H -0.2594353201 1.7206392179 0.6784466810
H -0.4960358795 1.7336882916 -1.0698008047
H 2.1677046308 1.2506826821 1.5374451584
H 4.4956298715 2.0358831030 1.2732453545
H 3.5921809675 3.3496110195 -2.7201901875
H 1.2624283346 2.5669406607 -2.4453884007
H -2.4780703838 0.7918550175 0.1564077309
H -0.7883184103 -1.7822162322 1.8921618110
H -2.5351947821 -1.5017068658 1.6920832264
H 0.4250093208 -0.1990735063 3.3999754577
H -2.2734769565 2.9930484736 3.2740323484
