44
CONF6
C 1.1224877443 -2.2951515864 2.4643505583
C 1.8727948252 -1.0369699871 2.1834813363
N 1.1750854910 0.0061097167 1.7166524513
C 1.9053746402 1.1012092891 1.4392387855
N 3.2246197210 1.2199117043 1.5999748581
C 3.8026351984 0.1177910528 2.0789158519
N 3.1932354325 -1.0350010618 2.3883523550
O 5.1174856352 0.2233897923 2.2486406984
C 5.8146997557 -0.9309260429 2.7649910877
N 1.2760522782 2.2182593654 0.9383109277
C -0.0664152422 2.4548250575 0.5721460285
O -0.3629856451 3.4779415311 -0.0090070838
N -0.9447454997 1.4611389935 0.9347313796
S -2.5580984972 1.4008727079 0.3586347776
O -2.9759177381 0.0443448585 0.7325338717
O -3.2838319420 2.5714194001 0.8349350213
C -2.3835358824 1.5215312628 -1.4293778586
C -2.8795210612 2.6845734172 -2.0125812584
C -2.8102754229 2.8428098123 -3.3895346613
C -2.2331028924 1.8447054787 -4.1666957159
C -1.7261902172 0.6986127416 -3.5668225490
C -1.7862902406 0.5007475692 -2.1842613394
C -1.2285358048 -0.7835478256 -1.6219317516
C -2.2699037989 -1.9111928145 -1.6529051175
C -1.7023985559 -3.2087286527 -1.1412962577
F -1.2767259283 -3.1091028278 0.1445637810
F -2.6151878216 -4.2051635561 -1.1833855608
F -0.6312582469 -3.6195655133 -1.8723920027
H 1.1079131367 -2.9093323582 1.5561676542
H 1.6181101785 -2.8671697528 3.2495592691
H 0.0864974619 -2.0792095449 2.7300386280
H 5.6970681562 -1.7836562848 2.0922694344
H 6.8581833667 -0.6219458913 2.8184072209
H 5.4381756349 -1.1954749616 3.7558343116
H 1.8893411437 2.9897592273 0.7131241991
H -0.5484548927 0.5952553578 1.3258968221
H -3.3030251982 3.4542733794 -1.3790647167
H -3.1946397076 3.7471424621 -3.8481523988
H -2.1661345495 1.9618917132 -5.2433944517
H -1.2629875427 -0.0695668130 -4.1804024736
H -0.8723265221 -0.6573074563 -0.5986396614
H -0.3670249620 -1.0754012137 -2.2313933510
H -3.1286044552 -1.6543808535 -1.0274622614
H -2.6216425389 -2.0897208871 -2.6741070254
