51
CONF40
C 2.7507352119 2.0226061543 1.6766065921
C 2.5028583081 0.6500696353 1.1090813366
C 1.1776597389 0.1884867740 0.9795432587
C 0.9127566887 -1.0576488558 0.4174955840
C 1.9544127662 -1.8563424340 -0.0442706798
C 3.2637481834 -1.4173756212 0.0806528590
C 3.5534873998 -0.1789108525 0.6697838726
C 4.9816756557 0.1989834602 0.8173251635
C 5.5262498866 0.4908863351 2.0744427178
C 6.8771858074 0.7954834001 2.2098865901
C 7.7072078364 0.8158446421 1.0902790498
C 7.1773900838 0.5233603200 -0.1644819290
C 5.8265298551 0.2136169858 -0.2989757469
C 0.0590509990 1.0714761011 1.4765156687
O -1.2453465985 0.4861418863 1.2667405316
C -1.7828478068 0.6479656729 0.0323699939
O -1.2499505702 1.2824966254 -0.8564527780
C -3.0724929740 -0.0661784472 -0.0535201112
C -4.0043003419 0.2641090965 -1.2207727787
C -3.3286697126 -1.0945761915 -1.1463284254
C -2.2694171555 -1.3800228958 -2.1858282439
C -4.1239376537 -2.3148666620 -0.7396854931
C -5.4248089926 0.4352712264 -0.9506328691
C -6.2546302086 1.2498366292 -1.6066093276
C -7.7141731341 1.3796513525 -1.2918236242
F -8.0533558861 2.6529808526 -0.9668749320
F -8.4939354385 1.0345358389 -2.3483594323
F -8.0733202331 0.5940587306 -0.2565536771
Cl -5.7587045219 2.2749497854 -2.9358697454
H 2.4880406561 2.0708159678 2.7404851751
H 3.7945282387 2.3181805874 1.5755712121
H 2.1382480048 2.7716041166 1.1628855297
H -0.1089358922 -1.4128701040 0.3379685537
H 1.7419840619 -2.8239899813 -0.4880517396
H 4.0839251947 -2.0442001798 -0.2564514679
H 4.8867546275 0.4644634977 2.9520754125
H 7.2838105419 1.0123802528 3.1930480358
H 8.7606444920 1.0556470704 1.1960284101
H 7.8163060692 0.5376643878 -1.0423274146
H 5.4157283208 -0.0101038558 -1.2793783762
H 0.0876246682 2.0548187922 0.9972690848
H 0.1270584045 1.2125176113 2.5597364425
H -3.5386048814 -0.2864069181 0.9011179272
H -3.5665242811 0.9351827177 -1.9528421099
H -1.7301269291 -0.4801155947 -2.4849510657
H -1.5483281561 -2.1078289384 -1.7970461136
H -2.7434798834 -1.8133205603 -3.0727299850
H -4.6826270688 -2.7005863049 -1.5994000838
H -4.8268542013 -2.1117396233 0.0705703431
H -3.4378921423 -3.0984875189 -0.4019945462
H -5.8623368258 -0.1470089666 -0.1452672575
