47
CONF417
C -4.0238852321 -3.1179853705 -0.2573556570
C -3.2651128818 -2.1159036023 0.6098244542
C -3.4177362695 -0.6755161248 0.1203923526
C -2.6593945150 0.3203656345 0.9975706784
C -2.7421230999 1.7921677586 0.5634352292
C -4.1739627068 2.3454044125 0.4942130555
C -4.9558786098 2.2048770625 1.7987065326
C -2.0711190892 2.0393245460 -0.7859010499
O -0.7169988240 1.5316325101 -0.8240131667
C 0.2348316271 2.3372839768 -0.2793038023
O 0.0054411341 3.4501705230 0.1553408200
C 1.5669750237 1.7280282616 -0.2739653981
C 1.8316507098 0.4759773809 -0.6923082240
C 3.1191022954 -0.1941836572 -0.6996549169
C 3.1917357682 -1.5294039521 -1.1383576735
C 4.3865382064 -2.2213283496 -1.1630291701
C 5.5640845063 -1.5916133773 -0.7457556508
C 5.5217854200 -0.2620276860 -0.3078286605
C 4.3127467555 0.4163684190 -0.2893438721
O 6.6906052251 -2.3479623775 -0.8028508447
C 7.9164636352 -1.7497032457 -0.3846995257
H -5.0956042796 -2.8916820051 -0.2709569499
H -3.6669776942 -3.0893877625 -1.2926575568
H -3.9027685396 -4.1415350176 0.1102061541
H -3.6172701892 -2.1835064757 1.6476941242
H -2.1988385913 -2.3770939717 0.6314207142
H -4.4859285559 -0.4210074314 0.0921189777
H -3.0592559624 -0.6160938398 -0.9161745776
H -1.6015199488 0.0311155884 1.0303936241
H -3.0243662255 0.2382188036 2.0291016970
H -2.1923537641 2.3857339407 1.3064315964
H -4.1173141108 3.4073588941 0.2230177625
H -4.7235768173 1.8528337822 -0.3193179594
H -5.9232514382 2.7111698643 1.7296504534
H -4.4036796867 2.6474940399 2.6348320672
H -5.1498303711 1.1564460606 2.0449131391
H -2.5865571260 1.5049212408 -1.5892712702
H -2.0594641000 3.1098939575 -1.0131881718
H 2.3335593982 2.3845405212 0.1232052100
H 0.9966482354 -0.1133977692 -1.0648177725
H 2.2827471646 -2.0271424595 -1.4641647248
H 4.4368505602 -3.2505213481 -1.5007960914
H 6.4196034729 0.2487991300 0.0168725836
H 4.3046015201 1.4460779972 0.0516121653
H 8.6782599761 -2.5202976204 -0.5063621418
H 7.8706746381 -1.4446658022 0.6683209401
H 8.1698616736 -0.8842451864 -1.0098212119
