46
CONF84
C -4.1241015474 -1.8742471028 0.6099313067
C -3.1517259401 -1.8679359119 1.7664143475
C -1.6769496657 -2.0383042208 1.5366397008
C -2.2422538071 -0.6718799933 2.0144379875
C -2.1521217998 0.4866408099 1.1125043449
O -2.3065226335 0.4985935941 -0.0931179908
O -1.8189512387 1.5961971107 1.8298746702
C -1.5944341438 2.8028577078 1.0746965486
C -0.2049177978 2.8774333097 0.4908013638
C 0.6768344667 1.7997581732 0.5278442008
C 1.9357102230 1.9267191119 -0.0463616388
C 2.3498425366 3.1088928512 -0.6476613143
C 1.4634134334 4.1820069579 -0.6800100410
C 0.1954563238 4.0697839711 -0.1181854563
O 2.8001831305 0.8454974392 0.0630728541
C 3.2105485916 0.2040917765 -1.0889639627
C 4.2599297051 -0.7020546381 -0.9356639856
C 4.7046150257 -1.4238371445 -2.0368137337
C 4.1153942588 -1.2427763446 -3.2881246788
C 3.0692034831 -0.3348215153 -3.4241782711
C 2.6060233764 0.3929437176 -2.3300232662
C -1.1078849447 -2.1987961751 0.1946687374
C 0.1715694716 -2.4858879138 -0.0493312215
Cl 0.7800856672 -2.7582467949 -1.6588091626
Cl 1.3875040366 -2.6258334658 1.1917607542
C -3.7084711460 -2.5059223222 3.0225693455
H -3.7452249506 -1.3606461060 -0.2722908857
H -4.3639808210 -2.9096875986 0.3447598833
H -5.0530148661 -1.3802007487 0.9136146935
H -1.1289406156 -2.5419063143 2.3276755577
H -2.0350736142 -0.4408795392 3.0535309255
H -1.7490385357 3.6148027956 1.7900306501
H -2.3439610287 2.8841199912 0.2804327896
H 0.4122730192 0.8577892681 0.9959871164
H 3.3415730242 3.1807459048 -1.0817996635
H 1.7682459898 5.1153136426 -1.1427031188
H -0.4873824782 4.9142776145 -0.1487420763
H 4.7076222845 -0.8339095017 0.0439570682
H 5.5198185286 -2.1303941265 -1.9147729115
H 4.4673131716 -1.8059591405 -4.1460187048
H 2.5952275014 -0.1910819367 -4.3904094599
H 1.7803937536 1.0860956576 -2.4429400727
H -1.7546379039 -2.1067909789 -0.6705467917
H -2.9786718782 -2.4953242404 3.8368253504
H -3.9851932213 -3.5461677247 2.8198018339
H -4.6053251282 -1.9710699056 3.3526599853
