47
CONF60
C -6.1859974598 -2.5087257757 -2.2631434317
O -6.5238907370 -1.6008825563 -1.1689646437
P -5.7863620775 -1.7212397997 0.2394846832
S -6.3688220839 -0.3766638248 1.5047209765
O -6.0013423827 -3.2639701035 0.5967312151
C -5.4715428353 -3.7986334447 1.8422148477
O -4.1844453256 -1.7410986198 -0.0785268819
C -3.4282981127 -0.5732411970 -0.1708063504
C -2.3708455022 -0.4226100466 0.7183648474
C -1.5653643069 0.7048039762 0.6324553629
C -1.8108129699 1.6647689526 -0.3536257301
C -2.8722089810 1.4948757907 -1.2445335478
C -3.6927066170 0.3747055695 -1.1501271362
S -0.8534833662 3.1719158597 -0.4593551709
C 0.8224953293 2.5923851527 -0.2286947585
C 1.6806555664 3.3523355301 0.5684541981
C 3.0108938385 2.9733279212 0.7186742226
C 3.4632754377 1.8279959748 0.0809989037
C 2.6216954030 1.0583199671 -0.7154785337
C 1.2993308139 1.4499779611 -0.8778765249
O 4.8101817541 1.4937308988 0.2233149216
P 5.2864418164 0.1151996300 0.9592963659
S 4.2113621559 -0.4323662237 2.4735899114
O 6.8297187748 0.4596039244 1.1905161810
C 7.2061999292 1.4661596497 2.1716323781
O 5.3623014157 -1.0000575648 -0.1772976924
C 6.0908596613 -0.7451541472 -1.4183998375
H -5.1117668786 -2.4744056338 -2.4628143828
H -6.7407596560 -2.1411487027 -3.1256058598
H -6.4987740314 -3.5243725152 -2.0128204063
H -5.7533784092 -4.8508956561 1.8535622042
H -4.3831217349 -3.6980193910 1.8606304526
H -5.9193808685 -3.2761616384 2.6915489428
H -2.1957329293 -1.1767955187 1.4781819693
H -0.7485393979 0.8361744320 1.3343181344
H -3.0577765245 2.2319391933 -2.0188945567
H -4.5156509132 0.2352398412 -1.8433028497
H 1.3104907723 4.2338415621 1.0816001998
H 3.6889309604 3.5478040509 1.3405093008
H 2.9991144248 0.1716566203 -1.2143493957
H 0.6396667749 0.8634698703 -1.5085449638
H 8.2949286488 1.5005730433 2.1545055241
H 6.7923691243 2.4378314250 1.8891979542
H 6.8509424948 1.1713763462 3.1625503426
H 5.8879568791 -1.6057242329 -2.0547257539
H 5.7211510846 0.1688363051 -1.8904407659
H 7.1600399348 -0.6666826598 -1.2116788642
