40
CONF41
C 2.3359199444 -0.4940151139 -3.1595590925
O 2.9422507893 -0.6787919989 -1.8514964372
C 3.6514101039 0.3611476797 -1.3874985406
O 3.7998154552 1.4080284296 -1.9769899953
C 4.2531385076 0.0062462679 -0.0388990778
S 4.5263650681 1.4248810390 1.0648711127
C 2.8657968771 1.8651920290 1.5258698134
C 1.7235507486 1.2737049885 0.9834837354
C 0.4289674395 1.6474816949 1.3745689669
C 0.3242646975 2.6720416206 2.3239507935
C 1.4269173246 3.2874446022 2.8801317272
C 2.6916034512 2.8771532729 2.4782051733
Cl 4.0921070204 3.6617649673 3.1844113002
F -0.9051141447 3.0696631379 2.7209574887
N -0.7260779474 1.1233128732 0.8170007493
C -0.8635584803 -0.1331873496 0.5980743289
N -1.9254509939 -0.6362055129 -0.1133678356
N -2.1180989495 -2.0178691461 0.0710533893
C -1.0782289022 -2.6845527896 0.6387138413
O -0.9576380603 -3.8905454388 0.7431457214
S 0.1570063173 -1.4810516327 1.2018143231
C -3.0006162115 -2.6755978650 -0.9090772324
C -4.3311181836 -1.9406309599 -0.9711587935
C -4.0899334991 -0.4626898865 -1.2639536584
C -3.1771014817 0.1468540172 -0.2104013623
H 3.1101791761 -0.3107292105 -3.9075856562
H 1.6376648738 0.3454454910 -3.1277487686
H 1.8110689335 -1.4254670483 -3.3651811981
H 5.2571507200 -0.3949069935 -0.2253065279
H 3.6724776150 -0.7761845427 0.4570402818
H 1.8070328625 0.5227239505 0.2085575338
H 1.2975131739 4.0690908635 3.6198223982
H -2.5042353990 -2.6676557985 -1.8895778278
H -3.1151533161 -3.7077263104 -0.5748263305
H -4.9435117858 -2.3985277060 -1.7534065467
H -4.8595244895 -2.0557350323 -0.0173280025
H -3.6355595586 -0.3456413216 -2.2550645665
H -5.0318204088 0.0937951993 -1.2604190969
H -3.6637426432 0.1578013116 0.7757153552
H -2.8857178666 1.1639381270 -0.4718364717
