34
CONF126
C -3.7339505073 -1.5472987532 0.9784579256
C -2.2445348005 -1.3241884714 0.9002975978
O -1.9918704641 0.0258619053 0.3610358825
P -1.2656202477 0.2437366803 -1.0357186855
S -1.7528724964 -0.8953898960 -2.5251946198
O -1.3323378045 1.8188874673 -1.2300593215
C -2.3349145887 2.4600329517 -2.0978980277
C -3.7026558476 2.4503414208 -1.4584432611
O 0.2995647203 0.0769462713 -0.4886039118
N 1.2509309425 0.2571145224 -1.4917297751
C 2.4519511293 0.0485198217 -1.0545494649
C 3.4314880573 0.2940001043 -2.0766074526
N 4.2474712819 0.4758288046 -2.8759835918
C 2.9422835799 -0.3653887274 0.2712774969
C 4.1638661600 0.1558078231 0.7224130219
C 4.6620975516 -0.2106064032 1.9656674649
C 3.9626788273 -1.1195403903 2.7562135595
C 2.7621396844 -1.6609016658 2.2994182915
C 2.2437678698 -1.2860385908 1.0669193529
H -3.9252571199 -2.5247673332 1.4322052292
H -4.2093597131 -0.7794970204 1.5950249997
H -4.1807144434 -1.5326084671 -0.0196432693
H -1.7708885477 -1.3302844152 1.8849228134
H -1.7550158285 -2.0669141746 0.2630363135
H -2.3263006549 1.9466121697 -3.0639702797
H -1.9499896432 3.4732594958 -2.2244060876
H -3.6776162096 2.9278253563 -0.4750745877
H -4.0848179223 1.4303708162 -1.3515175256
H -4.3938954151 3.0076201403 -2.0985264807
H 4.7150464673 0.8594686057 0.1060645720
H 5.5999517470 0.2094281601 2.3134848140
H 4.3563980221 -1.4122624067 3.7242551443
H 2.2249023112 -2.3823987220 2.9061897245
H 1.3180737123 -1.7235763919 0.7169537395
