21
CONF4
C -2.3557995486 0.6031258288 -0.4623052363
C -0.9259447648 0.2245356371 -0.2218240634
C -0.5412681469 -1.0300020441 0.2769747637
C 0.7600330053 -1.3758130215 0.6029701428
C 1.7490221664 -0.4297098569 0.4027056992
C 1.4598382173 0.8341130466 -0.0790745081
C 0.1403756327 1.1227070201 -0.3868608463
N -0.1041144133 2.4770413508 -0.9401433715
O -0.8930343500 2.5623339321 -1.8696683953
O 0.5265350259 3.3977827140 -0.4443688003
N 3.1541756620 -0.7762338115 0.7218547885
O 3.9957081729 0.0883858994 0.5319845862
O 3.3644669751 -1.9003942642 1.1512124618
N -1.5523435340 -2.0983964218 0.4673218977
O -1.4395532186 -2.7935588109 1.4650097721
O -2.4002213308 -2.2204854463 -0.4044160315
H -2.5074968311 1.6695784914 -0.2969997025
H -2.6411969463 0.3841811421 -1.4950507286
H -3.0225639804 0.0414550763 0.1915813921
H 0.9948446152 -2.3549384080 1.0008182180
H 2.2385376924 1.5742918459 -0.2117223400
