50
CONF87
C -0.0539788718 -1.6493270022 -2.2888558478
C 1.2157481750 -0.8332558501 -2.3442895815
C 1.2733112402 0.3731012323 -1.6437831768
C 2.4805646323 1.0937677016 -1.5716142886
C 3.6317879398 0.6310024224 -2.1568136540
C 3.6166866115 -0.5743297731 -2.8898021733
C 2.3805296002 -1.2794744738 -3.0391571532
C 2.4651693980 -2.4102240082 -3.9427501101
N 3.6310936313 -2.8486374612 -4.4085608403
C 4.7463738043 -2.1530613402 -4.0855595698
N 4.7975944282 -1.0119018122 -3.4110703217
N 5.9183444143 -2.6540498947 -4.5853445210
N 1.3774441920 -3.0901917466 -4.3811280424
C 0.0835828681 0.9240716280 -0.9001067620
N 0.0462894465 0.3821261985 0.4625700437
C -1.0960160698 0.4992499453 1.2411413723
C -1.2461554950 -0.3425960285 2.3573433619
C -2.3612429249 -0.2049837133 3.1804436396
C -3.3462494054 0.7572601206 2.9023498015
C -3.1824173736 1.5916524855 1.7902594336
C -2.0696336744 1.4670904567 0.9526883465
O -4.1775818956 2.5031676918 1.5959445345
C -4.0603339997 3.3853919670 0.4724541605
O -4.4722070475 0.8559851170 3.6940797399
C -4.3081787444 1.7835636475 4.7848957624
O -2.5963903611 -0.9712797277 4.2830273079
C -1.6198740868 -1.9663030623 4.6153600357
H 0.1608026291 -2.7181653383 -2.2358835320
H -0.6393907603 -1.3978088876 -1.4040000149
H -0.7027178090 -1.4669896744 -3.1557346493
H 2.4960664948 2.0288218744 -1.0174436872
H 4.5696043284 1.1692529856 -2.0663890252
H 6.7706755623 -2.3158835030 -4.1670483466
H 5.9148378547 -3.6209484230 -4.8695937226
H 1.5400614871 -3.7426932548 -5.1336673961
H 0.1765037305 2.0168331976 -0.8550446318
H -0.8517816839 0.7086245247 -1.4382909714
H 0.5333111466 -0.4974376110 0.5639071176
H -0.4855579679 -1.0862297372 2.5628220685
H -1.9527768805 2.1188839300 0.0988855258
H -3.1583231086 4.0036535064 0.5486416542
H -4.9447499043 4.0224062495 0.5066716854
H -4.0468681579 2.8250753101 -0.4696947557
H -5.2488588593 1.7845105768 5.3401220873
H -3.4914562593 1.4635272495 5.4430754889
H -4.1024125308 2.7916675809 4.4054763205
H -0.6445433714 -1.5089620329 4.8188670758
H -1.9919930571 -2.4531209503 5.5173589436
H -1.5214359831 -2.7052604051 3.8117056015
H 0.4630334760 -2.6771242954 -4.3425390367
