40
CONF1
C -2.9129284854 -3.3617963497 2.5907681099
C -2.5104319769 -2.1114548235 1.8619784054
C -1.2454112991 -1.5448595282 2.0554368539
C -0.8749358599 -0.3734598813 1.4095396395
C -1.7657335984 0.2650166109 0.5366384298
C -3.0349442315 -0.2920716555 0.3421782817
C -3.3971165258 -1.4630171827 0.9967300964
C -1.4179584928 1.5160920356 -0.1347882305
C -2.1703310151 2.6718490811 -0.2764976921
C -1.3087503068 3.5806354404 -0.9059794784
N -0.1098197077 3.0595104408 -1.1602972542
N -0.1906976475 1.7980833267 -0.6895438894
C 0.9061469971 0.9195645765 -0.9046929183
C 2.1937284249 1.3624578711 -0.6048351481
C 3.2700361311 0.5149473351 -0.8214799814
C 3.0339020286 -0.7597880986 -1.3296199845
C 1.7530964044 -1.2024553661 -1.6409615201
C 0.6770597557 -0.3498531640 -1.4298156371
S 4.4327111829 -1.8449614038 -1.6198436294
O 3.9752034238 -2.9323153890 -2.5053238550
O 5.5983949745 -1.0368316776 -2.0191553825
N 4.7695778861 -2.3879427393 -0.0552240977
C -1.5909151826 4.9865398878 -1.3109798337
F -0.6696991628 5.8573239721 -0.8311215924
F -1.5988581562 5.1430385607 -2.6606657796
F -2.8000772354 5.3843721056 -0.8576109463
H -3.6884910370 -3.9060936433 2.0458886678
H -2.0561088730 -4.0237194132 2.7427133832
H -3.3156444945 -3.1148811147 3.5805718119
H -0.5425362493 -2.0259331809 2.7301204332
H 0.1055308340 0.0541155053 1.5942374594
H -3.7316398608 0.1882298101 -0.3381047893
H -4.3831981675 -1.8861090613 0.8262530696
H -3.1766802432 2.8345902886 0.0759147946
H 2.3444382492 2.3563668816 -0.1999288727
H 4.2783331300 0.8411320105 -0.5917155593
H 1.5964696458 -2.1900660817 -2.0585431305
H -0.3291076200 -0.6646787193 -1.6811431940
H 4.1488565072 -3.1570230868 0.1949076495
H 5.7385300498 -2.7045546720 -0.0192995055
