47
CONF61
C -2.8183115601 -1.9701542794 3.6775197609
C -3.2794627969 -1.1772540027 2.4751351288
C -3.5277833869 -1.8747938953 1.1598993143
C -2.2574437786 -1.0366338610 1.3447706687
C -2.1324671650 0.2074504617 0.5745513891
O -3.0209545887 0.8473930699 0.0520060191
O -0.8179065583 0.5905939503 0.5119060242
C -0.5700580301 1.8451438301 -0.1776045288
C -0.7967588204 1.6683327227 -1.6170923032
N -0.9435798077 1.5391106390 -2.7553641778
C 0.8519112260 2.2557526569 0.1133802406
C 1.9058981763 1.5335016816 -0.4458142728
C 3.2115145617 1.9067634614 -0.1442952191
C 3.4687667738 2.9784125931 0.7117001334
C 2.4065160877 3.6812674448 1.2647870796
C 1.0912932516 3.3302617697 0.9663117047
O 4.3085157673 1.2229723236 -0.6171603203
C 4.1964773368 0.5204953148 -1.8127444396
C 3.7692256888 1.1548694425 -2.9762304326
C 3.7403312822 0.4311266429 -4.1642652468
C 4.1429550890 -0.9039763023 -4.1891123665
C 4.5773192369 -1.5175643546 -3.0166364240
C 4.6026762725 -0.8077553946 -1.8175910778
C -3.3875844553 -3.3225695354 0.9925852633
C -4.1678853981 -4.0864857759 0.2271917735
Cl -3.9317744830 -5.8101443612 0.0853446184
Cl -5.5050467730 -3.4858434584 -0.7153537676
C -4.1834129944 -0.0178223883 2.8244130512
H -2.0987450461 -2.7493985953 3.4194217874
H -3.6804839649 -2.4393380659 4.1639785914
H -2.3444689791 -1.2981209210 4.4002967721
H -4.2740918467 -1.3912382430 0.5371890469
H -1.3287126895 -1.5756771613 1.4968234765
H -1.2727485657 2.6040013041 0.1824179004
H 1.7119827294 0.6928038643 -1.1040213998
H 4.4967954273 3.2481813086 0.9292306806
H 2.6058263291 4.5170674248 1.9272968245
H 0.2610551658 3.8848084075 1.3911020854
H 3.4653193070 2.1963979724 -2.9483301033
H 3.4092837703 0.9177486509 -5.0763423293
H 4.1207076129 -1.4613965658 -5.1197808988
H 4.8943990455 -2.5555960360 -3.0288962243
H 4.9334257869 -1.2703459773 -0.8935221820
H -2.5875456406 -3.8304611107 1.5225577259
H -4.5448219448 0.5071954461 1.9392660470
H -3.6526110952 0.6955729529 3.4644911013
H -5.0475340263 -0.3946543522 3.3816301997
