75
CONF34
C 7.7387768053 -0.0400133795 -0.5282492394
C 7.2553357160 1.2825185626 -1.1248149593
C 7.1429940393 1.1694330399 -2.6472632603
C 5.9439943917 1.7557322440 -0.4397459135
C 5.5790513314 3.1926860429 -0.8392067423
C 4.7849493250 0.8367074229 -0.6995732186
C 4.1915596320 0.0732870230 0.2183093619
C 3.0299749924 -0.8516850343 -0.0205028354
C 3.4833802620 -2.2973028766 0.2331592674
C 1.8474188986 -0.4123582277 0.8661698322
C 1.4174824425 1.0533849286 0.5561673323
C -0.1129889400 1.1344849008 0.7750269332
C -0.4427974987 -0.1806635510 1.4745994353
C -1.8532767755 -0.6766300237 1.5639694188
C -1.9363074605 -1.9663977454 2.3402551312
C -0.9608766848 -3.0274323977 1.7969649529
C 0.4710137729 -2.4954592148 1.6542218424
C 0.5190947251 -1.2159673021 0.8082830632
C 0.1091254209 -1.4947542755 -0.6443906816
C -2.8989870436 -0.0223484029 1.0114076310
C -4.2880481146 -0.4232455583 1.0523625415
C -5.3381112535 0.2253755699 0.5013945079
C -5.2419889833 1.4921965394 -0.3018512346
C -5.8674923364 1.3225983835 -1.6968035809
O -5.1158375117 0.3833586861 -2.4896435345
C -7.2917949824 0.7932841806 -1.5983548846
C -7.3672431078 -0.4920685485 -0.7708928101
C -6.7391774361 -0.3289352589 0.6295169212
C -7.6177254741 0.5382865923 1.5478629505
H 8.7080666037 -0.3254860476 -0.9506994707
H 7.8474014600 0.0309736122 0.5597418442
H 7.0256284043 -0.8442410133 -0.7423003534
H 8.0076703069 2.0520016194 -0.8975499079
H 6.4333608915 0.3841359857 -2.9307651479
H 6.8163088569 2.1065626003 -3.1081781666
H 8.1147799950 0.9072519059 -3.0786754089
H 6.1413806757 1.7450550409 0.6415212577
H 5.2810165040 3.2505687192 -1.8912534666
H 4.7398925768 3.5562118676 -0.2374458371
H 6.4291718026 3.8675184325 -0.6886479432
H 4.3987964975 0.8219241296 -1.7213904504
H 4.5699845244 0.0913309276 1.2447800530
H 2.7296426763 -0.7559080338 -1.0732868314
H 3.6983964268 -2.4557560339 1.2964939537
H 4.3961692545 -2.5104493991 -0.3326879365
H 2.7220020724 -3.0188869224 -0.0717580828
H 2.1926042085 -0.4611054044 1.9107202357
H 1.9572539650 1.7555708043 1.1982041655
H 1.6812744596 1.3128697590 -0.4751295691
H -0.4123978891 2.0045453387 1.3675318702
H -0.6337925351 1.2017132411 -0.1858737957
H -0.0772706555 -0.0968494709 2.5137718010
H -1.6588485691 -1.7511082390 3.3839655745
H -2.9499379639 -2.3733876244 2.3585649301
H -1.3219123320 -3.3832314265 0.8244672385
H -0.9649154021 -3.8950013361 2.4669541385
H 1.1024026857 -3.2804328016 1.2267794507
H 0.8732486062 -2.2657971231 2.6515886280
H 0.6957033041 -2.3215313528 -1.0583516683
H 0.2723052044 -0.6210045756 -1.2823966190
H -0.9494364950 -1.7608534903 -0.7179372989
H -2.6744974591 0.9067672134 0.4943075382
H -4.5188256720 -1.3421086315 1.5891578082
H -4.2101035509 1.8384000832 -0.4097355730
H -5.7904471535 2.2994501826 0.2047905613
H -5.8721100162 2.3008593385 -2.2019934233
H -4.1941572817 0.6704046855 -2.4884457174
H -7.9126396978 1.5769306860 -1.1482629942
H -7.6820512263 0.6197836464 -2.6077850378
H -8.4125727803 -0.8079126373 -0.6675489676
H -6.8390634884 -1.2914549077 -1.3024742618
H -6.6696435067 -1.3240318707 1.0865684502
H -7.1659133931 0.6250493753 2.5411218991
H -7.7572941282 1.5489811721 1.1533670494
H -8.6081272147 0.0836056292 1.6586797759
