55
CONF9
C 4.9157408322 -1.1787909335 2.7199094463
C 4.8287663970 -0.4959642235 1.3420943771
C 5.4507512016 0.8976305937 1.4062605725
C 3.4093595293 -0.5304701998 0.8251089563
C 2.6845211519 0.5705489115 0.5444190782
C 1.2997285614 0.5436000275 0.0949425687
C 0.6449316402 1.6869470205 -0.1839283288
C -0.7837479530 1.7382030562 -0.6170256380
C -1.4986810392 0.4070655765 -0.3784376919
C -0.6508378342 -0.7863277614 -0.9037439963
C 0.6267625656 -0.8117737291 -0.0117361515
C 1.6731773942 -1.8597288978 -0.4139254892
C 2.8074035847 -1.8958159190 0.6090917395
C -1.4294723625 -2.0996288780 -0.6860187006
C -2.8626982492 -2.0568310427 -1.2098200297
C -3.6446312928 -0.9319478446 -0.5378939209
C -3.0080673306 0.4531773298 -0.8024491034
C -3.2830826152 0.8776869404 -2.2515861240
C -3.6531054146 1.4343085816 0.1845016131
O -3.7120121538 1.2503275262 1.3865582280
O -4.1392240744 2.5441236115 -0.3988680878
C -4.7272180158 3.5185740135 0.4989116183
C -0.2462193867 -0.6427066013 -2.3788012207
H 5.9533484476 -1.1980699118 3.0687365602
H 4.3167526234 -0.6256871041 3.4526350260
H 4.5505922702 -2.2090364455 2.6869299660
H 5.4279625644 -1.1034471226 0.6447119844
H 4.9218517004 1.5334411947 2.1254125218
H 6.4935478101 0.8238147333 1.7301726758
H 5.4314750236 1.3948686359 0.4313976554
H 3.1232532799 1.5580826529 0.6681575020
H 1.1765620108 2.6343284777 -0.0957056554
H -1.3007068618 2.5445549286 -0.0764830496
H -0.8346940120 2.0244561788 -1.6779728054
H -1.5358495767 0.2577772043 0.7108109387
H 0.2918820118 -1.0823967850 1.0039773924
H 1.2142140144 -2.8498304118 -0.4959334375
H 2.0933626086 -1.6070580728 -1.3947736616
H 3.5922624575 -2.5913237190 0.2837479983
H 2.4297361354 -2.2936443264 1.5631005609
H -1.4657043575 -2.3078225748 0.3934776953
H -0.8869194626 -2.9294510006 -1.1525731996
H -3.3568784833 -3.0120845724 -0.9977036938
H -2.8728481862 -1.9431660572 -2.3004475428
H -4.6861811113 -0.9172334068 -0.8822289397
H -3.6577694591 -1.1110778596 0.5434558201
H -4.3577220025 1.0208358999 -2.3942307215
H -2.9637601856 0.1067387706 -2.9522500884
H -2.7832785220 1.8102085079 -2.5202083386
H -5.5726225869 3.0782253602 1.0326170063
H -5.0593706105 4.3354835998 -0.1405801269
H -3.9795962496 3.8685262604 1.2148349411
H 0.4171360020 0.2148411311 -2.5283102585
H -1.1079934929 -0.5176897556 -3.0341126372
H 0.2858087565 -1.5393708751 -2.7100920770
