44
CONF11
C -0.2679884623 3.8563905297 -0.2306312710
C -0.3308076972 2.3868188632 -0.6375895022
C 0.5885851342 1.5242965657 0.2453318226
C 0.5925252068 0.0688846065 -0.1728676226
C -0.5697487544 -0.7324029634 -0.2701089854
C -0.5589413145 -1.9383430689 -1.0208770269
C 0.6346053042 -2.4308195687 -1.5261742528
C 1.8223701868 -1.7400388717 -1.3392163245
C 1.7651013556 -0.4915056276 -0.6930457019
O 2.8923445773 0.2813163964 -0.5780054525
C 4.0709653245 -0.1740393605 -1.0557420912
C 4.2338399173 -1.3681671744 -1.6596940149
C 3.1000958100 -2.2642710874 -1.8588125498
O 3.2036136207 -3.3509147506 -2.4161217227
C 5.1445535144 0.8339024051 -0.8179385915
O 4.9649879184 1.9043248759 -0.2923815911
O 6.3415739151 0.3954695842 -1.2684444654
C -1.8187018790 -2.6501160200 -1.3339676261
O -1.8467992667 -3.7400348271 -1.9002434149
C -3.0195078860 -1.9219249450 -0.9674783523
C -2.9545531552 -0.8410247798 -0.1488695031
N -1.7651420630 -0.3245035609 0.3277633158
C -1.7317769811 0.1978372168 1.7251799806
C -2.5140765597 -0.6831666111 2.6933134385
C -4.1811232236 -0.0481611263 0.1648259051
O -4.1801727268 1.1284112151 0.4481805563
O -5.3087848630 -0.7861829214 0.0547020966
H 0.7529141924 4.2450183959 -0.3083433268
H -0.9121159179 4.4683911715 -0.8681668283
H -0.5991482991 3.9917055562 0.8048753071
H -1.3642597892 2.0292753743 -0.5763484778
H -0.0201099057 2.2719849298 -1.6830382467
H 1.6062821431 1.9103795426 0.1663075938
H 0.3074283187 1.6628938218 1.2928270603
H 0.6340320868 -3.3646644567 -2.0786834029
H 5.2096602896 -1.6688970192 -2.0168377023
H 6.9818333212 1.0999433248 -1.0834854687
H -3.9713458507 -2.2662510985 -1.3488919187
H -0.6865464992 0.1743987233 2.0271064445
H -2.0855669888 1.2321972101 1.7509368580
H -2.1763731931 -1.7221784985 2.6347241947
H -2.3407545987 -0.3218406324 3.7112816816
H -3.5920804187 -0.6574747547 2.5190081220
H -6.0508861185 -0.1769176794 0.1941191427
