43
CONF90
C 4.2793386465 2.8309316924 -3.0537381167
O 2.9565752517 2.4707544266 -3.4699896107
C 2.3450087685 1.4502852358 -2.8051108091
C 2.9285682592 0.7539729812 -1.7486361175
C 2.1493981045 -0.2571584089 -1.1866428410
C 0.8503366679 -0.5830866895 -1.6395691117
C 0.2933770627 0.1315295871 -2.7053654432
C 1.0455099962 1.1407159024 -3.2741809979
N 0.3294544342 -1.6335393044 -0.8954327648
C 1.2720890186 -1.9040706736 -0.0261876115
N 2.3935558810 -1.1276838355 -0.1473564959
S 1.1918683930 -3.1915248100 1.2359921912
O 2.6432576014 -3.4204327368 1.6525032758
C 0.4376271935 -2.1159328774 2.5954690218
C -0.9042450081 -1.6188131806 2.1724966020
N -1.8626865936 -2.5583802058 2.1409846826
C -3.0787742512 -2.2082503712 1.7184155642
C -3.4175341363 -0.9279819754 1.2864061992
C -4.7991692367 -0.5871870265 0.8188799049
C -2.4003033883 0.0303962342 1.3203082289
O -2.7052443777 1.3117597224 0.9273326717
C -2.2363687811 1.6319525235 -0.4008637343
C -1.1168058449 -0.2851623864 1.7828918344
C -0.0551224212 0.7727337720 1.8729495756
H 4.5831311234 3.6488431765 -3.7073003619
H 4.2836506370 3.1704317536 -2.0110706974
H 4.9703311575 1.9877081178 -3.1714393326
H 3.9197554852 0.9739504334 -1.3744793268
H -0.7010856993 -0.0997633249 -3.0722974438
H 0.6544359925 1.7234063873 -4.1015288778
H 3.2293658697 -1.2156386249 0.4136006267
H 0.3666654351 -2.8092124335 3.4383091545
H 1.1818177409 -1.3428896589 2.7926771864
H -3.8357671552 -2.9920999454 1.7122883490
H -5.4357340608 -1.4749161139 0.8271146745
H -4.7839318695 -0.1774692260 -0.1958726184
H -5.2524325051 0.1731033611 1.4634279027
H -2.5336420631 2.6645491481 -0.5899428231
H -1.1466995320 1.5405231719 -0.4689855551
H -2.7021862653 0.9675969402 -1.1382955257
H 0.5171568456 0.6800765576 2.7989934197
H 0.6531896828 0.7103741312 1.0380370332
H -0.5077333503 1.7655991462 1.8509354259
