56
CONF1
C -3.0150852749 1.8117613429 -0.6943362648
C -2.6093369161 0.3737751776 -0.2752836570
C -3.3245147632 -0.6372692277 -1.1899265800
C -4.8339675091 -0.6740085197 -0.9698643974
C -5.1685410853 -0.9365927005 0.4798860003
O -6.2266071911 -1.4803097524 0.8100992789
C -4.2142647509 -0.4610808927 1.4685538466
C -3.0627870971 0.1795790899 1.1577138024
C -2.2554776536 0.8420239259 2.2319156010
C -0.7477572318 0.6336021488 2.0775251223
C -0.2875699996 1.0248600899 0.6703884151
C -1.0519228261 0.2545765804 -0.4261967115
C -0.5286849188 -1.1741932932 -0.6012060028
C 0.9898683663 -1.1913126618 -0.8221697148
C 1.8276593440 -0.4608897067 0.2436345500
C 1.2399273671 0.9447169841 0.4954177095
C 1.7547849650 1.8238993291 -0.6744060278
C 2.9715084871 1.1052875440 -1.2882446560
C 3.2377394360 -0.1242131594 -0.3922137407
C 4.2281550286 0.2487054735 0.7004741947
O 4.1292476915 1.2894217049 1.3338210030
C 5.3748504549 -0.6879819341 1.0039103216
O 6.1379454133 -0.2263659630 2.0995074874
O 3.8285257683 -1.2265590604 -1.0777343796
C 1.9911155403 -1.3308525524 1.4927829107
O -0.9520271872 -1.9769299367 0.5145367003
H -2.4833751192 2.5684942376 -0.1143094490
H -4.0857338166 1.9776095094 -0.5495366458
H -2.7777317889 1.9599255270 -1.7529549463
H -2.9448681724 -1.6399624080 -0.9743067056
H -3.0929007409 -0.4101816393 -2.2372442279
H -5.3086537659 -1.4449673973 -1.5843013950
H -5.3061511392 0.2800517475 -1.2415342864
H -4.5086178111 -0.5740067293 2.5101704133
H -2.4632542043 1.9219888417 2.1696001438
H -2.6056581153 0.5126278014 3.2150228595
H -0.2214271376 1.2518229704 2.8143910865
H -0.5073702704 -0.4086146600 2.2902564298
H -0.5337305981 2.0902224600 0.5519528573
H -0.8264274520 0.7373981952 -1.3879174943
H -0.9655761763 -1.5908541007 -1.5202710122
H 1.3174303059 -2.2354480881 -0.9082020690
H 1.1455061199 -0.7300926121 -1.8072372063
H 1.6851668041 1.3268732203 1.4205079725
H 2.0153018869 2.8193134861 -0.3052806870
H 0.9763965606 1.9600617826 -1.4324098396
H 3.8568610252 1.7426982016 -1.3549666238
H 2.7562251464 0.7488726066 -2.3007078747
H 5.9912489795 -0.7668019432 0.0952470727
H 4.9755873666 -1.6934097918 1.1982168567
H 5.7497123949 0.6316025592 2.3453760050
H 3.2972972009 -1.4149352806 -1.8611101717
H 2.4741092903 -0.7766309584 2.3053425038
H 1.0282169807 -1.6927865359 1.8512333247
H 2.6040018021 -2.2087653371 1.2564099801
H -0.6743678173 -2.8857553830 0.3418778218
