37
CONF296
C -2.8046172311 -0.2799073999 2.1061615495
C -1.9804906444 -0.7285175645 0.9234081298
O -1.1659058387 0.4175073107 0.5091837015
P -0.4724289638 0.4320780729 -0.9336926502
O -0.9873277765 -0.5530453103 -1.9073933373
O -0.5251326220 1.9687972512 -1.3630207829
C -1.6154671968 2.4085706246 -2.2244894517
C -2.9389845585 2.4577261262 -1.4890305733
O 1.1184435607 0.3790513004 -0.6245230557
P 1.9107953036 -0.7650397862 0.2370246530
O 1.0121185457 -1.8305965725 0.7327825750
O 3.1041130675 -1.2087053321 -0.7068892407
C 2.9709944784 -2.4384670942 -1.4918987097
C 2.1152273919 -2.2207217514 -2.7199424321
O 2.7271990650 0.1133780466 1.2796375580
C 2.0271510226 1.0136349181 2.1900678539
C 1.3428454801 0.2658424879 3.3143389758
H -3.4664068802 0.5470196470 1.8334159571
H -2.1611364205 0.0449851537 2.9285319967
H -3.4176028924 -1.1150781819 2.4586293932
H -1.3005688361 -1.5467349991 1.1749441019
H -2.6060920189 -1.0336704628 0.0786666638
H -1.6649429714 1.7430298435 -3.0927915953
H -1.3065198096 3.4035357188 -2.5535636271
H -2.8574576462 3.0631481364 -0.5823140963
H -3.6985033449 2.9017982131 -2.1405755604
H -3.2759387559 1.4538274799 -1.2140159405
H 2.5607983359 -3.2206355878 -0.8452946195
H 4.0012492323 -2.6909669390 -1.7533607707
H 2.1224579984 -3.1320337322 -3.3271131835
H 1.0775547210 -1.9973737075 -2.4548255820
H 2.5086079288 -1.3989145358 -3.3247905900
H 2.8159431002 1.6688971817 2.5672890394
H 1.3175084917 1.6196970315 1.6151249704
H 0.9000176013 0.9892073149 4.0069472229
H 0.5513389546 -0.3821059903 2.9305006150
H 2.0611609433 -0.3492172185 3.8628712177
