39
CONF531
C 7.1840058108 1.7478782934 1.4217423780
C 6.6900464947 1.9099716097 -0.0153279231
C 6.8859950381 0.6551233213 -0.8731394999
C 6.2157198653 -0.6121666723 -0.3228191869
C 4.7169964524 -0.4971194157 -0.0014028576
C 4.1915709349 -1.7659319807 0.6887197294
C 4.6349875436 -1.8979767654 2.1446979591
C 3.9397961459 -0.2046554158 -1.2782851387
O 2.5250387491 0.0221207350 -1.0039430099
C 2.2009497629 1.2675827744 -0.6052405353
O 2.9726272926 2.1917550884 -0.5124504726
C 0.7506512439 1.3315487784 -0.2342137102
C 0.2462037926 0.2951074204 0.5452808172
C -1.0513633991 0.3348765093 1.0278431424
C -1.8878533322 1.4115624700 0.7195745710
C -1.3963841580 2.4486436421 -0.0938451887
C -0.0763493492 2.4106143585 -0.5654120190
Br 0.5682545066 3.7704629376 -1.7162081295
Br -2.5280145229 3.8940270239 -0.5530289532
Br -3.6539147751 1.4577748629 1.3874607394
Br -1.6269058360 -1.1174123343 2.1069434546
H 6.6024536357 0.9989877042 1.9701317782
H 8.2339244532 1.4338836545 1.4447254958
H 7.1032121913 2.6894916136 1.9727028756
H 5.6326715648 2.2007842140 -0.0157644702
H 7.2290734691 2.7381349089 -0.4909247987
H 6.5325737233 0.8594781382 -1.8912479686
H 7.9608562509 0.4507159495 -0.9669385128
H 6.7387055579 -0.9200023958 0.5888173040
H 6.3581490035 -1.4336773889 -1.0395105812
H 4.5642605314 0.3542988372 0.6756993841
H 4.5181693367 -2.6440628055 0.1142573486
H 3.0958197169 -1.7661288486 0.6522535883
H 5.7232389356 -1.9572422256 2.2400583535
H 4.2951064392 -1.0380180781 2.7321463267
H 4.2170895902 -2.8000465522 2.6010980126
H 3.9473170148 -1.0677478684 -1.9512089264
H 4.3315758904 0.6738662889 -1.7957325596
H 0.8843925713 -0.5447083516 0.7870101640
