39
CONF22
C -4.1035030191 2.9479150061 -2.7208879817
N -3.3967714450 1.9386437332 -1.9420224749
C -2.2146618004 1.3637115094 -2.2276317289
C -1.9476081031 0.4438821250 -1.2208276246
C -3.0685502303 0.5598094731 -0.3555197629
N -3.9350991163 1.4708548539 -0.8046157578
C -3.4074764992 -0.1003753311 0.9306891795
F -3.5059720453 -1.4791561532 0.7677782564
F -2.4099224805 0.0881981459 1.8651179861
C -0.7096656889 -0.3563840438 -1.2002860996
O 0.2440872969 -0.0659027992 -1.9250065343
N -0.6879046885 -1.4168488287 -0.3359193441
C 0.4296331388 -2.2710126771 -0.1715883223
C 1.6946251647 -1.7647798263 0.1836172109
C 2.7669493437 -2.6581967365 0.2832679134
C 2.5513493437 -4.0077840709 0.0790273547
C 1.3069794938 -4.5301220334 -0.2262722098
C 0.2479387135 -3.6413740317 -0.3625088945
F 3.6038431779 -4.8560313674 0.2005944408
C 1.9279215034 -0.3364862776 0.4879437987
C 1.0973510321 0.3413423816 1.3829914325
C 1.3257413811 1.6800018198 1.6748598049
C 2.3923815507 2.3584508270 1.0819220036
C 3.2330975667 1.6833591172 0.2026271411
C 3.0018497107 0.3470993472 -0.0897711631
Cl 2.6962720032 4.0426698877 1.4264030075
Cl 0.2605499965 2.4871771754 2.8008860167
H -5.0367215405 2.5300722404 -3.1068317263
H -3.4641596702 3.2507280059 -3.5502532162
H -4.3202867704 3.8101481966 -2.0865441586
H -1.6434614393 1.6247813722 -3.1062505269
H -4.3520841628 0.2594085783 1.3472844130
H 1.1749333109 -5.5965579854 -0.3698311154
H 0.2727002607 -0.1709242106 1.8638727364
H 4.0603092376 2.2126489481 -0.2567377463
H 3.7546251021 -2.3055067425 0.5603265049
H -0.7352577223 -4.0107687734 -0.6366999147
H 3.6508891916 -0.1619232701 -0.7945081603
H -1.5679185755 -1.7484656914 0.0344338594
