42
CONF127
C -5.7227750424 2.2480850499 2.7139044261
C -5.0300697452 0.9038153005 2.5131797390
C -4.1974946423 0.8345550882 1.2528225254
O -4.9862010992 1.1139827610 0.1084205150
C -4.0455186363 1.4944455447 -0.8908867410
C -2.9223404690 2.1998233491 -0.0927203653
O -3.1780661727 1.8383704969 1.2657337471
C -1.5179104387 1.8090137510 -0.5123321704
O -1.4076380761 0.3915015498 -0.4334022567
C -0.2076184808 -0.1783056986 -0.7521108179
C 0.9195230270 0.5326868259 -1.1701950226
C 2.0924194892 -0.1529661247 -1.4777283111
C 2.1416058642 -1.5345958335 -1.3573898815
C 1.0213282304 -2.2462131953 -0.9403731669
C -0.1515454082 -1.5702184398 -0.6428616216
O 3.2721961699 -2.2492140882 -1.7238395331
C 4.4623874304 -1.9799409112 -1.0826173580
C 5.6207017436 -2.3707928309 -1.7520134701
C 6.8565802925 -2.1772539759 -1.1487890096
C 6.9455013950 -1.5923261916 0.1125968847
C 5.7808718019 -1.2089716097 0.7700201976
C 4.5334235646 -1.3998333138 0.1826946191
H -6.4144915940 2.4564401701 1.8941885495
H -4.9896403029 3.0574430825 2.7563137204
H -6.2892273137 2.2494077956 3.6494865582
H -5.7624620718 0.0897400703 2.4649988020
H -4.3623803393 0.6810279615 3.3532129147
H -3.7179324189 -0.1549245919 1.1371441668
H -3.6556176332 0.6120122099 -1.4170793661
H -4.5454920580 2.1585009705 -1.5999364609
H -3.0021498414 3.2931250889 -0.1731274678
H -0.7888774681 2.2857892440 0.1577895509
H -1.3324687915 2.1556707521 -1.5425082279
H 0.9004317400 1.6106836641 -1.2700276859
H 2.9721803424 0.3895058242 -1.8079493292
H 1.0802698182 -3.3259136831 -0.8572523182
H -1.0373315403 -2.1045492175 -0.3172610379
H 5.5322899067 -2.8230171437 -2.7337533921
H 7.7573857902 -2.4821244987 -1.6720145105
H 7.9128060789 -1.4394173960 0.5785134109
H 5.8362753128 -0.7602330742 1.7568956805
H 3.6270727714 -1.1067628336 0.7002536360
