27
CONF2
C 3.2683337684 1.0795539924 -1.3212667886
C 2.7652508976 -0.2048915882 -1.4950881434
C 1.8183290113 -0.7157829261 -0.6113419613
C 1.3522353674 0.0514545981 0.4649181678
C 1.8678244219 1.3337727698 0.6343342787
C 2.8128122565 1.8357965780 -0.2513758817
Cl 3.4414292298 3.4593843695 -0.0106639044
C 0.3087318480 -0.5088213752 1.4050346895
C -1.0754484018 -0.5077294930 0.7963009641
C -1.8011186274 0.6867099404 0.6923816442
C -3.0688709930 0.7041680439 0.1166055298
C -3.6389037498 -0.4693096324 -0.3642473212
C -2.9236276074 -1.6526814088 -0.2541714671
C -1.6584563400 -1.6785232398 0.3188156737
Cl -3.6282974295 -3.1480710002 -0.8512612183
O -1.2114592243 1.8182430635 1.1897463458
O 1.3098842376 -1.9807657909 -0.7404471628
H 4.0048030870 1.4813934206 -2.0067479968
H 3.1190266390 -0.8115859972 -2.3250168513
H 1.5178534969 1.9428083518 1.4592570283
H 0.3056232372 0.0880319377 2.3218697371
H 0.5728645055 -1.5358268420 1.6738964639
H -3.6207472940 1.6379991353 0.0435563418
H -4.6245481232 -0.4604112608 -0.8138900630
H -1.1123556031 -2.6116066207 0.3885909316
H -1.8009421234 2.5684424878 1.0547924424
H 1.6997740049 -2.4017516141 -1.5145813781
