84
CONF49
C 1.0908990279 0.9588988561 0.1509887194
C -0.3075923270 1.1581206198 -0.4397035030
C -1.3693819092 0.9503736149 0.6301386179
O -2.6925871970 1.0332733773 0.0401541776
C -3.2299069113 2.2725614739 -0.0782508031
O -2.6617063690 3.2879092345 0.2672359803
C -4.5885899574 2.2314669709 -0.6733389785
C -5.1715237942 1.0320659009 -1.0871268286
C -6.4515492095 1.0542087378 -1.6387921554
O -7.1176710892 -0.0432664891 -2.0889025418
C -6.4687231718 -1.3026839205 -1.9400602457
C -7.1485956295 2.2668765970 -1.7605745259
O -8.4267274184 2.2704589158 -2.2380581726
C -8.5130646347 2.5565898071 -3.6431234762
C -6.5409763492 3.4645050560 -1.3483041129
O -7.2927078674 4.5841248366 -1.5240862602
C -6.7326988544 5.8178460545 -1.0786883647
C -5.2608348435 3.4471060841 -0.8010893456
C -1.2853653007 -0.4236811441 1.2811566357
O -2.1696782975 -0.5019901430 2.3974100623
C -3.3609877143 -1.2447914059 2.1563301312
C 0.1230594018 -0.6655422669 1.8257154771
C 0.2121516602 -2.0695459017 2.3843465157
O -0.4670032617 -3.0122147080 2.0465632671
O 1.2214757525 -2.1622853055 3.2816655970
C 1.4196279934 -3.4774913096 3.8420695136
C 1.2431534251 -0.4335473504 0.7847459281
C 1.2857429813 -1.5066502234 -0.3055735688
C 2.3675069432 -1.2206751118 -1.3498551080
N 2.2054285696 0.1367965497 -1.9100190008
C 3.2540433404 0.3916946897 -2.9090537253
C 4.6908833016 0.4191630749 -2.3362701813
C 4.8434448542 -0.6601665785 -1.3155640497
C 3.7775266840 -1.3882719186 -0.8583645046
N 4.2143349975 -2.2992471648 0.0934011029
C 5.5728863045 -2.1494421073 0.2729691796
C 6.0039465255 -1.1168455407 -0.6065118504
C 7.3566650934 -0.7752012777 -0.6129089743
C 8.2423082288 -1.4382661909 0.2288771916
C 7.7843837522 -2.4547555967 1.0880253971
O 8.5967452252 -3.1525917118 1.9444407625
C 9.9793567618 -2.8241850451 1.9583118804
C 6.4407747298 -2.8236624563 1.1198565837
C 2.2068478397 1.1730404650 -0.8698704649
H 1.2328376706 1.7078529029 0.9437796559
H -0.4020009673 2.1720758125 -0.8416374608
H -0.4783849539 0.4627054757 -1.2679684235
H -1.2918150150 1.7208085594 1.4064661575
H -4.6177050586 0.1101923129 -0.9853213980
H -6.2606558277 -1.5206083639 -0.8844372951
H -7.1667722554 -2.0428338142 -2.3330122357
H -5.5330822694 -1.3417943870 -2.5131105748
H -9.5758893051 2.5498941847 -3.8915540114
H -7.9934892338 1.7845618248 -4.2242682252
H -8.0884088933 3.5428227145 -3.8651151762
H -5.8099973486 6.0571927052 -1.6224943175
H -6.5265886925 5.7930468663 -0.0013831082
H -7.4874404140 6.5766694413 -1.2884516957
H -4.7600495120 4.3452264261 -0.4653851760
H -1.5388496560 -1.1981438580 0.5431621176
H -3.9056587535 -1.2708951033 3.1032259283
H -3.1229850794 -2.2726197109 1.8491667163
H -3.9908983790 -0.7636674072 1.3959883113
H 0.2839151881 0.0358569281 2.6540404167
H 2.2670622988 -3.3808264844 4.5203094625
H 1.6342081841 -4.2035420967 3.0527888154
H 0.5251728946 -3.7971641147 4.3826881234
H 2.2018946864 -0.4574162163 1.3202440576
H 1.4505347816 -2.4987058760 0.1321641201
H 0.3247001237 -1.5707527157 -0.8246127413
H 2.2024947107 -1.9203733766 -2.1849683519
H 3.0296771671 1.3397176954 -3.4123883798
H 3.1839472550 -0.4032842672 -3.6622161150
H 4.9146092959 1.4006579521 -1.8936351906
H 5.4044889082 0.2902203044 -3.1602265037
H 3.6286655511 -2.9293663980 0.6115966096
H 7.7245176185 0.0064115989 -1.2708506388
H 9.2888322043 -1.1625112889 0.2134981810
H 10.1427425193 -1.7802203002 2.2579167280
H 10.4452026299 -2.9996958676 0.9792816821
H 10.4350580742 -3.4856969638 2.6969230014
H 6.1172718148 -3.6119447604 1.7910495381
H 2.0715479922 2.1413237665 -1.3691797196
H 3.1659716586 1.2147453429 -0.3214169329
