33
CONF13
C -5.0908329070 1.3435196295 -0.0079272184
C -3.6234953531 1.0177384497 0.2420725475
C -3.5210091213 0.0699313074 1.4364847689
O -3.5113956916 -1.1306572873 1.3835905764
O -3.4967149440 0.7787623203 2.5981453760
O -3.1306055565 0.4023591615 -0.9326768612
C -1.7810667531 0.1615725680 -1.0160834232
C -0.8475286640 0.5038699141 -0.0415818933
C 0.5048985897 0.2229958225 -0.2438042853
C 0.9095588129 -0.4035230509 -1.4116356747
C -0.0203961803 -0.7514274518 -2.3881954812
C -1.3591948646 -0.4666041678 -2.1906627285
O 2.2373500064 -0.6939571879 -1.7048314428
C 3.1505498355 -0.6362795225 -0.6837181932
C 3.2269061038 -1.6348663196 0.2934095773
C 4.2051555994 -1.5877926742 1.2803636323
C 5.1118102110 -0.5346007409 1.2737163179
C 5.0633323051 0.4628402144 0.3074774278
C 4.0737478695 0.4033928142 -0.6656910643
Cl 6.3467207116 -0.4747038579 2.5141012065
Cl 2.0997607659 -2.9595157524 0.2689131845
H -5.1709749096 2.0173559204 -0.8638444423
H -5.5253759625 1.8275155876 0.8699319110
H -5.6417687646 0.4249486880 -0.2252134021
H -3.0667846444 1.9389919670 0.4659805236
H -3.4959776666 0.1302099618 3.3204116794
H -1.1388382665 0.9848230962 0.8847511668
H 1.2286011798 0.4912605154 0.5178021620
H 0.3191191139 -1.2468908469 -3.2908491861
H -2.1008901362 -0.7326699268 -2.9354087270
H 4.2601952122 -2.3660835066 2.0309899462
H 5.7833804998 1.2718746661 0.3186207339
H 4.0017635536 1.1656098800 -1.4339173961
