46
CONF32
C -3.9954447646 0.1351231314 -2.8025893994
C -4.0339650471 0.0612557325 -1.2931304767
C -2.9426401221 -0.6383423375 -0.5183844856
C -3.1210034932 0.9087084059 -0.4327194348
C -2.0248779513 1.7501973334 -0.9443850126
O -1.4783352128 1.6763985577 -2.0281667136
O -1.6363401257 2.6303599098 0.0171065778
C -0.3973505956 3.3311340028 -0.2527047471
C 0.7868712943 2.3980347999 -0.2131270505
C 0.7598456232 1.2554823636 0.5839267532
C 1.8575393092 0.4010601878 0.6031859936
C 2.9968481515 0.6726105417 -0.1519290488
C 3.0202493717 1.8280179295 -0.9278610719
C 1.9247794542 2.6867373529 -0.9679414756
O 1.7105274277 -0.7542902855 1.3459123158
C 2.8260618933 -1.3428422187 1.9207339396
C 2.9378633460 -2.7250296026 1.8154454105
C 3.9967528290 -3.3703562526 2.4499132856
C 4.9359208445 -2.6393351282 3.1739635706
C 4.8070200561 -1.2541217576 3.2707998217
C 3.7494886333 -0.5965379490 2.6497151545
C -1.7582608870 -1.2003347825 -1.1661887790
C -0.9883342540 -2.1628751787 -0.6564454285
Cl 0.4086874424 -2.7767391518 -1.5049195362
Cl -1.2566897793 -2.9255549270 0.8871593477
C -5.4349201528 -0.1108501974 -0.7417614684
H -4.6139579756 0.9731807728 -3.1410263967
H -2.9936736989 0.2765499463 -3.2032807426
H -4.4193481387 -0.7857850536 -3.2171979928
H -3.2582783226 -1.1381862946 0.3916168681
H -3.5267877821 1.2448718638 0.5154903119
H -0.3368607415 4.0793213975 0.5426105154
H -0.4559048755 3.8404460493 -1.2185326992
H -0.1128052331 1.0050134208 1.1782573114
H 3.8417604301 -0.0068703312 -0.1409615165
H 3.8989742905 2.0463625535 -1.5267330797
H 1.9478800105 3.5714902662 -1.5972151149
H 2.1983626956 -3.2773209862 1.2449164045
H 4.0879303138 -4.4491677910 2.3709608977
H 5.7617823259 -3.1449794946 3.6633654622
H 5.5292131356 -0.6785908065 3.8415611508
H 3.6385886338 0.4799383129 2.7292232095
H -1.4575966838 -0.8087031986 -2.1314151415
H -5.4335270630 -0.1727937543 0.3501256015
H -5.8824519560 -1.0276930518 -1.1400655873
H -6.0635913647 0.7350056997 -1.0402839227
