47
CONF27
C -7.8221863105 0.1854368882 0.9388013934
O -6.6910162677 1.0619938887 1.1391090218
P -5.2648901416 0.6689508949 0.5168013682
S -5.2333539466 0.0156293879 -1.3003381895
O -4.4116636774 1.9855387381 0.8512972999
C -4.4311044145 3.1031993570 -0.0656943444
O -4.7197857761 -0.3354578238 1.6692922610
C -3.5243145859 -1.0377747674 1.4917669472
C -2.3172250536 -0.4197424692 1.7950169758
C -1.1373006181 -1.1403283808 1.6721028247
C -1.1688418314 -2.4641388535 1.2257802759
C -2.3906115669 -3.0670608458 0.9208763565
C -3.5760953716 -2.3545846748 1.0625619448
S 0.3156362554 -3.4528720716 1.1013682459
C 1.4843061430 -2.2794415156 0.4295320085
C 2.7456718111 -2.1728738237 1.0144610582
C 3.7012040812 -1.3153825152 0.4777209199
C 3.3713130154 -0.5453662181 -0.6300232227
C 2.1136852694 -0.6338787602 -1.2177394756
C 1.1764004270 -1.5131965452 -0.6983909181
O 4.2857190532 0.3091573549 -1.2330886821
P 5.2391453424 1.3408479822 -0.3821309408
S 4.4037920095 2.2617075752 1.0791035467
O 5.8233275231 2.1871477902 -1.6164406231
C 4.9832937668 3.1735567017 -2.2559193330
O 6.5208896953 0.4756930741 0.0337518051
C 7.2262820091 -0.3096722930 -0.9607711367
H -7.6662741278 -0.7594664503 1.4689260866
H -7.9732121495 -0.0023010257 -0.1283560991
H -8.6818064499 0.7087092514 1.3587048027
H -4.1546200254 2.7733272423 -1.0711990224
H -5.4242608288 3.5625711753 -0.0802466622
H -3.6977533541 3.8134856419 0.3173254503
H -2.3128397658 0.6094264978 2.1355443525
H -0.1904496059 -0.6727077883 1.9198919552
H -2.4134282911 -4.0893828429 0.5584821020
H -4.5324526394 -2.8014636134 0.8167903577
H 2.9806874152 -2.7550991537 1.8989696614
H 4.6802032919 -1.2279627128 0.9360476968
H 1.8875126806 -0.0211046585 -2.0832543929
H 0.1976203469 -1.5968389052 -1.1585983349
H 4.1482269707 2.6845711579 -2.7674778069
H 4.6073493173 3.8858307947 -1.5155003742
H 5.6185673841 3.6824512367 -2.9814355700
H 7.9902680791 -0.8611182339 -0.4121119683
H 6.5420514923 -1.0067901529 -1.4544536579
H 7.6923323294 0.3467746603 -1.6998099780
