65
CONF12
C 0.7507985137 2.7388190493 3.3355232218
C 1.6058069579 2.0720423855 2.2451694509
C 3.0563816262 2.5453372520 2.3292968452
C 0.9714549814 2.3007090124 0.8893994599
C 1.4037225748 3.2927478684 0.0063840233
C 0.7670618763 3.5212645502 -1.2101629444
C -0.3443910537 2.7672718121 -1.5662671632
C -0.8064445160 1.7744892571 -0.7083036942
C -0.1352417025 1.5457973413 0.4841674442
O -0.6000535073 0.5587610739 1.3674470799
P -0.5757699016 -1.0205794694 1.0350943512
O -0.8452139022 -1.7989708743 2.2531940888
O -1.5373504611 -1.2622393341 -0.2291758576
C -2.9243342936 -1.1427210216 -0.2497821785
C -3.6452621612 -0.7377757777 0.8676373650
C -5.0269821906 -0.6095858807 0.7735687938
C -5.6701374037 -0.8852067284 -0.4261041801
C -4.9250036453 -1.2945332397 -1.5270402711
C -3.5365938102 -1.4364207768 -1.4749817516
C -2.7740349019 -1.9072053006 -2.6994109591
C -2.0910127935 -3.2651473514 -2.4785747485
C -1.7812783859 -0.8643186911 -3.2343496769
O 0.7706812815 -1.2903464328 0.2015040373
C 2.0630843126 -1.1588267454 0.7255747407
C 2.3764826453 -1.6593317860 1.9818326953
C 3.6840377867 -1.5400962005 2.4432452659
C 4.6500269923 -0.9458249034 1.6410056614
C 4.3084235879 -0.4637939962 0.3802993766
C 3.0045985972 -0.5491305396 -0.1117293361
C 2.6010861865 -0.0493368843 -1.4842466659
C 3.5510395178 1.0052734037 -2.0507185692
C 2.4628940248 -1.2284836600 -2.4618411250
H 1.1760668344 2.5412219478 4.3248255058
H 0.7215042529 3.8234823003 3.1840517371
H -0.2744462526 2.3606387863 3.3209692556
H 1.5985954519 0.9925571546 2.4315434529
H 3.6604471337 2.1249114020 1.5200467682
H 3.1305866104 3.6379035844 2.2958755169
H 3.4928400872 2.2172212465 3.2772458712
H 2.2634751499 3.8973663693 0.2737147660
H 1.1371552102 4.2953756638 -1.8743582811
H -0.8584937950 2.9477689103 -2.5044164545
H -1.6802741154 1.1847276137 -0.9589761663
H -3.1388004724 -0.5407435285 1.8060118305
H -5.5925244574 -0.2967479485 1.6447251387
H -6.7474493192 -0.7873900290 -0.5060031625
H -5.4295409338 -1.5172427291 -2.4631590350
H -3.5356432884 -2.0526277872 -3.4764387518
H -1.6687118829 -3.6267236919 -3.4219296645
H -1.2788671555 -3.1886266472 -1.7518121666
H -2.8070850828 -4.0085860672 -2.1162316451
H -2.2731929057 0.1008649688 -3.3933469425
H -0.9441876823 -0.7181261674 -2.5470599303
H -1.3738743963 -1.1996706644 -4.1938966000
H 1.6046020742 -2.1278271940 2.5823439814
H 3.9407601364 -1.9220113048 3.4256495525
H 5.6721792919 -0.8548484261 1.9934693962
H 5.0729231443 0.0030573861 -0.2310060300
H 1.6130599141 0.4149368821 -1.3804097806
H 4.5268046287 0.5778888172 -2.3067393796
H 3.7031635398 1.8283454977 -1.3458580409
H 3.1270266092 1.4243188583 -2.9681729632
H 3.4296676875 -1.7260641719 -2.5959089988
H 1.7440418506 -1.9672555900 -2.0984531651
H 2.1218400704 -0.8719640445 -3.4396022785
