46
CONF41
C -5.5538624623 -1.4818148236 -2.2345469680
N -4.7512240654 -1.3588466623 -1.0215973186
C -4.3836853149 -2.6196030742 -0.3855586452
C -4.2204946054 -0.1669725527 -0.6925085712
O -4.4521583392 0.8946357183 -1.2826663216
C -3.3627206000 -0.0948037429 0.5469999976
C -1.9942922715 -0.3401439526 0.6100847956
N -1.2232290992 -0.1542532389 1.6703593053
C -1.8002596598 0.3080060235 2.7823440080
C -3.1630698904 0.5911320259 2.8491089720
C -3.9451287626 0.3929657676 1.7224942469
S -1.0740123978 -1.0354095874 -0.8037176797
O -1.8800685883 -0.9029638619 -2.0201252269
O -0.5395341164 -2.3511687026 -0.4249194801
N 0.3002296347 -0.0493111144 -0.9066809070
C 0.1693626678 1.3297736971 -0.9068027848
O -0.8820654761 1.9079189496 -1.1467577905
N 1.3281859719 2.0393181775 -0.6358949555
C 2.5854261742 1.6171785293 -0.2082854760
N 2.7851744926 0.3062022917 -0.0236072291
C 4.0027257180 -0.0410226458 0.3986326421
C 5.0180427378 0.8868135674 0.6336944666
C 4.6788028349 2.2154145603 0.4000195031
N 3.4615876099 2.5963231140 -0.0213569709
O 5.5150433375 3.2481182419 0.5664321996
C 6.8577604067 2.9618781238 1.0123068191
O 4.2839255637 -1.3281840448 0.6116506168
C 3.2322887450 -2.2963225833 0.3752330060
H -4.9673839773 -1.9636953208 -3.0272782935
H -5.8676630346 -0.4932255790 -2.5676585214
H -6.4336767781 -2.0974570120 -2.0243448940
H -3.7149415935 -3.1959945911 -1.0377040763
H -3.8871816965 -2.4434034775 0.5689425449
H -5.2885931394 -3.2075633946 -0.2031122881
H -1.1527856813 0.4570502029 3.6424348980
H -3.5982586094 0.9654237470 3.7688851671
H -5.0078498763 0.6139323653 1.7376032526
H 1.1753931951 -0.4192285875 -0.4970297847
H 1.2161537959 3.0426449008 -0.7076571719
H 5.9898056070 0.5592488787 0.9728790181
H 6.8409867146 2.4844151896 1.9969086036
H 7.3518648466 3.9302791023 1.0755575535
H 7.3737888662 2.3240179307 0.2880700807
H 3.6811061885 -3.2600508674 0.6117064979
H 2.9167416384 -2.2697437867 -0.6712720972
H 2.3797427861 -2.1015070171 1.0316779482
