47
CONF30
C -7.8012985969 1.0245695284 0.2711507106
O -6.9013392456 0.0742310499 -0.3671284130
P -5.5972754071 -0.4365727594 0.4011057252
S -5.7973225937 -0.9549799563 2.2632393005
O -5.0379822620 -1.5350886283 -0.6148999964
C -5.5901811149 -2.8836272476 -0.6101567108
O -4.5754271811 0.7901023788 0.1131079498
C -3.3805157659 0.9328352137 0.8260297425
C -3.2868941703 1.9674493346 1.7443134431
C -2.0830555655 2.1732713650 2.4110914659
C -0.9979167702 1.3272613540 2.1719905743
C -1.1161635027 0.2787578653 1.2551329783
C -2.3072315962 0.0880553045 0.5663633039
S 0.4936184533 1.5775948760 3.1277446087
C 1.7855673143 1.2785117027 1.9269012029
C 2.8944967674 0.5275279083 2.3207258812
C 3.9528286045 0.3290609804 1.4383022906
C 3.8713388880 0.8657977118 0.1616468486
C 2.7741682613 1.6134891265 -0.2478511488
C 1.7340811163 1.8337365446 0.6448601804
O 4.9286731571 0.7044779509 -0.7392136780
P 5.2167917906 -0.7193932119 -1.4614411834
S 3.6472624859 -1.7571528372 -1.9475822004
O 6.2437000135 -1.3737131960 -0.4275832082
C 6.6910986272 -2.7479635709 -0.6138860884
O 6.1958168069 -0.2663638749 -2.6396733790
C 5.6506088684 0.2927287223 -3.8688736309
H -8.5932713908 1.2083714555 -0.4540540313
H -7.2698105731 1.9537037666 0.4940527206
H -8.2144099392 0.5911353673 1.1852342862
H -5.0231728726 -3.4324851127 -1.3611690282
H -5.4571599291 -3.3377683581 0.3747947315
H -6.6489336358 -2.8561068964 -0.8805382047
H -4.1408229552 2.6125813352 1.9205307642
H -1.9912345063 2.9940962143 3.1148298763
H -0.2783870966 -0.3851379685 1.0701571780
H -2.4059027168 -0.7139247507 -0.1571842912
H 2.9344708133 0.0925731075 3.3139514112
H 4.8209951066 -0.2493289133 1.7349152521
H 2.7463843984 2.0247418235 -1.2512582174
H 0.8797668194 2.4283449683 0.3390739729
H 5.8327324323 -3.4240968910 -0.6027641505
H 7.2400084415 -2.8393792556 -1.5546985006
H 7.3494124099 -2.9561221093 0.2287449740
H 5.0036736237 -0.4403200918 -4.3568601733
H 5.0948881624 1.2087292290 -3.6505691138
H 6.5133249512 0.5157896673 -4.4955600128
