26
CONF367
C -2.3098656679 -1.1753029376 -0.1727760957
C -1.4542012263 -0.8544457282 1.0484044243
C -0.1585013051 -0.0981597263 0.7309770055
C 0.7487576607 -0.8773539366 -0.2409344461
C 2.1880554253 -0.3474716848 -0.3841881306
C 2.3647632652 1.0651132428 -0.9420618882
O 2.1192971569 2.0721626195 0.0415082627
O 2.8821206377 -0.4783510575 0.8637173698
O 0.8256462877 -2.2539577113 0.1548517052
O -0.4342388674 1.2165965233 0.2191739018
O -2.1928095259 -0.0330474997 1.9693923676
O -2.6924471945 0.0066851728 -0.9021783203
H -1.7568198763 -1.8089261254 -0.8719639774
H -3.2036844112 -1.7279892139 0.1497436807
H -1.1749692840 -1.8054881771 1.5193316115
H 0.3714849576 0.0559849402 1.6800721642
H 0.2886863789 -0.8672160443 -1.2383108125
H 2.6764494908 -1.0391926071 -1.0836776973
H 1.7262617459 1.1979630571 -1.8269357728
H 3.4087908455 1.1834495465 -1.2494093221
H 2.7770371004 0.3731832219 1.3168047098
H 1.4249013757 -2.2828959562 0.9159259929
H -1.1021055117 1.1106562697 -0.4815454966
H -2.8794939435 -0.5857748061 2.3630853607
H 1.1511745121 2.0684730399 0.1723128362
H -3.2764506681 0.5147725694 -0.3217310905
