47
CONF3
C -7.2262237358 -2.1929723538 -1.5962339745
O -5.9799429451 -2.8657236051 -1.2626677523
P -4.9937525745 -2.2295385203 -0.1770509126
S -5.7803871396 -1.5701975465 1.4713936714
O -3.8754378179 -3.3653451329 -0.0593208489
C -4.0918759213 -4.5152986364 0.8070374551
O -4.2151191967 -1.1317621218 -1.0825090015
C -3.4439774224 -0.1206526946 -0.4986442109
C -3.9309166554 1.1773225162 -0.5320628062
C -3.1498091706 2.2070023179 -0.0182592832
C -1.9030958773 1.9252769952 0.5462130612
C -1.4342724568 0.6093854704 0.5835088764
C -2.2007917171 -0.4176858101 0.0465639679
S -0.9948941535 3.2823477177 1.2770206031
C 0.7076716413 2.8185014476 0.9865614033
C 1.1581373742 2.4900971466 -0.2954868681
C 2.4940796334 2.1752714194 -0.5040668100
C 3.3723701219 2.2145103296 0.5739323712
C 2.9478908347 2.5579422533 1.8480524693
C 1.6038686087 2.8541327924 2.0557319005
O 4.7317126287 1.9532316894 0.3846685947
P 5.2692974458 0.4616400743 0.0359202146
S 4.3609183791 -0.9995974543 0.9353661498
O 6.8341495609 0.6390980121 0.3077213881
C 7.3525952173 0.5512307895 1.6649602649
O 5.2186696540 0.4944336203 -1.5610794323
C 5.4910646668 -0.7157288484 -2.3237423266
H -7.0191186547 -1.2046407425 -2.0159586046
H -7.8538127376 -2.1057869130 -0.7058146114
H -7.7088467100 -2.8244212687 -2.3415361157
H -3.1807864601 -5.1084969347 0.7361899435
H -4.2512664782 -4.1829149682 1.8358277495
H -4.9489898020 -5.0949913780 0.4544261257
H -4.9031859272 1.3784555006 -0.9686961307
H -3.5130076612 3.2288659103 -0.0584018376
H -0.4700675721 0.3819470651 1.0252656055
H -1.8416706359 -1.4410131279 0.0605970221
H 0.4655425090 2.4766382970 -1.1305131748
H 2.8560237416 1.9177871604 -1.4935135987
H 3.6578346766 2.5731662517 2.6677985377
H 1.2535628069 3.1012369338 3.0522835881
H 7.1349910323 -0.4340460975 2.0844651859
H 8.4284633149 0.6984500746 1.5765645676
H 6.9135791992 1.3367382385 2.2862030305
H 5.3535719351 -0.4385872490 -3.3683528681
H 6.5195076395 -1.0441115027 -2.1519170024
H 4.7857457057 -1.5011969214 -2.0413995694
