45
CONF13
O -0.7476498739 -0.4710982478 -2.8346098975
C -1.9603252820 -1.2084149375 -2.7193033491
C -2.5900886123 -1.1065249266 -1.3465663712
O -1.7058635443 -1.7373665391 -0.3715024962
C -1.5488089239 -0.9088284966 0.7645512412
C -1.5793589247 -1.7741246449 2.0188868675
O -1.4822082523 -0.9536927686 3.1807291771
O -0.3378010442 -0.1411054621 0.7031996032
C 0.8629679157 -0.8499764642 0.4687560462
O 1.3888462672 -0.5310004788 -0.8129368059
C 1.7311590163 0.8681284340 -0.9995277086
C 2.2843638703 0.9801056949 -2.4105895456
O 3.4690935858 0.2041355730 -2.5997112783
C 2.7375313354 1.3195718916 0.0647649427
O 3.0307854582 2.7120544166 -0.0646099170
C 2.2225752984 0.9954378760 1.4618727688
O 3.2098290022 1.2476554396 2.4649429123
C 1.8862021336 -0.4822521893 1.5428141269
O 1.3447230038 -0.8399693461 2.8159093858
C -2.7081443773 0.1018716404 0.6845412706
O -2.5123526353 1.3269966475 1.3605215678
C -2.8316119105 0.3056945264 -0.8196724533
O -4.1091357791 0.7531669298 -1.2568906411
H -0.1433990985 -0.7616716228 -2.1293894480
H -2.6606895317 -0.7967315186 -3.4544585524
H -1.8025197924 -2.2710749823 -2.9569006859
H -3.5449704035 -1.6521996093 -1.3520592272
H -0.7813466690 -2.5291341288 1.9871468214
H -2.5411825643 -2.2941984636 2.0553462143
H -0.5510893725 -0.6679754280 3.2203890252
H 0.6954238735 -1.9311959205 0.4483863665
H 0.8187046864 1.4808793864 -0.9250387255
H 2.5546638950 2.0231560566 -2.5955357672
H 1.5059786303 0.6908835971 -3.1286523905
H 3.2296976201 -0.7223737374 -2.4670433012
H 3.6882042840 0.7981800659 -0.0948011165
H 2.2067071498 3.2059197961 0.0566889202
H 1.3145546420 1.5867835559 1.6631968830
H 3.3780215302 2.1991074267 2.4751636608
H 2.7980003347 -1.0671797291 1.3484739156
H 1.9478385674 -0.4957139278 3.4897678518
H -3.6167061948 -0.4097992623 1.0412552952
H -2.3586003821 1.1111860332 2.2920141772
H -2.0382901929 0.9863588037 -1.1579856815
H -4.1537277547 1.7063291414 -1.1115335010
