41
CONF112
C 0.6969635588 -5.6450451563 4.4447108852
C 1.3211569976 -4.2775126791 4.5968243590
O 1.8776222881 -3.9195087886 3.3070172081
C 2.4688946621 -2.6959228269 3.2649215971
O 2.5423171971 -1.9297388376 4.2070339307
N 2.9955568671 -2.4680547007 2.0234370513
C 3.4406618278 -1.1298601336 1.6754250418
C 2.2961644001 -0.2015079898 1.3099821080
O 1.6921349635 -0.7366463801 0.1285873697
C 0.5934638523 -0.0994379838 -0.3752225057
C 0.0263133661 -0.6771081488 -1.5143015450
C -1.0852907803 -0.1000502138 -2.1090462942
C -1.6398319013 1.0515040519 -1.5609879273
C -1.0886146087 1.6273927591 -0.4255313266
C 0.0343036209 1.0584828488 0.1706819449
O -2.7960717366 1.5679681661 -2.1291748104
C -2.7381145769 2.8124673500 -2.7185152728
C -1.5448512912 3.4360169953 -3.0788163566
C -1.5936480031 4.6801817579 -3.7022641267
C -2.8105626915 5.2986441577 -3.9684551246
C -3.9946109721 4.6589710230 -3.6064564594
C -3.9654897339 3.4199520914 -2.9806807339
H 1.4453837785 -6.3851890148 4.1490472698
H -0.0950816193 -5.6303714281 3.6911881274
H 0.2608499512 -5.9566665442 5.3982881724
H 2.1236414916 -4.2720980051 5.3419035599
H 0.5859360818 -3.5198250173 4.8875126471
H 2.6664716782 -3.0612761195 1.2777130118
H 4.1392236530 -1.2016062484 0.8352284888
H 3.9727590840 -0.7114664373 2.5343786223
H 1.5675656138 -0.1636289974 2.1315133257
H 2.6758462357 0.8131270533 1.1175297004
H 0.4736797903 -1.5769013333 -1.9222159708
H -1.5340683992 -0.5361818294 -2.9948549923
H -1.5359093210 2.5241511240 -0.0093775868
H 0.4505335463 1.5205928163 1.0569495890
H -0.5947199997 2.9547238564 -2.8778125392
H -0.6645105686 5.1650011063 -3.9852557021
H -2.8378246095 6.2679074284 -4.4541110897
H -4.9513747922 5.1299420010 -3.8088419731
H -4.8768678954 2.9085783275 -2.6907931904
