45
CONF58
C 6.5895275520 -1.0239625993 4.0719717868
C 5.5321371239 -0.1280894528 3.4307048340
C 4.9493761555 -0.7267876048 2.1511512955
C 3.8903504768 0.1595592602 1.4981175867
C 3.3116213927 -0.4412737161 0.2183114463
C 2.2508865006 0.4433046985 -0.4352286193
C 1.6907003148 -0.1538680258 -1.7240437244
C 0.5923983925 0.6962579552 -2.3916062868
C -0.6848333451 0.8018875583 -1.5957095046
C -0.8918921954 1.8831727210 -0.7436763185
N -2.0703974394 1.9019814640 -0.0643760628
C -3.0332011383 0.9032953367 -0.1938514085
N -4.0560149425 1.2033206762 0.6162560470
C -3.6617166607 2.3576286627 1.1908598960
N -2.4681531673 2.8440945995 0.8290367821
N -2.8601867903 -0.1318000582 -1.0148929581
C -1.7188859049 -0.1724611367 -1.6966819941
C -1.5629516484 -1.3273628882 -2.6619115475
C -2.6551571384 -2.3851319440 -2.5652447100
N -0.0731667846 2.9557728653 -0.5576300102
H 6.9947434269 -0.5774541684 4.9849102087
H 7.4244901759 -1.1979032498 3.3846839943
H 6.1682808449 -2.0001902609 4.3350572090
H 5.9678450271 0.8539623644 3.2041047884
H 4.7196129893 0.0548243359 4.1460859444
H 4.5122089555 -1.7094325372 2.3773032335
H 5.7616641705 -0.9115799826 1.4341391201
H 4.3283443224 1.1424219953 1.2733074330
H 3.0770662564 0.3424541654 2.2142521984
H 2.8715900868 -1.4225530048 0.4427175002
H 4.1235409804 -0.6253491250 -0.4988812487
H 2.6976017929 1.4267709801 -0.6521038356
H 1.4339503703 0.6101961342 0.2801138566
H 2.5089599593 -0.2954076758 -2.4421678792
H 1.2916148005 -1.1522043254 -1.5053283306
H 0.9880277750 1.6988722462 -2.6015632804
H 0.3639628893 0.2687177468 -3.3725056456
H -4.2669389511 2.8877425478 1.9159774042
H -0.5801240054 -1.7910802504 -2.5158379282
H -2.6921432722 -2.8194432264 -1.5632820841
H -0.3121926646 3.5490714366 0.2246251220
H 0.9081507225 2.8224335391 -0.7310392991
H -3.6385398202 -1.9572660688 -2.7681483257
H -1.5381910155 -0.9138786739 -3.6809373628
H -2.4621420964 -3.1844497440 -3.2868337880
