45
CONF56
C 6.3911338222 0.5150274272 4.9044768627
C 5.9720705853 -0.3540596329 3.9875376949
C 6.5517250999 -0.3484198999 2.6284926628
O 7.4055835514 0.4068082445 2.2176698427
O 5.9896084356 -1.3322129145 1.8748285953
C 6.4659434023 -1.4234883362 0.5177076596
C 5.8750920521 -0.3529073161 -0.3936717290
C 4.3736249373 -0.4693102398 -0.5629746629
C 3.8212458150 0.4827781535 -1.6613516774
C 2.3109637761 0.3579841577 -2.0836370412
C 1.2345455139 0.4849705863 -0.9555055305
C -0.2061338953 0.7845256218 -1.5119525665
C -1.3402520953 0.4461921495 -0.4787665494
C -2.7068973281 1.1401773796 -0.8223074934
C -3.9324673649 0.4700297734 -0.1060598964
C -5.2017585781 1.3879844416 -0.0732644268
C -6.5322717415 0.6237309575 0.2300354096
F -6.3911721354 -0.1480957796 1.3168533898
F -6.8952412266 -0.1383286153 -0.8065831203
F -7.4995679909 1.5220670385 0.4584708305
F -5.0403156216 2.3245283333 0.8848412817
F -5.3481618650 1.9973842623 -1.2727523609
F -4.2426427500 -0.6733035978 -0.7577229527
F -3.5910144657 0.1734154349 1.1683340409
F -2.6415837524 2.4360511565 -0.4436416332
F -2.9067658771 1.0756662490 -2.1575653461
F -1.5275494878 -0.8927049776 -0.4664684207
F -0.9502501950 0.8535159554 0.7494417126
F -0.2845058662 2.0980758977 -1.8223956179
F -0.4140718509 0.0507874507 -2.6270748062
F 1.5791875874 1.4905747408 -0.1228057245
F 1.1945621005 -0.6794523667 -0.2679894767
F 2.0947615512 1.3558779768 -2.9804961462
F 2.1451440159 -0.8271703065 -2.7073328113
F 4.5226747637 0.2518340526 -2.8066591646
F 4.0593855774 1.7591687135 -1.2747097505
F 3.7285846953 -0.1669290718 0.6025708465
F 4.0219948309 -1.7476159291 -0.9065517302
H 7.1645932394 1.2369388847 4.6603647953
H 5.9755337693 0.5230304498 5.9059428271
H 5.2011365720 -1.0900567945 4.1910552775
H 6.1797622764 -2.4234056932 0.1870634966
H 7.5555400912 -1.3265879401 0.5076144255
H 6.3383211445 -0.4594789482 -1.3793909861
H 6.1123644966 0.6451894279 -0.0166411695
