65
CONF120
C 6.5471914029 -0.9148219894 -5.6552137802
O 5.7117068120 -1.9537983718 -5.1334237869
C 5.3027496201 -1.8390241838 -3.8343881586
C 5.6453292912 -0.7829325847 -2.9861166889
C 5.1682792043 -0.7768094512 -1.6753615601
C 4.3554110539 -1.7969109545 -1.1811952062
C 4.0293015853 -2.8451293622 -2.0488394183
C 4.4916986609 -2.8735416564 -3.3570770401
C 3.8229273775 -1.7472033388 0.2272856462
C 2.7200813092 -0.6956244983 0.4177501753
N 1.5744757493 -0.8614351249 -0.4810760050
C 0.6985768571 0.3146725348 -0.3938708291
C -0.4512593553 0.2228700939 -1.3893687332
C -1.2818142665 -1.0496497599 -1.1721073551
C -0.3488145167 -2.2605695218 -1.1411418118
C 0.8126232227 -2.0736048652 -0.1662417754
N -2.0572184403 -1.0051493592 0.0794353576
C -3.1104938713 -0.1503249617 0.1974573099
N -3.7585646329 0.4266677443 -0.8033249385
C -4.7779854813 1.1428632030 -0.1941401288
C -5.7677273574 1.9443229250 -0.7601932680
C -6.6767561863 2.5703068720 0.0934593007
C -6.6060922699 2.4059814989 1.4826834974
C -5.6223482869 1.6054286080 2.0694814363
C -4.7256197029 0.9848957673 1.2120414110
N -3.6482283631 0.1401657029 1.4404456497
C -3.1259949878 -0.3061262083 2.7225671769
C -1.7484351785 0.2516249310 3.0166786716
C -1.4497726204 1.5891061988 2.7440840956
C -0.1865698743 2.1047167283 3.0118203142
C 0.7664211816 1.2568301633 3.5532742867
C 0.5104511253 -0.0720261142 3.8390176963
C -0.7608282029 -0.5696750515 3.5613628842
F 2.0081708779 1.7477389247 3.7974726961
H 6.0333472379 0.0538711226 -5.6335850213
H 6.7571376910 -1.1937932300 -6.6883058624
H 7.4875449854 -0.8453265388 -5.0951428987
H 6.2783721268 0.0279537995 -3.3255554334
H 5.4439951242 0.0493925325 -1.0242271739
H 3.4016326686 -3.6579407643 -1.6927916188
H 4.2356276361 -3.6917357710 -4.0230517293
H 3.4654698851 -2.7388034235 0.5229110419
H 4.6302204102 -1.4889443828 0.9232621140
H 3.1500010728 0.2946627572 0.2211621271
H 2.3986786261 -0.7024614487 1.4797340627
H 1.2973849233 1.2084255864 -0.6042985158
H 0.2970563322 0.4348395313 0.6344134057
H -1.0917727051 1.1065908177 -1.3008914349
H -0.0479797843 0.2029642825 -2.4091313719
H -2.0037455193 -1.1617782383 -1.9865750014
H -0.9096317174 -3.1649396587 -0.8817393717
H 0.0601668127 -2.3975039935 -2.1486190892
H 0.4467259500 -2.0459265171 0.8843898270
H 1.4712804236 -2.9443208062 -0.2370055104
H -1.5092330067 -1.1225086122 0.9214335864
H -5.8239000624 2.0752875951 -1.8365038578
H -7.4551643710 3.1993408354 -0.3272261143
H -5.5723455163 1.4830676585 3.1468170907
H -3.8372362052 0.0129220308 3.4909249405
H -3.0995653367 -1.4023866239 2.7493755918
H -2.2072067003 2.2347319352 2.3086680950
H 0.0617097552 3.1388957567 2.7995636990
H 1.2895233614 -0.7021468779 4.2535575682
H -0.9792290269 -1.6142936603 3.7654285079
H -7.3273378667 2.9088902209 2.1188607598
