45
CONF51
C -0.5634674675 -2.1469931580 -2.0558350810
O -0.3491630883 -0.7172746780 -1.9739385289
C -1.2831716182 -0.0557013150 -1.2706588271
O -2.2474250922 -0.5661213021 -0.7239794269
N -1.0041834424 1.2934438764 -1.1953690986
C -1.9552387369 2.2325634000 -0.6944862205
C -2.5727400875 3.1078678881 -1.5859135415
C -3.4850682238 4.0468452430 -1.1175798967
C -3.7888186586 4.1053929452 0.2396412800
C -3.1618609930 3.2336172010 1.1245582182
C -2.2290784192 2.2948083500 0.6803466249
C -1.5360956693 1.4063027367 1.6708929030
O -0.1488029866 1.8402230461 1.8099788096
C 0.8164857674 0.9163611731 1.6547108995
N 0.5917957309 -0.3550298215 1.3446621115
N 1.8398715168 -0.8995915767 1.2397322015
C 2.8172963229 0.0167726321 1.4955918966
C 2.1954399790 1.2105315243 1.7733596952
C 1.9870680938 -2.2644544234 0.9270085473
C 0.9578346206 -3.1599431748 1.2268036232
C 1.0959947725 -4.5057514053 0.9124923002
C 2.2682148934 -4.9460630176 0.3098647355
C 3.3014196423 -4.0667718960 0.0080735383
C 3.1549059207 -2.7186842172 0.3096100644
Cl 2.4461793499 -6.6509951106 -0.0859634556
O -0.1314281633 1.8132757418 -2.1679921533
C 1.1422005971 2.1222750086 -1.5661143035
H 0.2870790330 -2.5282970742 -2.6201396561
H -0.5855668713 -2.5855583263 -1.0558459408
H -1.4984240198 -2.3603182279 -2.5795023833
H -2.3367772928 3.0449742872 -2.6422858500
H -3.9655062564 4.7236465457 -1.8167977932
H -4.5039867151 4.8325444920 0.6098932779
H -3.3837319603 3.2864980152 2.1866209623
H -1.5691793195 0.3599376602 1.3683567569
H -1.9990940444 1.5120524299 2.6560186561
H 3.8637146938 -0.2490341199 1.4875598679
H 2.6523481161 2.1555529186 2.0211019102
H 0.0543604452 -2.8037587946 1.7061662560
H 0.2989932013 -5.2031753744 1.1438200135
H 4.2045237119 -4.4214433302 -0.4750355573
H 3.9448198544 -2.0265518466 0.0412760883
H 1.7341832382 2.5587616521 -2.3736219924
H 1.0219471177 2.8471173781 -0.7531600402
H 1.6221326031 1.2110068544 -1.1939218616
