51
CONF88
C -2.4089263474 -2.1990092973 0.6530602470
C -1.0913332039 -2.1164644951 -0.1081867568
N -0.2150882949 -1.0863765105 0.4703594389
C -0.8700925781 0.2269735542 0.3873860080
C -2.1819223096 0.2393449990 1.1632187676
C -3.1282275936 -0.8526345569 0.6200873221
C -4.4129226032 -0.8565997481 1.4226580631
O -4.6235907918 -1.7163562166 2.2721930206
C -5.4063864189 0.2358160691 1.2027742331
C -6.4778831936 0.3497882244 2.1010439927
C -7.4381641566 1.3373689913 1.9486285248
C -7.3111733199 2.2095051875 0.8769677699
C -6.2719008198 2.1358616257 -0.0358761179
C -5.3167563317 1.1417757219 0.1364612216
F -8.2448481923 3.1743845165 0.7163716163
C 1.0816425659 -1.0701674294 -0.2073751282
C 2.1556328931 -0.4193843071 0.6686230150
N 3.4312319680 -0.3344625509 -0.0586503562
C 3.6594351310 0.7995411464 -0.8482525640
O 2.8231994294 1.6970242032 -0.9094671761
C 4.9346301313 0.8296281851 -1.5632074953
C 5.2794384432 1.9283572776 -2.3598752901
C 6.4873973516 1.9498113250 -3.0340180835
C 7.3655161180 0.8639906734 -2.9179525555
C 7.0431749648 -0.2335203504 -2.1376613365
C 5.8205343006 -0.2515302647 -1.4565157857
N 5.4607991370 -1.3295086672 -0.6739758080
C 4.2879881144 -1.4367719328 0.0269010202
O 4.0140555600 -2.4319347000 0.6893763314
H -3.0396062266 -2.9774712398 0.2098525453
H -2.2123626176 -2.4851960344 1.6918263056
H -1.2928203587 -1.9080526518 -1.1789502614
H -0.5723265845 -3.0800713738 -0.0537709453
H -1.0696641359 0.4965876420 -0.6700693312
H -0.2028411071 0.9914648272 0.7983566898
H -2.6394923599 1.2305827105 1.0825449988
H -6.5464564255 -0.3485807337 2.9276514285
H -8.2690938267 1.4390160295 2.6380823944
H -6.2179171520 2.8391911311 -0.8593466758
H -4.5052750586 1.0811747047 -0.5792527203
H 1.3843665907 -2.1044395779 -0.4062232577
H 1.0344254778 -0.5468371739 -1.1814475747
H 2.3169566526 -1.0128591944 1.5690226088
H 1.8809862368 0.5976015242 0.9500141867
H 4.5806542858 2.7544388883 -2.4326941081
H 6.7547703450 2.8014966382 -3.6496252410
H 8.3138324967 0.8779915832 -3.4456770188
H 7.7216666350 -1.0760026400 -2.0476745188
H -1.9861936934 0.0466131683 2.2256219332
H -3.3604071595 -0.6053860220 -0.4242714834
H 6.0796359580 -2.1268292287 -0.6091892284
