43
CONF8
C -3.3862003490 3.8816098920 0.7919210370
N -3.3340764844 2.7913436453 -0.1849407807
C -2.8319854727 1.5361422951 -0.0730125029
C -3.0354948481 0.8842699988 -1.2936290629
C -3.6775681814 1.8667738784 -2.0670996183
N -3.8428256778 3.0084693566 -1.4072215966
Cl -4.1808222801 1.7534886898 -3.7079910683
C -2.6756398372 -0.4720842157 -1.7367193650
O -3.3500983295 -1.1293007506 -2.5019976781
O -1.4969032781 -0.8660614408 -1.2301806496
C -1.0679790292 -2.1939652698 -1.6316938671
S -2.2497534511 0.8268269501 1.4599168106
O -2.4999927946 1.7947016929 2.5253362596
O -2.7715024530 -0.5377642144 1.5575092766
N -0.5883829669 0.6291151701 1.2600186760
C 0.1950705626 1.6378760798 0.7345599631
O -0.1974885668 2.7876400294 0.5882087887
N 1.4790095639 1.2651467489 0.3707193429
C 2.1122445433 0.0252132067 0.3944133206
N 3.3466039642 0.0291079767 -0.1095911344
C 3.9737518533 -1.1520583805 -0.0961405209
C 3.4014547700 -2.3184799960 0.4090518954
C 2.1139365973 -2.1842906990 0.9103613242
N 1.4539473063 -1.0173310463 0.9042580383
O 1.5212403465 -3.2690760173 1.4191225038
C 0.2146078498 -3.1070663049 2.0215072349
O 5.2157496754 -1.2425558327 -0.5831142088
C 5.8245274431 -0.0373464905 -1.1053257400
H -4.1067763610 3.6477056172 1.5775999414
H -2.3966482178 4.0262319460 1.2248846328
H -3.6996355811 4.7697186888 0.2449121833
H -0.0761208990 -2.3169950436 -1.1998026745
H -1.7602580129 -2.9428012076 -1.2396423087
H -1.0247039146 -2.2581991210 -2.7208325140
H -0.2160180119 -0.3338455260 1.2025645552
H 2.0279796692 2.0209516822 -0.0181716721
H 3.9291451403 -3.2624072773 0.4208596054
H -0.0400774543 -4.0937817300 2.4060905268
H 0.2563722680 -2.3788937856 2.8358721791
H -0.5196657967 -2.7938497947 1.2744095505
H 6.8148705165 -0.3472679709 -1.4368732929
H 5.2435930470 0.3514497734 -1.9449589722
H 5.9025140322 0.7216391833 -0.3233538073
