119
CONF337
C 3.0689613575 -2.0275894438 1.6586228176
C 4.0123117936 -3.1941483769 1.3445970357
C 5.4552684029 -2.7263526331 1.1617961230
C 5.9556415907 -1.9422382656 2.3826447177
C 5.0089465959 -0.7754096792 2.7333441370
C 5.5604381840 -0.0157239400 3.9436332798
C 6.9367340625 0.5348427922 3.6167088794
O 7.4644389900 1.3462338939 4.6828916957
C 7.9727967597 -0.5679837327 3.3270939249
C 8.2955746648 -1.3536932931 4.5996105958
C 9.2210473762 0.1586882359 2.6418823125
C 9.1744624287 -0.2363914117 1.1467815832
C 7.7542718637 -0.7561437460 0.9065602022
C 7.4251520295 -1.5122885328 2.1992179100
O 8.1535066358 -2.7618559784 2.2116337884
C 10.5288478511 -0.0719557147 3.3089085960
C 11.5125414251 -0.9523455317 3.0567174891
C 12.5862915451 -0.7679633533 4.0292255248
O 13.6381855792 -1.3584851495 4.1625775776
O 12.2370084314 0.2611294183 4.8731575293
C 10.9482700334 0.7651339934 4.4772053201
C 3.5334462978 -1.2467259187 2.9192332344
C 3.3867182068 -2.1371747591 4.1646062401
C 2.5714351207 -0.0530551639 3.1176394771
C 2.4307301096 0.8572223243 1.8997244713
C 1.9768817136 0.0659142913 0.6799542585
C 2.8974164896 -1.1196742481 0.4291502487
O 0.6270289859 -0.4284418037 0.9186502973
C -0.3175504460 0.0086213273 -0.0025272204
C -1.6089240380 -0.7534288331 0.2253129828
C -2.7183803006 -0.2253919087 -0.6763457914
O -2.4167470370 -0.6045950068 -2.0222021122
C -2.8212433206 1.3034909730 -0.5392255808
O -3.6943392092 1.8892026619 -1.5227407791
C -5.0259845692 1.4700674760 -1.4813226866
C -5.9111611395 2.5675284731 -2.0390517673
C -7.3537855024 2.0916231684 -2.1410245184
O -7.8620656141 1.9650430730 -0.8053552061
C -7.4341671253 0.7448705160 -2.8705161888
O -8.7615356942 0.2085403314 -2.7110302648
C -9.5557470384 0.2320370170 -3.8637161044
C -10.8237554667 -0.5521070947 -3.5875935284
C -11.7791125564 -0.4434750360 -4.7735694151
O -11.2466768490 -1.1037914217 -5.9394223561
C -11.9858134392 1.0169466118 -5.1766263901
O -12.7925747720 1.1070240488 -6.3497480984
C -10.6391358982 1.7320359609 -5.3673194653
C -10.7982764860 3.2131133538 -5.6335798064
O -9.8716934928 1.5975131985 -4.1532132838
C -6.4494884450 -0.2762209679 -2.2955420708
C -6.3955140178 -1.5563343514 -3.1009830102
O -5.1331250616 0.3052860627 -2.3229310417
C -1.4583077206 1.9739965503 -0.7304361590
C -1.4958473134 3.4688785750 -0.4901253510
O -0.5424696724 1.4125733518 0.2224375448
H 2.0776609575 -2.4400158896 1.8936382012
H 3.9698885197 -3.9311690644 2.1556070875
H 3.6686360413 -3.7065802026 0.4369451634
H 6.1092617247 -3.5857588166 0.9853947137
H 5.5247361467 -2.0916426933 0.2703606079
H 5.9640010492 -2.6307934480 3.2395363954
H 5.0231543122 -0.0778346902 1.8836463930
H 5.6209236552 -0.6678419535 4.8221860422
H 4.9115925782 0.8274132837 4.2060074350
H 6.8424897630 1.1603609010 2.7144221297
H 6.8962169451 2.1225384213 4.7609288504
H 9.1608644315 -2.0024979203 4.4536530302
H 8.4991036862 -0.6829838602 5.4361703808
H 7.4530723885 -1.9915149810 4.8801920661
H 9.0272006877 1.2332639357 2.7307915393
H 9.9050099001 -1.0223093027 0.9260558821
H 9.4320762857 0.6106096396 0.5056664594
H 7.6874079465 -1.4049885916 0.0302408014
H 7.0534222012 0.0740091749 0.7666792648
H 9.0863602025 -2.5844254030 2.0391936339
H 11.5691433926 -1.7046670817 2.2823981904
H 11.0470636728 1.8220793014 4.1981533368
H 10.2589985311 0.6920463561 5.3253032604
H 3.5150839906 -1.5485012346 5.0787888562
H 4.1048372636 -2.9602794978 4.1947788361
H 2.3804595543 -2.5702184491 4.1896698239
H 2.8693572231 0.5332014908 3.9936451972
H 1.5838027713 -0.4690863345 3.3554358133
H 3.3879583265 1.3387318258 1.6621138262
H 1.7095351090 1.6564505790 2.1016025805
H 1.9543659711 0.7172751826 -0.2026840164
H 2.5053315688 -1.7133095688 -0.4066164910
H 3.8651003076 -0.7196783885 0.1044792073
H 0.0481463273 -0.1176131136 -1.0384506062
H -1.4599045891 -1.8204536188 0.0316414368
H -1.8949742458 -0.6272700071 1.2756451213
H -3.6730603034 -0.6773492700 -0.3693433273
H -3.2062285787 -0.3759824125 -2.5379570200
H -3.1952065419 1.5412904628 0.4700251171
H -5.3210346826 1.1918450240 -0.4554028176
H -5.5371875280 2.8359051296 -3.0334416954
H -5.8607598522 3.4542151638 -1.3988341261
H -7.9517420981 2.8255974316 -2.6986955752
H -8.7325931196 1.5493230188 -0.8821232489
H -7.2089582607 0.8997832153 -3.9351264213
H -9.0010341857 -0.1882763475 -4.7215892119
H -10.5846308640 -1.6032897686 -3.3926558440
H -11.2980798887 -0.1341821678 -2.6913646258
H -12.7532674350 -0.8805486646 -4.5156138155
H -11.3799508395 -2.0529963481 -5.8324118147
H -12.5316933859 1.5258407963 -4.3719949245
H -12.4566132173 0.4325024661 -6.9586617306
H -10.0929815487 1.2520948351 -6.1964637754
H -11.3208555995 3.6929039341 -4.7992129192
H -11.3785313622 3.3687898524 -6.5458717723
H -9.8192232991 3.6848726156 -5.7551696292
H -6.7296213149 -0.4909464862 -1.2516635420
H -5.6831409098 -2.2558535085 -2.6544470399
H -6.0857613990 -1.3436492238 -4.1295506300
H -7.3813751520 -2.0277666739 -3.1206992073
H -1.1034566272 1.7588787690 -1.7515988666
H -0.4927681800 3.8905431376 -0.5997575136
H -1.8588350012 3.6795193807 0.5214287497
H -2.1597269177 3.9538163327 -1.2089641927
