47
CONF140
C -2.0949822471 -2.2921487681 -0.3119214244
O -2.1719694130 -0.8447164293 -0.3079709691
C -1.3996497151 -0.2273423426 -1.1982842377
C -1.2855378765 1.1222859750 -1.2324218889
C -1.9597251724 1.9989880764 -0.2504623197
C -2.8975318685 2.9589195960 -0.6480354352
C -3.5431852112 3.7689922624 0.2796161235
C -3.2616173815 3.6357864256 1.6375672513
C -2.3289366064 2.6946782620 2.0617385549
C -1.6926918871 1.8995672387 1.1203278203
O -0.8346569042 0.9081731505 1.6062778313
C 0.4532358993 0.8872246147 1.1953789066
C 1.1272547488 -0.3238955077 1.3282555695
C 2.4463019467 -0.3021577817 0.9040177903
N 3.0533618847 0.7852594760 0.4267808736
C 2.2982367841 1.8814323798 0.3713439099
N 1.0170213333 1.9991873551 0.7295089574
O 3.2566931541 -1.4010999252 0.9336331376
C 2.6861808030 -2.6283827756 1.2387544629
C 2.8695923156 -3.1755664076 2.4950880166
C 2.3444929716 -4.4372609223 2.7662690150
C 1.6424019324 -5.1407583031 1.7891205723
C 1.4627095170 -4.5932944674 0.5270018576
C 1.9895885956 -3.3259406687 0.2402401202
C 1.8260731897 -2.7432600614 -1.0438439562
N 1.6857036752 -2.2637643723 -2.0892368949
C -0.4110924186 1.6676333284 -2.2808989326
O 0.2022603447 1.0066469959 -3.1076365621
O -0.3383894254 3.0149102803 -2.2266285452
C 0.5326753316 3.6303514262 -3.2029221136
H -2.2701606662 -2.6762285277 -1.3210025172
H -2.8763285030 -2.6360164488 0.3645461526
H -1.1138273619 -2.6090290272 0.0539998131
H -0.8587323644 -0.8486924417 -1.9108372702
H -3.1232854726 3.0561757103 -1.7051066829
H -4.2710349670 4.4995551829 -0.0577578577
H -3.7633046041 4.2625544026 2.3675561440
H -2.0857332841 2.5708775106 3.1117372594
H 0.6292840566 -1.2041568655 1.7137278095
H 2.7789411241 2.7818190926 -0.0088983111
H 3.4150162427 -2.6135760152 3.2452787075
H 2.4851597428 -4.8708331238 3.7505892879
H 1.2365364925 -6.1215460133 2.0101144911
H 0.9240544120 -5.1310508224 -0.2450415864
H 0.4684947432 4.7008877675 -3.0109153178
H 0.1923713879 3.4010400510 -4.2157391277
H 1.5587304141 3.2777713470 -3.0701100666
