33
CONF8
C -5.1111675330 0.8141537191 1.1174001151
C -3.9754298992 0.3910193267 0.1936639510
C -4.1342033596 1.1065673270 -1.1472462772
O -3.6408429991 2.1615058688 -1.4445046844
O -4.9699774474 0.4038183564 -1.9590702721
O -2.7669605290 0.7670397133 0.8262204780
C -1.5858809141 0.3563107054 0.2579368924
C -0.4296467421 0.7721469066 0.9169309921
C 0.8213545127 0.4087314318 0.4412985662
C 0.9141336574 -0.3825992619 -0.6998782329
C -0.2287543610 -0.8015791752 -1.3627437240
C -1.4840963901 -0.4311556702 -0.8893183636
O 2.1286446920 -0.7567728329 -1.2658398663
C 3.2496007104 -0.7028334293 -0.4784950379
C 3.4793984366 -1.6287135772 0.5452626997
C 4.6545141848 -1.5904118668 1.2867143191
C 5.6045950258 -0.6219941332 0.9855079713
C 5.4061053309 0.2995947049 -0.0352780321
C 4.2212424849 0.2519594581 -0.7588166901
Cl 7.0871989838 -0.5744002969 1.9156670955
Cl 2.2958669925 -2.8586356610 0.8869276282
H -6.0749020942 0.5444655461 0.6789946898
H -5.0747562156 1.8948545609 1.2764857974
H -5.0022939038 0.3090013032 2.0796952001
H -4.0106579746 -0.6953798292 0.0283739018
H -5.0856579317 0.9317211031 -2.7654125309
H -0.5276037582 1.3889040884 1.8032566327
H 1.7162145886 0.7401731234 0.9566312374
H -0.1312981026 -1.4180356423 -2.2492791373
H -2.3604118922 -0.7690355431 -1.4298408219
H 4.8257284425 -2.3120831348 2.0754613663
H 6.1614891489 1.0435511778 -0.2568485582
H 4.0284548715 0.9581118339 -1.5591359976
