37
CONF21
C -1.6600383841 -2.3539375321 1.1343803543
C -2.0306697525 -0.9017340613 0.8248529847
C -1.8463055340 -0.0371904081 2.0719967126
C -1.2676425090 -0.3666160477 -0.4220964183
C 0.2424276000 -0.4262437928 -0.1944147753
C 0.9814402442 -1.5184363913 -0.6510795209
C 2.3479439303 -1.6106779227 -0.4058947991
C 2.9701237749 -0.5956412707 0.3007739829
C 2.2658102241 0.4999836868 0.7752837531
C 0.9020092527 0.5778190384 0.5219234920
O 4.3407150616 -0.7110933872 0.6079482270
C 5.2000835859 -0.1873566082 -0.3006930735
F 6.4399674087 -0.3775552558 0.1540219836
F 5.0112662135 1.1379345825 -0.4909092624
F 5.0936231499 -0.7729191949 -1.5149874797
C -1.7157825579 1.0316606142 -0.8506676458
C -2.9859121186 1.5500709799 -0.5930025316
N -3.4006681564 2.7276858115 -1.0659894626
C -2.5314729950 3.3930517004 -1.8302505019
N -1.3024926585 2.9992013451 -2.1705242151
C -0.9106159911 1.8240049563 -1.6725580700
O -1.6587515514 -1.2634134061 -1.4830408169
H -0.6218554332 -2.4330591569 1.4722565998
H -1.7942726694 -2.9986947776 0.2637259174
H -2.3006827848 -2.7275638398 1.9390831390
H -3.0886665500 -0.8948060396 0.5357941920
H -2.0462360445 1.0231717683 1.8902712880
H -2.5310625460 -0.3764256903 2.8548840688
H -0.8282923616 -0.1290331517 2.4628908688
H 0.4781121902 -2.3082789423 -1.1961895604
H 2.9267948788 -2.4583773193 -0.7543885721
H 2.7831706617 1.2764404558 1.3269353741
H 0.3494183330 1.4412165995 0.8771365925
H -3.7035441381 1.0061252899 0.0165339955
H -2.8612335716 4.3557316080 -2.2196037671
H 0.0943660701 1.4971489585 -1.9390058810
H -1.3410732878 -0.8921933097 -2.3157917625
