28
CONF4
O -0.7946550444 1.3487751111 -2.3470105484
C -1.7593928424 0.2966534607 -2.4462356295
C -1.7729018124 -0.5050477810 -1.1688918274
O -0.5124018060 -1.2037280098 -1.0064294271
C -0.1787557802 -1.3013825041 0.3642867476
C -1.3405233508 -0.6931676454 1.1487434835
C -1.9527312445 0.2742009139 0.1319340718
O -3.3378427767 0.5394104474 0.3175106467
N 1.1091653580 -0.5736929132 0.6019050855
C 1.5527430558 0.4136110597 -0.2325722558
C 2.7064974892 1.0887427315 -0.0124355392
C 3.5212576152 0.7790376626 1.1310552962
O 4.5871400492 1.3118091342 1.4379541500
N 2.9889089734 -0.2409297480 1.9352203375
C 1.8094157861 -0.9304550730 1.7489272452
O 1.4070163873 -1.7862565000 2.5291598411
H -0.7341237361 1.7782100923 -3.2083489626
H -2.7722617614 0.6995988064 -2.5946432505
H -1.5275377743 -0.3725366367 -3.2861703970
H -2.5853246373 -1.2446608467 -1.2445776333
H 0.0187052217 -2.3431073310 0.6278099038
H -1.0169681707 -0.2223558203 2.0787193146
H -2.0716315150 -1.4758625911 1.3772497547
H -1.3812808924 1.2111047408 0.0917995658
H -3.4264497594 1.1692912531 1.0430679986
H 0.9167677492 0.6143518842 -1.0887986336
H 3.0338591730 1.8620074055 -0.6938585308
H 3.5133066544 -0.4936207157 2.7646291977
