38
CONF14
C 1.2926565130 -0.2411211705 -3.4970947507
N 2.1637149356 -0.7466388040 -2.4321969766
C 2.7260830170 -2.0373327600 -2.8385471887
C 1.4247522656 -0.9091975696 -1.1728529418
C 0.9957509977 0.4168036828 -0.5520999656
C 0.3862240731 0.2091766434 0.8439005081
C -0.8786341969 -0.6327498417 0.8132946265
C -1.9635727601 -0.2850324451 0.0023763606
C -3.1234931051 -1.0521815235 -0.0146014218
C -3.1929965386 -2.1793887028 0.7959709975
Cl -4.6587836558 -3.1608454724 0.7787853151
C -2.1371729964 -2.5523483588 1.6158327122
C -0.9848156115 -1.7696596934 1.6163314982
C 0.1109025044 1.5277953337 1.5469162642
C 0.4532339995 1.6904539530 2.8917550683
C 0.1663379130 2.8938165637 3.5236650006
C -0.4557274530 3.9021843982 2.7946126209
C -0.7601046910 3.6540493017 1.4608544751
N -0.4876670957 2.4978964682 0.8416671084
H 1.8604095349 -0.1753787289 -4.4307985274
H 0.4189705517 -0.9001840795 -3.6692066762
H 0.9254120330 0.7599606154 -3.2558303943
H 1.9452760937 -2.8019139670 -3.0185621430
H 3.3985299960 -2.4122213416 -2.0598593935
H 3.3004969588 -1.9152325026 -3.7627787358
H 2.0851975797 -1.4287175031 -0.4657633748
H 0.5374502601 -1.5587631257 -1.3183348842
H 0.2713270738 0.9358857581 -1.1851445963
H 1.8709290163 1.0715258574 -0.4585645501
H 1.1161474408 -0.3307341140 1.4577680458
H -1.9090707603 0.5967371340 -0.6272816658
H -3.9590651004 -0.7767593625 -0.6484326124
H -2.2068205009 -3.4359378086 2.2403811129
H -0.1530218397 -2.0575365104 2.2531668745
H 0.9383524016 0.8812873503 3.4288270324
H 0.4257329461 3.0428280344 4.5672963925
H -0.6982001795 4.8589928081 3.2442513983
H -1.2447421288 4.4204817743 0.8578325002
