44
CONF14
C -5.0684008066 1.8791226674 1.6952005803
N -3.7442240270 1.5784920044 1.1380275331
C -3.8280667565 1.1118795833 -0.2644718013
C -4.3456290963 -0.3516740161 -0.1772642674
C -3.8673930686 -0.8287492038 1.2188377343
C -3.1210509959 0.4071917327 1.7956271644
C -1.6334209203 0.4034216744 1.4174896381
C -1.4878701748 0.2444793347 -0.0885120034
C -2.4143256141 1.1785710221 -0.8589684548
O -0.0879693664 0.5426540038 -0.4140999007
C 0.4319445534 -0.0367569053 -1.5019816773
O -0.1872974159 -0.7730822045 -2.2509172135
C 1.8944133266 0.3315081046 -1.6771400576
C 2.4088067112 -0.1390316119 -3.0495523575
O 2.4131924451 -1.5560437831 -3.1981759526
C 2.7426666511 -0.1854137127 -0.5335299360
C 3.8227670900 0.5732236901 -0.0763570023
C 4.6499416242 0.0915354040 0.9352455776
C 4.4042237028 -1.1560012534 1.5045682404
C 3.3273426345 -1.9177662061 1.0556663563
C 2.5029949695 -1.4360380634 0.0421696791
H -5.7795484033 1.0367970811 1.6544938743
H -4.9578398740 2.1777222468 2.7428933908
H -5.5068003544 2.7187671277 1.1459454891
H -4.4976314549 1.7617591737 -0.8367451187
H -5.4361624042 -0.3776016665 -0.2496701089
H -3.9514850376 -0.9659291521 -0.9924681456
H -3.2136489553 -1.7044400262 1.1649533506
H -4.7152953199 -1.0955170759 1.8551746653
H -3.2220640305 0.4895061891 2.8824120489
H -1.1096635898 -0.4116437283 1.9292416032
H -1.1850104545 1.3525558501 1.7312887456
H -1.6702304273 -0.7929979755 -0.3821179977
H -2.0413155904 2.2058205292 -0.7776522133
H -2.4317728680 0.8987350456 -1.9174524672
H 1.8047090437 0.3360329953 -3.8356145934
H 3.4449574688 0.1931684111 -3.1629486035
H 5.4837412831 0.6941763927 1.2823495284
H 5.0456145865 -1.5311303061 2.2959099463
H 3.1272857785 -2.8902153276 1.4951547845
H 1.6661247626 -2.0389353405 -0.3000168604
H 4.0156644693 1.5481544456 -0.5162284506
H 1.9458943143 1.4282146364 -1.6727960672
H 1.4868629422 -1.8323498918 -3.1421480739
