27
CONF127
C -3.2586302399 0.2783124153 0.5060475797
C -4.6929231530 0.6840392658 0.1819150312
O -5.5146388440 -0.3571893184 0.7117689809
C -2.2607095297 1.2558116021 -0.0656023170
C -0.7554543681 1.0164987102 0.2954787051
C -0.0539637351 -0.1485875894 -0.4811947740
C 1.2800279292 -0.6327716716 0.1898097182
C 2.1942910351 -1.4559579527 -0.7813554440
C 3.2827542794 -2.3125563024 -0.0551805594
F 3.9524631606 -1.5639780726 0.8324424454
F 4.1460800339 -2.7765775771 -0.9688267869
F 2.7306119248 -3.3542622817 0.5757967586
F 2.8307651025 -0.6023180549 -1.6103734842
F 1.4336497925 -2.3030585773 -1.5135243261
F 1.9805294680 0.4407138796 0.6168031877
F 0.9708615606 -1.4090758843 1.2546514307
F -0.8938738296 -1.2123645132 -0.5471847214
F 0.2206277199 0.2681395037 -1.7363418754
F -0.0664369744 2.1494162048 0.0369113205
F -0.6785513730 0.7569612035 1.6299295569
F -2.5433874474 2.5177884004 0.3906600118
F -2.3406883665 1.3001144882 -1.4339611357
H -3.1246770140 0.2309683881 1.5902646946
H -3.0698746966 -0.7162337188 0.0976990272
H -4.9277422191 1.6516832455 0.6452778558
H -4.8203120161 0.7769116155 -0.9060801003
H -6.4346973875 -0.1268614185 0.5474185745
