20
CONF2
C 2.7822624964 0.3211857676 -1.2944789804
C 3.3600927803 0.4801977598 0.1000671673
O 3.1068135792 -0.2092652924 1.0514227155
O 4.2452184666 1.5058877676 0.1091099137
O 1.7518680273 -0.6554440851 -1.3238778143
C 0.5977371400 -0.3244238703 -0.7047259417
N 0.4393215090 0.9096989289 -0.2400126493
C -0.6968657910 1.2007717640 0.3502846827
C -1.7488036244 0.3222358192 0.5172836040
C -1.6097897802 -0.9929664941 0.0210247504
C -0.3888826457 -1.3013594896 -0.6034437626
Cl -0.1238729940 -2.9058273652 -1.2329768862
N -2.6186128541 -1.8956310092 0.1112898751
Cl -3.2158134854 0.8051802251 1.3247985742
F -0.8151999563 2.4493277804 0.8151545754
H 3.5660463287 -0.0578875388 -1.9569774860
H 4.6078433875 1.5581397714 1.0075123183
H -2.4007561282 -2.8625597938 -0.0634738722
H -3.3737815307 -1.6970302942 0.7460404009
H 2.4405123057 1.2931546289 -1.6639998207
