40
CONF21
C -5.4230895677 -3.6988310802 0.4310217646
N -5.1774430353 -2.2980195898 0.0693477258
C -3.7855037518 -1.9142665950 0.3208850147
C -3.5627834879 -0.4486405561 -0.0386935653
C -2.1569080719 0.0389488849 0.2904758964
O -1.2631232880 -0.7541172150 -0.5278585789
C 0.0725367567 -0.6955719280 -0.2925727926
C 0.6703605142 0.0280151740 0.7439770475
C 2.0543571349 0.0010425129 0.8887459641
C 2.8426113961 -0.7329378010 0.0084113044
C 2.2412268522 -1.4578439966 -1.0264838809
C 0.8677044865 -1.4380040741 -1.1777373542
C 4.3248352099 -0.7931245883 0.1615650159
F 4.9723730338 -0.5819750346 -1.0177530307
F 4.7510624737 -2.0151498101 0.6010097636
F 4.8035644594 0.1172486102 1.0410019813
C -2.0007137654 1.5161066741 0.0095136971
C -2.1926246972 2.4398342703 1.0380407056
C -2.1075579456 3.8063742060 0.7835635435
C -1.8218258496 4.2602149514 -0.5027238369
C -1.6247253668 3.3407786336 -1.5316559531
C -1.7166111929 1.9744604007 -1.2782584502
H -5.1337006829 -3.9421099081 1.4686190743
H -4.8518371598 -4.3539926176 -0.2368187010
H -6.4850996693 -3.9321289358 0.3059154035
H -3.1395601829 -2.5517711415 -0.2952553591
H -3.4864824740 -2.0797704492 1.3746776528
H -3.7583088347 -0.2801493675 -1.1047880975
H -4.2628248234 0.1807526018 0.5250723557
H -1.9434827948 -0.1642591658 1.3492156971
H 0.0809170158 0.6177062933 1.4338290865
H 2.5109419538 0.5652634571 1.6940987952
H 2.8493265982 -2.0340235851 -1.7168089081
H 0.3873701395 -1.9913737990 -1.9777236697
H -2.4039329073 2.0859317148 2.0442381893
H -2.2559567125 4.5163114251 1.5914938911
H -1.7484893298 5.3248868180 -0.7015318043
H -1.3985406051 3.6882020958 -2.5351962404
H -1.5593211442 1.2602440049 -2.0809106760
H -5.7749622232 -1.7113324469 0.6453674610
