65
CONF320
C -4.7162389947 2.8393421509 -0.4673990668
C -3.3936013804 3.4621204319 -0.0263639209
C -2.1728435519 2.6717594207 -0.5073285868
C -0.8566860539 3.3643464352 -0.1211200467
C -2.1655887001 1.2832483376 0.0966799301
O -2.3703321342 1.0413357731 1.2721577861
O -1.8563433291 0.3475579697 -0.8196980865
C -1.7664860532 -1.0435785898 -0.3728690762
C -3.1331587176 -1.6959518642 -0.4889251045
C -3.0752350996 -3.1524013555 -0.0042956922
C -1.8597011352 -3.8458089220 -0.5444314830
C -0.8085416417 -3.2232153796 -1.1111712005
C -0.7479776278 -1.7164458614 -1.2766692952
C 0.6983530813 -1.2111091435 -1.0699944646
C 1.5716814431 -1.8570962207 -2.1677830020
C 1.4232197522 -3.3548187924 -2.1252805476
C 0.3365771839 -3.9623250585 -1.6190441813
C 3.0400587195 -1.4276402203 -2.1299765925
C 1.2000156055 -1.4910592966 0.3667923144
C 1.2762992933 -0.2540143283 1.2691597418
C 2.3501607794 0.7493631575 0.8913226394
C 2.3625768479 1.9775820727 1.7772957756
C 3.5269760583 2.8672880969 1.3785792104
C 4.8215757815 2.1041859834 1.5951061689
C 4.8077986196 0.6581425081 1.1589608915
O 5.8319638484 0.0120627225 1.0407346487
O 3.6359415354 0.0307491426 0.9627988656
O 3.6156125536 4.0553787333 2.1736006101
C -3.1293411396 -3.2616685803 1.5304303189
H -4.7704974856 2.7712454442 -1.5593339924
H -4.8347120172 1.8283491741 -0.0610276953
H -5.5659317775 3.4366418610 -0.1236184149
H -3.3097754968 4.4806846774 -0.4233912950
H -3.3547438711 3.5406169740 1.0665433729
H -2.2136738036 2.5660576820 -1.5969282030
H -0.8142498847 4.3563260676 -0.5801880940
H -0.7940013608 3.4820056715 0.9654358559
H 0.0108414901 2.7890476470 -0.4611102915
H -1.4298611044 -1.0465726542 0.6675832411
H -3.8683186253 -1.1309070514 0.0941173459
H -3.4401021262 -1.6658992420 -1.5415705839
H -3.9617569784 -3.6723378854 -0.3939235978
H -1.8350852990 -4.9318286887 -0.4530348024
H -1.0305760536 -1.4845324738 -2.3158565779
H 0.6978352772 -0.1278772340 -1.2471484930
H 1.1661121068 -1.5068867936 -3.1313953182
H 2.2422704797 -3.9548215954 -2.5184567986
H 0.2825135614 -5.0489154013 -1.5838253887
H 3.1242303611 -0.3358203097 -2.1499085966
H 3.5491688746 -1.7897436621 -1.2322431643
H 3.5708939829 -1.8275263408 -3.0001561381
H 0.5344797956 -2.2178663592 0.8483863818
H 2.1828453413 -1.9693510553 0.3428513657
H 0.3215509406 0.2869103436 1.2553644852
H 1.4494095977 -0.5628068949 2.3077210352
H 2.2407889286 1.0521525110 -0.1588304969
H 2.4554644281 1.6865540912 2.8318303174
H 1.4123875795 2.5057462780 1.6474194270
H 3.4256510101 3.1367671007 0.3154846894
H 5.0277992140 2.0779517711 2.6748201487
H 5.6761418277 2.5913195110 1.1186637494
H 2.8345420649 4.5919202826 1.9864434164
H -2.2888365103 -2.7320085905 1.9910136194
H -3.0776985400 -4.3089047191 1.8448387448
H -4.0618423605 -2.8330204543 1.9121620175
