35
CONF763
C -0.5950474901 1.8458363419 1.9888208004
C -1.6169578470 2.8303591052 1.4796973284
C -1.4912045495 3.2238103675 0.0283350427
Br 0.2162088122 4.2139493529 -0.2477628260
Br -3.4536062102 2.0399399428 1.6468677572
O -0.5940093574 0.6892290782 1.1167277797
P 0.6620378186 -0.2955477031 1.1309743361
O 1.2775016615 -0.5993083143 2.4452668926
O 1.6150670253 0.4327879715 0.0695401249
C 2.9663342215 -0.0480016236 -0.1219303610
C 3.8473231276 1.1127584494 -0.5100149892
C 3.3402053768 1.9879677397 -1.6295211809
Br 3.2339345201 0.9294882600 -3.3144324875
Br 4.0421387653 2.3480916555 1.0610087237
O 0.1072941807 -1.5428202192 0.2993642568
C -0.1944235455 -2.8205012067 0.9049592015
C -1.6706931521 -2.9813074417 1.1945407944
C -2.6143512257 -2.4529107001 0.1438131898
Br -2.3476272745 -3.4530940336 -1.5590958772
Br -2.1700815198 -1.9972872111 2.8740478496
H -0.8282888204 1.5322226509 3.0096537768
H 0.3878603741 2.3340643929 1.9744733640
H -1.6375989145 3.6995595219 2.1388583097
H -1.4444167006 2.3630395126 -0.6362632614
H -2.2718928508 3.9175425562 -0.2742053321
H 2.9627840130 -0.7777673049 -0.9402106190
H 3.3444075156 -0.5254426425 0.7862201808
H 4.8591978347 0.7507128432 -0.6988493479
H 2.3321570121 2.3559714702 -1.4474469344
H 4.0255983754 2.8032735797 -1.8491585256
H 0.0880713110 -3.5684226302 0.1580597088
H 0.4040377899 -2.9729483877 1.8060237158
H -1.8706717554 -4.0267241758 1.4363172214
H -2.4278819554 -1.4073656013 -0.0958044937
H -3.6551810736 -2.6189628965 0.4112683624
