60
CONF8
C 0.4390211044 -0.1370626469 -1.3725567887
C 1.3176089619 -0.7130795963 -2.4862875633
C 2.7063426162 -0.0618874046 -2.2449551635
C 2.5958208921 0.7317245684 -0.9196670076
O 2.2058612857 2.0935580144 -1.1359365684
C 3.8633166808 0.7187685254 -0.0898678788
O 4.6227251210 -0.2412694299 -0.0659539967
C 4.1187814216 1.9607857297 0.7415397411
O 5.3008545430 1.8630312370 1.5664785934
S 5.2850681937 0.7974051449 2.8087439291
O 6.0685329518 -0.4461652636 2.1681085203
O 3.8982574850 0.4404034825 3.0997668638
O 6.1559642862 1.3451032296 3.8318927281
C 1.4011339484 0.0085785135 -0.1733716918
C 1.8818219797 -1.3474404249 0.3635095213
C 0.7114697959 0.8341756265 0.9119837806
C -0.6640409514 0.2681436371 1.3175205251
O -0.5497516742 -0.9211570516 2.1143651531
C -1.5610716018 -0.0182705307 0.1035687276
C -0.8681796941 -0.8380852472 -1.0124834154
C -1.7618771404 -0.9343805355 -2.2557147185
C -3.1979055834 -1.4077876929 -1.9423582806
C -3.7323375572 -0.5194913458 -0.8682180335
C -4.6998840257 0.3901460079 -1.1232196083
C -5.0277611208 1.4877299982 -0.2232670015
O -5.9012780813 2.3134725999 -0.4998378290
C -4.1781138009 1.6135137383 1.0197650158
C -3.7255362530 0.2441699864 1.5123585773
C -2.9859230618 -0.5856799204 0.4492082792
C -2.9739220142 -2.0474058122 0.9517128236
H 0.1662218289 0.8862320928 -1.6681473587
H 0.9293249055 -0.4799825375 -3.4806989344
H 1.3806731047 -1.8036527180 -2.4050939489
H 3.4974243374 -0.8100067416 -2.1649906352
H 2.9892328923 0.6230280764 -3.0502722946
H 2.7182986185 2.4372387199 -1.8793432381
H 3.2363510014 2.2102615110 1.3406053229
H 4.3207077830 2.8073686941 0.0794138904
H 5.6614998640 -0.5803713541 1.2634421948
H 2.4845642724 -1.2074607862 1.2658559586
H 1.0295932170 -1.9683290854 0.6361247291
H 2.4906620068 -1.8879774804 -0.3644238445
H 1.3290461102 0.9066334831 1.8179568709
H 0.5502989811 1.8532348336 0.5449005889
H -1.1562482088 1.0490673204 1.9176797886
H 0.0821645659 -0.7364244467 2.8208696813
H -1.7385687169 0.9771718168 -0.3343550530
H -0.6524520799 -1.8519573348 -0.6544627220
H -1.3107413895 -1.6100214241 -2.9903964848
H -1.8214726796 0.0600247894 -2.7204173428
H -3.8165499100 -1.3469662455 -2.8423692989
H -3.1721108375 -2.4526734372 -1.6147953416
H -5.2084054999 0.3893900312 -2.0855153868
H -3.3154824472 2.2439191151 0.7583120798
H -4.7446204561 2.1533495768 1.7842468332
H -4.6170362511 -0.3261010181 1.8046007157
H -3.1089933876 0.3347921127 2.4115169052
H -3.9776002297 -2.4747059242 0.8469455550
H -2.6964836818 -2.0695456020 2.0060026482
H -2.2742964098 -2.6851563530 0.4099817824
