50
CONF161
C 0.2073164727 -0.1296471955 -2.5183333325
C -1.2531472864 -0.1401574691 -2.1358846955
C -2.0207383440 -1.4264807312 -2.0623496640
C -1.6900560648 -0.6643921755 -0.7638713435
C -0.7313117273 -1.2483983371 0.1798451215
O 0.1525410691 -2.0446787025 -0.0556024802
O -0.9733006832 -0.7681969476 1.4417227189
C -0.0723300372 -1.2720896962 2.4545643232
C -0.7446926281 -1.0199049399 3.7302867422
N -1.2342081195 -0.8280850177 4.7583289148
C 1.2833359371 -0.5932877968 2.4217396140
C 1.3549102801 0.7817158018 2.2132491020
C 2.6052156249 1.3936319616 2.2067101785
C 3.7671002912 0.6564565749 2.4277345826
C 3.6728561003 -0.7129526003 2.6452766278
C 2.4337191817 -1.3483515826 2.6350988382
O 2.7528740486 2.7559467806 2.0568630425
C 1.8558780357 3.4357770764 1.2423723751
C 1.5986565270 3.0030793784 -0.0561262082
C 0.7525473043 3.7583541469 -0.8617678868
C 0.1755231985 4.9319974843 -0.3776980312
C 0.4515633950 5.3525217863 0.9210830706
C 1.2931301304 4.6039851136 1.7412756862
C -1.3782737990 -2.7167019399 -2.3729916388
C -1.9108813699 -3.9328638135 -2.2356459599
C -3.2340948730 -4.2929094927 -1.6212567652
F -3.8276356037 -3.2345532846 -1.0349332393
F -3.0965014303 -5.2461435347 -0.6689002834
F -4.1025648577 -4.7843823217 -2.5410248017
Cl -1.0438712396 -5.3543039112 -2.7921162795
C -2.0171303866 1.0752368138 -2.6153686389
H 0.6633656179 0.8061344992 -2.1806953392
H 0.7741870471 -0.9548380120 -2.0869185399
H 0.2974367773 -0.1732981800 -3.6092362413
H -3.0752583896 -1.3597684693 -2.3089081062
H -2.5195714933 -0.1421245195 -0.3001938214
H 0.0507955434 -2.3553120740 2.3371810161
H 0.4544887879 1.3665305150 2.0575542808
H 4.7265564298 1.1625058705 2.4220091814
H 4.5758362742 -1.2920634448 2.8079862341
H 2.3618122010 -2.4205730530 2.7863238335
H 2.0607716064 2.0933243573 -0.4261674434
H 0.5542372713 3.4324777410 -1.8781862430
H -0.4815347783 5.5172404027 -1.0124462304
H 0.0078561571 6.2659824064 1.3043561602
H 1.5170990784 4.9148038830 2.7563403069
H -0.3823106845 -2.6824245878 -2.8041225292
H -3.0755161821 1.0161788555 -2.3473265323
H -1.5972308178 1.9855353859 -2.1747375467
H -1.9394496614 1.1544674008 -3.7050921240
