31
CONF15
C 5.3183202755 -0.2008134386 1.5581461960
O 3.9938296425 -0.4851332992 1.0402804268
C 3.3760736994 0.5580618341 0.4703082508
O 3.7745402484 1.6988710985 0.4749903589
C 2.0412713106 0.1508413724 -0.0823663945
C 1.8794299489 -0.6889739890 -1.1896239389
C 0.6171172589 -1.0625138585 -1.6360992799
C -0.5118389325 -0.5912971916 -0.9877165382
C -0.3558839852 0.2576914880 0.1084466995
C 0.9109697654 0.6281271730 0.5609855545
O -1.4061648498 0.7643951350 0.8245636696
C -2.6895522696 0.5628842133 0.3507027679
C -3.2063647091 1.3531685302 -0.6778939158
C -4.5208393145 1.1885948514 -1.0992517786
C -5.3043768780 0.2280071737 -0.4705259344
C -4.8101757544 -0.5630568965 0.5604671258
C -3.4927739312 -0.3877823062 0.9652671740
Cl -6.9609140820 0.0182308379 -0.9957132644
Cl -2.2012706031 2.5540443135 -1.4375964647
N 3.0456205003 -1.1423531451 -1.9439732464
O 4.1029289681 -0.5392468923 -1.7720170578
O 2.9006197210 -2.0819253180 -2.7193385666
H 5.6739920461 -1.1440606179 1.9698173757
H 5.2630498601 0.5671587821 2.3329418692
H 5.9646818715 0.1377183754 0.7448168697
H 0.5291410167 -1.7059965274 -2.5026312571
H -1.4985427675 -0.8715012463 -1.3369559412
H 1.0011066682 1.2835812443 1.4200588086
H -4.9208793445 1.8027363749 -1.8964478083
H -5.4409071308 -1.3029868621 1.0378616215
H -3.0722088474 -0.9864712142 1.7659966160
