51
CONF50
C 0.0987865949 -0.8623434548 1.9745455681
C 0.7065965289 0.5224662105 2.1601814817
N 0.4643120251 1.3596006771 0.9785608296
C -0.9769563198 1.5318768451 0.7704392331
C -1.6592555970 0.1880779235 0.5380840090
C -1.4051239540 -0.7545288986 1.7341589772
C -2.0511717338 -2.0993679642 1.4673886117
O -1.3772508766 -3.0665912107 1.1302423270
C -3.5356473420 -2.2246016719 1.5729482309
C -4.1338508014 -3.4122552873 1.1265158910
C -5.5053906061 -3.5958373137 1.2021896680
C -6.2718388579 -2.5700044901 1.7362492493
C -5.7264678608 -1.3806664503 2.1908469811
C -4.3498614404 -1.2144459649 2.1036198131
F -7.6108561699 -2.7389542209 1.8157998125
C 1.1391502681 2.6517023241 1.0810904945
C 2.6417181928 2.5647715753 0.8061374714
N 2.9184694639 2.0149595329 -0.5305878360
C 3.2650743576 0.6608702382 -0.6405712101
O 3.4329518148 -0.0348919594 0.3554832895
C 3.4218445463 0.1560019965 -2.0063946339
C 3.7442155927 -1.1872411616 -2.2331802081
C 3.8964420964 -1.6607250227 -3.5244046700
C 3.7280593947 -0.7878928209 -4.6070822512
C 3.4085977305 0.5444625769 -4.4054347068
C 3.2534773804 1.0186561838 -3.0975303653
N 2.9363091242 2.3385568900 -2.8529868797
C 2.7488607779 2.8854886540 -1.6089342466
O 2.4556828369 4.0670406837 -1.4593768285
H 0.5749569527 -1.3552208880 1.1201045733
H 0.2981045893 -1.4746239368 2.8608444448
H 1.7858071278 0.4249835895 2.3080505340
H 0.2834279010 0.9997326280 3.0685927346
H -1.1289175274 2.1736019738 -0.1052377022
H -1.4527943362 2.0352347875 1.6378297102
H -1.2549775681 -0.2756532290 -0.3707878820
H -2.7311773377 0.3482203787 0.3830008187
H -3.5034176291 -4.1923880800 0.7146015475
H -5.9808308397 -4.5074962197 0.8573135395
H -6.3678081086 -0.6095497960 2.6027523455
H -3.9210368889 -0.2855683263 2.4607144360
H 0.6930782649 3.3322114155 0.3481739374
H 1.0083400122 3.1169979791 2.0777472190
H 3.1484415037 1.9214842253 1.5252236377
H 3.0745038052 3.5658875473 0.8634082106
H 4.1451951062 -2.7016528801 -3.6989280386
H 3.8480480314 -1.1560970067 -5.6210000596
H 3.2777745685 1.2211330812 -5.2440283394
H 2.8158635799 2.9756268799 -3.6283879593
H -1.8698216152 -0.3042531103 2.6220233437
H 3.8697022219 -1.8391358650 -1.3757107775
