22
CONF1
C 3.5223189640 -0.6181653609 -0.1115073170
C 2.6271973357 0.2343700693 -1.0240693018
C 1.2258829604 0.2101623377 -0.6218209538
C 0.0698960361 0.1690595944 -0.2643486389
C -1.3349191462 0.1224906472 0.1577383054
C -1.7420469153 1.4877695297 0.7446166672
C -2.2244616914 -0.2009289595 -1.0585190712
C -1.5113517598 -0.9713681192 1.2287461931
H 3.4790482305 -0.2560018088 0.9193327767
H 4.5602639176 -0.5705339998 -0.4530297337
H 3.2008540334 -1.6632664851 -0.1225997009
H 2.9849534445 1.2714717200 -1.0254406589
H 2.7117649817 -0.1211642670 -2.0585087619
H -1.1246561351 1.7362313323 1.6130843404
H -1.6289715088 2.2793899171 -0.0021240279
H -2.7902811630 1.4529391055 1.0602934056
H -2.1174529575 0.5661995940 -1.8312403331
H -3.2736726210 -0.2381781074 -0.7463353176
H -1.9534591521 -1.1699082323 -1.4881079077
H -1.2336805783 -1.9515470719 0.8297503789
H -2.5588879742 -1.0076542526 1.5466709436
H -0.8883375972 -0.7613668708 2.1033001009
