57
CONF124
C -3.4472565648 -0.1910271468 -4.2377538224
C -3.6994913592 0.1611363850 -2.7662007958
C -2.4318637867 0.2710781957 -1.9530069492
C -2.1377128370 -0.5401599676 -0.9043350798
C -2.9586288226 -1.7295234248 -0.5570218750
C -3.2282748024 -2.7338297740 -1.4953588495
C -3.9750215229 -3.8555680789 -1.1451257714
C -4.4662685075 -3.9940306201 0.1510924976
C -4.1959661798 -3.0064490269 1.0980009616
C -3.4408136853 -1.8918638453 0.7495550583
C -0.9940496201 -0.2901539097 0.0084209037
C -0.1472573964 -1.3351247014 0.3895071407
C 0.9374976961 -1.1320766210 1.2395525172
C 1.1792671875 0.1473154948 1.7489698497
C 0.3230861700 1.2014900782 1.4045069113
C -0.7422888510 0.9808188460 0.5485766169
O 2.2008396984 0.4656409326 2.5917504807
C 3.1195296009 -0.5779208896 2.9588226245
C 4.1555824272 0.0107495289 3.8923913381
N 4.9626175053 1.0825479787 3.3023237122
C 5.7870052962 1.6983880771 4.3447540133
C 5.8211249054 0.5847119126 2.2253977512
C -1.4992629596 1.3388952899 -2.3946229986
C -0.1647679727 1.0296050783 -2.6931618551
C 0.7143588695 2.0098386145 -3.1395783610
C 0.2768383044 3.3243678850 -3.2977356805
C -1.0502049145 3.6431701912 -3.0169935944
C -1.9322470123 2.6584505284 -2.5803759458
H -2.8122258015 0.5606029048 -4.7172326050
H -4.3918772424 -0.2393544601 -4.7879304864
H -2.9465777735 -1.1602258386 -4.3284706658
H -4.2137005800 1.1310444763 -2.7260528073
H -4.3743694096 -0.5694027232 -2.3144242759
H -2.8331494384 -2.6395889201 -2.5020204038
H -4.1667328002 -4.6266773713 -1.8853292611
H -5.0484212731 -4.8685171000 0.4246564112
H -4.5721711484 -3.1072956794 2.1116566545
H -3.2231177155 -1.1297984009 1.4925528708
H -0.3286682874 -2.3341368385 0.0027979599
H 1.5738164650 -1.9704139912 1.4952033656
H 0.5053799538 2.1856230416 1.8250000269
H -1.3994985070 1.8062789250 0.2944282375
H 2.5837474111 -1.3786854249 3.4862093188
H 3.5722561940 -1.0059704636 2.0557727764
H 4.7873551776 -0.8296760035 4.2467655545
H 3.6391219553 0.4181922779 4.7699346724
H 5.1462515803 2.1013800161 5.1360516862
H 6.3675053923 2.5220519477 3.9167592058
H 6.4943096836 0.9811724627 4.8048029750
H 6.4350660728 1.4072534800 1.8455199526
H 5.2216940277 0.2055311034 1.3928186648
H 6.4975289118 -0.2239437314 2.5645782029
H 0.1772280570 0.0064572677 -2.5701885211
H 1.7428208430 1.7471071826 -3.3689041661
H 0.9625148010 4.0918520365 -3.6430123539
H -1.4014171569 4.6637213137 -3.1372433768
H -2.9610420630 2.9249421032 -2.3570508981
