45
CONF41
C -7.7530635308 -0.0167299979 0.0638813493
C -8.9562895636 -0.1389265622 1.0038981464
O -9.1345910571 0.9608376060 1.8825069195
C -6.4278910424 0.1325763586 0.7888887710
C -5.2021016061 -0.0539493953 -0.1604966623
C -3.8054337948 -0.1319188632 0.5482300440
C -2.6022882455 0.1271120394 -0.4284699335
C -1.2286144712 -0.3804386956 0.1405722785
C 0.0088035828 0.2601267641 -0.5847900655
C 1.3386789392 -0.5427188515 -0.3512807169
C 2.6253034060 0.2976845658 -0.6770557374
C 3.9010036136 -0.5937028621 -0.8888124368
C 5.2407764414 0.2155009017 -0.7678459482
C 6.4647252404 -0.5230563358 -1.4086709422
C 7.8530192926 0.0287470850 -0.9447664626
F 7.8867273801 1.3636400072 -1.0624522580
F 8.1042947213 -0.3071460217 0.3243608364
F 8.8063438266 -0.4993102614 -1.7236234561
F 6.4006149956 -0.3928581978 -2.7503216819
F 6.4187044714 -1.8362713443 -1.0851946639
F 5.5010126398 0.4295616226 0.5414597801
F 5.0923082654 1.4076641512 -1.3885079561
F 3.9084237270 -1.5740576213 0.0416398680
F 3.8400383240 -1.1478432202 -2.1201008339
F 2.4064030163 1.0076229706 -1.8062551261
F 2.8570066275 1.1483889872 0.3472770260
F 1.3936329833 -0.9280170488 0.9428104063
F 1.3265186511 -1.6384834598 -1.1429549924
F -0.2387077063 0.3034701034 -1.9128653592
F 0.1776527983 1.5183530752 -0.1202775989
F -1.1688383180 -1.7229704825 -0.0092354523
F -1.1589905803 -0.0749336120 1.4548155604
F -2.5106397210 1.4575940916 -0.6551226643
F -2.8391114265 -0.5069102696 -1.5989492369
F -3.6663266238 -1.3686507897 1.0813793476
F -3.7480972792 0.7829178756 1.5384352883
F -5.3730674600 -1.2054005131 -0.8611305492
F -5.1968762767 0.9848892616 -1.0382542528
F -6.3266022567 1.3694452699 1.3531630021
F -6.3096227884 -0.7957341414 1.7867576703
H -7.8615959696 0.8424474777 -0.6077865068
H -7.7125891696 -0.9161603115 -0.5583778879
H -9.8480819933 -0.3060824354 0.3798956332
H -8.8342890177 -1.0148088633 1.6468366864
H -9.2253960530 1.7653399274 1.3596251226
