19
CONF26
C -2.9160787089 -0.6460874736 -0.3308634054
C -1.7367669892 0.2728905512 -0.2196219097
C -1.8319370096 1.5573342106 0.1416011702
C -0.4196245262 -0.3533892918 -0.5316735518
O -0.3015015832 -1.5337896364 -0.8096951181
O 0.6049713932 0.5213921745 -0.4860133672
C 1.9514542568 0.0173701888 -0.6890967269
C 2.6948900751 0.0107572489 0.6224271910
O 2.1072504448 -0.9798154801 1.4725345389
H -3.8385337742 -0.1144058404 -0.0902159094
H -2.9942662775 -1.0565151268 -1.3429553346
H -2.8080899179 -1.4981381230 0.3481307991
H -0.9599123397 2.1957617364 0.2190512868
H -2.7999527017 1.9928640832 0.3709250857
H 2.4322891363 0.7100433857 -1.3847674985
H 1.9088053063 -0.9824802494 -1.1270785003
H 3.7495920324 -0.2196031413 0.4088256437
H 2.6434140858 1.0063098801 1.0848083888
H 2.5139979862 -0.9004993931 2.3436771064
