38
CONF46
C 2.9353222418 -0.9432718513 -1.2689745099
C 2.2779715944 -0.2298358206 -0.0916886645
C 2.8288998229 1.1910237324 0.0664570448
N 2.4526024558 -1.0515025227 1.1247696075
C 1.5817100539 -0.6966679394 2.2551846535
C 0.4482744441 -1.7193265047 2.3863769318
O 0.9870522291 -3.0349708358 2.5202158345
C -0.4979786985 -1.7281238607 1.1902962627
O -1.0243688476 -0.4055379150 1.0308103056
C -1.7494881558 -0.1422829611 -0.0936319860
C -2.1602385014 -1.0904094920 -1.0232867575
C -2.9088377869 -0.7024689290 -2.1531105785
C -3.2630211321 0.6151346186 -2.3879846977
C -2.8401434539 1.5562558826 -1.4442441797
N -3.0222299229 2.9192747925 -1.4011040267
C -2.4113533274 3.4327592673 -0.2758292573
C -1.8244043001 2.4126868938 0.4285805070
C -2.0854113731 1.2088131187 -0.2971274509
H 2.4968951773 -1.9344972823 -1.4171194073
H 2.8139731613 -0.3646728995 -2.1898818927
H 4.0099406062 -1.0674525772 -1.0881205850
H 1.1993312497 -0.1612825877 -0.2807297939
H 3.9158630145 1.1606159349 0.2113827699
H 2.3813016843 1.7030276913 0.9240619950
H 2.6221560060 1.7907175341 -0.8261332326
H 3.4246553906 -0.9969922025 1.4081428035
H 2.1586827702 -0.7288186021 3.1865310239
H 1.1560597050 0.3126438250 2.1662187802
H -0.1205612373 -1.5091903581 3.3002368180
H 1.6944848418 -3.0715966005 1.8538364426
H 0.0530177632 -2.0314756169 0.2880983288
H -1.3087357278 -2.4476642982 1.3646100261
H -1.9205571311 -2.1378659317 -0.8887647815
H -3.2155941018 -1.4698800072 -2.8567128280
H -3.8393440648 0.9016449135 -3.2610349258
H -3.5228475597 3.4591553421 -2.0863443566
H -2.4463934028 4.4924306885 -0.0676165227
H -1.2766855984 2.5096038744 1.3532991868
