41
CONF125
C 2.5996493503 -2.1244280559 0.1461470093
C 3.1467997028 -0.7347785078 0.3709736567
O 2.4787496420 -0.2026919015 1.5473897350
C 2.7451298992 1.0947874172 1.8383344974
O 3.5289949754 1.7972135418 1.2144561122
N 2.0402966461 1.4922745525 2.9311962938
C 1.8875616043 2.9073869514 3.2474829872
C 1.0961804981 3.6808178706 2.1956113234
O -0.2038411006 3.0905168504 1.9939061448
C -0.3029240708 2.0579030362 1.0878869598
C 0.3105255948 2.0728360255 -0.1657744894
C 0.1315431451 1.0004858433 -1.0360566437
C -0.6585314123 -0.0762505049 -0.6571854866
C -1.2901606518 -0.0907272847 0.5840443970
C -1.1133230143 0.9795528897 1.4511068064
O -0.7144418721 -1.1657049476 -1.5169317703
C -1.9397238237 -1.7376902228 -1.7992416490
C -1.9311045322 -3.0971675781 -2.1040416903
C -3.1207060261 -3.7231272077 -2.4626449816
C -4.3126923461 -3.0021274433 -2.5102157934
C -4.3043700616 -1.6427927502 -2.2038376671
C -3.1211742332 -0.9994903595 -1.8497455580
H 3.0700952293 -2.5583641917 -0.7409997213
H 1.5184471014 -2.0920711174 -0.0174628785
H 2.8101252498 -2.7727797484 1.0014729596
H 2.9384853415 -0.0754636139 -0.4775803128
H 4.2269233439 -0.7438941967 0.5516742820
H 1.3074099879 0.8699728699 3.2383150880
H 2.8741395611 3.3735367615 3.3513929564
H 1.3807807614 2.9687387504 4.2144835650
H 0.9151759850 4.6989004348 2.5518027786
H 1.6541501046 3.7356196372 1.2577409614
H 0.9210119045 2.9109533898 -0.4809584397
H 0.6058318022 0.9983094585 -2.0120424408
H -1.9025309777 -0.9377281806 0.8758936590
H -1.5828736158 0.9792852497 2.4296633164
H -0.9955655727 -3.6452401644 -2.0588319232
H -3.1142856411 -4.7825527097 -2.6996630648
H -5.2394067268 -3.4945459224 -2.7854370049
H -5.2255874649 -1.0697462367 -2.2462353148
H -3.1147632919 0.0602714001 -1.6189301603
