88
CONF17
C 1.7426127998 0.8859316423 0.4994575648
C 0.2557814992 0.8152444332 0.1408493975
C -0.5198603162 0.0513379169 1.2059533819
O -1.8980524685 -0.1192644130 0.7891755843
C -2.7427967048 0.9211549436 1.0402686747
O -2.3998114303 1.9528338156 1.5824272940
C -4.0901851237 0.5976078991 0.5610306341
C -5.0919123325 1.4840366494 0.7061545093
C -6.4741358853 1.3346488662 0.2928267806
C -6.9504873604 0.1798760577 -0.3450062718
C -8.2823147366 0.0942679054 -0.7300000443
O -8.8355569369 -0.9730854496 -1.3626032118
C -7.9878512727 -2.0857249447 -1.6291164736
C -9.1734888502 1.1590246281 -0.4765333125
O -10.4721037413 0.9861833776 -0.8333531145
C -11.0809185895 2.0046525830 -1.6470191148
C -8.6971949258 2.3016383929 0.1863913175
O -9.6304575484 3.2618124277 0.4465835469
C -9.1957398429 4.4318594388 1.1345419187
C -7.3562929833 2.3917677079 0.5531675171
C 0.0251856426 -1.3513209268 1.4410581521
O -0.6075665377 -1.9441649259 2.5742982564
C -1.5643766666 -2.9496951450 2.2531769261
C 1.5204685682 -1.2926632536 1.7548219365
C 2.0613955036 -2.6975262284 1.9049409943
O 1.6092250462 -3.6917636962 1.3839713674
O 3.1896276332 -2.6974947209 2.6537008104
C 3.8118896417 -3.9891586248 2.8167602022
C 2.3441825533 -0.5145121130 0.7023232566
C 2.4473381167 -1.2401618988 -0.6408222585
C 3.2229881978 -0.4221654838 -1.6756571814
N 2.6377972657 0.9270101594 -1.8175489721
C 3.3973534043 1.6974547618 -2.8131950423
C 4.8632607550 1.9907138439 -2.4149876519
C 5.4530579653 0.7886822216 -1.7538552789
C 4.6956479219 -0.2972535401 -1.4043674614
N 5.5027654618 -1.2455821624 -0.7914667277
C 6.7928786821 -0.7649586964 -0.7219699556
C 6.7960753786 0.5246065328 -1.3242339606
C 8.0008127332 1.2263094323 -1.3791438122
C 9.1554825804 0.6622160507 -0.8487267792
C 9.1187222457 -0.6142807306 -0.2569942256
O 10.2141498521 -1.2335558294 0.2883875800
C 11.4515403161 -0.5355029940 0.2557952448
C 7.9342181261 -1.3454748808 -0.1877185509
C 2.5699110371 1.6440128429 -0.5378782937
H 1.8367456008 1.4335170148 1.4484355984
H -0.1562418871 1.8266061017 0.0632914372
H 0.1144074973 0.3339674814 -0.8324465533
H -0.5130248227 0.6004770045 2.1553637330
H -4.2221459368 -0.3729255622 0.0955225110
H -4.8349471557 2.4253023169 1.1901676765
H -6.2709317674 -0.6353516214 -0.5505461031
H -8.6189958316 -2.8245222245 -2.1244487647
H -7.1599469519 -1.8080759805 -2.2947906926
H -7.5861083840 -2.5125699577 -0.7009222082
H -11.8591455908 1.4985325906 -2.2226136290
H -11.5213546240 2.7917708167 -1.0299004754
H -10.3459342394 2.4426661100 -2.3314968984
H -8.4378919103 4.9767989224 0.5573243861
H -8.7962882454 4.1841505177 2.1260805363
H -10.0838195684 5.0550607095 1.2469158658
H -6.9797009649 3.2702473472 1.0617854271
H -0.1449054658 -1.9691236235 0.5482479864
H -1.0922766552 -3.7750988995 1.7026451623
H -1.9481954770 -3.3256382057 3.2047727640
H -2.3972500924 -2.5407215038 1.6664880740
H 1.6404331360 -0.7822692649 2.7186994588
H 3.1320685054 -4.6747175764 3.3291081841
H 4.7038981965 -3.8097884223 3.4164906143
H 4.0761591677 -4.4143301416 1.8444173541
H 3.3602907082 -0.3922575244 1.1014565013
H 1.4521216017 -1.4418573531 -1.0480638987
H 2.9194558629 -2.2224712186 -0.5176491183
H 3.0872974919 -0.9211568794 -2.6487307394
H 2.8635857489 2.6359132090 -3.0053228493
H 3.3879732987 1.1196484972 -3.7462237911
H 4.9190355343 2.8624296060 -1.7468499924
H 5.4275727987 2.2653514438 -3.3156140982
H 5.1902600922 -2.1214418563 -0.4121886601
H 8.0438910147 2.2118124684 -1.8331282359
H 10.0830083729 1.2179723023 -0.8979666267
H 12.1768142544 -1.1921800271 0.7391216233
H 11.7749387953 -0.3358070604 -0.7747309118
H 11.3947730984 0.4112178691 0.8097050385
H 7.9366980261 -2.3275573878 0.2727580822
H 2.1126584095 2.6227496065 -0.7332370701
H 3.5717535730 1.8270961909 -0.1077919460
