33
CONF525
C 5.9652282319 -3.1956088303 -1.2706005151
C 4.5761364023 -2.7825941801 -0.8026817326
C 4.4374690343 -1.3350298812 -0.4121938923
C 5.4235364342 -0.4319726901 -0.4588805270
C 3.0711076801 -0.9541711679 0.0412057841
O 2.1328723901 -1.7300763522 0.0728851941
O 2.9694177593 0.3419608264 0.4191857403
C 1.6622756608 0.7808934742 0.8562674173
C 0.8176481876 1.1164779949 -0.3706907395
C -0.4799528252 1.8239519717 -0.0591029401
C -1.4633389762 1.0291756739 0.8556281622
C -2.9448077674 1.5299024057 0.8313298454
C -3.8058823754 1.0441454963 2.0433374510
F -3.6613781280 -0.2766991217 2.2235144804
F -3.4543675626 1.6807980892 3.1664173839
F -5.0965801534 1.3068360356 1.7924927290
F -2.9729644534 2.8833526162 0.8342118466
F -3.5394594395 1.0801302601 -0.2965012372
F -1.4579324920 -0.2713901708 0.4695293066
F -1.0061630444 1.0954778277 2.1348752995
F -1.1424028476 2.0873054127 -1.2319570549
F -0.2422645439 3.0281480711 0.5476762178
H 6.2741033825 -2.6309660221 -2.1563581570
H 5.9694170277 -4.2575506038 -1.5305876431
H 6.7151426195 -3.0373292086 -0.4887091019
H 3.8361019536 -2.9959311879 -1.5846043929
H 4.2689281812 -3.3969345180 0.0534906571
H 5.2617053031 0.5986927498 -0.1671558321
H 6.4182606077 -0.7053269174 -0.7934069005
H 1.8534712433 1.6680488686 1.4622744708
H 1.2067650661 0.0010539898 1.4700942870
H 1.3743668629 1.8024207390 -1.0187216111
H 0.5882834575 0.2122958075 -0.9396191798
