46
CONF140
C -4.5442433701 -1.4499178834 0.9229438349
C -3.3423930250 -1.9642077872 1.6831896043
C -1.9750221724 -2.0098639444 1.0383735695
C -2.2767662429 -1.0339460943 2.2161862446
C -2.1992068667 0.4109309507 1.9319819627
O -2.7826461854 1.0259384604 1.0608517402
O -1.2951887514 0.9938807128 2.7646473751
C -0.8875430430 2.3331087238 2.3825622361
C -0.0999052636 2.3133338227 1.0967463207
C 0.7369353453 1.2371617457 0.8071249214
C 1.4440184256 1.2142880127 -0.3907180031
C 1.3407742185 2.2591695842 -1.3074676626
C 0.5191280591 3.3387193458 -0.9972141475
C -0.2036750145 3.3707675110 0.1925898586
O 2.1789444285 0.0717397525 -0.6356416765
C 3.3021138371 0.1420211226 -1.4447525881
C 4.2808516580 1.1139615583 -1.2489655306
C 5.4237006112 1.0891834197 -2.0423124049
C 5.5928373647 0.1011674858 -3.0116061483
C 4.6092243978 -0.8696370717 -3.1851640925
C 3.4558100004 -0.8522432773 -2.4046790357
C -1.7240384565 -1.4776271214 -0.2998174337
C -0.7794910828 -1.9103496365 -1.1361592385
Cl -0.5572629416 -1.2114503399 -2.7197620612
Cl 0.3349839622 -3.2020359038 -0.7803314972
C -3.6705002984 -3.1321683342 2.5915598564
H -4.3161920635 -0.6119554153 0.2676674193
H -4.9638041657 -2.2663316626 0.3252663281
H -5.3115803807 -1.1234034818 1.6327961782
H -1.3414186779 -2.8384016229 1.3377847157
H -1.8013316184 -1.3231126725 3.1475136640
H -0.2737220026 2.6715816130 3.2217620008
H -1.7624214334 2.9820428667 2.2906016261
H 0.8319817428 0.4001913986 1.4913920889
H 1.8815332846 2.2250636946 -2.2465455981
H 0.4244102052 4.1536336981 -1.7081242797
H -0.8633764648 4.2056726745 0.4087517394
H 4.1476353378 1.8754300610 -0.4874905253
H 6.1904345350 1.8432368676 -1.8938354943
H 6.4880697779 0.0869654332 -3.6244619977
H 4.7333701690 -1.6443368625 -3.9353460395
H 2.6774629214 -1.5978155680 -2.5275998776
H -2.3360195355 -0.6553649137 -0.6546752240
H -4.0816523268 -3.9592563919 2.0031094806
H -4.4202397676 -2.8333419621 3.3321348117
H -2.7845778502 -3.4924225683 3.1221565711
