47
CONF192
C -3.0549233150 1.5778244247 4.5548115681
C -3.9336822187 2.0197394051 3.3863885781
C -3.1862610682 1.9644240213 2.0528349652
C -4.0722303397 2.4177115849 0.9085104515
O -3.3321242704 2.3944732492 -0.3545452001
C -3.2739217256 1.2230711359 -0.9986824201
O -3.8020572635 0.1935605269 -0.6376610659
C -2.4827412588 1.3778725895 -2.2984515713
C -3.4149613363 1.8370817139 -3.4099204207
O -1.9425677235 0.1197433654 -2.7016717496
C -0.9503436676 -0.4328625777 -1.9358180806
C -0.4187511923 0.1508265557 -0.7829349936
C 0.5950071268 -0.5049320734 -0.0862132522
C 1.0670338049 -1.7215291186 -0.5466288495
C 0.5431773853 -2.3134375027 -1.6883626678
C -0.4689882878 -1.6672722787 -2.3828999459
O 2.0335788060 -2.4156767265 0.1963238908
C 3.3432857301 -2.1141166481 -0.0067978562
C 4.2648018005 -2.7965558848 0.8010434002
C 5.6002172125 -2.5146196667 0.6212351687
C 5.9710288788 -1.5723170002 -0.3479996974
C 4.9782915148 -0.9576189123 -1.0952617256
N 3.6749712862 -1.2237382534 -0.9292728454
C 7.4145115124 -1.2523474714 -0.5470027827
F 8.1377728447 -2.3528109237 -0.8916639181
F 7.9879878875 -0.7699616567 0.5900938563
F 7.6171231227 -0.3288350973 -1.5122504150
H -2.7049867505 0.5497496329 4.4114913532
H -2.1738550365 2.2223055018 4.6453214768
H -3.6030029462 1.6197125870 5.5009544206
H -4.8234818580 1.3798365462 3.3292552185
H -4.2931583570 3.0424582163 3.5588757581
H -2.2982066581 2.6072005394 2.0964001741
H -2.8419113626 0.9403911362 1.8632835879
H -4.3735163393 3.4612760286 1.0241353825
H -4.9604707194 1.7878294651 0.8082783844
H -1.6788164106 2.1099926607 -2.1512908537
H -4.2189672333 1.1098707580 -3.5533094993
H -2.8500784058 1.9385890933 -4.3395971964
H -3.8494948782 2.8060732095 -3.1533111221
H -0.7711898064 1.1044988517 -0.4077765980
H 1.0159143371 -0.0634661406 0.8112233782
H 0.9263039686 -3.2701060068 -2.0278075188
H -0.8966927673 -2.1086285013 -3.2769833231
H 3.9219884537 -3.5143239913 1.5366347380
H 6.3519419618 -3.0147736233 1.2238262151
H 5.2264445674 -0.2233828381 -1.8568071060
