41
CONF39
C -4.0671497147 -1.7261094557 -0.7508477943
C -3.7751977211 -0.3722056028 -0.1051755857
C -3.2968809122 -0.5552710133 1.3371446105
C -2.7696660950 0.4689038178 -0.9374551212
C -2.5333472274 1.8243199570 -0.2546593414
O -3.3416664217 2.6988682348 -0.0132396842
N -1.1808624258 1.8519289378 0.0282469193
C -0.6020253175 0.6719815470 -0.3902191940
N -1.4350907574 -0.1436074762 -0.9425210304
C 0.8435022794 0.4534238734 -0.2054142142
C 1.5605597625 -0.7309011450 -0.4998462315
C 2.9391739595 -0.6860276875 -0.2674023790
C 3.5648792305 0.4512628676 0.2177048333
C 2.7544336894 1.5511207136 0.5002890874
N 1.4429330480 1.5483414099 0.2968970291
C 5.0603359410 0.5089084889 0.4166399224
O 5.4482337626 1.3387078723 1.5012088912
C 5.1485989169 0.7471443148 2.7687803534
C 1.0676086143 -2.0857927556 -1.0063862539
O 1.8534986436 -3.0229359453 -1.0278729600
O -0.1672569039 -2.2332104720 -1.4231533620
C -3.2383947076 0.7164191918 -2.3756045906
H -3.1521898356 -2.3214510482 -0.8428349933
H -4.5178838115 -1.6264132982 -1.7410458281
H -4.7664499947 -2.2841972695 -0.1209234534
H -4.6962502649 0.2258666139 -0.0960021398
H -4.0560432857 -1.0923278401 1.9128447700
H -3.1169079806 0.4020810487 1.8373531016
H -2.3729121782 -1.1429575741 1.3706846374
H -0.6702580756 2.6069209957 0.4653713874
H 3.5156883410 -1.5814037855 -0.4729337120
H 3.1850004593 2.4612238685 0.9122929594
H 5.5221767571 0.9425198130 -0.4788985654
H 5.4547191964 -0.5114644456 0.5391504216
H 4.0686042997 0.5904958825 2.8976523408
H 5.6649393778 -0.2167870043 2.8788727571
H 5.5034693008 1.4408922908 3.5332910560
H -0.7816221019 -1.3754717335 -1.2855288248
H -3.2661307642 -0.2223358050 -2.9315081226
H -4.2385553859 1.1582137719 -2.3593364756
H -2.5556130880 1.4019662532 -2.8856154056
