52
CONF3
C 1.2764742902 0.5437168254 -1.6901478032
C 1.5601800940 0.1595272846 -0.2317731556
C 1.1168518406 1.2567029940 0.7569269461
C -0.2614922615 1.0086482828 1.3572268904
O -0.5471017684 1.4174341350 2.4696344299
C -1.2035347715 0.2482859285 0.4481982795
C -0.6437602433 -1.1847342828 0.2084280591
C 0.8997502047 -1.1720381742 0.1996104865
C 1.6499628120 -2.2453415373 -0.5890518550
C 3.0979106493 -1.6988374144 -0.6833021588
C 3.0759506610 -0.2682547141 -0.0937353184
C 4.0148252213 0.6971961657 -0.8048350570
O 4.3018249101 0.5996798439 -1.9881332651
C 4.5857451407 1.8441392309 -0.0005188582
O 5.3037939054 2.7426321483 -0.8220883265
O 3.3875158665 -0.2676537801 1.3054097358
C -1.3582836437 -1.7991634188 -0.9924192146
C -2.8779251616 -1.8220319481 -0.7308105593
C -3.3923437330 -0.4605518532 -0.3714970096
C -4.3566735541 0.1358567701 -1.1016423218
C -4.8283995407 1.4896319477 -0.8422148178
O -5.7324736243 2.0080354524 -1.5169323975
C -4.1701636385 2.2145171503 0.2448475036
C -3.2081057392 1.6430268103 0.9821226617
C -2.7286773742 0.2357254517 0.7976824421
C -3.0489375177 -0.5189224877 2.1159819286
H 0.2091715677 0.6792914322 -1.8664581215
H 1.6333355336 -0.2150817711 -2.3904498079
H 1.7686746060 1.4886177892 -1.9385685329
H 1.8110699456 1.3559303669 1.5938573949
H 1.0593134165 2.2355269840 0.2587624177
H -1.1322610709 0.7794730049 -0.5110393024
H -0.9239783204 -1.7889242846 1.0793985485
H 1.1972013206 -1.2832567292 1.2507133142
H 1.2254608650 -2.3649499205 -1.5898893548
H 1.6057788259 -3.2206072688 -0.0967835779
H 3.8105862308 -2.3065002036 -0.1175607174
H 3.4474972566 -1.6686695555 -1.7171069129
H 3.7617611049 2.3593722528 0.5157310297
H 5.2326891950 1.4259191169 0.7850555666
H 5.3118945867 2.3402597394 -1.7080966514
H 4.1865136642 -0.7960712565 1.4313287801
H -1.0144014966 -2.8257439939 -1.1540221473
H -1.1495188047 -1.2317199788 -1.9074736190
H -3.0737433692 -2.5197774918 0.0946308337
H -3.4131761501 -2.1969652297 -1.6074543478
H -4.8110644864 -0.3835753044 -1.9423179998
H -4.5017832877 3.2318344513 0.4341587182
H -2.7488160086 2.1919810294 1.7990606398
H -2.5632065344 -0.0200133519 2.9559768359
H -2.7110580660 -1.5555061454 2.0793169838
H -4.1308536276 -0.5180707729 2.2762795831
