47
CONF14
C -4.9816351940 -0.4658860730 1.0788386793
C -3.6052627717 0.0859132041 0.7748588867
C -2.3972934441 -0.8047935657 0.8798224042
C -2.9653817657 -0.4478716093 -0.5089805001
C -2.1867122826 0.3458436459 -1.4701186534
O -2.3387422923 0.3094967813 -2.6739805571
O -1.2458369558 1.1342917807 -0.8705095391
C -0.4232049374 1.9115735727 -1.7726233035
C -0.0055337791 3.0829304151 -0.9991517594
N 0.3453736131 4.0150680311 -0.4148267972
C 0.7722707986 1.1227645982 -2.2568505647
C 1.5745372755 0.4674017990 -1.3211244795
C 2.6880407083 -0.2448453995 -1.7480744723
C 2.9677101400 -0.2885842358 -3.1185696922
C 2.1736268737 0.3467405057 -4.0510326391
C 1.0625662769 1.0654763397 -3.6156747134
F 4.0478585289 -0.9866745611 -3.5250566563
O 3.5214179090 -0.9576598857 -0.9321500548
C 3.5905255130 -0.6311304347 0.4204192304
C 3.8349294348 0.6732915906 0.8384259795
C 3.9598993265 0.9265545533 2.2012239817
C 3.8535797646 -0.1103752712 3.1272038618
C 3.6261761590 -1.4115490558 2.6858676609
C 3.4908796462 -1.6796245938 1.3253789015
C -2.4619432857 -2.1973716709 1.3269199221
C -1.4231985272 -2.8953813309 1.7884377497
Cl 0.1995391768 -2.2694717564 1.9063061572
Cl -1.5764827536 -4.5485251402 2.3246022553
C -3.4465222445 1.5356753974 1.1776291468
H -5.1312645405 -1.4759514115 0.6917538871
H -5.7414185343 0.1807461364 0.6283245571
H -5.1459559907 -0.4799476218 2.1618733704
H -1.4747107593 -0.2831817702 1.1110958878
H -3.5372430109 -1.2237442656 -1.0070614881
H -1.0215781283 2.2530169422 -2.6247861315
H 1.3338341592 0.5086425418 -0.2639094946
H 2.4296546588 0.2774738329 -5.1025986161
H 0.4279335440 1.5716844101 -4.3350158756
H 3.9258162608 1.4738604381 0.1115710068
H 4.1495374601 1.9408606805 2.5377614795
H 3.9533356560 0.0955919507 4.1877031156
H 3.5478602958 -2.2252195821 3.3999398899
H 3.3127663967 -2.6857124998 0.9609257951
H -3.4133893340 -2.7182220203 1.2818793236
H -3.7234407174 1.6412913163 2.2318693025
H -4.1173524184 2.1691772064 0.5870966527
H -2.4255655911 1.8963561646 1.0539970101
