43
CONF204
C -1.8690554946 -0.3689922274 3.7636892767
Si -2.2753308988 -0.9798497042 2.0575366210
C -1.2998598879 -2.4842145497 1.5435209541
O -3.9032788517 -1.3322327107 2.0898554980
O -1.9940085879 0.2577979839 0.9996603798
Si -1.7693684465 0.4725512666 -0.6207434679
C -1.4593611783 2.2863582739 -0.9014401534
C -3.2539457168 -0.1694459026 -1.5450961428
O -0.4596551929 -0.4216295980 -1.0762565163
Si 0.9886384493 -0.2652089915 -1.8475198188
C 1.9090935631 -1.8671325597 -1.6120677256
C 0.7067676523 0.1524412339 -3.6394451964
O 1.8427582937 0.9807038720 -1.1831763393
Si 2.5391906127 1.3948282996 0.2572332367
C 1.6773383088 0.5572525204 1.6770480598
C 4.3566498591 0.9973567998 0.1541851064
O 2.3037870928 3.0236680041 0.4976724471
H -2.0638563820 -1.1421187266 4.5142194596
H -2.4712071666 0.5115301761 4.0134685744
H -0.8128056498 -0.0874416679 3.8298619705
H -0.2307171989 -2.2523786140 1.4879888408
H -1.4405931504 -3.3013395781 2.2592934783
H -1.6163342336 -2.8369840446 0.5550637799
H -4.2559268980 -1.8061485221 1.3278420783
H -1.2713382002 2.4936365020 -1.9605677537
H -2.3254258906 2.8789929711 -0.5871901787
H -0.5871967588 2.6221486738 -0.3297169083
H -3.3891509029 -1.2415002578 -1.3593884444
H -3.1328883953 -0.0266709028 -2.6247028248
H -4.1667649728 0.3486005370 -1.2315745006
H 2.0587801180 -2.0773100964 -0.5469141438
H 1.3524868937 -2.7042855517 -2.0472615143
H 2.8925133339 -1.8249118980 -2.0927106353
H 0.1178174117 -0.6300907334 -4.1300292321
H 0.1629112893 1.0987596386 -3.7357022721
H 1.6574899046 0.2500335346 -4.1745525160
H 2.1084200995 0.8708138707 2.6339797983
H 0.6087344394 0.7980807716 1.6833421700
H 1.7751665982 -0.5314418050 1.6020491166
H 4.8754895808 1.2750288045 1.0777907204
H 4.5058192498 -0.0753851680 -0.0129951913
H 4.8252342668 1.5357895759 -0.6775063404
H 2.7829829372 3.6203406851 -0.0887442636
