22
CONF367
C 2.4884907635 -0.2490491711 -0.6165925325
C 1.0347429691 -0.6452600560 -0.3730190903
C 0.1865540747 0.5158141065 0.1538178312
C -1.2474048530 0.1133973716 0.5283695072
C -2.0261279749 -0.5458959583 -0.5972376376
O -3.3618468761 -0.8581132509 -0.1874868509
O -1.9843721942 1.3109458228 0.8633502251
O 0.1813673716 1.5265046852 -0.8583457570
O 0.9721061946 -1.7512045792 0.5324838572
O 3.1706118838 0.0150344896 0.6195697119
H 2.5435145307 0.6092599587 -1.2960002161
H 3.0082579022 -1.0963379664 -1.0748322678
H 0.6153535166 -0.9878829710 -1.3273007752
H 0.6535933655 0.9086470031 1.0754972065
H -1.2184497662 -0.5622831942 1.3918782773
H -2.0321864337 0.1096053851 -1.4803859341
H -1.5549189587 -1.4940736824 -0.8691162082
H -3.7289705444 -0.0441423368 0.1836027830
H -1.7417420090 1.5744637223 1.7603860913
H -0.4891836051 2.1714294691 -0.5884409935
H 1.5719998173 -1.5355884612 1.2625001471
H 2.9586110268 0.9147296137 0.8973027208
