47
CONF135
C -5.8562551215 -2.3666676145 3.0091711923
O -6.4647528106 -1.2722794079 2.2653995794
P -5.6873880706 -0.6093916333 1.0368646384
S -4.8600288939 -1.8081399568 -0.2504830817
O -6.7765187494 0.4216331012 0.4870605940
C -7.8245226256 -0.0324855665 -0.4176024156
O -4.6845438650 0.3959542268 1.8192342778
C -3.6041274096 1.0028760112 1.1671376328
C -3.8194678333 2.0729724731 0.3093182821
C -2.7263058782 2.6809283616 -0.2981058552
C -1.4308970615 2.2299898327 -0.0274370971
C -1.2328274334 1.1629334993 0.8524511518
C -2.3254917975 0.5393352423 1.4433678068
S -0.0783589470 3.1208368722 -0.7879251138
C 1.2265240889 1.8989619231 -0.8348871970
C 1.0673997896 0.7114050910 -1.5554793017
C 2.1075396953 -0.2044126120 -1.6220236797
C 3.3082405767 0.0832640155 -0.9806347601
C 3.4878067073 1.2612573426 -0.2671008229
C 2.4343037841 2.1690334416 -0.1921743053
O 4.2983433929 -0.8926520033 -1.0552195238
P 5.8525982860 -0.5868619212 -1.4053527707
S 6.2090309997 0.6904533319 -2.8181000325
O 6.3873621478 -2.0462320948 -1.7617568449
C 6.2419078838 -3.1431186084 -0.8051727196
O 6.3934300488 -0.2340381183 0.0639331072
C 7.7882024309 0.1512773729 0.2374273251
H -4.9217702746 -2.0336853990 3.4689584557
H -5.6746893833 -3.2142649627 2.3438473274
H -6.5799092962 -2.6347377046 3.7781346803
H -8.4037562038 0.8573346266 -0.6614060648
H -7.3792371747 -0.4566817637 -1.3208034683
H -8.4571723390 -0.7710033056 0.0816054646
H -4.8276490780 2.4190457634 0.1090201462
H -2.8861416016 3.5069200837 -0.9840629267
H -0.2314033816 0.8122469969 1.0768269705
H -2.1894272809 -0.2962106205 2.1218187842
H 0.1321779350 0.5026670306 -2.0645651668
H 2.0033048889 -1.1306099964 -2.1766222847
H 4.4238900616 1.4649909612 0.2404580896
H 2.5560250947 3.0847499357 0.3764002628
H 6.6941123161 -2.8715545771 0.1515994046
H 5.1845626012 -3.3848943566 -0.6770370602
H 6.7723576655 -3.9849663737 -1.2482889390
H 8.4476277451 -0.6496059348 -0.1083844591
H 7.9892357045 1.0754642493 -0.3101935811
H 7.9166575763 0.3079629256 1.3078302951
