65
CONF86
C 5.2207331437 -5.7014938254 -3.3367157171
O 5.6092240352 -4.3391902510 -3.5442547053
C 5.1429149801 -3.4112320048 -2.6556799181
C 4.3182265608 -3.6995046286 -1.5674768188
C 3.9091668645 -2.6625711628 -0.7260197869
C 4.3000810347 -1.3428117511 -0.9385877584
C 5.1304169546 -1.0789154131 -2.0360420913
C 5.5496223841 -2.0912112819 -2.8852434031
C 3.8279786511 -0.2259988041 -0.0452550869
C 2.8142002909 0.7035884990 -0.7264908977
N 1.6274754815 0.0171043756 -1.2455325057
C 0.8396429504 0.9459053827 -2.0638518967
C -0.3750793831 0.2545016982 -2.6792899956
C -1.2667431383 -0.4014501797 -1.6242497527
C -0.4022963380 -1.2836580707 -0.7140154734
C 0.7963870759 -0.5207095948 -0.1612301950
N -1.9863110830 0.6415050709 -0.8734258135
C -2.9946339827 0.2904395781 -0.0271178668
N -3.6490296363 -0.8612533294 -0.0325623364
C -4.6135338961 -0.7210884710 0.9543210206
C -5.5819242476 -1.6234867082 1.3906593430
C -6.4310194592 -1.2295196572 2.4253911653
C -6.3221002552 0.0350712748 3.0177205268
C -5.3584746122 0.9541718147 2.5940946027
C -4.5212895425 0.5541641620 1.5628121538
N -3.4757804245 1.1910643552 0.9089927444
C -2.9453617503 2.5213349995 1.1673200990
C -1.5225708325 2.4888994372 1.6855579325
C -1.1507035551 1.5825137439 2.6823091465
C 0.1551229661 1.5445368958 3.1579860307
C 1.0763694492 2.4262205163 2.6154655265
C 0.7485585961 3.3394473368 1.6299694785
C -0.5649884193 3.3604825129 1.1659660790
F 2.3587040214 2.3793299624 3.0582093004
H 5.5779937800 -6.0707074906 -2.3677138227
H 5.6905818330 -6.2698151563 -4.1400859698
H 4.1314570288 -5.8147773958 -3.3946887953
H 3.9904549131 -4.7112004939 -1.3613812283
H 3.2676633771 -2.8995235022 0.1189503315
H 5.4588714408 -0.0600328849 -2.2266460874
H 6.1979025501 -1.8801798257 -3.7301227881
H 3.4109857023 -0.6410660420 0.8778125550
H 4.6784491380 0.3993333224 0.2534473632
H 3.3072766033 1.1928398027 -1.5761336766
H 2.5316630651 1.5036361998 -0.0120111955
H 1.4796609041 1.3312689520 -2.8662728145
H 0.5242978058 1.8302286294 -1.4675622143
H -0.9515376893 0.9737621541 -3.2710625025
H -0.0251153974 -0.5321872021 -3.3571003638
H -2.0270087358 -1.0154722566 -2.1164085948
H -1.0065628229 -1.6733127838 0.1115950868
H -0.0446265915 -2.1400905892 -1.2988519450
H 0.4572059953 0.2932497998 0.5142895906
H 1.3968785864 -1.2022546838 0.4487100156
H -1.4085883239 1.4040509890 -0.5443906655
H -5.6669518104 -2.6053514308 0.9351032900
H -7.1918193905 -1.9177219037 2.7805034679
H -5.2775946744 1.9314644698 3.0593598935
H -2.9979133206 3.1240858932 0.2522071594
H -3.6053557779 2.9959454402 1.9000236259
H -1.8850680185 0.8909872177 3.0854849156
H 0.4600778390 0.8423248921 3.9261621627
H 1.5044054164 4.0047033968 1.2275116148
H -0.8411860758 4.0609383361 0.3826206852
H -6.9970833091 0.3095481236 3.8220072622
