59
CONF8
C 7.0999678685 -0.7274115766 0.8590601654
C 5.6033697004 -0.6877338510 1.1682409190
C 4.9136554537 0.2890624331 0.2051244269
N 3.4670162772 0.1884214260 0.3248865416
C 2.8225622348 -0.9718207598 0.5765843996
N 1.5042116210 -1.1432275569 0.4783892007
N 0.8998303906 -0.0326229832 0.0167454544
C -0.4179218506 -0.0448137361 -0.0328215344
C -1.2134002007 -1.1308622229 0.5023454179
C -2.5301966621 -1.3198954805 0.2664442634
C -3.3574347809 -2.3801783968 0.8196716863
C -4.6651062521 -2.5470407945 0.3339921974
C -5.4973924479 -3.5448620662 0.8189848783
C -5.0352832147 -4.4056435248 1.8102480202
C -3.7417070377 -4.2537775736 2.3159836356
C -2.9175809560 -3.2558219725 1.8299386126
C -5.9268069595 -5.4581338886 2.3924020475
F -5.2638416949 -6.6221770633 2.6070477708
F -6.4318083408 -5.0783371514 3.5979186062
F -6.9841415200 -5.7395865961 1.5977049287
C -1.0625901462 1.1231759779 -0.6146032167
C -0.4857201784 1.9692576555 -1.4922339072
C -1.0864029552 3.1730813338 -2.0419388563
C -0.4858677784 3.7908394587 -3.1524915569
C -1.0289959544 4.9274796335 -3.7309711113
C -2.1954355490 5.4794549423 -3.2067877751
C -2.8010686050 4.8943777811 -2.0929532081
C -2.2516870992 3.7622741302 -1.5180019420
C -2.7639693759 6.7374581172 -3.7857794173
F -2.4419222014 6.8929792526 -5.0917150486
F -2.3063489350 7.8446812114 -3.1388025656
F -4.1156401478 6.7737792864 -3.6975987544
N 3.5500157387 -2.0289161443 1.0270756790
C 5.0002346459 -2.0760356090 0.9088549714
C 5.3733663305 -0.2630958110 2.6226660764
H 7.2886444347 -1.0420148243 -0.1729041568
H 7.6133425998 -1.4260515585 1.5276654818
H 7.5498039689 0.2605390926 1.0012424279
H 5.2414931837 0.0772609307 -0.8258083554
H 5.2135958327 1.3166145049 0.4421464604
H 2.8580817931 0.9070249656 -0.0455594706
H -0.6630373996 -1.8335459194 1.1190423874
H -3.0451740736 -0.6543857256 -0.4238542071
H -5.0276090679 -1.8814801880 -0.4438449718
H -6.5014142112 -3.6572526234 0.4262399263
H -3.3868546356 -4.9202879065 3.0950627248
H -1.9220729707 -3.1462613201 2.2450769238
H -2.0896893730 1.2975104834 -0.3047292974
H 0.5128972006 1.7283100310 -1.8494402690
H 0.4176405102 3.3573791469 -3.5710542628
H -0.5530212940 5.3819283639 -4.5926821322
H -3.7006229944 5.3337698329 -1.6755504206
H -2.7240969957 3.3376381667 -0.6390890049
H 3.0274883387 -2.8896221039 1.0788029210
H 5.3087126074 -2.4254375428 -0.0907949509
H 5.3866194159 -2.7916097524 1.6437128638
H 5.8078427782 0.7253952084 2.8033113168
H 5.8519187800 -0.9716408283 3.3064827918
H 4.3095517415 -0.2181086055 2.8686090541
