41
CONF95
C -3.9496062478 -0.9168626640 3.2625326185
C -3.9074906250 0.3754758195 2.4491604047
N -3.6121736689 0.1867752871 1.0257925463
C -4.7416287640 0.0005941916 0.1163332407
C -4.7676864431 -1.3743725032 -0.5561907673
O -4.8778780680 -2.4332246705 0.3882858330
C -2.3282703947 0.2880211867 0.5498764863
C -2.0588439251 0.4225535524 -0.8332856928
C -0.7631029977 0.5369045963 -1.2909601341
C 0.3284582193 0.5147611686 -0.4111112749
C 0.0733519026 0.3741393316 0.9663951303
C -1.2147844121 0.2619631253 1.4336283838
N 1.5858638323 0.6314862345 -0.9919281233
N 2.5630095993 0.6099586018 -0.1864210493
C 3.8207226399 0.7356288733 -0.8041694375
C 4.0268297446 0.9152486166 -2.1838295641
C 5.3105712106 1.0313496447 -2.6802151211
C 6.3894030647 0.9673830272 -1.7979977129
C 6.2119236813 0.7907244948 -0.4298390929
C 4.9227245893 0.6767045241 0.0609784153
N 7.7542638799 1.0914172929 -2.3300139679
O 7.8818298405 1.2471811920 -3.5405763801
O 8.6845860547 1.0312980144 -1.5318692996
H -4.1181132229 -0.6878301010 4.3196706188
H -3.0060390895 -1.4656680856 3.1808224587
H -4.7593593632 -1.5670530794 2.9198546133
H -3.1715752448 1.0696660459 2.8677456052
H -4.8760425129 0.8833538872 2.5187331128
H -4.7638761032 0.7895844554 -0.6515361803
H -5.6558727341 0.1027536515 0.7073896943
H -5.6588320586 -1.4299854896 -1.1907616417
H -3.8879300221 -1.5151236730 -1.1983886103
H -4.0255749358 -2.5171979735 0.8311912545
H -2.8677718246 0.4632449395 -1.5503955955
H -0.5637602345 0.6548393172 -2.3512689308
H 0.9096556047 0.3432875729 1.6549579929
H -1.3690367310 0.1294552077 2.4972803247
H 3.1700965542 0.9618039827 -2.8444723449
H 5.4978653096 1.1711769730 -3.7375836636
H 7.0755728838 0.7465477132 0.2212869467
H 4.7385220178 0.5391942171 1.1208984068
