40
CONF59
C -1.9001452761 -1.9411683784 2.6172205518
C -0.7356222418 -1.9576987744 1.6202009670
C -0.1893442936 -3.3914775413 1.5217801178
C -1.1350410223 -1.4975387896 0.2112339795
C -0.1377665648 -1.1445568970 -0.7057989183
C -0.4582362637 -0.7527434480 -2.0007737923
C -1.7899820275 -0.7087744133 -2.4106825729
C -2.7892100240 -1.0676247913 -1.5119780905
C -2.4640723963 -1.4602184851 -0.2133239833
N 0.3735186144 -1.1277559979 2.1355271971
C 0.3178706875 0.2446782694 2.1120534026
O -0.7316473621 0.8762993452 1.9672633186
N 1.5298608039 0.8808080250 2.3198409782
C 1.6578429198 2.2739688243 1.8896000677
C 1.5534117927 2.4461840995 0.3893142338
C 0.4305791134 3.0587268705 -0.1752395773
C 0.2890186824 3.1971096792 -1.5519530245
C 1.2809738005 2.7178343428 -2.4023259409
C 2.4146817148 2.1075048769 -1.8739630680
C 2.5306692795 1.9843376484 -0.4950635052
Cl 3.9921471919 1.2133954494 0.1384466816
H -1.5200642980 -2.2134836711 3.6057075772
H -2.6600917528 -2.6742480898 2.3339838725
H -2.3589183807 -0.9527486164 2.6748011283
H -0.9687685968 -4.0503755690 1.1314220130
H 0.6701386768 -3.4384245450 0.8448704941
H 0.1128463687 -3.7519938206 2.5109515802
H 0.9050390890 -1.1613356871 -0.4007665357
H 0.3340433896 -0.4739552146 -2.6891797879
H -2.0437101250 -0.3973624548 -3.4192053643
H -3.8313743860 -1.0372678958 -1.8159590731
H -3.2645902256 -1.7240774656 0.4683671030
H 1.2903576558 -1.5469860435 2.0736591957
H 2.3633424197 0.3220546433 2.2019111942
H 2.6228204745 2.6416222327 2.2511295694
H 0.8725436920 2.8634079820 2.3678723397
H -0.3458725283 3.4215022269 0.4908291843
H -0.5967450271 3.6730822736 -1.9596265529
H 1.1801955091 2.8148598485 -3.4784533796
H 3.1993000170 1.7344406453 -2.5226479860
