62
CONF1
C -2.7809680156 0.7168047107 0.8674482968
C -1.4866540677 1.0435919857 1.6191781984
C -0.4220118709 0.4971781961 0.6707167915
C 1.0403356885 0.4624790448 1.1050292871
C 1.4954936927 1.8793278727 1.4763376699
C 2.9970897905 1.9567490846 1.7111971159
F 3.3469497711 3.3067665303 1.9284178707
C 3.7414903064 1.4031302798 0.5398594299
C 4.5753572119 2.1516926095 -0.2038658063
C 5.2614442769 1.6148604622 -1.3746741827
O 6.0207779878 2.3149972633 -2.0614331270
C 5.0151076435 0.2084472614 -1.6941865333
C 4.1800412816 -0.5385420835 -0.9586082504
C 3.4270874924 -0.0404563655 0.2322405329
C 3.8642102104 -0.9144354150 1.4433062154
C 1.8742390345 -0.0789630411 -0.0764399704
C 1.3632752021 -1.4090298229 -0.6543187300
O 1.7397766141 -2.4825011913 0.2203399642
C -0.1514964147 -1.3837256496 -0.9330047207
C -0.9721944735 -0.8840401452 0.2553194243
C -0.9776422604 -1.8945541412 1.4135012192
C -2.4608901192 -0.4892391353 -0.0880299930
O -2.5385384894 0.0688498923 -1.3991845173
C -3.3673764809 1.2469137380 -1.3183480215
C -2.9149741338 2.2143147493 -2.3879210989
C -4.8453033385 0.8902643924 -1.4222643880
O -3.0684148829 1.7969687885 -0.0357788284
C -3.4289120732 -1.6538706280 0.0380982086
O -3.9840892001 -1.9369731726 1.0886330950
C -3.6628926810 -2.5116889339 -1.1835905754
O -4.5142529148 -3.6017590412 -0.8969689581
H -3.6388231668 0.5172138292 1.5172330051
H -1.4168456396 2.1202049607 1.7933003122
H -1.4604203193 0.5389298331 2.5900916156
H -0.4569849482 1.1241111844 -0.2352515109
H 1.1530698928 -0.1885124906 1.9797352742
H 1.2500695866 2.5640244354 0.6528907419
H 0.9778899735 2.2254153151 2.3760834665
H 3.2758993882 1.4211182402 2.6277703481
H 4.7656991126 3.1912221692 0.0423495943
H 5.5484193932 -0.2061558983 -2.5450900224
H 4.0385175104 -1.5897149845 -1.1993195560
H 3.8568497060 -1.9678667803 1.1687609249
H 3.2011152636 -0.7828813043 2.3004506717
H 4.8775422921 -0.6280238763 1.7413825886
H 1.7376691711 0.6425247316 -0.8974513184
H 1.8528567249 -1.5578877191 -1.6288312101
H 1.3389487033 -3.2905780872 -0.1252948884
H -0.4513514281 -2.3933466057 -1.2427131732
H -0.3165470557 -0.7182945196 -1.7868681658
H 0.0180234364 -1.9921286197 1.8439099044
H -1.2735369130 -2.8841752152 1.0485206243
H -1.6769807109 -1.6102779267 2.2028195712
H -3.0907113469 1.7827728697 -3.3764563426
H -3.4829661647 3.1443738878 -2.3066183270
H -1.8498799980 2.4266873192 -2.2666466592
H -5.4437311465 1.8015417465 -1.3394202425
H -5.0544417977 0.4169551085 -2.3855190749
H -5.1474607236 0.2105870996 -0.6194576768
H -4.0854282056 -1.8836814804 -1.9794205284
H -2.6828953273 -2.8593847221 -1.5489061901
H -4.7296293945 -3.5283307912 0.0489702000
