110
CONF159
C -2.8889574837 0.0350186553 -1.1052989038
N -3.4830522683 -0.2407740137 -2.4328532267
C -2.5967386899 -1.2659572418 -3.0054245101
C -2.3591704069 -2.2259113816 -1.8371479824
C -2.6034695688 -1.3842951783 -0.5438803580
C -1.4503810499 -1.3594831462 0.4179658471
C -0.1290686853 -1.0333093194 0.1786131547
C 0.8090694073 -1.0278632739 1.2128572037
C 0.3554512466 -1.3600404883 2.5087290937
O 1.3002612645 -1.3236095932 3.4964917906
C 0.9228748869 -1.7097898701 4.8234926422
C -0.9745679361 -1.7081974746 2.7636675414
C -1.8765368247 -1.6860188443 1.6991283047
N -3.2500507684 -1.9339758519 1.7470795144
C -3.6622651829 -3.0399124884 2.6178345519
C -3.7523017563 -1.9753220784 0.3501688472
C -5.0988056042 -1.2334065382 0.1260400109
O -5.5247167529 -1.4474745017 -1.2193325936
C -4.9823961631 0.2652165892 0.4352020407
O -6.2322983069 0.8953776583 0.1512443513
C -3.7575240615 0.9810895500 -0.2587680742
C -2.9217738451 1.6306417993 0.8829387471
C -1.6833677580 2.4168843520 0.4598004357
C -4.2545957148 2.0933299041 -1.1538759406
C -4.1682693904 2.0940663752 -2.4823049927
C -3.5988990847 0.9548226301 -3.2637831630
C -6.1946799728 -1.8207592300 1.0437420919
N -6.9188834068 -2.8109343664 0.4870719846
O -6.3464913670 -1.4425661355 2.2058064548
C 2.2592796041 -0.5779675054 0.9633978617
C 2.6485727912 -0.8706849985 -0.5191038364
C 4.1264898474 -0.7647721768 -0.9135377677
C 4.6259853562 0.6838944196 -0.9086293689
N 3.9191963032 1.4056991922 -1.9401426318
C 4.2845258388 1.0030526352 -3.2721424653
C 3.8819495867 -0.4704097288 -3.5168837841
O 4.5258900076 -0.9460605545 -4.7238482297
C 2.3832464141 -0.5448979484 -3.8360629658
C 1.7768009744 -1.9448379174 -3.8928897252
C 4.3715267030 -1.3329748687 -2.3311040227
C 3.1946183938 2.6138649860 -1.6375413068
C 1.9034049549 2.3675895766 -0.8178101043
C 2.1184554051 2.0725932984 0.6385527838
C 2.3178072062 0.8943774895 1.3535745453
N 2.4291074779 1.2139126862 2.6981761147
C 2.3388603888 2.5640596952 2.8825150950
C 2.4069612975 3.3265465227 4.0483580071
C 2.2765345224 4.7037154378 3.9174500618
C 2.0840952998 5.3002697529 2.6566456325
C 2.0200518360 4.5341857693 1.5001920955
C 2.1487445873 3.1399630467 1.6002050221
C 3.2166980103 -1.5088869406 1.7286561359
O 3.1291738638 -2.7178524851 1.6811621790
O 4.2257898368 -0.8633897557 2.3325781756
C 5.2164643102 -1.7132103746 2.9652294262
H -1.9107930436 0.5222308920 -1.2631752134
H -1.6476994390 -0.8022601909 -3.3285983312
H -3.0619263541 -1.7402528905 -3.8754843348
H -1.3450530306 -2.6323581023 -1.8533700826
H -3.0564715730 -3.0665118725 -1.8757134516
H 0.1742474264 -0.7861358627 -0.8335167866
H 0.1549598997 -1.0382899091 5.2242808731
H 0.5603436227 -2.7436581782 4.8407145387
H 1.8312737465 -1.6278447051 5.4212851587
H -1.2998121475 -1.9680020611 3.7620531894
H -4.7397453961 -3.1842729163 2.5603460049
H -3.1553002110 -3.9780683118 2.3387583900
H -3.4211445719 -2.8036670583 3.6576642420
H -3.9178258773 -3.0249420102 0.0612245457
H -4.8459364109 -1.0059878093 -1.8254757900
H -4.8606298075 0.3548283975 1.5164931865
H -6.4322897275 0.7129703056 -0.7785633895
H -3.6105719018 2.2995109441 1.4152805883
H -2.6365718599 0.8512446658 1.5982662397
H -1.9131721243 3.1283194525 -0.3407245418
H -0.8779934901 1.7620896052 0.1146194901
H -1.2918224981 2.9828021952 1.3114639231
H -4.6800969080 2.9544333519 -0.6442172428
H -4.5061916825 2.9552496341 -3.0534497623
H -2.6081368124 1.2460842356 -3.6673476597
H -4.2329632462 0.7282705040 -4.1310162250
H -6.8323430088 -3.0016282649 -0.4987253855
H -7.6744814880 -3.2233090114 1.0117760732
H 2.0783239146 -0.2064475476 -1.1619068709
H 2.3082904783 -1.8916845993 -0.7141274584
H 4.7394002212 -1.3647099388 -0.2266536275
H 5.7176730427 0.6834026608 -1.1013616933
H 4.4631604894 1.1595372634 0.0608424417
H 3.7902644760 1.6395051248 -4.0153503329
H 5.3808139571 1.0833001055 -3.4377673071
H 5.4798631379 -0.9388670554 -4.5694281300
H 1.8379099218 0.0753543141 -3.1180942051
H 2.2609814469 -0.0568385743 -4.8117408463
H 1.7327838501 -2.4122455998 -2.9050219450
H 2.3547596156 -2.5994262736 -4.5528436502
H 0.7533554526 -1.8979269423 -4.2792604702
H 5.4621992375 -1.4181518725 -2.4467311161
H 3.9687452140 -2.3479871314 -2.4198793911
H 3.8141589539 3.3486367800 -1.0892269672
H 2.9107918231 3.0826005543 -2.5868199671
H 1.3079937014 1.5971082341 -1.3163048406
H 1.3059923978 3.2869256162 -0.8710629202
H 2.5467627829 0.5313097095 3.4283838080
H 2.5536903919 2.8612880440 5.0184567566
H 2.3230666298 5.3304297769 4.8026950920
H 1.9858146999 6.3795695367 2.5909326010
H 1.8748968757 5.0118291850 0.5354656685
H 5.9445967926 -1.0299722642 3.4002203455
H 4.7458116411 -2.3233585467 3.7396453721
H 5.6874216084 -2.3586502763 2.2198899811
