48
CONF12
C -1.5430914705 -3.1752525967 -0.3313222076
O -1.5499621429 -2.3743201822 0.8578369825
N -1.8073635835 -1.0658681041 0.5035359465
C -1.7012504996 -0.2539599948 1.5016815291
C -1.3601694769 -0.6352429948 2.8930478170
C -2.2239164684 -1.4080194619 3.6674903173
C -1.9084442113 -1.7178341447 4.9849824304
C -0.7170508811 -1.2634275321 5.5421271143
C 0.1687000638 -0.5099595123 4.7788167774
C -0.1615528010 -0.2125445608 3.4695228028
O 0.7133108843 0.5946525359 2.7343438397
C 1.2191650551 0.0615487340 1.5975999976
C 1.5348931419 0.9289418611 0.5581522340
C 1.9913861863 0.3560306923 -0.6223787164
N 2.1775763878 -0.9513314802 -0.7440842643
C 1.8799236397 -1.6854204356 0.3290379977
N 1.4091116523 -1.2496015422 1.4932203495
O 2.2487962698 1.1925075135 -1.6598309427
C 2.3532241777 0.6290892084 -2.9257495499
C 3.5793208961 0.6774864098 -3.5701897277
C 3.6945190074 0.2057273033 -4.8728122400
C 2.5810407963 -0.3152647369 -5.5239503321
C 1.3487828774 -0.3601773239 -4.8802934595
C 1.2317079513 0.1188241434 -3.5808740825
Cl -0.3079892561 0.0892216978 -2.7651518899
F 1.3369369478 2.2507163127 0.6609212607
C -1.9349597039 1.1654329617 1.1974368412
N -2.1822629669 1.9400126030 2.2014139874
O -2.3612054921 3.2995065073 1.9396830260
C -1.8298141159 3.7364199933 0.6801409313
C -2.3174297498 2.8173689962 -0.4126309128
O -1.8670160149 1.4832066177 -0.1176762642
H -1.3390050614 -4.1920744205 0.0098559072
H -2.5154089673 -3.1311591001 -0.8334861974
H -0.7569786188 -2.8384794730 -1.0165767810
H -3.1566410369 -1.7468106609 3.2299421080
H -2.5969227244 -2.3091900716 5.5788528546
H -0.4693270750 -1.5011829647 6.5712137667
H 1.1110082088 -0.1561705221 5.1812287295
H 2.0397192857 -2.7587573658 0.2407563245
H 4.4295170541 1.0842777958 -3.0340819761
H 4.6549380162 0.2428967226 -5.3749525355
H 2.6646567717 -0.6871253943 -6.5393444374
H 0.4725279186 -0.7576624515 -5.3793649279
H -2.1940043774 4.7584014403 0.5459561246
H -0.7329585282 3.7304694943 0.7209938660
H -3.4128588735 2.8238172623 -0.4687846957
H -1.8931791981 3.0702803269 -1.3875304324
