40
CONF88
C 1.3013273495 1.7036054356 2.4437208236
C 1.3011780075 0.2936515714 1.9084901568
O 1.8356146328 0.3541062835 0.5428317362
P 1.8511265811 -0.9015474534 -0.4423324859
S 1.3939944339 -2.6372271237 0.2991458074
O 3.2527601880 -0.7758740023 -1.1966059230
C 4.4558016915 -1.4361318287 -0.6765433708
C 4.9622376051 -0.7873345740 0.5916516675
O 0.9912829113 -0.3929266983 -1.7512303140
C -0.3485950060 -0.1261233248 -1.7247165334
C -0.9482020899 0.1778401548 -2.9424103869
C -2.3077649379 0.4496945785 -2.8982199382
N -2.9951035945 0.4025385353 -1.7360229031
C -2.3165189531 0.0958273145 -0.6298485821
N -0.9954892518 -0.1648901666 -0.5746494077
C -3.0768121300 0.0561353583 0.6731476778
C -2.8398814786 -1.2572522139 1.4252569478
C -2.7008249793 1.2688112714 1.5367798833
C -3.0829132394 0.7977758967 -4.1277860283
H 0.9045697361 1.6945372065 3.4634389650
H 0.6691335245 2.3528407321 1.8312788758
H 2.3150576156 2.1128209492 2.4685346784
H 0.2939739890 -0.1275584845 1.8651169676
H 1.9466609849 -0.3666724143 2.4952263431
H 4.2273872566 -2.4965744559 -0.5300460938
H 5.1729568056 -1.3346420425 -1.4931080987
H 4.2701628341 -0.9367102162 1.4259944043
H 5.1199695056 0.2849496959 0.4463095536
H 5.9192532761 -1.2462388420 0.8594479152
H -0.3793271325 0.1986931992 -3.8636706695
H -4.1372607386 0.1312970989 0.4119432225
H -1.7919514783 -1.3506825024 1.7251336678
H -3.0975073439 -2.1214817358 0.8047820211
H -3.4588188624 -1.2830976754 2.3273631269
H -1.6414625637 1.2317578196 1.8086317014
H -2.8885716196 2.2076025182 1.0062633634
H -3.2918015402 1.2675611613 2.4579821851
H -3.5727832906 1.7677791078 -3.9950461379
H -2.4402826231 0.8362924076 -5.0087955632
H -3.8725772605 0.0568474584 -4.2907342509
