41
CONF88
C 2.2180613421 -4.1394465829 0.1865945302
C 3.1103762370 -3.0360093645 -0.3175919271
O 2.2246624901 -1.9054037541 -0.6531204498
C 2.7921018574 -0.8080959750 -1.0878611561
N 4.0786862005 -0.6450494704 -1.2572900980
C 4.5092606136 0.5421302684 -1.6987629493
C 3.7497183074 1.6413597362 -1.9966671718
C 2.3728102308 1.4639558688 -1.8072305976
N 1.3153408220 2.2687239321 -1.9560041305
C 0.2943551384 1.4610793388 -1.6009514813
N 0.5721453447 0.2154618571 -1.2328771764
N 1.9262838645 0.2189300708 -1.3647339486
S -1.3937667379 2.0569048468 -1.4132665534
O -2.2896413321 0.9396176810 -1.7103952437
O -1.5024488204 3.3510531177 -2.0810348196
N -1.5190483916 2.3731262006 0.2568528807
C -1.4026478243 1.2737744196 1.1434976718
C -2.4500050466 0.3457585906 1.2933999795
C -2.2768444188 -0.7699546727 2.1139176237
C -1.1043047115 -0.9511527740 2.8332451385
C -0.0715330854 -0.0277499652 2.7240737204
C -0.2213064096 1.0556132150 1.8707719918
Cl 1.1246175011 2.1671494813 1.6943413977
C -3.7834426068 0.4613958289 0.6229744324
O -4.4074014118 -0.5058179506 0.2349994383
O -4.2377677482 1.7181691915 0.5774107175
C -5.5176023694 1.8913425208 -0.0823712485
F 5.8384187695 0.6157025255 -1.8446103008
H 1.5048148384 -4.4488101797 -0.5815923600
H 1.6716576682 -3.8233531604 1.0791790246
H 2.8410415665 -4.9994818614 0.4478307016
H 3.8196831127 -2.6897073682 0.4386009186
H 3.6522346338 -3.3137460592 -1.2255447307
H 4.1690203334 2.5759198222 -2.3423315646
H -0.9211042201 3.1640647634 0.4939345877
H -3.0903191540 -1.4814114015 2.1970017484
H -0.9898410268 -1.8102091604 3.4850317641
H 0.8533637719 -0.1562312749 3.2744515282
H -5.7148405675 2.9617052731 -0.0463022500
H -5.4509280109 1.5437467694 -1.1160694486
H -6.2938611522 1.3355857614 0.4484992972
