38
CONF16
C -7.6970599410 -1.2569871227 0.7284539992
C -6.8726794682 -0.9859728788 -0.5069625991
O -5.5307771806 -0.6412311815 -0.0559968129
C -4.6340354546 -0.3938019736 -1.0407250535
O -4.8858750699 -0.4436222983 -2.2320264197
N -3.4255926338 -0.0856016588 -0.4733376506
C -2.2211259657 0.2273850985 -1.1154269823
C -1.1273959151 0.5163993365 -0.2860759719
C 0.0899512742 0.8354835591 -0.8579072602
C 0.2757739113 0.8800378892 -2.2329584045
C -0.8159239429 0.5854743257 -3.0419706236
C -2.0597158264 0.2621091571 -2.5060677349
O 1.1298646180 1.1934177741 0.0050534705
C 2.1904120473 0.3136435433 0.0959800109
O 2.2213955123 -0.7684549860 -0.4517880706
N 3.1377580518 0.8736423479 0.8948737396
C 4.3686740994 0.3243034576 1.2954873622
C 5.1625685340 1.1097240179 2.1428697915
C 6.3925646003 0.6405794556 2.5832590306
C 6.8514281806 -0.6150868707 2.1889984970
C 6.0600234491 -1.3910627879 1.3475568218
C 4.8235463470 -0.9370677187 0.8949929459
H -8.7154064265 -1.5199803641 0.4282958460
H -7.2799074676 -2.0897210486 1.3014672042
H -7.7439718462 -0.3726478039 1.3700926249
H -6.8075089622 -1.8644464351 -1.1562797308
H -7.2706813971 -0.1484611054 -1.0886016339
H -3.4059188790 -0.0913952725 0.5366058000
H -1.2242993187 0.4944387864 0.7949413325
H 1.2436266340 1.1352889775 -2.6492355514
H -0.7013261225 0.6106075138 -4.1209387247
H -2.8935185103 0.0410878274 -3.1555620252
H 2.9195758700 1.7926405382 1.2541144335
H 4.8105636507 2.0897432044 2.4532692485
H 6.9939340276 1.2626754502 3.2387134784
H 7.8126186387 -0.9818596497 2.5333217367
H 6.4036145867 -2.3712723869 1.0313857913
H 4.2216958091 -1.5518134367 0.2414871598
