33
CONF21
C -2.8120476208 0.8075031329 1.5145783192
C -3.1708642653 -0.3001524910 0.5241519288
C -4.6793382988 -0.3412209425 0.2773083593
C -2.4230502483 -0.1230271277 -0.8147434087
C -0.9265407119 -0.2000812020 -0.6793623595
C -0.1263368640 0.9446341826 -0.7356025182
C 1.2547965680 0.8678985110 -0.5815512345
C 1.8783775387 -0.3638989447 -0.3670762910
C 1.0834107766 -1.5107879611 -0.3035299398
C -0.2966195322 -1.4293454775 -0.4614560557
C 3.3881716435 -0.4695431069 -0.2010116440
C 4.1605537271 0.1147879738 -1.3875645693
C 3.7513230067 0.1546170003 1.1339828535
O 3.7397073810 -0.4426952524 2.1921027514
O 4.0532551604 1.4650465186 1.0391973984
H -1.7383824079 0.8256127059 1.7272823298
H -3.3449750275 0.6697849175 2.4611177599
H -3.0919824876 1.7870101244 1.1069890813
H -2.8606319170 -1.2642248083 0.9517330476
H -5.0194904523 0.6044812251 -0.1620425909
H -5.2257132796 -0.4929801982 1.2140276009
H -4.9474659463 -1.1499395741 -0.4108924569
H -2.7647301252 -0.9027472729 -1.5070792913
H -2.7063596182 0.8449187478 -1.2473775439
H -0.5933173610 1.9121687054 -0.9013295956
H 1.8472398854 1.7767650315 -0.6290755951
H 1.5519049178 -2.4775911257 -0.1398433185
H -0.8946473716 -2.3364773428 -0.4199131607
H 3.6334704467 -1.5301048526 -0.0935917971
H 5.2391836478 0.0332956356 -1.2242215764
H 3.9148163162 1.1665141745 -1.5480715318
H 3.9024945941 -0.4428146690 -2.2920210410
H 4.2237873278 1.8025937466 1.9356075034
