57
CONF23
C 3.7201157977 -0.5881560900 -2.8156487041
C 3.0168606026 -0.6780636300 -1.4653750601
C 1.6959903770 -1.5013663503 -1.4973912457
C 0.6392397900 -0.5180135183 -0.9935282340
C -0.7460614416 -1.0218339603 -0.5819003213
C -0.7839199846 -2.1161862681 0.4917309617
C -2.2218630597 -2.5230438478 0.8341154350
C -3.0409338203 -1.3213992881 1.1947205079
C -3.7069892241 -1.2323521444 2.3594182891
C -4.5444462332 -0.0836118914 2.7223515306
O -5.1584208439 -0.0370374845 3.7855599416
C -4.6117410251 1.0021159156 1.7345854134
C -3.9147941743 0.9558530252 0.5893969837
C -3.0878126518 -0.2207576158 0.1617942537
C -1.6175568213 0.2046153591 -0.2117105104
C -0.9123937674 1.0806429860 0.8565549182
C 0.4820440354 1.5412932122 0.3982255223
C 1.3858544260 0.3662790226 0.0320294049
C 2.6396362234 0.7115284185 -0.8648245776
C 3.7896833563 1.3401482067 -0.0856288764
O 4.6315843311 0.6794006878 0.4990269170
C 3.8655294267 2.8522636037 -0.0271918268
O 4.8607776476 3.2855882641 0.8628229464
O 2.1994764113 1.6500373354 -1.8534365003
C 1.8620280065 -0.3452510513 1.3090475749
O -1.6099750266 2.2879324155 1.1410429770
F -1.7281130066 1.0027169614 -1.3707652537
C -3.8128372296 -0.7580095623 -1.1091040773
H 3.0525183386 -0.2073313957 -3.5982227527
H 4.6160410205 0.0434170655 -2.7678016875
H 4.0460417458 -1.5823896144 -3.1343581740
H 3.7160920343 -1.1272784602 -0.7548158927
H 1.7813004645 -2.3855768092 -0.8574047495
H 1.4663756783 -1.8552123635 -2.5082679196
H 0.4413271175 0.1616076144 -1.8292916783
H -1.1966561445 -1.4482770293 -1.4891067271
H -0.2291053945 -2.9898298471 0.1338854016
H -0.2938396823 -1.7902926730 1.4102620864
H -2.2313540355 -3.2399217440 1.6601124962
H -2.6735634530 -3.0272069016 -0.0308626262
H -3.6744326624 -2.0411715909 3.0850258497
H -5.2468545849 1.8473658714 1.9842615498
H -3.9699147411 1.7720757919 -0.1267308618
H -0.8339743618 0.4670740300 1.7673144464
H 0.3418710333 2.2015871601 -0.4615079600
H 0.9040236805 2.1350148076 1.2166913967
H 2.8774849284 3.2474145930 0.2555887999
H 4.0537587901 3.2271961988 -1.0470102553
H 5.3282155416 2.4820043615 1.1461469218
H 2.8232447785 1.6259098999 -2.5881278339
H 2.3470855776 -1.3040644231 1.1124097717
H 2.5783459113 0.2791123704 1.8483972897
H 1.0329731787 -0.5212506175 1.9938364503
H -2.3511973664 2.0905192715 1.7260527417
H -3.2768846827 -1.5894821072 -1.5686258631
H -4.8102296944 -1.1034074919 -0.8245619631
H -3.9096558574 0.0377468334 -1.8492070494
