48
CONF25
C -5.3065055910 0.1656109379 0.2665775374
C -3.8995111617 0.2053200624 -0.3500973062
C -3.1494728949 1.4166912926 0.2203963803
C -4.0203070452 0.3526048131 -1.8739731446
C -3.1898587289 -1.1185179023 0.0263090388
C -1.6759108632 -1.1235931302 -0.3201648950
N -1.1761472209 -2.4808321840 -0.5171845837
C -0.6986162487 -3.0550881303 -1.6414078348
N -0.4443834598 -4.3380882139 -1.4273739886
C -0.8060912658 -4.5013769133 -0.1224863380
N -1.2634534305 -3.4070763703 0.4713148190
O -1.0190982162 -0.5241591045 0.7773169641
C 0.2576662959 -0.0321430798 0.6310236175
C 0.9936473781 -0.0369072791 -0.5527887981
C 2.2730917499 0.5137164816 -0.5605731093
C 2.8446401264 1.0678254041 0.5890708379
C 2.0819448198 1.0557574447 1.7674042172
C 0.8071676618 0.5152613995 1.7922773252
C 4.2046150588 1.6436135229 0.5667018223
C 5.0651569637 1.4969432573 1.6645352077
C 6.3459064297 2.0392982934 1.6435826065
C 6.7952451918 2.7382005520 0.5249584559
C 5.9504424386 2.8905435999 -0.5727594787
C 4.6686945473 2.3505741630 -0.5521173017
O -3.8568543301 -2.1778708505 -0.6529274039
H -5.8813374896 -0.6815830338 -0.1165337279
H -5.8459550199 1.0868591761 0.0234021830
H -5.2488721342 0.0825254112 1.3576618127
H -3.7420806861 2.3182339693 0.0335062287
H -2.9993401555 1.3232130112 1.3007187775
H -2.1714230540 1.5602402350 -0.2502562721
H -4.5971054929 -0.4674368353 -2.3083936032
H -4.5321059727 1.2924661418 -2.1054916015
H -3.0417053926 0.3846431370 -2.3651243458
H -3.2567163052 -1.2552147625 1.1156324414
H -1.4854571638 -0.5895231529 -1.2575103499
H -0.5572939387 -2.5087463340 -2.5652928592
H -0.7298688362 -5.4443369024 0.4042096224
H 0.6080760868 -0.4656215275 -1.4689848484
H 2.8435088681 0.4823232253 -1.4836145659
H 2.4835622343 1.4978279270 2.6737798415
H 0.2161432786 0.5199689686 2.7023353366
H 4.7358307764 0.9334023477 2.5322060470
H 6.9988552688 1.9071094051 2.5009882924
H 7.7949941221 3.1605031811 0.5088987507
H 6.2871460595 3.4411745512 -1.4459276443
H 4.0110293640 2.4975165828 -1.4034399504
H -3.6718906165 -2.9997554841 -0.1803846249
