53
CONF82
C 2.9871219155 2.6559048661 -0.2911833334
N 2.8952457643 1.3163879253 -0.8713794169
C 4.1922403818 0.9847647510 -1.4809671346
C 4.1827913645 -0.3839129807 -2.1460231941
C 3.8122667171 -1.4544398676 -1.1247992996
C 2.4808438616 -1.0915515170 -0.4767333325
C 2.5111874641 0.3125463196 0.1402703327
C 1.1601297762 0.6468040436 0.7874053326
C 0.0501770327 0.9211397606 -0.2322824209
N -1.2616485551 0.9961426181 0.4186522867
C -2.1941794097 1.9620822424 -0.0155175480
C -2.1088019744 2.5790751537 -1.2684777690
C -3.0235991361 3.5610965465 -1.6374548890
C -4.0640496840 3.9155275099 -0.7876272296
C -4.1922917488 3.2719996543 0.4396068848
C -3.2579160669 2.3189380062 0.8280165723
S -3.3656749583 1.5757851157 2.4412488812
C -2.7785721688 -0.0404661293 2.0139437860
C -1.7585021742 -0.1540175253 1.0504744368
C -1.2494962286 -1.4267078004 0.7748923036
C -1.7243630881 -2.5243388564 1.4825800407
C -2.7231494738 -2.4181461845 2.4410390972
C -3.2660666869 -1.1604104882 2.6819306410
S -1.0002142321 -4.1349557293 1.1334381120
O 0.3276128604 -3.9143701845 0.5283556527
O -1.1633193638 -4.9817402083 2.3273954083
C -2.0804362325 -4.8047366693 -0.1619931785
H 2.0140120576 3.0071626519 0.0626411703
H 3.3307140443 3.3575080881 -1.0580162514
H 3.6967003817 2.7054722402 0.5585262791
H 4.4252201119 1.7630860911 -2.2176096689
H 4.9993252444 1.0089525483 -0.7173453221
H 5.1688577426 -0.5784873789 -2.5831514267
H 3.4527411255 -0.3820172282 -2.9654189609
H 3.7525142684 -2.4437565914 -1.5907971205
H 4.5926381238 -1.5080517759 -0.3531038974
H 2.2145857699 -1.8168900185 0.2996691738
H 1.6965053965 -1.1369142881 -1.2429902300
H 3.2668702541 0.2984642168 0.9570402513
H 1.2392505800 1.5155626364 1.4492643579
H 0.8934763010 -0.1961136482 1.4323270133
H 0.0576071913 0.1855983278 -1.0488244276
H 0.2397868392 1.8889831352 -0.6958349962
H -1.3307101650 2.2918398987 -1.9653245425
H -2.9253191509 4.0370059755 -2.6074767413
H -4.7808334526 4.6755341522 -1.0779771121
H -5.0095459545 3.5179814551 1.1099904832
H -0.4568232911 -1.5725998524 0.0515647108
H -3.0517749508 -3.2898626969 2.9950235548
H -4.0532681784 -1.0372793875 3.4185986331
H -1.6802282914 -5.7905846011 -0.4127407735
H -3.0940126013 -4.8883584825 0.2350630500
H -2.0456252519 -4.1406360356 -1.0279079379
