45
CONF7
C 8.0989430667 1.1390634703 -3.4623809152
C 8.0122309189 1.3301479789 -2.1466711663
C 7.5824265393 0.2393038665 -1.2477117441
O 7.2859704349 -0.8880512683 -1.5891566631
O 7.5659971019 0.6781503348 0.0364368273
C 7.1407080311 -0.2488630652 1.0646291494
C 5.7869514179 0.1626545995 1.6265921732
C 4.6303668385 -0.1125363302 0.6902699320
C 3.2420482352 0.1463946117 1.3560081108
C 2.0278615712 0.1941617701 0.3637905871
C 0.6432617278 -0.0314006617 1.0693869580
C -0.5755570234 0.4619728164 0.2087693292
C -1.9407139792 -0.1673057045 0.6662487720
C -3.1891436293 0.6396367748 0.1586578229
C -4.5184867473 -0.1959977403 0.2084629697
C -5.8066502955 0.6949299310 0.1687499275
C -7.1081650427 -0.0908570929 -0.2033128899
F -7.2057769905 -1.2050250978 0.5355339945
F -7.1134640629 -0.4207888693 -1.4987637354
F -8.1687401482 0.6882859958 0.0449439648
F -5.9931078210 1.2469848394 1.3862127340
F -5.6444199060 1.6787985271 -0.7457700833
F -4.5391059916 -1.0363119400 -0.8503823304
F -4.5402420278 -0.9233362635 1.3484514382
F -3.3353500760 1.7381922740 0.9325338699
F -2.9727381777 1.0222962524 -1.1195394093
F -2.0155335548 -1.4289430763 0.1865711188
F -1.9746249460 -0.2018148363 2.0172488526
F -0.6602322233 1.8074159326 0.3143817233
F -0.3634404700 0.1312332990 -1.0842548012
F 0.6339558550 0.6402270579 2.2429448816
F 0.4948646572 -1.3537896776 1.3129966256
F 2.0115226241 1.4088796626 -0.2353974283
F 2.1812581757 -0.7586055922 -0.5820599163
F 3.2916550056 1.3350097755 2.0085019823
F 3.0258691864 -0.8353453075 2.2701764331
F 4.6466561095 -1.4140023024 0.2720267283
F 4.6961693074 0.6749239215 -0.4327514136
H 8.4116519641 1.9388189182 -4.1250553054
H 8.2469542420 2.2846411893 -1.6862729159
H 7.8858636288 -0.1721516984 1.8590846986
H 7.1303241024 -1.2657807870 0.6685404306
H 5.7887163903 1.2250379808 1.8832100243
H 5.6135706960 -0.4061028566 2.5466988377
H 7.8573573138 0.1755131352 -3.9016159308
