48
CONF5
C 1.0277122685 -0.6557024620 4.7433027789
C 1.8268014164 -1.6074187573 3.8562394771
C 2.7687590065 -0.9268334185 2.8295237885
C 3.8414187011 -0.1042266110 3.5512690840
C 3.4271096374 -2.0472536252 1.9832224295
C 4.3277693002 -1.5670337351 0.8476909209
C 1.9325839534 -0.0671465849 1.9153407307
C 0.8543874610 -0.5085670592 1.0977142204
C 0.4377900503 0.6302117922 0.4738110182
O 1.1805373625 1.6877187371 0.8618093983
N 2.1481191285 1.2248071320 1.7980132220
N -0.5457680549 0.9293002662 -0.4372850498
C -1.3999323416 0.0052546647 -0.9972973734
O -1.3895171457 -1.1762268804 -0.6790376199
C -2.3343019421 0.5771903210 -2.0155064570
C -1.8513098392 1.0037114640 -3.2615063453
C -2.7329736303 1.4821721959 -4.2348782996
C -4.0914171061 1.5269214671 -3.9398581741
C -4.5981643823 1.1110164778 -2.7126809550
C -3.7103765859 0.6300052961 -1.7464470938
O -4.0762117890 0.2155548609 -0.5065336296
C -5.4721819018 0.2604079216 -0.1707749750
O -0.5071814273 0.8897048436 -3.4319961491
C 0.0485646588 1.3271174676 -4.6823720327
H 0.3537954686 -1.2218884007 5.3934914721
H 1.6773422519 -0.0534690417 5.3847141766
H 0.4162148241 0.0275220400 4.1434801546
H 2.4469384087 -2.2643488535 4.4793488918
H 1.1352924403 -2.2583797395 3.3072108981
H 4.5296670766 0.3674539734 2.8461512068
H 3.4004199057 0.6876398639 4.1608594766
H 4.4174551117 -0.7660573047 4.2064948660
H 4.0007956544 -2.6779230362 2.6741236124
H 2.6301553967 -2.6786141853 1.5714527933
H 5.1899082694 -1.0054933236 1.2187685356
H 4.7091220115 -2.4220363007 0.2811449030
H 3.7787091715 -0.9238375318 0.1512658324
H 0.4549740945 -1.5011016641 0.9925212348
H -0.6095479277 1.8904195085 -0.7484028287
H -2.3776567511 1.8094972090 -5.2030510607
H -4.7796602830 1.8993044326 -4.6922836188
H -5.6611267823 1.1688856634 -2.5195751785
H -6.0558770916 -0.3771665748 -0.8435740987
H -5.5384392517 -0.1206810911 0.8481732576
H -5.8496864957 1.2881810423 -0.2074894028
H -0.1500916802 2.3918705814 -4.8459141833
H -0.3532314783 0.7389753202 -5.5145981279
H 1.1223110481 1.1605617287 -4.5973508433
