50
CONF23
C 6.1869988480 2.8866605732 1.0046681384
C 6.0313114239 1.4064077555 0.7475349490
O 4.7263447826 1.2185193420 0.1344592177
C 4.4018689137 -0.0657727480 -0.1615928710
O 5.1343816480 -1.0178014008 0.0853403879
N 3.1968949120 -0.1554812603 -0.7978443177
C 2.2186844418 0.9333061890 -0.8021068071
C 1.2222198566 0.7736868856 0.3612398329
C 0.5858365471 -0.5903939946 0.3182613808
C -0.7445622865 -0.7941314671 0.2484512580
C -1.7588975062 0.2893927731 0.3435036492
C -2.7769157528 0.4897320313 -0.6101014793
C -2.9665955095 -0.2981940474 -1.8936650216
C -1.9742328965 -1.4229723787 -2.2105857521
C -1.9442061488 -2.4666463515 -1.1341868526
C -1.3289258633 -2.1556792404 0.0882147225
N -1.2696940591 -3.0069227497 1.1218547989
C -1.8252817915 -4.2170441400 0.9643814256
C -2.4563140517 -4.6214518573 -0.2058050539
C -2.5144475038 -3.7280460056 -1.2711663633
C -3.7113068646 1.5115740793 -0.3935773241
C -3.6432592628 2.3056092509 0.7372487109
C -2.6605951337 2.1153694150 1.7000058392
C -1.7371323524 1.1030572992 1.4886567749
Cl -4.8401090528 3.5798647469 0.9665466390
C 1.5876959871 -1.7119234961 0.2348450222
C 2.5760402866 -1.4731817546 -0.9207275958
H 7.1615405027 3.0715689689 1.4657614795
H 5.4098510615 3.2494161632 1.6834688454
H 6.1338795063 3.4537551282 0.0709530735
H 6.0730064734 0.8252502067 1.6740600502
H 6.7991554255 1.0286433752 0.0647956945
H 2.7269370825 1.8949115085 -0.7455615214
H 1.6753330773 0.8872313031 -1.7544973358
H 1.7733899337 0.8987738339 1.3041057828
H -2.9600098646 0.4146114544 -2.7275740284
H -3.9783977498 -0.7242234988 -1.8725990202
H -2.2685886006 -1.8776272197 -3.1614851560
H -0.9697811796 -1.0033463915 -2.3424084908
H -1.7612628172 -4.8907896260 1.8169634544
H -2.8894097446 -5.6133175496 -0.2798893399
H -2.9934468764 -4.0096645458 -2.2052404244
H -4.4938190795 1.6808502032 -1.1270539756
H -2.6227048230 2.7292665094 2.5924045866
H -0.9741382518 0.9216986204 2.2391975137
H 1.1025027141 -2.6806301087 0.0992720806
H 3.3538498272 -2.2374126449 -0.9285263817
H 2.0401949362 -1.5068698269 -1.8775479950
H 0.4773992642 1.5698939638 0.2996431713
H 2.1634862090 -1.7563041142 1.1704880390
