68
CONF121
C 2.3684760252 -4.4408032969 -2.3174361360
C 2.0929248988 -3.6745935723 -1.0254388644
C 1.4885538370 -2.2554147278 -1.2167061860
C 0.1571090011 -2.3181126169 -1.9704392509
C 1.3382202189 -1.7027719823 0.2002718450
O 0.0591638131 -1.6133811337 0.5998573452
C -0.2075249629 -1.1273291048 1.9568018526
C -0.3620746751 -2.3492198820 2.8453958260
C -0.6621548219 -1.9507805206 4.2895652640
C -1.7508593400 -0.9210990795 4.3158450732
C -2.1327399912 -0.1850941395 3.2556876087
C -3.2099713275 0.7879442576 3.3642802945
C -3.4792420501 1.6860453163 2.4040198943
C -2.6541123695 1.8300915723 1.1576821281
C -1.2786001344 1.1502719241 1.3411165351
C -1.4799802903 -0.2874602669 1.8881804522
C -0.4063775299 1.2197013532 0.0849880638
C -0.2025205001 2.6374106503 -0.4512402790
C 0.8500543726 2.6927155179 -1.5435859710
C 1.1104423788 4.0858176400 -2.0769831135
C 2.0790572543 4.0057916312 -3.2377130847
C 1.4460516179 3.1688006014 -4.3439384193
C 0.7733787942 1.8945625453 -3.8877493345
O 0.3865958554 1.7791633655 -2.6048014557
O 0.4997959365 0.9919143882 -4.6545762276
O 2.3526302392 5.3363795065 -3.6886114004
C -3.4434560840 1.3416256646 -0.0703979545
C -1.0286875555 -3.1742410716 5.1362753000
O 2.2854207941 -1.3938397659 0.9014203762
C 2.4654037897 -1.3309788719 -1.9631116334
H 3.0693277342 -3.9055355888 -2.9648960068
H 2.8139590993 -5.4119180881 -2.0805984230
H 1.4529396705 -4.6276799075 -2.8857013260
H 1.4027704146 -4.2573659695 -0.4004080841
H 3.0246178580 -3.5688490596 -0.4579891684
H -0.5410920589 -3.0165552029 -1.5009785552
H -0.3142703952 -1.3320645438 -2.0117292787
H 0.3336522036 -2.6445471573 -2.9989599857
H 0.6434569083 -0.5203232746 2.2851455484
H 0.5504716529 -2.9538605069 2.7945352878
H -1.1913597370 -2.9579647369 2.4599571676
H 0.2475545768 -1.5052765140 4.7252478703
H -2.2623822002 -0.7661312533 5.2661955607
H -3.8103666225 0.7622787044 4.2718268103
H -4.3240158314 2.3627531336 2.5197487010
H -2.4770931662 2.9057221353 1.0159526541
H -0.7569636552 1.7117750051 2.1324643282
H -2.1771631682 -0.8167784184 1.2208223790
H -0.8227326617 0.5819483880 -0.7004590905
H 0.5849884718 0.8171191518 0.3222930470
H -1.1338188721 3.0618402311 -0.8440275038
H 0.1373298621 3.2970198082 0.3581429460
H 1.7876880767 2.2542280000 -1.1739131851
H 1.5319765038 4.6917756886 -1.2683699718
H 0.1719699265 4.5516222297 -2.4048741279
H 3.0112218036 3.5281097707 -2.8975924324
H 0.6512044894 3.7657151698 -4.8135710199
H 2.1606960667 2.9063878208 -5.1291220572
H 3.0007408382 5.2824002499 -4.4028693051
H -3.6207321111 0.2626352619 -0.0254000465
H -2.9182922415 1.5654488940 -1.0038426364
H -4.4189920638 1.8369036407 -0.1068172658
H -1.2076390068 -2.8893278537 6.1778946463
H -0.2213578739 -3.9133663389 5.1158826725
H -1.9383961746 -3.6466034250 4.7493762056
H 2.5874431957 -1.6691443672 -2.9954434206
H 2.0733563919 -0.3086836201 -1.9909607090
H 3.4443251293 -1.3168219617 -1.4770598459
