70
CONF64
C -1.2832293594 -1.4779825856 1.3279025462
C -2.5654081090 -1.4142585368 2.1904053912
C -2.1918758970 -1.3109152958 3.6322575533
C -2.7905928169 -1.6694304905 4.8121129378
N -1.9422121325 -1.3464078340 5.8700783374
C -0.7812216781 -0.7907610759 5.3771051849
C 0.3903896162 -0.3168394919 5.9686036867
C 1.3725265573 0.1621720645 5.1080497757
C 1.2185384958 0.1820097343 3.7052196762
C 0.0487153728 -0.2798667654 3.1163841542
C -0.9318532961 -0.7620510017 3.9788971148
C -0.3126209752 -0.3007399684 1.6465808979
C 0.9136358645 -0.3354342388 0.7383135563
C 0.4629367467 -0.3315297062 -0.7279327728
C -0.4333807098 -1.5455125437 -0.9567626662
N -1.6246984092 -1.4434433502 -0.1064190801
C -2.6380092462 -2.4351241357 -0.5097151777
C -2.3120483900 -3.8694364333 -0.1877854118
C -3.1259615161 -4.6939371955 0.4653846620
C 1.6626128231 -0.3672109558 -1.6573603076
O 2.1206391846 -1.4527870519 -2.0190881225
N 2.2025124698 0.8505605383 -2.0430428555
C 1.6054810731 2.1211165255 -1.5920441937
C 0.4716606219 2.6210123470 -2.4922349091
C -0.4375347975 3.5804590189 -1.7230190062
N -1.1839075614 2.8892242518 -0.6623757207
C -1.5866349293 3.8066836674 0.3997114671
C -2.3579683112 2.2003107684 -1.1956715731
C 3.2620321582 1.0142752623 -3.0144326008
O 3.5269621290 2.1374521909 -3.4240927893
N 3.9129062017 -0.1060432195 -3.3883487648
C 4.9111148101 -0.0491227036 -4.4494230274
C 4.2908436221 -0.0122850350 -5.8444800346
H -0.7531311198 -2.4182205502 1.5887701877
H -3.1533538745 -0.5426639744 1.8659490423
H -3.1749951627 -2.3049782791 2.0199841288
H -3.7480943202 -2.1318671258 5.0059221187
H -2.1428802305 -1.5209806516 6.8383216861
H 0.5435813640 -0.3207553022 7.0428759377
H 2.2999442103 0.5338364054 5.5321813407
H 2.0348260536 0.5652928922 3.1021975846
H -0.8647145725 0.6263662188 1.4165137002
H 1.5577837759 0.5244288635 0.9497844607
H 1.5045727220 -1.2398610192 0.9359305599
H -0.1414295934 0.5645630381 -0.8908465158
H -0.7587115298 -1.5724244994 -2.0038380324
H 0.1547160576 -2.4612031043 -0.7751818159
H -3.6068053718 -2.1720930204 -0.0710403316
H -2.7569890095 -2.3302930847 -1.5969716727
H -1.3450899021 -4.2381019497 -0.5276816196
H -4.1014824765 -4.3636676917 0.8168938237
H -2.8566779594 -5.7264956231 0.6633508505
H 2.4087209293 2.8598115417 -1.5698484823
H 1.2335755976 1.9946867510 -0.5750777835
H 0.8920661772 3.1205686430 -3.3706190652
H -0.1098672915 1.7689747372 -2.8646138918
H -1.1177189430 4.1076218540 -2.4191503044
H 0.1862541341 4.3517501298 -1.2521611841
H -2.2587879982 4.6114870033 0.0424029040
H -0.7027995907 4.2708028185 0.8492864808
H -2.1128933524 3.2514991302 1.1837493566
H -3.1159714654 2.9050694694 -1.5903751490
H -2.0730817978 1.5215712974 -2.0048485359
H -2.8177857894 1.5891045005 -0.4119912959
H 3.5282135072 -0.9883977928 -3.0614451579
H 5.5284497818 0.8401080300 -4.2902173347
H 5.5534546657 -0.9290098103 -4.3369079044
H 5.0735318117 0.0202200053 -6.6091061405
H 3.6655444925 0.8776967645 -5.9541511382
H 3.6736749506 -0.8986036551 -6.0208180052
