39
CONF8
C -3.4795000710 -0.5378777180 -0.2820404186
C -2.7868512025 -0.0459784739 0.9877873808
C -3.5593438167 -0.4948544502 2.2288284733
C -1.2812526739 -0.4637004549 1.0404395170
C -0.5761629707 0.0881501576 2.2972515675
C -1.1724727665 -1.9318054228 1.1022298073
N -1.1354435176 -3.0654330677 1.3241116972
N -0.5546162191 0.0687303386 -0.1172692917
C -0.2959065468 -0.5696314871 -1.2771639240
O -0.7153603290 -1.6833171242 -1.5796014619
C 0.5555921475 0.2271683707 -2.2756138550
C -0.3423149080 0.9955428614 -3.2297339745
O 1.3966281281 1.2022983074 -1.6284291741
C 2.4296532232 0.7572945204 -0.8603644971
C 3.1923829773 1.7349277555 -0.2029193447
C 4.2640261427 1.3967357283 0.6090122827
C 4.5746375996 0.0516477652 0.7716530466
C 3.8392207669 -0.9408009442 0.1422288528
C 2.7675387043 -0.5841566132 -0.6711145050
Cl 5.9283903888 -0.3883162356 1.8014658344
Cl 2.7810726180 3.4228686313 -0.4070833340
H -3.5172918623 -1.6324454421 -0.3084245138
H -2.9774013068 -0.1888571668 -1.1875103315
H -4.5073820580 -0.1641886542 -0.2996568316
H -2.7538776770 1.0519700850 0.9699894521
H -3.1677628580 -0.0544153778 3.1483918640
H -3.5426432690 -1.5860236689 2.3290234617
H -4.6040464655 -0.1867246760 2.1308676561
H 0.4927915670 -0.1336201724 2.2477703957
H -0.9869802550 -0.3576192358 3.2027534672
H -0.7218511318 1.1722379670 2.3359932606
H -0.1535347779 0.9883191142 0.0117686910
H 1.1699578983 -0.4942015460 -2.8266062905
H -0.9402422593 1.7301653766 -2.6827188555
H 0.2652777232 1.5089217196 -3.9786691523
H -1.0128154285 0.2968193376 -3.7357959493
H 4.8388956900 2.1698729210 1.1041901523
H 4.0878347495 -1.9864348415 0.2800176145
H 2.2011537712 -1.3732682794 -1.1507972646
