31
CONF5
C -2.9776127054 -0.5319209413 1.2723657274
C -2.0624731029 0.2939567882 0.3931110101
C -2.3844512969 0.1977305004 -1.1212419829
C -1.0132382552 0.1010359177 -1.7331064589
C -0.5624985083 0.2003754414 -3.0393112216
C 0.7988830386 0.0216862480 -3.2989148730
C 1.6893704149 -0.2414248808 -2.2594384869
C 1.2322849567 -0.3393524106 -0.9516589338
C -0.1230961773 -0.1813395416 -0.7008271574
O -0.7026040716 -0.2849339440 0.5193250261
O 2.1153325706 -0.6431321298 0.0765930355
C 2.2662312576 0.3396582313 1.0434108333
O 1.8290108722 1.4642206845 0.9513394194
N 2.9921244481 -0.1505202748 2.0781805288
C 3.4873411764 -1.5145536207 2.1909225132
C -1.9569463547 1.7424894850 0.8487129377
H -2.9736920513 -1.5782168252 0.9549644144
H -4.0007528211 -0.1489308618 1.2069700523
H -2.6554511576 -0.4800273156 2.3161398056
H -2.9504825835 1.0698314587 -1.4624778146
H -2.9773367440 -0.6992877552 -1.3435651906
H -1.2529365349 0.4147288961 -3.8491368334
H 1.1725422100 0.1000068079 -4.3138335685
H 2.7510464235 -0.3605164192 -2.4472920969
H 3.1793976663 0.5137808203 2.8080578262
H 2.6697565864 -2.2393758488 2.1268332683
H 4.2173543214 -1.7468724335 1.4077406266
H 3.9742445195 -1.6240325943 3.1624584674
H -1.2528353926 2.2871591895 0.2125043280
H -1.5921391588 1.7886954659 1.8779191267
H -2.9363731437 2.2290821536 0.7946921007
