46
CONF72
C -0.8085656183 -1.1686987801 1.3213046697
C -2.0145468503 -1.2281739807 0.4147105228
C -3.2695277171 -0.6432210865 1.0230025503
C -2.1412051530 -2.3760601315 -0.5361946295
C -3.4355652985 -3.0275171957 -0.8222538063
C -3.7042098995 -3.6445577450 -1.9724917284
Cl -5.2139055945 -4.4503709116 -2.2835676370
Cl -2.5685074044 -3.7053984622 -3.2836410906
C -1.8552340810 -0.9829928809 -1.0921601815
C -0.5293383913 -0.7388683243 -1.6891756900
O 0.4734580016 -1.3946274356 -1.5060473704
O -0.5777731159 0.3641938726 -2.4889539502
C 0.6573322191 0.7478373599 -3.1223746479
C 1.4291115471 1.7610455962 -2.3159660339
C 1.2541422883 1.8828231509 -0.9422255203
C 2.0215255231 2.8015015665 -0.2313616542
O 1.8305470124 2.9972680392 1.1237614347
C 1.7516145266 1.9008769261 1.9587436687
C 2.4545483507 0.7211457360 1.7214776328
C 2.3803040823 -0.3078210405 2.6542421012
C 1.6205576675 -0.1673096007 3.8121840452
C 0.9257584918 1.0186537753 4.0355543112
C 0.9836173473 2.0548064375 3.1104587590
C 2.9517202798 3.6123446124 -0.8686321140
C 3.1126925997 3.4926934248 -2.2454155710
C 2.3612081696 2.5733898644 -2.9672896982
H -0.5905927533 -0.1350711408 1.6125649168
H 0.0818995392 -1.5854297154 0.8493085866
H -1.0114827178 -1.7324541536 2.2383880000
H -3.0927184017 0.3959198327 1.3185153861
H -4.1140438598 -0.6591863283 0.3285027858
H -3.5526239299 -1.2033674161 1.9218680322
H -1.2658827353 -3.0216922605 -0.6006458904
H -4.2092781635 -3.0379014159 -0.0601294303
H -2.6773649215 -0.4587398046 -1.5669829688
H 1.2671531632 -0.1477922548 -3.2874848317
H 0.3684555059 1.1723221395 -4.0877780751
H 0.5294843229 1.2732621716 -0.4148480814
H 3.0481202187 0.6106273761 0.8210240691
H 2.9264515601 -1.2274738926 2.4700323512
H 1.5697405466 -0.9755826463 4.5336341484
H 0.3292327037 1.1398644429 4.9341872504
H 0.4515930598 2.9867603086 3.2673374917
H 3.5264273506 4.3232252950 -0.2859334908
H 3.8315211761 4.1243207544 -2.7572224094
H 2.4941497499 2.4883679249 -4.0420264241
