46
CONF8
C 1.4913824906 1.5760166787 4.0142215494
C 1.4571387800 1.2929865182 2.5323066383
O 2.6212239878 0.4596766721 2.2353009962
C 2.7871304805 0.0312250069 0.9851217321
N 3.8713913114 -0.7029411942 0.7885598973
C 4.0287174602 -1.1355638463 -0.4873987897
N 3.1740625287 -0.8771041678 -1.5043129929
C 2.1318913322 -0.1307424108 -1.1573434810
N 1.8752757416 0.3673774791 0.0595108119
N 1.2382159752 0.1383631544 -2.1815790953
C 0.0255167527 0.8260126856 -2.1861961270
O -0.6589090475 0.8683138202 -3.1973808077
N -0.3062033468 1.4401233028 -0.9968626333
S -1.8462112074 2.0943312055 -0.7174566107
O -1.8371673117 2.3936837734 0.7216811155
O -2.0882636474 3.1618740642 -1.6894412879
C -3.0322016212 0.7781449267 -1.0210080382
C -3.7851063265 0.8419772494 -2.1873021318
C -4.7898269280 -0.0969122130 -2.4003121097
C -5.0478227110 -1.0699565020 -1.4409605333
C -4.2993642910 -1.1170066142 -0.2683783135
C -3.2709553027 -0.2009341834 -0.0489548089
C -2.4139986751 -0.3714865294 1.1653530569
O -1.2216324234 -0.5965026211 1.1196265159
O -3.1381769739 -0.3155956144 2.2856889707
C -2.3951949755 -0.5287793325 3.5175724791
N 5.1204487012 -1.8747739991 -0.7309076100
C 5.5029975083 -2.4431696898 -2.0135561625
H 2.4073671040 2.1037149370 4.2937661452
H 0.6359325114 2.2064856519 4.2736479269
H 1.4243707057 0.6487528809 4.5902314153
H 0.5525410150 0.7491520280 2.2441639441
H 1.5276681624 2.2112006241 1.9397140161
H 1.4694698097 -0.2775972627 -3.0746265383
H 0.2634583616 1.1861790516 -0.1707431836
H -3.5914408405 1.6239045134 -2.9112667394
H -5.3754577017 -0.0555481939 -3.3122195976
H -5.8384728713 -1.7954900516 -1.6002668568
H -4.4993366554 -1.8768692131 0.4796499385
H -1.6195954210 0.2341762897 3.6175996828
H -1.9437842788 -1.5232327862 3.5125657525
H -3.1319462723 -0.4396236068 4.3139331945
H 5.7220122534 -2.0361071152 0.0629203443
H 6.4737873692 -2.0475456860 -2.3306653970
H 5.5746958074 -3.5334114642 -1.9395633880
H 4.7543723626 -2.1867786451 -2.7614901770
