45
CONF93
C 0.1018908532 -2.2291478246 2.0538105427
C -0.5880138134 -1.9487306688 0.7583266245
C -1.4658542232 -0.9584799414 0.5714721275
C -2.1338152788 -0.6934399899 -0.7107744422
C -2.2028741781 0.7536026664 -1.2978288814
C -3.4489553438 0.0256454154 -0.8308728410
C -4.2025861364 0.4744784229 0.4009380874
C -4.3593374392 -0.4339538545 -1.9515840298
C -1.5104367953 1.8008263166 -0.5349257523
O -1.5671466920 2.0123873230 0.6564377791
O -0.6769400898 2.5053949437 -1.3678223737
C 0.3482662565 3.2670310312 -0.6822907666
C 1.4258841253 2.3163040922 -0.2393171236
C 1.6305905849 1.9654956986 1.0927052076
C 2.5379877190 0.9718635044 1.4403953533
C 3.3019027785 0.3051912220 0.4879275844
C 3.1114906711 0.6777474582 -0.8389286819
C 2.1953966455 1.6552295401 -1.1934260920
F 2.0392181270 1.9600107599 -2.4915641764
F 3.8243658152 0.0786042298 -1.8114520204
C 4.2557896645 -0.7965550749 0.8858473359
O 3.5949586037 -2.0406171526 1.0892600837
C 3.0849608869 -2.6027678037 -0.1151861565
F 2.6837140687 0.6598392939 2.7375876037
F 0.9615090869 2.5898292419 2.0674310371
H -0.2308172905 -1.5392483994 2.8343156073
H 1.1901944708 -2.1308446601 1.9560176100
H -0.0932904409 -3.2537120016 2.3934758695
H -0.3469586290 -2.6068989296 -0.0784326314
H -1.6957672589 -0.2992762317 1.4030065288
H -1.9320747895 -1.4362535024 -1.4801843691
H -2.0476310002 0.8153973525 -2.3696654359
H -3.5531268230 0.8800645166 1.1744913449
H -4.7626207979 -0.3723748351 0.8124250062
H -4.9220688408 1.2535648999 0.1271351371
H -4.9839970916 -1.2671936471 -1.6114852957
H -3.7901053992 -0.7700769903 -2.8233884463
H -5.0211459649 0.3797608734 -2.2678645993
H 0.7224321328 3.9669935093 -1.4306287416
H -0.0747875810 3.8026584429 0.1688137784
H 4.7209897747 -0.5486284461 1.8423966187
H 5.0400745026 -0.8960620954 0.1223952007
H 3.8843004227 -2.7461027103 -0.8570582799
H 2.6580657139 -3.5724486193 0.1504975586
H 2.2963698026 -1.9751076724 -0.5557613957
