45
CONF14
C -3.2285349324 2.1226413966 2.1660408865
C -3.4751588091 1.9570491423 0.6936961710
C -3.0919913745 0.8922790644 -0.0292653660
C -2.3559193471 -0.2841524890 0.4616251607
C -1.5273248252 -1.1185911059 -0.5182888617
C -2.7666177601 -1.7038201559 0.1591036082
C -2.6070486890 -2.7329862987 1.2545441115
C -3.9543239555 -1.9574923292 -0.7418586156
C -0.1695957523 -1.5088233629 -0.1004517717
O 0.2548245206 -1.5419234154 1.0340115233
O 0.5918125540 -1.8261073666 -1.1911937248
C 1.9881622574 -2.0784318850 -0.9358154373
N 2.6520060093 -0.8915804301 -0.4651374624
C 3.0820072656 -0.6956761245 0.8469849846
O 3.2774122007 -1.5450815515 1.6780797280
C 3.2755545080 0.8062552493 0.9872757521
N 3.1454536961 1.3038587134 -0.3769868525
C 2.6436719437 0.3082424402 -1.2057339500
O 2.2737153071 0.4269573290 -2.3512262792
C 2.6307391107 2.6567796335 -0.6090891859
C 1.2220738486 2.7508663228 -0.2335441216
C 0.0601152518 2.6921262846 0.0785457964
C -4.2067501048 3.1020317977 0.0514998152
H -2.6559209597 3.0386308762 2.3626604361
H -2.6960586770 1.2837597009 2.6151899359
H -4.1824528074 2.2381466501 2.6954091991
H -3.3387384688 0.8954532667 -1.0895434648
H -1.8580082487 -0.1823366958 1.4215219323
H -1.6308228089 -0.8939169978 -1.5746893690
H -1.7543755086 -2.5154668914 1.8990768485
H -3.5140354125 -2.7537024000 1.8688783553
H -2.4697142445 -3.7323058765 0.8256043801
H -4.8833007396 -1.8838284751 -0.1654286490
H -3.8967569117 -2.9661216535 -1.1645576657
H -4.0156658430 -1.2481659065 -1.5696874169
H 2.1194645286 -2.8501627275 -0.1714870925
H 2.3833702011 -2.3856668630 -1.9049049957
H 2.4772642760 1.1883329678 1.6423582056
H 4.2490228917 1.0351963952 1.4325276530
H 3.2423269089 3.3679456598 -0.0434925204
H 2.7504794379 2.8842166064 -1.6733352389
H -0.9806082300 2.6160889360 0.3015657487
H -4.3682556914 2.9354977831 -1.0161750211
H -3.6477371021 4.0392769635 0.1727111720
H -5.1819972901 3.2585116845 0.5293778890
