55
CONF114
C 5.5018105202 -3.8466094995 -2.3039745066
O 4.2980284109 -3.1570912432 -2.6661759060
C 3.4753660487 -2.7552223237 -1.6588197599
C 3.7227646754 -2.9694552272 -0.3009622646
C 2.8006946857 -2.5131675061 0.6388326049
C 1.6394736783 -1.8408695670 0.2602788403
C 1.4039366813 -1.6438514656 -1.1070008324
C 2.3069802774 -2.0919262153 -2.0554424563
C 0.7049191912 -1.3419735718 1.3296330636
S -1.0219711951 -1.9137162504 0.9228034988
C -2.0363587438 -0.7941567671 1.8709119765
C -2.8438507982 -1.3081435078 2.8898306519
C -3.7212278537 -0.4830437650 3.5834304663
C -3.7750775273 0.8762166890 3.2834109859
C -2.9639989407 1.4030802388 2.2864650186
C -2.1002073919 0.5778451122 1.5618286482
N -1.3182826193 1.1470208197 0.5195724609
C -2.0130558870 1.8583392542 -0.5666130433
C -2.4202609801 0.8605567789 -1.6697990435
N -3.1252919321 1.4293552198 -2.8146768743
C -2.3013256206 2.3534285435 -3.5933241632
C -4.4081605441 2.0328386098 -2.4579236469
C 0.0297577382 0.9614217025 0.4049417629
O 0.6863801056 1.4111641767 -0.5301803536
C 0.6960820572 0.1828399432 1.5442099296
O 2.0740329069 0.5722998354 1.6583888439
C 2.2858308698 1.8448202564 2.0836029607
C 3.7494524165 2.1412774161 2.1730870859
O 1.3826212739 2.6045515142 2.3618007638
H 6.1456153978 -3.2134085217 -1.6825061568
H 6.0066621674 -4.0723981821 -3.2434598036
H 5.2760476591 -4.7790082129 -1.7734691753
H 4.6122119736 -3.4867397665 0.0364987182
H 2.9996292601 -2.6834393457 1.6933792256
H 0.5022965310 -1.1379765302 -1.4347983977
H 2.1228230233 -1.9396661728 -3.1140584123
H 0.9939872484 -1.7924544384 2.2843784967
H -2.7818504442 -2.3650989229 3.1264653350
H -4.3493707648 -0.8984607663 4.3644385554
H -4.4392023135 1.5330860337 3.8354638124
H -2.9887211281 2.4660456176 2.0699630501
H -1.3402134858 2.6261549932 -0.9532133202
H -2.8936425982 2.3450217380 -0.1434293386
H -1.5128254545 0.3627997582 -2.0341940700
H -3.0577897836 0.0893935583 -1.2162668647
H -2.0889222158 3.3053797041 -3.0735079901
H -2.8167404652 2.5967881696 -4.5291628424
H -1.3463139108 1.8775631887 -3.8404247674
H -4.9972049804 1.3250277937 -1.8646686763
H -4.3115714688 2.9715472886 -1.8821812691
H -4.9668203657 2.2636889948 -3.3718288990
H 0.1894677766 0.4064403627 2.4878516879
H 4.1772799434 1.5706295051 3.0039617942
H 4.2574981845 1.8254009719 1.2587489495
H 3.8986069276 3.2058552824 2.3478832546
