41
CONF8
C 1.8218966489 2.9098137234 -0.7579520179
C 2.2374447610 1.9673699454 0.3217875352
N 1.2590032980 1.3319481702 0.9735251705
C 1.6684422818 0.4576771082 1.9029823047
N 2.9372835158 0.2217717086 2.2492426783
C 3.8160358636 0.9450193219 1.5567350532
N 3.5413973154 1.8153841968 0.5738751795
O 5.0850496522 0.7404705024 1.9059018411
C 6.0958440882 1.4840854843 1.1940686147
N 0.7291535331 -0.2922274858 2.5746120235
C -0.6618540304 -0.4265173255 2.3892638035
O -1.2614649560 -1.3107436522 2.9673774015
N -1.2299568869 0.5100002878 1.5529811088
S -2.8307478455 0.3341077381 0.9832827235
O -2.9510083713 1.3721038989 -0.0436789351
O -3.7337334529 0.2777668870 2.1253526783
C -2.8531091708 -1.2743772597 0.1709028952
C -3.4530730913 -2.3280514092 0.8477324266
C -3.5813235342 -3.5591734156 0.2131687945
C -3.1340010451 -3.7180387644 -1.0934416390
C -2.5442570505 -2.6539643015 -1.7679888621
C -2.3788322663 -1.4211527054 -1.1372830985
C -1.6225587031 -0.3463349255 -1.8522445921
O -0.6033684174 0.1619359463 -1.4400882549
O -2.1779183755 -0.0785293123 -3.0451148668
C -1.5029787076 0.9477084858 -3.8078767060
H 1.3235035767 3.7771904544 -0.3114334444
H 1.0915090583 2.4163794714 -1.4057391574
H 2.6861565221 3.2462835348 -1.3299150434
H 6.0699430582 1.2458651447 0.1280119317
H 7.0383552237 1.1643528950 1.6379859282
H 5.9504667835 2.5586707752 1.3285187425
H 1.1063429861 -0.9683007077 3.2244659685
H -0.5858626579 1.0476393879 0.9525629578
H -3.8135855652 -2.1699245926 1.8568807429
H -4.0408914629 -4.3883650924 0.7398733207
H -3.2461065042 -4.6735460238 -1.5949785640
H -2.1967723451 -2.7748667649 -2.7883280301
H -2.0761918116 1.0466684677 -4.7287878399
H -0.4730463079 0.6488865389 -4.0193895247
H -1.5051861154 1.8856539547 -3.2468511377
