46
CONF78
C 1.2827802366 1.1153956759 1.4906553450
C 2.5037391761 0.4674389134 2.1326777049
O 2.8456809671 -0.7949920925 1.5564666817
C 2.0894195400 -1.8941224364 2.0589294455
C 1.6059819122 -2.7650686302 0.9221764922
O 0.5678865596 -2.0718722466 0.2499726407
C 0.0129433900 -2.7866399250 -0.8431129691
C -1.0902025710 -1.9429106999 -1.4409946873
O -2.2055699777 -1.8446246914 -0.5340736664
C -2.2166961293 -0.7780867854 0.3281425569
C -2.2368367995 -1.0277131820 1.6943206183
C -2.3320869252 0.0161284713 2.6100796781
C -2.4048867068 1.3250006567 2.1495718491
C -2.3961668896 1.5909068343 0.7822154410
C -2.3138324963 0.5475063387 -0.1411677824
O -2.3763383654 0.6973853321 -1.4960871722
C -2.0698123146 1.9749726102 -2.0673516662
C -0.6323138232 2.3908177593 -1.8437406776
O 0.2049453236 1.4251028935 -2.4721154839
C 1.5880939554 1.5472375439 -2.1357768949
C 1.9490908764 0.9057909280 -0.8108728068
O 1.5618498728 1.7758167347 0.2582427616
H 0.9050221513 1.9006673070 2.1559934960
H 0.4843247961 0.3685332096 1.3560691285
H 3.3751462589 1.1170787849 1.9899363874
H 2.3359748186 0.3601532287 3.2166374004
H 1.2125400444 -1.5485300008 2.6249922753
H 2.7218461104 -2.4934834827 2.7331514359
H 2.4397069129 -2.9858751666 0.2346585698
H 1.2322607317 -3.7209776115 1.3294266230
H -0.3886088198 -3.7567560553 -0.5054521643
H 0.7803643416 -2.9798221344 -1.6150950131
H -0.7141453635 -0.9509538645 -1.7104220306
H -1.4733944113 -2.4292986572 -2.3441860269
H -2.1669940480 -2.0607852854 2.0181272943
H -2.3451854789 -0.1949901254 3.6741661838
H -2.4763944327 2.1507061719 2.8500850273
H -2.4747184228 2.6164260722 0.4411082921
H -2.2583617168 1.8404068819 -3.1359934971
H -2.7515337957 2.7513536454 -1.6920788290
H -0.4832490127 3.3868109967 -2.2985107242
H -0.4010851557 2.4644063358 -0.7755900277
H 2.1304071489 1.0271712158 -2.9339296271
H 1.8985689669 2.6045485792 -2.1424711312
H 1.4440258507 -0.0643451791 -0.7173642029
H 3.0358154180 0.7240861472 -0.7784729642
