46
CONF70
C 5.5564708490 0.5208797861 1.0474782122
C 4.0489511977 0.7307115002 0.9686649559
C 3.2876281572 -0.0758376876 2.0748556884
N 1.9434385535 -0.2850958584 1.5520183490
C 1.8671807759 -0.6625461950 0.1295934692
S 3.4252801778 -0.0419240288 -0.6311505827
C 0.5462302212 0.1770760439 0.0281959575
C 0.8282961094 0.5308983027 1.4961202304
O 0.3120539992 1.2419562116 2.3403533667
N -0.6855016655 -0.4774620064 -0.2720175728
C -1.5295402881 0.0219107577 -1.2449961113
O -1.1912614142 0.9074186030 -2.0112966672
C -2.8846353758 -0.6185677119 -1.2754174691
C -3.6669641213 -0.7561868397 -0.1214361093
C -4.9539031871 -1.2830407943 -0.1731777598
C -5.4631926171 -1.6959266152 -1.3952259522
C -4.7100726976 -1.5917851121 -2.5603136729
C -3.4210795539 -1.0565360616 -2.5056612010
O -2.5981018705 -0.9641387597 -3.5752758581
C -3.0919600113 -1.3885476573 -4.8429846506
O -3.1608645996 -0.4063447251 1.1149067704
C -3.1592948374 1.0113493570 1.3730471014
C 3.4351765201 0.5800081815 3.4581985560
O 4.5080995935 0.5072028638 4.0079556291
O 2.4108088831 1.2267884301 4.0106558872
C 3.6952366296 2.2160732117 1.0158206432
H 5.8107349355 -0.5414780501 1.0169789681
H 6.0524446736 1.0208770611 0.2104531016
H 5.9357666730 0.9444983189 1.9813420078
H 3.7661128122 -1.0573428868 2.1675186981
H 1.7503282249 -1.7345202557 -0.0545370855
H -5.5251839604 -1.3650374007 0.7441650623
H -6.4638451923 -2.1125843249 -1.4480235575
H -5.1275209572 -1.9349694134 -3.4975743901
H -3.9710026529 -0.8044004106 -5.1424149399
H -3.3412665699 -2.4574217147 -4.8366260687
H -2.2796673825 -1.2077411917 -5.5473736751
H -4.1887343052 1.3891608813 1.3962336217
H -2.5874064627 1.5554133212 0.6116372235
H -2.6835038689 1.1467107515 2.3448712509
H 4.1382594356 2.7324649241 0.1610185141
H 4.0886605924 2.6679686928 1.9342086618
H 2.6152353594 2.3854371325 0.9805911278
H 1.5858412329 1.2439960510 3.4595600197
H 0.6586786202 1.0430516092 -0.6331684813
H -1.1069081236 -1.0598111991 0.4382702052
