24
CONF162
C 1.2781936076 -0.9673499200 -1.7755848836
C 1.4377766526 -0.9236356414 -0.2630511774
C 0.6337660353 0.1657693688 0.4496804486
C -0.8618068555 0.1544252275 0.1301911429
C -1.6496877739 0.9359532022 1.2152585360
C -3.1215198127 0.9320436355 0.8805282117
O -3.9402076274 0.4981325895 1.6639433077
O -1.4251795220 0.3769994060 2.4850713615
O -1.1219178443 0.7150982100 -1.1498877945
O 1.1046758847 1.4678684588 0.0851623423
O 2.8031269576 -0.6511086259 0.0740827104
O 2.2384846498 -1.9363174458 -2.2321500507
H 0.2567407767 -1.2629424764 -2.0441854396
H 1.4879444019 0.0227025422 -2.2032594567
H 1.1361228009 -1.9000671235 0.1515669934
H 0.7601344710 0.0055689200 1.5290694863
H -1.2238938101 -0.8820879601 0.1267444535
H -1.3001758231 1.9844286631 1.1778083706
H -3.4081238766 1.3321964277 -0.1092541723
H -2.3043804068 0.1415827011 2.8295388150
H -0.4815444343 1.4365786165 -1.2500449831
H 2.0705013533 1.4095121187 0.0874347177
H 3.3418414299 -1.1670333032 -0.5414401757
H 2.2891282732 -1.8883178823 -3.1915297530
