44
CONF22
C -0.9896078135 -2.5078122970 0.3026876876
C -0.9371220280 -1.0314779973 0.6935585136
C -2.0396021540 -0.2601653040 -0.0323893990
O -1.8750406979 0.3790160764 -1.0516502894
O -3.2079985540 -0.4375402569 0.5892233378
C -4.4028396258 0.1926146090 -0.0090181931
C -5.5780584110 -0.6442585253 0.4479615762
C -4.4716690822 1.6357651900 0.4517182292
N 0.3648481552 -0.3953265561 0.4304920990
C 1.3631910726 -1.0492404153 -0.3506787336
C 2.5402955624 -1.4890055295 0.2520465235
C 3.5222529542 -2.1073413483 -0.5119213140
C 3.3036277107 -2.3001342976 -1.8648630058
C 2.1224347170 -1.8811487333 -2.4709379020
C 1.1483771659 -1.2458700945 -1.7140231471
Cl 1.8850284645 -2.1446934253 -4.1791809057
F 4.2491061736 -2.9096117989 -2.6038317390
C 0.5635362876 0.8279153621 1.0140570843
O -0.2906038671 1.3277069620 1.7522378530
C 1.8379955899 1.5547418227 0.7252987403
C 2.2223746790 1.8704934424 -0.5804819285
C 3.3715885525 2.6228889741 -0.8023576673
C 4.1500797026 3.0460527375 0.2733134371
C 3.7639982336 2.7359916326 1.5762398315
C 2.6024960717 2.0054230095 1.8039892513
H -0.1722023196 -3.0535325155 0.7808647382
H -1.9368120858 -2.9212814138 0.6559476989
H -0.9276880176 -2.6525579884 -0.7781239566
H -1.1295757775 -0.9471559206 1.7677716868
H -4.2858453855 0.1387548489 -1.0954222663
H -5.6652267315 -0.6235478790 1.5387768631
H -5.4717635347 -1.6810842843 0.1177328129
H -6.4979078040 -0.2360640498 0.0195247352
H -4.5524771364 1.6825435736 1.5423215589
H -5.3557021265 2.1125810461 0.0177077569
H -3.5873847032 2.1936418739 0.1335018569
H 2.6890328756 -1.3402871536 1.3158706717
H 4.4499287945 -2.4537356449 -0.0695484010
H 0.2365702714 -0.8899850872 -2.1805702070
H 1.6196541451 1.5402980196 -1.4201111445
H 3.6601407895 2.8767622777 -1.8174485598
H 5.0531359555 3.6217895830 0.0967701326
H 4.3660936415 3.0672721947 2.4164032686
H 2.2893413958 1.7706059952 2.8165408253
