63
CONF82
C 0.7972223460 -0.3686801007 1.7051183218
C -0.3264514876 -1.3729508947 1.4693486281
N -0.2205266195 -1.9704451398 0.1328706943
C 1.0419204577 -2.7072048285 0.0188788368
C 2.2314601724 -1.7642802616 0.1792151432
C 2.1508881508 -1.0554555149 1.5314867924
N 3.2701838204 -0.1306538589 1.7354617331
C 4.2688523501 -0.2683063650 2.6938287609
C 4.4893580015 -1.2292783578 3.6701659380
C 5.6114449529 -1.0716762367 4.4896591703
C 6.4806582426 0.0105072694 4.3345805660
C 6.2607573000 0.9790224422 3.3509457462
C 5.1490061901 0.8214810658 2.5396024849
N 4.6557112341 1.5789506082 1.4941592959
C 3.5013669385 1.0131979097 0.9753444839
O 2.8304995344 1.4414078376 0.0372963646
C -1.3733639826 -2.8286715515 -0.1710296299
C -2.6250661727 -2.0175712309 -0.5068780438
C -2.4759794118 -1.2115075004 -1.8021565685
C -3.3303836267 0.0688834939 -1.8050670526
C -2.7972839470 1.0563220775 -0.7770367710
C -1.5529031216 1.6682154479 -0.9624609833
C -1.0249404567 2.5335334014 -0.0105520878
C -1.7659068475 2.7766840554 1.1346649162
C -3.0034181514 2.2024265869 1.3583761174
C -3.5123319803 1.3393753923 0.3879219736
F -1.2545599827 3.6185051063 2.0740640327
C -3.4408593457 0.7296933424 -3.1686372817
C -4.5350587469 1.5619845074 -3.4313883342
C -4.6709084010 2.2221043573 -4.6480633888
C -3.6851375613 2.0368371609 -5.6032507601
C -2.5859503784 1.2258220668 -5.3908046829
C -2.4727204740 0.5730370815 -4.1635447121
F -3.8082790220 2.6735636322 -6.7999427664
H 0.7168785440 0.0469864446 2.7160077614
H 0.7046369739 0.4534735021 0.9896044107
H -1.2874295873 -0.8566964365 1.5621977240
H -0.2968513110 -2.1587607502 2.2531467847
H 1.1069024853 -3.5155192987 0.7773953765
H 1.0827113618 -3.1826880344 -0.9674620063
H 2.2195972595 -1.0215312645 -0.6250239130
H 3.1671527161 -2.3306117764 0.1115301014
H 2.2466299253 -1.8142611495 2.3169940422
H 3.8235548371 -2.0748954168 3.8008518206
H 5.8070951448 -1.8091936216 5.2611716564
H 7.3428229532 0.1040622199 4.9866931006
H 6.9319010093 1.8217667018 3.2237044793
H 5.0589338388 2.4253506820 1.1248759353
H -1.5874018315 -3.5228759046 0.6648078542
H -1.1095581279 -3.4478070630 -1.0385506194
H -3.4768376902 -2.7031601794 -0.5885977303
H -2.8592063133 -1.3460666947 0.3268285419
H -1.4224382839 -0.9364148909 -1.9264684381
H -2.7521788311 -1.8341289123 -2.6619426084
H -4.3483301155 -0.2015752401 -1.4957391546
H -0.9819665732 1.4689832256 -1.8650568168
H -0.0594589257 3.0089257803 -0.1471132636
H -3.5530091024 2.4228442859 2.2672030357
H -4.4817554567 0.8758621107 0.5482074432
H -5.2973413796 1.6970145638 -2.6684190708
H -5.5212224603 2.8625320773 -4.8567548722
H -1.8380522384 1.1051561102 -6.1672251219
H -1.6130754246 -0.0666065416 -3.9950424852
