74
CONF169
C -0.8400154432 -1.7527759677 -0.8664846069
C -0.4341707254 -3.1332588520 -1.3730279173
O -1.4199659294 -4.0349913522 -0.7910438940
C -2.0192792837 -3.4653497326 0.2975539793
O -2.8112645776 -4.0650327851 0.9743147497
C -1.4445178075 -2.0775973153 0.4882928411
C -2.3236080829 -0.9278769579 0.9861475194
C -3.6258816485 -0.7894798586 0.2011233307
C -4.6865863269 -1.6439107783 0.5045506170
C -5.8725608509 -1.5958748103 -0.2282227787
O -6.9458066345 -2.4029133184 -0.0202675856
C -6.8013861069 -3.4298704460 0.9600290250
C -6.0137797259 -0.6623220127 -1.2630806896
O -7.1793289285 -0.6113393502 -1.9640883493
C -4.9527576835 0.2006946402 -1.5468176459
O -5.2149758556 1.0760177449 -2.5746990618
C -4.1935066182 2.0068107857 -2.9158874443
C -3.7609453345 0.1426366557 -0.8293894145
C -1.4966468039 0.3503077129 0.9181714861
C -1.9762202924 1.4547465240 1.6488688528
C -1.3191804601 2.6521029228 1.5159225691
C -0.2304579675 2.7993112475 0.6627881753
O 0.1894170857 4.1065985927 0.6656503527
C -0.5216045076 4.7199494129 1.7545465438
O -1.6240037561 3.8586523460 2.0902457333
C 0.2496538490 1.7479597259 -0.0746528878
C -0.3822409053 0.4922304695 0.0738478112
C 0.2092340308 -0.6748473132 -0.6954606710
O 1.3160506061 -1.3114711204 0.0141831027
C 2.3747811841 -0.4938613056 0.3905872528
O 2.9895724726 0.0404784992 -0.7869325536
C 4.0775151118 0.8858500352 -0.4214788900
C 4.6696826299 1.5286317575 -1.6649202507
O 5.7979220888 2.3107187049 -1.2777641473
C 6.7769834384 1.5317527306 -0.5997261256
C 7.9119084594 2.4416730474 -0.2131050756
O 6.2531822764 0.9477248189 0.5846231078
C 5.1749294583 0.0735159838 0.2697792544
C 4.6271155735 -0.5742392806 1.5227310190
O 5.6133775593 -1.4298893902 2.0769938957
C 3.3717224479 -1.3657766288 1.1515935219
O 2.8192706910 -1.8369397467 2.3782771052
H -1.6336125938 -1.3517311307 -1.5103581741
H -0.4926534899 -3.2468940369 -2.4574349163
H 0.5582421603 -3.4300775535 -1.0200376676
H -0.6233150244 -2.2104028012 1.2106310099
H -2.5865592662 -1.1193110285 2.0336037578
H -4.5645108388 -2.3688443482 1.2977129889
H -5.9502763339 -4.0828857987 0.7301844942
H -6.6755379500 -3.0055474703 1.9647161587
H -7.7285598460 -4.0030369321 0.9228257029
H -7.0815256215 0.0901362787 -2.6224632476
H -4.5940559740 2.6065171074 -3.7342626906
H -3.9522143985 2.6585426589 -2.0663376278
H -3.2840308618 1.4914030238 -3.2507913803
H -2.9518128723 0.8278087956 -1.0475588393
H -2.8598615823 1.3618355991 2.2710957779
H 0.1480822029 4.8060094424 2.6236640209
H -0.9056876689 5.6922543274 1.4359598719
H 1.0900676759 1.8641630496 -0.7512428456
H 0.5953345325 -0.3231138491 -1.6600942638
H 2.0331960564 0.3397964785 1.0316524702
H 3.7379102639 1.6800547231 0.2659683729
H 3.9591156326 2.2054051252 -2.1475054065
H 4.9591897363 0.7426076156 -2.3828397087
H 7.1043359916 0.7162638375 -1.2754173621
H 8.3422007422 2.8987464178 -1.1064776088
H 8.6807349850 1.8689270480 0.3092564551
H 7.5373239746 3.2268485043 0.4479795943
H 5.5213482412 -0.7193677976 -0.4181417951
H 4.3475998570 0.2170143722 2.2401013420
H 5.1943354832 -1.8980965565 2.8101142769
H 3.6610753656 -2.2037219936 0.4972730116
H 2.0824940000 -2.4200480377 2.1619251728
