40
CONF16
C 3.3090341958 1.5534228750 -3.0290799853
O 3.8389657471 1.0543402657 -1.7711821017
C 3.4263973533 -0.1625329367 -1.4152092437
O 2.6671492530 -0.8510290268 -2.0674597916
C 4.0366278811 -0.6500935156 -0.1144679629
S 4.4748831310 0.5979095132 1.1401943636
C 2.8818470844 1.2059899964 1.6428526300
C 1.6737949108 0.7793652836 1.0886999015
C 0.4369867878 1.2830754773 1.5173273035
C 0.4595217289 2.2600307071 2.5189941138
C 1.6315766684 2.7119766563 3.0914512748
C 2.8351746008 2.1795194771 2.6494170337
Cl 4.3246887745 2.7546559236 3.3757665909
F -0.7126190844 2.7733417655 2.9555420310
N -0.7725358524 0.9262183252 0.9369937184
C -1.1228732431 -0.2986750808 0.8033433822
N -2.2801171917 -0.6593796635 0.1544484334
N -2.4206547196 -2.0454203868 -0.0221876041
C -1.5493336801 -2.8233948136 0.6710220543
O -1.5932705283 -4.0326048005 0.7972235585
S -0.2817706676 -1.7604179170 1.4180287205
C -3.7825556922 -2.5074658549 -0.3419418597
C -4.3073629469 -1.7478137496 -1.5520378869
C -4.2076580383 -0.2443435904 -1.3061353083
C -2.7727867614 0.1469973657 -0.9843686978
H 3.7429441372 2.5448195385 -3.1477449607
H 2.2196544606 1.6106091633 -2.9748389010
H 3.6106160717 0.8963622777 -3.8475055171
H 4.9934726499 -1.1265129489 -0.3630577553
H 3.3853737366 -1.4214097423 0.3049415538
H 1.6580495485 0.0511647977 0.2881319518
H 1.6010646710 3.4623380375 3.8729879776
H -3.7088195867 -3.5796199832 -0.5294768921
H -4.4240390670 -2.3374700278 0.5339372763
H -3.7261914192 -2.0250636474 -2.4396200576
H -5.3458793926 -2.0457663439 -1.7236738253
H -4.5249827158 0.3155556024 -2.1908510902
H -4.8611891804 0.0443447913 -0.4741812940
H -2.6978708115 1.1912405870 -0.6804788973
H -2.1153140300 -0.0242644876 -1.8490992383
