22
CONF1
C -0.7304315023 0.0544131365 -0.0734249829
C -1.5412574479 0.4041593016 1.0065457528
C -2.9197734258 0.5092949877 0.8824646304
C -3.5155454175 0.2659796587 -0.3503540504
C -2.7330515326 -0.0817236746 -1.4461526955
C -1.3569948646 -0.1860759891 -1.2964315607
F -0.6280036521 -0.5491519320 -2.3555832167
F -3.3087609899 -0.3218570461 -2.6243242522
F -4.8356351380 0.3661101255 -0.4816993122
F -3.6717886472 0.8521312520 1.9284753398
F -0.9876519827 0.6696852447 2.1931456343
C 0.7303300283 -0.0560628463 0.0721640008
C 1.3021913970 -0.9325236169 0.9945951174
C 2.6778929303 -1.0427016522 1.1435058054
C 3.5156868808 -0.2652821650 0.3512655815
C 2.9749883083 0.6155108620 -0.5792378324
C 1.5961061943 0.7124360404 -0.7062192254
F 1.0987673210 1.5874571513 -1.5848935164
F 3.7804087096 1.3671959169 -1.3299238445
F 4.8357809784 -0.3641032528 0.4836200402
F 3.1991810918 -1.8943372993 2.0267953279
F 0.5175603609 -1.7105544027 1.7456673587
