37
CONF515
C -2.8947351736 -0.3291422366 -2.8069512082
C -1.5640921308 -0.9593469502 -2.4667558465
O -1.7119955123 -1.8524388477 -1.3113572935
P -1.3313870194 -1.2909762772 0.1234711252
O -1.9297332225 -0.0104623514 0.5678451236
O -1.6237820851 -2.5863300486 0.9847995934
C -1.8978785968 -2.4668960095 2.4229952262
C -0.6170593098 -2.3765099991 3.2202098825
O 0.3024513705 -1.2153637181 0.0474191940
P 1.2274842287 0.0620550451 0.4343424703
O 1.2847031475 0.4050167953 1.8731023032
O 2.5681992220 -0.4693351984 -0.2412033044
C 3.8525145020 0.0476219544 0.2325113776
C 4.0734507237 1.4868155200 -0.1803583451
O 0.7301872544 1.2250589268 -0.5406042198
C 0.0561031094 2.4136821546 -0.0029163548
C -0.8709725769 2.9310118203 -1.0744302298
H -2.7793984157 0.3045958963 -3.6923806900
H -3.2525954096 0.2889238300 -1.9792523362
H -3.6415847018 -1.0974741236 -3.0243376658
H -1.1986371064 -1.6026735248 -3.2705619613
H -0.8001087000 -0.2030741383 -2.2522162398
H -2.4579802496 -3.3749853958 2.6557174365
H -2.5420994031 -1.5969013808 2.5825741794
H 0.0341445149 -3.2278866566 3.0029976426
H -0.0748899386 -1.4503457966 3.0080288226
H -0.8627297691 -2.3915141508 4.2871320398
H 4.5863703205 -0.6170317235 -0.2280786175
H 3.8942992017 -0.0718976178 1.3198440382
H 3.3713317727 2.1579181116 0.3235160161
H 5.0879458284 1.7873407155 0.1003960593
H 3.9617335659 1.6032243338 -1.2618464261
H -0.4905737871 2.1377445962 0.9009271624
H 0.8351996584 3.1403644380 0.2503832925
H -1.6467196109 2.1919531682 -1.2908159182
H -1.3544219210 3.8472009108 -0.7213590278
H -0.3227430029 3.1600576108 -1.9927869092
