52
CONF5
C -3.7306081985 -1.5957400282 -1.2557769779
C -2.5195262701 -2.0542751702 -0.4927119489
C -1.2478226787 -1.6743515180 -0.9088920936
C -0.1117611352 -2.0620825096 -0.1970134759
C -0.2355551558 -2.8486064620 0.9503054954
C -1.5106719352 -3.2309166423 1.3629216872
C -2.6422096565 -2.8431844567 0.6568747454
O 1.0780269773 -1.6216212796 -0.7043239221
C 2.2775964716 -1.9783334813 -0.0171184074
C 3.4470824842 -1.2780124769 -0.7102512334
C 3.2734892507 0.2391725122 -0.7656304557
N 3.2729489153 0.7666087745 0.6040746718
C 3.3906175481 2.2233581665 0.6835424436
C 2.2824755043 3.0155915139 -0.0448291020
C 0.8927445192 2.4956663090 0.2377977658
C -0.0028207875 2.2866842623 -0.8198152143
C -1.2794711115 1.7855260739 -0.6001784382
C -1.6846391953 1.4541172162 0.7113304744
C -0.7983551845 1.6557300533 1.7607859250
C 0.4753200008 2.1798487882 1.5254692151
O -2.9429063248 0.9526812874 0.8305029439
C -3.3043933494 0.4056669545 2.0949518716
O -2.2063929574 1.5574145132 -1.5726830999
C -1.8329738329 1.8558376341 -2.9123215598
O 4.6421405926 -1.6239338030 -0.0180556238
H -3.5858397016 -1.7154199784 -2.3341058778
H -4.6201298066 -2.1603904393 -0.9643757511
H -3.9106381878 -0.5326977637 -1.0632925350
H -1.1174130776 -1.0596904119 -1.7939712094
H 0.6323743224 -3.1743336727 1.5095517860
H -1.6133597557 -3.8505446517 2.2487966436
H -3.6265264940 -3.1568400893 0.9917008663
H 2.2295564143 -1.6676702913 1.0374669846
H 2.4356056758 -3.0650877875 -0.0446402349
H 3.5374823691 -1.6642741845 -1.7328932352
H 4.1368001555 0.6612031768 -1.2964132373
H 2.3637142549 0.4826342228 -1.3370797729
H 2.3851594668 0.5169433389 1.0336406993
H 4.3667403318 2.5180344137 0.2775695594
H 3.4018386629 2.4946229491 1.7460461808
H 2.4576613119 2.9854590203 -1.1261215820
H 2.3658980414 4.0709630291 0.2491610365
H 0.3202120537 2.5211566953 -1.8278099512
H -1.0899917589 1.4079979488 2.7739409578
H 1.1379023159 2.3389703377 2.3712533228
H -3.3539747300 1.1836590401 2.8684780440
H -4.2955956303 -0.0291592487 1.9563363631
H -2.6013066489 -0.3816760487 2.3951656207
H -0.9677439410 1.2585238442 -3.2309006883
H -2.6974949025 1.5974440492 -3.5256397847
H -1.6036367350 2.9226450634 -3.0355202940
H 4.7022078082 -0.9775178312 0.7042320049
