53
CONF61
C -0.5382187081 5.1398357074 0.1931311821
C -1.2565477045 4.1541154699 -0.7057834460
O -1.0212488483 2.7880634911 -0.2733531999
C 0.1120779165 2.1896900825 -0.7146888605
O 0.9129531253 2.7549104018 -1.4524158107
C 0.2166851397 0.8238813643 -0.2151053584
C 1.3447574989 0.0980275696 -0.4593920106
N 1.4548522073 -1.1838363129 0.0090112500
C 0.5600915314 -1.7515988624 0.8868608587
C -0.5907398856 -1.0868453764 1.2019933270
C -0.9865511651 0.1985762046 0.4823114802
C -2.0935290940 -0.0720361146 -0.5383158916
C -1.8223329518 -0.9650301513 -1.5827484175
C -2.7577699969 -1.2673010352 -2.5627996567
C -4.0146736050 -0.6688106377 -2.5210060709
C -4.3194968642 0.2225181505 -1.4994866648
C -3.3640548546 0.5090965880 -0.5263865624
Cl -3.8501968488 1.6493502319 0.7322644716
C -1.4974447095 -1.6324911068 2.2072067143
O -1.3234685778 -2.6244998077 2.9047411211
O -2.6207872528 -0.8749692818 2.3111825762
C -3.5813813780 -1.3137493591 3.2917512624
C 0.9838437006 -3.0903679262 1.4101694145
C 2.5459239680 0.5770293123 -1.2618198614
O 3.6144763836 -0.3551021158 -1.2263940751
C 4.4997085921 -0.1704303425 -0.1085352038
C 5.2446922201 -1.4697944586 0.1100271104
N 4.3077573392 -2.5180256179 0.5513859969
H -0.7865614978 6.1603440331 -0.1153108319
H 0.5453048910 5.0126404413 0.1262175992
H -0.8491428057 5.0094007552 1.2338081963
H -0.9452697708 4.2572567653 -1.7488211742
H -2.3408146260 4.2707374979 -0.6373696775
H 2.3433231799 -1.6654311724 -0.1486933053
H -1.3754147983 0.9062686591 1.2153276386
H -0.8416777552 -1.4316803964 -1.6163519622
H -2.5076020329 -1.9653465993 -3.3550489643
H -4.7601088307 -0.8912099456 -3.2776507967
H -5.2940011807 0.6957713940 -1.4526603327
H -3.1382773928 -1.3117136829 4.2912774582
H -4.3990188220 -0.5951240837 3.2350993505
H -3.9393538261 -2.3191497770 3.0543584257
H 0.1519183858 -3.7942837033 1.3925224491
H 1.8119084007 -3.4798736398 0.8149953065
H 1.3099739317 -3.0121752762 2.4519709961
H 2.2457428252 0.6883701239 -2.3090360421
H 2.8636995238 1.5648809906 -0.9122926088
H 5.1977434191 0.6515163910 -0.3236032423
H 3.9254045693 0.0934039559 0.7936819963
H 5.6958877992 -1.7788564065 -0.8397778699
H 6.0671362338 -1.2834986414 0.8184170603
H 4.1260493955 -2.4102159158 1.5450970999
H 4.7337734899 -3.4322362464 0.4452256773
