29
CONF3
C -1.0288831584 0.2681395331 -3.0399876697
C -0.2351562755 -0.3890924287 -1.9353279882
O -0.9323835536 -0.2000238855 -0.6638423846
P -0.3898916725 0.7543386982 0.4974779048
S 0.8259202739 2.1696819803 0.0107623120
O -1.7242135337 1.1198584489 1.2907990267
C -2.4105153586 2.3858799234 1.0719270256
C -3.2044779209 2.3775879710 -0.2159777687
O 0.1391927611 -0.2890011319 1.6795548528
C 1.2481221030 -1.0436685243 1.5430348214
N 1.7663980897 -1.2420860750 0.3440468717
C 2.8447220774 -1.9862555739 0.1964326775
C 3.4811197685 -2.6006259619 1.2753694912
C 2.9410407322 -2.4055895466 2.5440763552
C 1.8125819829 -1.6175606259 2.6918499829
Cl 1.1177088977 -1.3508228249 4.2579074005
Cl 4.8988533390 -3.5821753815 1.0858709651
Cl 3.4478702563 -2.1794666383 -1.4280918143
H -0.5646244516 0.0406863806 -4.0050380849
H -2.0590184958 -0.0983764169 -3.0555828217
H -1.0376970954 1.3543076727 -2.9131443203
H 0.7740641257 0.0226998423 -1.8616613176
H -0.1633953956 -1.4723059043 -2.0645471302
H -1.6693578729 3.1922928606 1.0868727191
H -3.0608978521 2.4820075314 1.9445047475
H -3.8908090013 1.5270381570 -0.2440275414
H -3.7876927134 3.3013113434 -0.2873503673
H -2.5431365119 2.3249564886 -1.0850472018
H 3.4045567415 -2.8637362295 3.4092417713
