45
CONF5
O -0.7668280559 -0.2794244914 -2.9400429753
C -2.0621877345 -0.8623434925 -2.8034020210
C -2.5609709320 -0.8863749374 -1.3748491452
O -1.6340880334 -1.6772804632 -0.5746101459
C -1.4554453562 -1.1085419215 0.7104113665
C -1.4861266823 -2.2567703540 1.7165662991
O -1.1627689344 -1.8380729110 3.0320838994
O -0.2076663827 -0.3975149526 0.8263064651
C 0.9375973056 -0.9651379547 0.2272563459
O 1.2900607379 -0.2472327494 -0.9461163917
C 1.5744156297 1.1585113858 -0.7088153008
C 1.7934019701 1.8187837465 -2.0597294646
O 0.5808092659 2.2034291662 -2.7034851796
C 2.7871319902 1.2628686112 0.2220164726
O 3.1316232851 2.6206095019 0.5039756590
C 2.4982375049 0.5090866469 1.5196085068
O 3.6456075515 0.4483505437 2.3670560738
C 2.0987278799 -0.9249491928 1.2187219364
O 1.6905291485 -1.6309132929 2.3912721773
C -2.5360342696 -0.0139428287 0.8242972782
O -2.2658957306 1.0279933260 1.7378309994
C -2.6571231356 0.4387429810 -0.6380281778
O -3.8844744102 1.0745229441 -0.9569589599
H -0.1799591412 -0.6616082751 -2.2642362965
H -2.7547979544 -0.2678174308 -3.4079728190
H -2.0586906457 -1.8898903572 -3.1941162643
H -3.5482150922 -1.3725907574 -1.3613281240
H -0.8007865848 -3.0421245194 1.3601722189
H -2.4978090105 -2.6741871648 1.7346880340
H -0.2240604884 -1.5838691219 3.0106339094
H 0.7487820115 -1.9924784638 -0.0993797285
H 0.7041831845 1.6279902386 -0.2241609282
H 2.3933678648 1.1447066203 -2.6907769428
H 2.3648798206 2.7374883424 -1.9012747302
H 0.0417425612 1.4047691645 -2.8521355331
H 3.6671337709 0.8251917979 -0.2665019578
H 2.3636471217 3.0472420665 0.9110459601
H 1.6652894687 1.0123344577 2.0399384107
H 3.9094248078 1.3578043509 2.5607847586
H 2.9517619010 -1.4364638323 0.7478537891
H 2.4149088002 -1.5817490211 3.0298555539
H -3.4831006035 -0.4729025027 1.1318808045
H -1.3525498969 1.3107286387 1.5839740032
H -1.7985302580 1.0819484321 -0.8884299621
H -3.8751532544 1.9510781263 -0.5518796620
