51
CONF39
O 3.9434894804 0.6315081708 -1.7072250235
C 3.6847945234 0.8860177412 -0.3167835600
C 2.4286349703 0.1041484139 0.0576628051
C 1.2028051490 0.5194845641 -0.7552010562
C -0.0524605879 -0.2126625978 -0.3044610899
C -1.4032136819 0.2055194932 -0.9825391525
N -1.8688103982 0.5957832167 0.3724400264
C -0.6919428065 0.2616072678 1.0038461676
O -0.3407431668 0.3587296505 2.1666641306
C -3.0878170881 1.1307957673 0.7893491896
C -4.0301740078 1.5170606915 -0.1713581520
C -5.2550956848 2.0432525200 0.2241013026
C -5.5120073116 2.1776559971 1.5773220247
F -6.7086272304 2.6918467411 1.9688041929
C -4.5977358393 1.8070259779 2.5496181357
C -3.3762834418 1.2754062115 2.1536822800
C -2.2096018044 -0.8637194682 -1.6554674165
C -2.4239704434 -0.8191386336 -3.0347284837
C -3.1387094334 -1.8188885464 -3.6839661935
C -3.6612152112 -2.8817334400 -2.9462872507
O -4.3654408580 -3.8337125140 -3.6267086845
C -3.4607959057 -2.9392964178 -1.5641042191
C -2.7381278132 -1.9357683315 -0.9313556122
C 4.8549876163 0.4882263660 0.5565959505
C 5.2200800823 1.2786417060 1.6477545446
C 6.2672768700 0.9048696343 2.4874605498
C 6.9406189699 -0.2703842611 2.2037371379
F 7.9727585939 -0.6412385474 3.0087606013
C 6.6137161509 -1.0821300783 1.1298777181
C 5.5607628604 -0.6920467775 0.3076032723
H 4.7327562420 1.1314441785 -1.9526054048
H 3.4878858234 1.9593385447 -0.1668205485
H 2.6277868901 -0.9672679475 -0.0796287061
H 2.2402091826 0.2630784860 1.1254332491
H 1.0445541551 1.6026624362 -0.6630881203
H 1.3673638928 0.3058887813 -1.8166156023
H 0.0916794232 -1.2990409254 -0.3183593520
H -1.2837923352 1.0760744126 -1.6385091596
H -3.8096371104 1.4065430380 -1.2273405794
H -5.9964926977 2.3464546301 -0.5069969194
H -4.8396562448 1.9279331987 3.5999997321
H -2.6483365571 0.9729413077 2.8960038657
H -2.0289245768 0.0133243948 -3.6110512362
H -3.3050141650 -1.7802199940 -4.7557438465
H -4.6880797297 -4.5041702697 -3.0089856260
H -3.8733959712 -3.7649953368 -0.9902873578
H -2.5930466391 -1.9875393204 0.1445393700
H 4.6823884903 2.2016882768 1.8473987019
H 6.5626271346 1.5133778936 3.3354286246
H 7.1726134221 -1.9933956797 0.9455096050
H 5.2893586120 -1.3109809461 -0.5416687519
