47
CONF16
C -4.4752359412 -2.5440939135 2.9576091142
O -4.7039340130 -1.5425365135 1.9260322561
P -5.1542800869 -1.9916561712 0.4599334910
S -4.1846859971 -3.4571911891 -0.3672210139
O -6.7319863706 -2.1655375154 0.6502617103
C -7.5437389610 -2.6907081801 -0.4371037929
O -5.0998756435 -0.5713215153 -0.3215925300
C -3.9250808501 -0.1237486555 -0.9364196535
C -2.8846939425 0.3811251518 -0.1660459063
C -1.7491718379 0.8708058118 -0.7997742033
C -1.6551123359 0.8335444064 -2.1935517276
C -2.7109588338 0.3207352142 -2.9517629744
C -3.8562108192 -0.1534100822 -2.3211131546
S -0.2506620227 1.5044722552 -3.0747060066
C 1.1137026514 1.1575970029 -1.9720030959
C 2.0003402943 2.1880618659 -1.6594252354
C 3.1183553635 1.9377245749 -0.8680319111
C 3.3159365976 0.6558440116 -0.3721508690
C 2.4360351268 -0.3807949414 -0.6667716881
C 1.3423260113 -0.1323341070 -1.4832977569
O 4.4243317328 0.3249327234 0.4040278199
P 4.9564063414 1.2089388534 1.6553526867
S 3.6332892066 1.9222113658 2.8745691582
O 5.8755725103 2.2626812502 0.8631318474
C 6.5509512412 3.3183286407 1.6038224118
O 5.9453164343 0.1783558271 2.3666577754
C 7.0208346020 -0.4586798879 1.6105290227
H -4.1469315945 -1.9884770688 3.8353695407
H -3.6980274160 -3.2415475534 2.6354534074
H -5.4039007818 -3.0787261652 3.1738870183
H -8.5633565240 -2.7178141394 -0.0541280108
H -7.4838354831 -2.0278529670 -1.3047467476
H -7.2083680473 -3.6966443472 -0.7014219258
H -2.9691381495 0.4048600488 0.9149654064
H -0.9399855032 1.2812249729 -0.2054357005
H -2.6377714637 0.2816884155 -4.0338841943
H -4.6818051260 -0.5604705807 -2.8947032530
H 1.8228930871 3.1910641629 -2.0327979898
H 3.8144552531 2.7358141179 -0.6365188368
H 2.6221741716 -1.3720394051 -0.2679181335
H 0.6614104798 -0.9399259180 -1.7310383159
H 7.1013524308 3.8925774454 0.8592192593
H 5.8149161876 3.9514163147 2.1059554771
H 7.2420270850 2.8855460002 2.3327545691
H 7.6215501693 0.2953023389 1.0959171628
H 7.6254871761 -0.9817204589 2.3505513710
H 6.5990825009 -1.1676212956 0.8946101340
