21
CONF119
C 0.7639264277 -1.2392515558 -0.2395154099
C -0.0621612343 0.0486881190 -0.0649768523
C 0.7561445485 1.2744110963 -0.4915260456
O 2.0752044669 1.1759385100 0.0686066744
C -1.3178020946 0.0283312168 -0.9547447431
O -2.1988512253 -1.0698031537 -0.6976004677
C -0.4371705512 0.2242698125 1.4095385292
O -1.1475658919 -0.9477648036 1.8636432001
O 1.3886922768 -1.3306747519 -1.5255765293
H 0.1060713776 -2.1076549223 -0.1575909143
H 1.5144955460 -1.3027502427 0.5590864723
H 0.8110369350 1.3123786236 -1.5887009191
H 0.2555857304 2.1905061197 -0.1459022605
H 2.5679632527 1.9580242241 -0.2079337842
H -1.8509723246 0.9858795532 -0.8338716515
H -1.0129426136 -0.0576709410 -2.0036175735
H -2.2357787943 -1.1737694446 0.2676904841
H 0.4724075923 0.3662116599 2.0089769514
H -1.0711880664 1.1161909122 1.5165414199
H -1.4845499766 -0.7671025402 2.7496585178
H 2.1074549047 -0.6843872004 -1.5321851194
