51
CONF26
C 3.0123733798 -2.8337780152 0.7450770867
C 3.1619523931 -1.8619899829 1.9254123889
C 2.6942550438 -0.4823938128 1.5516841176
N 3.5018615262 0.5266837867 1.4325123195
O 4.8466390831 0.2566994294 1.6750125344
C 5.6043806677 1.4817791171 1.5370511386
C 7.0501614805 1.1300168031 1.8001673874
C 1.2963174025 -0.2115525180 1.1598055319
C 0.9858541396 0.8986924626 0.3803182918
C -0.3607263358 1.1512748791 -0.2137084773
C -1.1953116943 -0.1289803361 -0.2772591654
C -1.2029979192 -0.7675797960 1.1103377480
C 0.1968457711 -1.0583838732 1.6253904679
O 0.3393062050 -1.9511884658 2.4656946835
C -2.5390416050 0.0707676462 -0.9589802955
C -3.6374173376 0.7151100285 -0.3498150197
C -4.8275181648 0.8725048056 -1.0681138008
C -4.9763789820 0.4201177917 -2.3756906529
C -3.8834718357 -0.2059368612 -2.9699013626
C -2.6758562137 -0.3822123298 -2.2919618138
C -1.5478749762 -1.0617381674 -3.0316277339
C -6.2578468852 0.6356875361 -3.1332750457
C -3.6309735616 1.2419143126 1.0658276070
O 1.8719600678 1.8290979539 0.0785649523
H 3.5935634165 -2.4918615540 -0.1169268701
H 3.3749508720 -3.8247863164 1.0322608888
H 1.9667440122 -2.9284865541 0.4402921281
H 2.5655946086 -2.2184638217 2.7659403879
H 4.2057692084 -1.8114330439 2.2345250811
H 5.4636043390 1.8763257622 0.5224198327
H 5.2299240132 2.2178329096 2.2594146989
H 7.6631301332 2.0305890008 1.7037783171
H 7.1779635296 0.7323006743 2.8110041570
H 7.4093345309 0.3895611197 1.0797537422
H -0.8592625747 1.9267329070 0.3827426834
H -0.2088556532 1.5786448259 -1.2113275513
H -0.6235896311 -0.8203308124 -0.9024390217
H -1.7583993373 -1.7101838956 1.1206616901
H -1.6638698272 -0.1135057959 1.8580886207
H -5.6648632552 1.3693741477 -0.5828712404
H -3.9693784533 -0.5660082428 -3.9925996077
H -0.6487486371 -0.4372512571 -3.0740515106
H -1.2635971419 -2.0100800700 -2.5614762592
H -1.8513791992 -1.2784731993 -4.0582704136
H -7.1175597095 0.6630285049 -2.4580735965
H -6.2328199684 1.5904664496 -3.6723611968
H -6.4182088691 -0.1535524076 -3.8730911613
H -4.4599067246 1.9404600453 1.2035759209
H -2.7097886874 1.7659091943 1.3268146367
H -3.7645790744 0.4315820885 1.7912161179
H 2.7377345098 1.5669964386 0.5708257422
