42
CONF5
C 3.8647917182 -1.2415827972 1.1510582136
C 3.2100258180 -1.8184991992 0.0691213503
C 2.0106438027 -1.2820478300 -0.3976922325
C 1.4518199963 -0.1582170484 0.2078848869
C 2.0955798517 0.3882462953 1.3257294642
C 3.2980012478 -0.1357440240 1.7829265680
C 0.0853699732 0.4201732416 -0.2141836742
C -0.8062073121 0.3704027170 1.0456792288
C -1.5084861550 1.4768860922 1.5176015336
C -2.2839679349 1.3818512350 2.6746416344
C -2.3694740266 0.1816050375 3.3693480001
C -1.6637807675 -0.9287140338 2.9061474798
C -0.8832230557 -0.8308548318 1.7620236056
C -0.5418536383 -0.3498399320 -1.3961590998
C -1.7345605499 -1.0627618352 -1.2384704413
C -2.3360454211 -1.7483577637 -2.2883416800
C -1.7552485380 -1.7334670215 -3.5490613172
C -0.5779010398 -1.0226063888 -3.7500213278
C 0.0097695797 -0.3415087541 -2.6899189854
Cl 1.4867019388 0.5410888143 -3.0759223942
N 0.2138263641 1.8331449400 -0.6675920361
C 1.2331623159 2.7392614433 -0.4590225319
C 0.8224057466 3.9056999006 -1.0491958865
N -0.4254668118 3.7488251164 -1.6144765366
C -0.7575499691 2.4955089828 -1.3668581267
H 4.7995520171 -1.6588083759 1.5120365776
H 3.6258096512 -2.6950747327 -0.4177405549
H 1.5100359088 -1.7637237711 -1.2292590473
H 1.6426082255 1.2180437336 1.8593616425
H 3.7836953694 0.3100794181 2.6452268697
H -1.4537340298 2.4288104599 1.0023708184
H -2.8174503786 2.2578812493 3.0302063966
H -2.9731049780 0.1100831133 4.2685814528
H -1.7148506593 -1.8716675965 3.4414584503
H -0.3271258555 -1.6976146177 1.4170884227
H -2.2141432848 -1.0733784636 -0.2683225722
H -3.2625402374 -2.2850455236 -2.1144078045
H -2.2111808473 -2.2617418462 -4.3798374076
H -0.1121347538 -0.9903715217 -4.7284255537
H 2.1536903041 2.4831262021 0.0361246906
H 1.3627004702 4.8409581045 -1.1045655231
H -1.6806424642 2.0142436194 -1.6621758512
