40
CONF12
C 1.6836704077 1.6618288746 3.8326753055
O 2.9821736515 1.7024233591 3.2010143823
C 2.9800946400 2.1663970324 1.9325805258
O 1.9936862902 2.5622480595 1.3539154162
C 4.3503726745 2.0852585367 1.3185716152
S 4.5224467449 0.4634635841 0.4429609418
C 3.3367891230 0.6791601202 -0.8696578291
C 2.1234403544 -0.0070420097 -0.7922089175
C 1.1491507596 0.0790565681 -1.7916488872
C 1.4514756270 0.8829337133 -2.8976485874
C 2.6373669135 1.5819810471 -3.0103559572
C 3.5819305194 1.4741708308 -1.9955176898
Cl 5.0748791997 2.3640591034 -2.1688842118
F 0.5437090569 0.9993927159 -3.8818433081
N -0.0467920731 -0.6277204159 -1.7603302654
C -0.8239944814 -0.5494597356 -0.7511858468
N -1.9433432947 -1.3552150725 -0.6304454511
N -2.8712504298 -0.8564738380 0.3119168806
C -2.3646918109 0.0564927712 1.2029151708
O -2.9085579450 0.4454519938 2.2098678705
S -0.7234156915 0.5869373192 0.6339173874
C -3.8772844406 -1.8311396012 0.7453803382
C -4.6203617964 -2.3572247322 -0.4765342187
C -3.6234163482 -2.9106794629 -1.4942367481
C -2.5848080901 -1.8568420685 -1.8593521864
H 1.8640834619 1.2994997463 4.8442824804
H 1.0215600445 0.9808408552 3.2910980963
H 1.2364181659 2.6587960768 3.8499430561
H 5.1361684246 2.0913786115 2.0772686684
H 4.4945076512 2.9008502766 0.6077368481
H 1.9385197790 -0.6382152214 0.0702627390
H 2.8143785640 2.2022695114 -3.8803350378
H -3.3808619255 -2.6544503169 1.2817800963
H -4.5349619978 -1.3061017066 1.4405615664
H -5.3252468563 -3.1328799332 -0.1608512130
H -5.2010588191 -1.5422021677 -0.9252693752
H -3.1152725857 -3.7896779701 -1.0787457280
H -4.1365549022 -3.2282349655 -2.4074783722
H -3.0467637462 -1.0150711020 -2.3980675499
H -1.7881859989 -2.2662604876 -2.4813470165
