27
CONF132
C 3.1207367509 -0.4548710040 -0.0883828099
C 3.9012937159 0.0480378576 1.1248503708
C 5.4098478615 -0.0369724074 0.9373411843
O 5.8842072810 0.7597114330 -0.1613962342
C 1.6122987849 -0.3578017297 0.1541150751
C 0.8099769077 -0.7904433402 -1.0448730347
C -0.7369516780 -0.8737724216 -0.8467762255
C -1.4259676190 0.4192048622 -0.3113670108
C -2.9818516797 0.4402746172 -0.4649000736
F -3.4709886459 1.4746674818 0.2346780106
F -3.5181141493 -0.6929599114 0.0091375040
F -3.3359029232 0.5897986584 -1.7461622125
F -0.9429249584 1.5042364613 -0.9617710806
F -1.1461213239 0.5428178374 1.0084131744
F -0.9948829411 -1.8754921010 0.0330116424
F -1.3074106885 -1.1976224332 -2.0379634424
F 1.1720111407 -2.0569636133 -1.4449323972
F 1.0386220269 0.0286459709 -2.1210133725
H 3.3910742888 0.1360231939 -0.9692415923
H 3.3979935540 -1.4949471914 -0.2931867114
H 3.6229317937 1.0881918593 1.3449077566
H 3.6338803381 -0.5440486026 2.0103719063
H 5.7045847652 -1.0656679797 0.7018601653
H 5.9176886661 0.2559461886 1.8674823295
H 5.6732342461 1.6808695171 0.0373482698
H 1.3370083710 0.6758673052 0.3894611995
H 1.3154063178 -0.9814939522 1.0045955590
