33
CONF287
C -1.3169463724 -2.4701773684 -0.0788298710
C -0.9217361713 -1.7260550168 1.1925313135
C -1.7434767776 -0.4767718880 1.4715872353
S -1.6905764129 0.8244851404 0.1372122125
P 0.2056266917 1.6667384251 0.3395686207
O 0.2869773196 2.9159171352 -0.4627428497
O 0.6111358713 1.7444308285 1.8768602401
C 0.4206446768 2.9946732770 2.6368357598
C -1.0141829328 3.1747116814 3.0718629231
O 1.3281685235 0.5366153012 -0.0517223020
C 1.3252734782 -0.1955794477 -1.2141436890
C 0.7009496987 0.2229140611 -2.3866589991
C 0.7284256231 -0.5757048602 -3.5243753103
C 1.3993959435 -1.7896893020 -3.4784780340
C 2.0546399657 -2.2214834990 -2.3333957929
C 2.0112880611 -1.4147016144 -1.2032847621
Cl 2.8423364717 -1.9350441755 0.2410935737
Br 1.4414734413 -2.9008143840 -5.0362292816
H -0.7105852514 -3.3727513136 -0.1995211454
H -2.3706751182 -2.7676943080 -0.0447126858
H -1.1699469413 -1.8463055683 -0.9665240662
H -1.0621371743 -2.3818092589 2.0621799858
H 0.1420598329 -1.4695383769 1.1743838117
H -1.4504528396 0.0045217119 2.4074950110
H -2.8123253399 -0.7116559759 1.5242883833
H 1.0898793479 2.8747884476 3.4905746630
H 0.7714402826 3.8269103667 2.0201690420
H -1.6768271562 3.3244691331 2.2148784278
H -1.3603248029 2.3103079098 3.6453014284
H -1.0756283999 4.0613437916 3.7109501086
H 0.1945432038 1.1809874560 -2.4189784312
H 0.2344880391 -0.2438400759 -4.4295018953
H 2.5870732123 -3.1641980267 -2.3072462183
