44
CONF25
C -3.6157894957 -2.2631230950 -1.7004470115
S -3.0797571907 -0.7655580202 -2.5592058522
O -4.1054594316 0.2800263409 -2.3990482545
O -2.6459174651 -1.1574025570 -3.9103080529
C -1.5532860422 -0.3100540440 -1.6413018032
C -1.5476615391 0.4855478328 -0.4821903293
C -0.3042661368 0.6858278349 0.1372096902
C 0.8812451023 0.1592727694 -0.3957798951
C 0.8283455925 -0.5719355407 -1.5809745119
C -0.3886944835 -0.8271861521 -2.1927669255
C 2.2049745667 0.2612328996 0.2997607000
O 2.3319169058 -0.0012929840 1.4771087442
C 3.3902560596 0.6517991368 -0.5908374431
C 4.3358500575 -0.5601085848 -0.7047453447
O 4.3406556170 -1.2249491238 -1.7163521034
C 5.2127742520 -0.8138673737 0.4904453826
C 5.9430372218 0.4675889504 0.9204210779
C 4.9596894814 1.6099517404 1.2192638797
C 4.0932154754 1.8833294868 0.0207156935
O 3.9510547702 2.9657347827 -0.4962049670
Cl -0.1958827644 1.6780208072 1.5739513705
C -2.8073992638 1.1144166672 0.0503590606
O -3.6565550459 0.0741570277 0.5534425608
C -4.9634447590 0.5612170445 0.7740165833
C -5.7686315348 -0.5301047757 1.4478472226
F -7.0309129039 -0.0925438900 1.6574568912
F -5.2515610795 -0.8878138311 2.6390588979
F -5.8436229276 -1.6480690957 0.6885904007
H -4.5593150504 -2.5542892675 -2.1705293329
H -2.8537926944 -3.0299156146 -1.8535444352
H -3.7589453125 -2.0301316366 -0.6455322027
H 1.7443282471 -0.9677672690 -2.0104477007
H -0.4391930757 -1.4056194131 -3.1076509743
H 3.0427887852 0.9235413433 -1.5876808239
H 4.5633429604 -1.1436708573 1.3129944589
H 5.9071025884 -1.6197878775 0.2431678186
H 6.6414547997 0.7764610578 0.1336162557
H 6.5372952391 0.2599272289 1.8143971895
H 5.4759452203 2.5335549382 1.4893207807
H 4.3035716232 1.3079103420 2.0460246810
H -2.5782631141 1.8199047464 0.8542530239
H -3.3125503934 1.6490347896 -0.7626182501
H -4.9689656209 1.4336037396 1.4458493600
H -5.4589761401 0.8231300205 -0.1726281975
