41
CONF20
C -2.5419310516 0.9403238856 -2.6706838248
C -2.7261769844 -0.0929863247 -1.6094869534
C -3.9769489830 -0.5619130173 -1.2262636475
C -4.0429717722 -1.5138037729 -0.2079536562
N -2.9313540943 -1.9747932153 0.3868439986
C -1.7761368041 -1.4671385430 -0.0508714913
N -1.6131394014 -0.5543547850 -1.0114940650
N -0.6460252161 -1.9775976726 0.5855221193
C 0.7000025465 -1.6971267086 0.4142937388
O 1.5557997307 -2.2782593433 1.0682869284
N 0.9796756362 -0.7101462716 -0.5114328071
S 2.5552609006 -0.3319851675 -0.9907803500
O 2.3865653179 0.7804903473 -1.9348763071
O 3.2567863023 -1.5385824056 -1.4442607165
C 3.3491268827 0.2141607783 0.5325149721
C 4.6774218829 -0.1687561262 0.6933129229
C 5.3589176292 0.1937338562 1.8499211082
C 4.7013026656 0.8991926102 2.8522253693
C 3.3667767702 1.2558014399 2.6947734682
C 2.6777477856 0.9407124146 1.5221912306
C 1.2457649970 1.3731044377 1.4523152260
O 0.4131763092 1.0385532173 2.2704767770
O 1.0274863743 2.2116701711 0.4370288259
C -0.3385510451 2.6924740822 0.3036555578
C -5.3443234265 -2.0618753440 0.2801548207
H -2.2554420088 1.8918490030 -2.2075836790
H -1.7319460712 0.6507723182 -3.3458815522
H -3.4611434189 1.0933563550 -3.2378495243
H -4.8767375384 -0.1979750476 -1.7077061241
H -0.8313214062 -2.6728687034 1.2969499885
H 0.1768762817 -0.3030913424 -1.0319130597
H 5.1685413511 -0.7583368428 -0.0720559226
H 6.3970028692 -0.0959272677 1.9715147358
H 5.2236434233 1.1666596825 3.7645050870
H 2.8460486065 1.7951123981 3.4791708016
H -0.3377138591 3.3083420002 -0.5940508603
H -0.6099841889 3.2822268551 1.1818755844
H -1.0180321108 1.8441175335 0.1942099266
H -5.5110077949 -1.7428945581 1.3150492624
H -5.3157518204 -3.1555090378 0.2794719456
H -6.1772851711 -1.7167323705 -0.3339613558
