45
CONF583
O 2.6671282430 -1.5464455361 2.7313116731
C 2.4648409016 -0.1489034676 2.9273469747
C 2.2774049620 0.6017813099 1.6209792567
O 3.5027465008 0.5159570541 0.8469745074
C 3.2908482876 -0.1872118881 -0.3592677206
O 3.5750322918 -1.5756398221 -0.1644109281
C 4.2934127246 0.3810305912 -1.3584699079
O 4.2521186083 -0.2936257561 -2.6095559268
C 1.7972533944 0.0055061966 -0.6807045660
O 1.3561533690 -1.0631623946 -1.4974849559
C 1.1677065550 0.0482408941 0.7243806241
O 0.0267971807 0.9084465212 0.8405097682
C -1.1891429640 0.2931823790 0.5530920327
O -1.2480004691 0.0487363508 -0.8537981927
C -2.4607671963 -0.6242143648 -1.2318638477
C -2.3273401266 -0.9660342623 -2.7041817109
O -1.2041077792 -1.8213653740 -2.9407679337
C -3.6758936796 0.2450178749 -0.9233903718
O -3.6466067913 1.3945712999 -1.7667217105
C -3.6503777530 0.6349047121 0.5541102448
O -4.7248507905 1.5498659144 0.7697239578
C -2.3114375110 1.2495953684 0.9440304193
O -2.3555526043 1.4608021714 2.3550144592
H 3.2997451160 -1.6486151992 2.0011985030
H 1.5616348360 -0.0333241794 3.5376702583
H 3.3084280817 0.3009227240 3.4718196617
H 2.0861010812 1.6608990520 1.8341988969
H 2.8259378682 -2.0766954158 -0.5289974423
H 5.2914905995 0.3211571684 -0.8983874691
H 4.0570741104 1.4314113160 -1.5497502884
H 4.4251874078 -1.2282616451 -2.4322110999
H 1.6577299453 0.9805892547 -1.1694853279
H 0.3930841240 -0.9844278756 -1.6253568268
H 0.8925718362 -0.9722728245 1.0251916492
H -1.2824297525 -0.6669845261 1.0956494431
H -2.5557178526 -1.5566133894 -0.6484908142
H -3.2626625886 -1.4228485842 -3.0547605728
H -2.1454991124 -0.0546615081 -3.2787694897
H -1.4026117939 -2.6876276520 -2.5617440329
H -4.5850228117 -0.3487490932 -1.1117433456
H -4.2854156026 2.0225385865 -1.4009705629
H -3.7981011933 -0.2776721269 1.1554768649
H -4.6054304617 1.9348058709 1.6487360782
H -2.1610596264 2.1954803976 0.4040929480
H -1.5923992737 1.9999139621 2.5989107229
