55
CONF183
C 2.4255923786 -0.0238820383 2.5825464225
C 3.5481991624 0.9547504584 2.8852870938
N 4.2479897840 1.3263651465 1.6499113886
C 3.2849739005 1.9181495845 0.7165877476
C 2.1581517181 0.9418599937 0.4164733895
N 1.4570006468 0.5650213226 1.6503888205
C 0.3731899104 -0.3886222806 1.3950443681
C -0.7863507656 0.2206298453 0.5993233931
C -1.9512914956 -0.7145701557 0.5763000893
C -2.7196081209 -1.0688063810 -0.4740830820
C -3.7738898056 -2.0915512972 -0.3164070292
C -4.5996287692 -2.1302526798 0.8144939196
C -5.5369527624 -3.1411391068 0.9861412521
C -5.6825234880 -4.1287860950 0.0130521369
C -4.9032029095 -4.0907843575 -1.1370283164
C -3.9595744126 -3.0750604166 -1.3005280919
S -2.9535044752 -3.1012136700 -2.7693772953
C -2.6096209130 -1.3728653331 -2.9560287896
C -2.5502165696 -0.5248575460 -1.8342401283
C -2.3386251949 0.8374513255 -2.0554983105
C -2.1054517847 1.3248610926 -3.3385976635
C -2.1012669411 0.4646539046 -4.4342956189
C -2.3739556920 -0.8824921057 -4.2413504735
C -1.8438484858 2.7895918868 -3.4987492301
F -0.6885024806 3.1673101309 -2.8813665463
F -2.8281281085 3.5466227560 -2.9434519419
F -1.7374083863 3.1668981231 -4.7913714347
C 5.3771605851 2.2283056049 1.9064528937
C 6.5698927099 1.4486488168 2.4447149942
O 6.9034183687 0.3683530667 1.5659205961
H 1.9085437367 -0.2779727039 3.5152927413
H 2.8613399656 -0.9572441543 2.1723466360
H 3.1326824263 1.8509556772 3.3864694479
H 4.2510176546 0.4799898770 3.5781683207
H 2.8548354134 2.8539966511 1.1246311105
H 3.8022677075 2.1656406545 -0.2173405402
H 1.4574477126 1.4256639863 -0.2717491856
H 2.5723138677 0.0483950511 -0.0932546680
H 0.7435350369 -1.2896528967 0.8658584631
H -0.0068441523 -0.7228976293 2.3689498103
H -0.4717208971 0.4653156750 -0.4185048088
H -1.0725510831 1.1672062412 1.0827299591
H -2.1645748770 -1.2088705988 1.5239456064
H -4.4986099117 -1.3503614818 1.5628979512
H -6.1610649468 -3.1531248385 1.8737325000
H -6.4169387705 -4.9180109264 0.1366465187
H -5.0284082570 -4.8432134731 -1.9095146756
H -2.3631746047 1.5204036635 -1.2130226711
H -1.9180290185 0.8402642412 -5.4339897083
H -2.4156418912 -1.5531821673 -5.0933595520
H 5.1128759349 3.0431948624 2.6066705369
H 5.6635593385 2.6872808023 0.9524300039
H 7.4422106171 2.1074406731 2.5050889653
H 6.3673965455 1.0692162001 3.4577606398
H 6.0455144418 0.0149770395 1.2781468109
