54
CONF10
C -4.9832648586 -2.0011900627 1.3454534313
C -4.0461401200 -2.4782474322 2.4537639142
C -3.4439231143 -1.2699888549 3.2498155731
N -2.3712665026 -0.7514465873 2.4164759798
C -1.5166785064 -1.7561600831 1.7732221404
S -2.5194993458 -3.3010776818 1.7182880272
C -1.4476876745 -0.8200710464 0.5135201488
C -2.3424188560 0.1194416166 1.3478118230
O -2.9072791467 1.1790767548 1.1555957877
N -0.2051367841 -0.3467630113 -0.0060104830
C 0.6291771891 0.4051669710 0.7580535732
O 0.3976005237 0.6773827617 1.9255716902
C 1.8747346815 0.9882987395 0.0686529991
C 1.5158541439 2.3829278615 -0.4433913630
C 0.9436928066 2.5744226723 -1.7014219765
C 0.5885201768 3.8534220377 -2.1176069780
C 0.7934842439 4.9453893990 -1.2804289196
C 1.3560732101 4.7543981534 -0.0221871438
C 1.7179980922 3.4788190507 0.3956239304
C 2.4717525485 0.1705643108 -1.0530706942
O 1.8653675568 -0.5096161098 -1.8508419385
O 3.8156927745 0.3499247721 -1.0832211448
C 4.5238092950 -0.2434948584 -2.1457173358
C 5.0105221854 0.5905863166 -3.1381879682
C 5.7691274743 0.0330587545 -4.1633528248
C 6.0251393788 -1.3347987130 -4.1816941100
C 5.5233661121 -2.1516060024 -3.1717282902
C 4.7655791410 -1.6076025702 -2.1398331586
C -4.5423692353 -0.2959793673 3.7112399126
O -5.2906347743 -0.6633183706 4.5863751867
O -4.6700598100 0.8980680753 3.1401027492
C -4.7371227198 -3.4839656432 3.3657420013
H -5.8851838315 -1.5556858112 1.7817346782
H -5.2840823216 -2.8445382084 0.7193333445
H -4.5103617187 -1.2560522703 0.6992658087
H -2.9978741958 -1.6602387758 4.1719918534
H -0.5601820592 -1.9284690882 2.2734050801
H -2.0423083678 -1.2465831741 -0.2996948876
H 0.0947908792 -0.5912381825 -0.9421933506
H 2.6235576379 1.0978008611 0.8555305601
H 0.7756652278 1.7278741888 -2.3598909963
H 0.1467104311 3.9941666856 -3.0986715997
H 0.5121861135 5.9414891004 -1.6057069627
H 1.5135153970 5.6003915123 0.6388250332
H 2.1453472162 3.3267525331 1.3814563008
H 4.7964839819 1.6530645071 -3.0989196266
H 6.1602870586 0.6720430397 -4.9479990008
H 6.6168270654 -1.7650425443 -4.9825230978
H 5.7218779372 -3.2181037274 -3.1843348118
H 4.3649260512 -2.2263786273 -1.3448637252
H -4.0105176091 1.0902871248 2.4209833814
H -5.6130745563 -3.0178998418 3.8247523226
H -4.0673408570 -3.8247202438 4.1591699641
H -5.0652602697 -4.3545419163 2.7900196917
