26
CONF2
C 2.5730373946 -1.1792123725 -0.5209560080
C 1.4707858930 -0.1944058749 -0.2983883440
C 1.3350556876 0.9609153845 -0.9611271666
C 0.1464736528 1.8485631898 -0.6848872552
C -0.7221603577 1.2487503617 0.4292882286
C 0.2077657002 0.7862515422 1.5830945491
C 0.4199560771 -0.5097745977 0.7454632952
C -1.0195420454 -0.2658180402 0.1519552611
C -1.3172129584 -0.7061473106 -1.2739932243
C -2.1148363856 -0.8144686936 1.0675636222
H 3.1275889606 -1.3624965322 0.4085066248
H 3.2752840227 -0.8352387561 -1.2856996068
H 2.1632461354 -2.1489354760 -0.8335535030
H 2.0535211071 1.2639776970 -1.7208182011
H -0.4467706423 1.9813542770 -1.6019858372
H 0.4790048833 2.8554938513 -0.3936811379
H -1.5765820506 1.8920158218 0.6698690592
H 1.1009401279 1.3884653668 1.7728668924
H -0.3278832962 0.6143330581 2.5170321297
H 0.6058330259 -1.4564629025 1.2638756652
H -1.3788360488 -1.7998814548 -1.3260270136
H -0.5554328850 -0.3761921643 -1.9827551485
H -2.2855415462 -0.3041815712 -1.5957333144
H -2.1448004030 -1.9084631806 1.0033972385
H -1.9758364132 -0.5441127435 2.1166729537
H -3.0930579428 -0.4343293663 0.7500200347
