54
CONF10
C -2.7605996307 -0.9254225299 1.5685077241
C -2.4361472181 -0.0406106376 0.3412181581
C -3.0306045644 1.3737149144 0.5342213277
C -4.5543655267 1.4152466238 0.4671693823
C -5.0688225167 0.8267217224 -0.8163090929
O -6.1363552138 1.1841246445 -1.3247021927
C -4.2683382957 -0.2403609254 -1.3929583001
C -3.1032311851 -0.6866486691 -0.8673145196
C -2.4527078120 -1.8955169007 -1.4581066857
C -0.9893974388 -1.6079492517 -1.7820648348
C -0.2487020805 -1.1829613297 -0.5191798406
C -0.8767301059 0.0743888351 0.1264732103
C -0.0834872878 0.3643893762 1.4176205327
C 1.4044249707 0.5804349721 1.1251313426
C 2.0753753079 -0.5892368913 0.4109886465
C 1.2472072835 -1.0260439485 -0.8218784454
C 1.6225295309 -0.0096483766 -1.9304696815
C 2.9944319994 0.5855588866 -1.5358297955
C 3.4140235545 -0.1870369295 -0.2724225236
C 4.3846099321 0.4460650580 0.6895987073
O 4.6551275449 -0.0948251105 1.7543884357
C 5.0446228322 1.7520588688 0.3349108028
O 5.9978174540 2.1445827405 1.2982797342
C 2.3024778654 -1.7790040064 1.3057944456
O 1.9112419110 -1.8919377865 2.4498784724
O -0.5567220667 1.4885482180 2.1744951303
H -2.4544613789 -0.4164516125 2.4863323744
H -2.2475355480 -1.8899815614 1.5205460138
H -3.8345186032 -1.1233279839 1.6285748176
H -2.6300186163 2.0246315199 -0.2541979939
H -2.6992713989 1.7790354151 1.4893755646
H -4.9307196817 2.4372340943 0.5728328643
H -4.9945486374 0.8283916259 1.2864282306
H -4.6930603790 -0.7419345247 -2.2605006927
H -3.0046501326 -2.2230010566 -2.3436337882
H -2.4944610592 -2.7136407387 -0.7239053771
H -0.9324896572 -0.8135070428 -2.5372035079
H -0.5180063215 -2.5008718785 -2.2089757646
H -0.3420628029 -2.0076086764 0.2056972400
H -0.7256351169 0.9211488694 -0.5604264058
H -0.1932803028 -0.4897933340 2.0930956869
H 1.9123992060 0.7794263356 2.0749394531
H 1.4968812993 1.4834652930 0.5061670348
H 1.6170647606 -2.0135201335 -1.1347287428
H 1.6601165871 -0.5079885002 -2.9021790843
H 0.8741319172 0.7840748221 -2.0064420481
H 3.7409746243 0.4782649974 -2.3264702558
H 2.8940776688 1.6539781049 -1.3269332414
H 3.9068445484 -1.1223721906 -0.5831888924
H 4.2475410169 2.5085038746 0.2371038039
H 5.5077548158 1.6534943809 -0.6592543799
H 5.9387429484 1.4852145434 2.0113340112
H 2.8568659841 -2.6090377047 0.8120655423
H -0.4463558517 2.2775418973 1.6261079154
