82
CONF23
C -3.7897896142 3.7670031427 -0.4071649488
C -4.0244226055 2.6855907984 -1.4254288927
C -4.1111485739 2.9660335965 -2.7306998244
C -4.2215776677 1.2782350744 -0.9145049406
C -5.6089287343 1.1374573754 -0.1879427472
C -5.3293525852 0.4637259800 1.1737145861
C -4.0021912771 -0.2746352218 0.9600047628
C -3.2129630382 0.7780379645 0.1453614957
C -1.8466318532 0.2591469237 -0.3014254315
C -1.0751066177 1.2327236323 -1.1959517342
C 0.2959867722 0.6901243417 -1.6206522568
C 1.1346089730 0.1419281014 -0.4539062331
C 2.5945322153 -0.2754031021 -0.8664508493
C 3.3006581481 0.9808955244 -1.4277962782
C 4.8146772630 0.8248938686 -1.5480432617
C 5.4450920081 0.4586767163 -0.2180108938
C 4.8741463988 -0.8476663010 0.3874016708
C 3.3222624916 -0.6781951068 0.4537579400
C 2.5947500230 -1.8403585887 1.1334204452
C 1.1773201214 -1.4340658857 1.5391997060
C 0.3184308734 -0.9015676253 0.3732695829
C -0.9827197100 -0.1607293831 0.9322025568
C -1.7853288757 -1.0876395768 1.8869727119
C -3.2037799679 -0.5935008178 2.2228173154
C -0.6163689665 1.0883765892 1.7694548831
C -0.0751190323 -2.1252578338 -0.4865225718
C 5.3432963364 -2.0829982409 -0.3936202951
C 5.4179934111 -0.9702602009 1.8248600299
O 6.8667725844 0.4031636399 -0.4431108391
C 2.6242244481 -1.3656989653 -1.9582658560
C -4.2723168417 -1.5557918709 0.1438942623
O -5.1008454143 -2.4983607448 0.8483724526
H -2.7792977807 3.6930784476 0.0122969441
H -3.9009229234 4.7587264509 -0.8525441799
H -4.4851252644 3.6793633004 0.4358944008
H -4.0230838377 3.9849110478 -3.0988155391
H -4.2639194027 2.1792246509 -3.4654290723
H -4.1984839906 0.6061200128 -1.7810665707
H -6.0903557220 2.1115478133 -0.0612641354
H -6.2832203300 0.5327197883 -0.8020339755
H -5.1939353417 1.2243064721 1.9528981662
H -6.1391743038 -0.2002188300 1.4912425232
H -3.0512106949 1.6133518884 0.8402061025
H -2.0242172749 -0.6411611047 -0.9007052101
H -1.6667525837 1.4409726319 -2.0936903108
H -0.9545288626 2.1958201363 -0.6856945230
H 0.8411754568 1.4926985528 -2.1274602058
H 0.1388074815 -0.0900091627 -2.3740953253
H 1.3091612142 0.9813799192 0.2310022319
H 3.0871960287 1.8330556372 -0.7662294461
H 2.8934600956 1.2318821210 -2.4130166910
H 5.0787781409 0.0680624233 -2.2964710689
H 5.2536514035 1.7679895577 -1.8946200791
H 5.2258961335 1.2678827183 0.5009247272
H 3.1810344336 0.1948183979 1.1154375745
H 3.1278853252 -2.1475996805 2.0380844195
H 2.5790972146 -2.7213998905 0.4824737199
H 1.2740336439 -0.6721074365 2.3202875160
H 0.6695327626 -2.2913364660 1.9986923881
H -1.8635353888 -2.0958608292 1.4704043054
H -1.2235966991 -1.1939377814 2.8224476881
H -3.7125689359 -1.3464835077 2.8394863998
H -3.1592476622 0.3135975002 2.8379583015
H -1.4959793113 1.4730210648 2.2909739400
H -0.2140661869 1.9125671464 1.1804719759
H 0.1181651544 0.8428169286 2.5399319680
H -0.3956171484 -1.8668063639 -1.4968234809
H -0.8841435114 -2.6928555860 -0.0200325851
H 0.7690929920 -2.8087310008 -0.5838416691
H 4.8282884410 -2.9789784796 -0.0329698427
H 5.1683512378 -2.0030541935 -1.4670641613
H 6.4167773425 -2.2317745396 -0.2421662364
H 6.5126029767 -0.9156893832 1.8368423117
H 5.1557066575 -1.9318726818 2.2733082667
H 5.0267833950 -0.1714142289 2.4655685505
H 7.3070992229 0.3225734044 0.4110843400
H 2.5941879882 -2.3791307552 -1.5556478540
H 1.7781984227 -1.2557764994 -2.6415231629
H 3.5283698255 -1.2893178285 -2.5657872944
H -4.8232012024 -1.3152956462 -0.7699832655
H -3.3383187360 -2.0440995866 -0.1557980992
H -4.5649929957 -2.9014602583 1.5416488553
