50
CONF1
C 3.2687823223 -0.7398036815 1.5348270698
Si 2.3555544787 0.0560921717 0.1190672505
O 1.2261858192 1.0537563604 0.7824612491
Si 0.3632966972 2.4521672690 0.6890159182
O -1.1828135464 2.0811849523 0.2416461303
Si -1.9401761648 1.1611952714 -0.9009583584
O -2.0748804677 -0.3938686930 -0.3781696749
Si -1.8407271933 -1.4397642459 0.8715402296
O -0.3787104754 -2.1877579559 0.6882743403
Si 0.6970295215 -2.4571742954 -0.5347521775
O 1.5890065959 -1.0901481054 -0.7882076219
C -0.1890542177 -2.8422799781 -2.1270393842
C 1.8091422158 -3.8488679582 0.0082208354
C -1.8213973177 -0.5510131158 2.5068674743
C -3.1834253235 -2.7259346358 0.7701321858
C -0.9573439761 1.1510161354 -2.4848210386
C -3.6519959113 1.8552657631 -1.1233763454
C 0.2841496627 3.1985094408 2.3908084830
C 1.1129695682 3.6231790938 -0.5528587165
C 3.4857902839 0.9875858803 -1.0295242657
H 2.5720180204 -1.2531013085 2.2072585566
H 3.8047035776 0.0170538789 2.1184202369
H 3.9984961658 -1.4729839434 1.1748836149
H -0.8316453755 -2.0075228759 -2.4253207899
H -0.8145065698 -3.7348774003 -2.0162170788
H 0.5281832192 -3.0290716114 -2.9339429934
H 2.6070368470 -4.0160319740 -0.7233930930
H 2.2733649569 -3.6272985879 0.9749966036
H 1.2398442442 -4.7794812554 0.1094490379
H -0.9664267985 0.1300283078 2.5633672447
H -2.7369381639 0.0338898315 2.6471102728
H -1.7440169973 -1.2674522558 3.3321604569
H -4.1711151398 -2.2731776628 0.9103219008
H -3.0486925450 -3.4956141485 1.5376453815
H -3.1695743548 -3.2158251842 -0.2101143784
H 0.0477714354 0.7481271456 -2.3143302843
H -1.4483162779 0.5248797098 -3.2380451227
H -0.8597969622 2.1628072303 -2.8928741168
H -4.1937717446 1.8552982653 -0.1708474372
H -3.6118106774 2.8852592211 -1.4938038617
H -4.2242832735 1.2568382070 -1.8403366966
H 1.2868923439 3.4646631804 2.7424775122
H -0.3277712732 4.1070260431 2.3896020446
H -0.1522492202 2.4938117295 3.1068359818
H 2.1319799853 3.9010090046 -0.2624940333
H 0.5143127159 4.5391824940 -0.6116406070
H 1.1525319064 3.1782195386 -1.5521687760
H 2.9315889037 1.3958022864 -1.8812184083
H 3.9796237442 1.8171957620 -0.5127710884
H 4.2611847312 0.3180069108 -1.4181636465
