48
CONF2
C 5.7895469614 -3.0693573327 0.7469907142
O 5.6243751460 -1.8096745350 1.3914052511
C 4.5327519357 -1.0680894772 1.0532996649
C 3.5724687656 -1.4517196981 0.1141789785
C 2.4967688698 -0.6116534386 -0.1460168012
C 2.3461311742 0.6115198732 0.5138849554
C 3.3356802155 0.9890630236 1.4349854221
C 4.4082425975 0.1618442788 1.7088270369
C 1.1833500422 1.4605240507 0.2301581773
Cl 1.5987322719 3.1763464724 0.0250272226
C -0.1070156081 1.0619106309 0.1190405850
C -1.1929716940 1.9235928246 -0.3943548397
C -1.0850661472 2.6046192084 -1.6077227274
C -2.1263569253 3.3846608834 -2.1012200745
C -3.3079865224 3.4979591376 -1.3659413380
O -4.3881286372 4.2394784510 -1.7446385554
C -4.2909252840 4.9674965912 -2.9645239712
C -3.4397387778 2.8118105002 -0.1539483894
C -2.3999393326 2.0299811164 0.3136233275
C -0.5142740499 -0.2964298014 0.5524406179
C -1.3961760079 -1.0491397655 -0.2265961288
C -1.8051954806 -2.3238682742 0.1551922921
C -1.3406494581 -2.8612885625 1.3568055572
O -1.6747974890 -4.0936458116 1.8358444517
C -2.5597686122 -4.8862292587 1.0508933048
C -0.4792598948 -2.1103582575 2.1647883417
C -0.0756575410 -0.8507948333 1.7651955052
H 5.9032698418 -2.9499349463 -0.3382898904
H 6.7026046083 -3.4983827493 1.1616068060
H 4.9441558205 -3.7375668638 0.9562608822
H 3.6520170533 -2.3882324597 -0.4234282336
H 1.7517042691 -0.9138316820 -0.8740785438
H 3.2525725860 1.9423095730 1.9458561955
H 5.1677018455 0.4475059552 2.4284632056
H -0.1714627435 2.5171179913 -2.1859029310
H -2.0038755814 3.8890496160 -3.0515927841
H -4.1499045446 4.2953259006 -3.8211172971
H -5.2388312837 5.4963775825 -3.0722432895
H -3.4693015244 5.6947942192 -2.9304326550
H -4.3662958326 2.9079608104 0.4016121747
H -2.5125404898 1.4912934097 1.2494245453
H -1.7682300847 -0.6303979570 -1.1567475579
H -2.4821008380 -2.8760624741 -0.4848879592
H -2.1299578985 -5.1069073346 0.0649621107
H -2.6957333454 -5.8169856813 1.6031189947
H -3.5320080149 -4.3923256731 0.9240269683
H -0.1476473782 -2.5333593171 3.1069158900
H 0.5897227319 -0.2763061008 2.4009522879
