52
CONF88
C 1.4053666185 -2.5217313311 -1.6947067695
C 1.5368907786 -1.0293245128 -1.4924096952
C 2.5579445212 -0.3806559649 -2.4296999371
C 2.7640445109 1.0960917359 -2.0775844959
C 3.1177948893 1.2532406794 -0.5930301420
C 2.1501021870 0.4770045117 0.2996951283
O 1.9436819602 -0.8404521520 -0.1067363672
O 0.9101645552 1.2486172316 0.3013412089
C 0.0104934120 0.8460403374 1.2612119500
C -1.1688178338 0.2615725535 0.8938843770
O -2.0594581801 -0.1848470323 1.8205462506
C -1.8007052753 -0.0644652524 3.1571407337
C -2.7497691104 -0.5848113343 4.0213528566
C -2.5180893987 -0.4451590092 5.3908087403
C -1.3757435937 0.1942953258 5.8880433821
C -0.4423209394 0.7049832662 5.0022488775
C -0.6369313715 0.5808050267 3.5981269029
C 0.3251789028 1.0858394133 2.6535747528
O 1.3749467060 1.6822019814 3.0121739772
O 0.6585307854 1.3171890935 5.4709286450
O -3.3899917759 -0.9181951767 6.3132364815
C -1.6223546301 0.0318516399 -0.4745947755
C -1.5228266490 1.0507021096 -1.4323468562
C -1.8837084637 0.8062424921 -2.7470671299
C -2.3552271977 -0.4676148270 -3.1157228994
C -2.4820620845 -1.4682983868 -2.1583818606
C -2.1245970410 -1.2215691809 -0.8382543256
O -2.6730530883 -0.6185570063 -4.4297875263
O -1.7784419798 1.8073960939 -3.6625351771
O 4.4027394934 0.6931434757 -0.3201042299
O 1.6097316560 1.8665253897 -2.4403332353
O 2.1398042564 -0.5083929206 -3.7878963752
H 0.6697241359 -2.9333963238 -0.9977988029
H 1.0697391589 -2.7271594425 -2.7138130826
H 2.3683405165 -3.0168643218 -1.5320019273
H 0.5600574800 -0.5497463112 -1.6444238223
H 3.5147973056 -0.9069805579 -2.3367665710
H 3.5861453613 1.4958705240 -2.6834525503
H 3.0766295367 2.3151837068 -0.3142096898
H 2.5387220629 0.4192468964 1.3196088521
H -3.6386286346 -1.0730000951 3.6371548577
H -1.2254159526 0.2875854726 6.9575279461
H 1.1768107466 1.5988584626 4.6636225079
H -4.1429639034 -1.3380876954 5.8734111490
H -1.1929978795 2.0466093598 -1.1543308531
H -2.8526491694 -2.4454986661 -2.4551700706
H -2.2017865981 -2.0121532348 -0.1004806349
H -3.0030566097 -1.5127282278 -4.5948507773
H -2.0712237987 1.4780686017 -4.5252612178
H 5.0632965843 1.2347160133 -0.7710047962
H 0.9290151899 1.7274880712 -1.7644166299
H 1.4521272175 0.1623187678 -3.9224883390
