48
CONF27
C -3.9304276855 -2.6100099827 -1.3044748091
C -3.2408363353 -1.4846934331 -2.0619455729
C -1.9498809522 -1.0645030083 -1.3425257337
N -1.2534578934 -0.0276608660 -2.1014496069
C -0.9585614351 -0.4692720123 -3.4782067213
C -2.2535597854 -0.8665446235 -4.1796566737
N -3.0185770789 -1.8833426338 -3.4549138728
C -0.2804864083 0.7105862918 -1.4402955590
C 0.2163675441 1.9174334038 -1.9988896168
C 1.1442944935 2.6994748798 -1.3724447476
C 1.6340868839 2.3400467288 -0.1073032987
C 1.1394715587 1.1643940127 0.4856469516
C 0.2056753518 0.3629237766 -0.1777874431
N 1.6088323783 0.8086946096 1.7552135506
C 2.5064675536 1.5913766070 2.4058743210
C 3.0070137900 2.7503067735 1.8876518580
C 2.5988323194 3.1960729127 0.5741373811
O 3.0332233103 4.2438562090 0.0478617626
C 3.9821416701 3.5104445255 2.7307518103
O 4.3132315433 3.1352806160 3.8358721509
O 4.4548532510 4.6280891353 2.1756657804
C 1.1350953244 -0.3719735056 2.4059354449
C 1.6119161260 -1.6248954780 2.0244362148
C 1.1882525524 -2.7889578933 2.6419304936
C 0.2680843024 -2.6625977227 3.6717776429
C -0.2313594060 -1.4390199526 4.0910529557
C 0.2094098985 -0.2923616773 3.4420761040
F -0.1522717824 -3.7808160139 4.2866035184
F 2.5039984799 -1.7050656535 1.0277728149
F -0.2921724310 2.3419487720 -3.1779133835
H -3.2922695345 -3.5009933409 -1.2630851480
H -4.1568111107 -2.3119208545 -0.2763511206
H -4.8636030351 -2.8822215906 -1.8032120959
H -3.9011177712 -0.6049951974 -2.0868542656
H -2.2053316397 -0.6661981770 -0.3540390041
H -1.3105289389 -1.9593024521 -1.1978595852
H -0.2715367117 -1.3359976344 -3.4436363403
H -0.4606326440 0.3307932963 -4.0260905542
H -2.8852170818 0.0244385786 -4.2908000540
H -2.0254448395 -1.2383823243 -5.1848054921
H -2.5048520378 -2.7621062386 -3.4673388486
H 1.4857736713 3.6236468933 -1.8251356154
H -0.1334259386 -0.5501827049 0.2909830933
H 2.8259763535 1.2506486402 3.3859233861
H 4.0336785675 4.7196964280 1.2706309222
H 1.5717864265 -3.7554246447 2.3390979641
H -0.9458375039 -1.3949158820 4.9037843438
H -0.1602646873 0.6842022115 3.7363339257
