49
CONF42
C -3.7124681563 -1.7694832483 -1.1552321785
C -2.4887040366 -1.3293981903 -1.9314078114
C -1.1055343524 -1.3274472942 -1.2563943131
C -1.8289032742 -0.0150489222 -1.6238340942
C -1.1763306589 0.7980996936 -2.7244732177
C -2.3711036354 0.8688876387 -0.5211579958
C -0.8939189281 -1.7308786559 0.1363909691
O -1.6442674380 -1.6375682514 1.0821698357
O 0.3706505186 -2.2744714097 0.2626821658
C 0.7124403688 -2.6578006696 1.6077627053
C 1.7979978872 -3.6322838442 1.4880816908
N 2.6597071117 -4.3993973005 1.4392748992
C 1.1416395337 -1.4756932600 2.4581139985
C 0.8686300351 -1.4798004179 3.8238562397
C 1.3144991240 -0.4280617123 4.6164524174
C 2.0138610118 0.6328666559 4.0526107046
C 2.2665831151 0.6273420948 2.6849685471
C 1.8442114223 -0.4252182827 1.8783693473
O 3.0248414284 1.6612787887 2.1749332509
C 2.6233288830 2.2574824077 0.9938662890
C 1.2841825982 2.5383305810 0.7309572966
C 0.9562494724 3.2255401802 -0.4330376744
C 1.9470108177 3.6207865275 -1.3284448054
C 3.2795771857 3.3298720990 -1.0501033368
C 3.6249537262 2.6472440942 0.1112348725
C -2.5144862180 -1.8535557571 -3.3543431508
H -4.6075746797 -1.3411123044 -1.6206953590
H -3.6887891484 -1.4811409402 -0.1070892646
H -3.8058258691 -2.8599831463 -1.1963023947
H -0.2745639092 -1.5840613921 -1.9051605714
H -0.3837099738 1.4242997940 -2.3008837729
H -0.7293678703 0.1846121538 -3.5075206669
H -1.9159361975 1.4586765518 -3.1922115525
H -3.1694761389 1.5037340773 -0.9222324846
H -1.5748134239 1.5235703395 -0.1515280651
H -2.7602275128 0.3120593780 0.3284561580
H -0.1496420779 -3.1456039217 2.0795250241
H 0.3085208659 -2.2987926135 4.2635955235
H 1.1035205982 -0.4258911581 5.6805970462
H 2.3643185556 1.4659927074 4.6514210199
H 2.0635309027 -0.4216291878 0.8160349122
H 0.5184956659 2.2342813832 1.4370838319
H -0.0829898405 3.4674125535 -0.6333397284
H 1.6819579437 4.1575330074 -2.2329131947
H 4.0589908426 3.6344293686 -1.7410622703
H 4.6571383201 2.4147028459 0.3486581092
H -2.6712522486 -2.9371512740 -3.3464473426
H -1.5926974842 -1.6580680587 -3.9034013715
H -3.3442552323 -1.3994939255 -3.9082112616
