51
CONF22
C 1.1304291698 -2.6202961954 -0.5187883686
C 1.3771476818 -1.5003925047 -1.4957117735
C 0.3514258229 -1.0662541728 -2.3570730074
C 0.5865095834 -0.0574743186 -3.2896008966
C 1.8424122343 0.5229855980 -3.4006715933
C 2.8586530432 0.1106225735 -2.5520449717
C 2.6396394979 -0.8825251209 -1.5900649252
C 3.7669233602 -1.2435650247 -0.6955970620
C 4.9965824221 -1.6376486798 -1.2339690507
C 6.0711332834 -1.9431551466 -0.4052555418
C 5.9362767444 -1.8534235552 0.9767592267
C 4.7197709854 -1.4549014318 1.5244170384
C 3.6453641952 -1.1539841696 0.6956025457
C -1.0233551736 -1.6694685413 -2.2824828455
O -1.6245742508 -1.4519963266 -0.9710930191
C -2.0813437122 -0.1937559633 -0.7528166289
O -2.1322694060 0.6672109264 -1.6027386205
C -2.4651126272 -0.0356942729 0.6690254121
C -3.2597194164 1.2014657348 1.0676307096
C -1.8153575400 1.0539887974 1.5121864738
C -0.8074978592 1.9913794467 0.8877911292
C -1.5008150780 0.6965828941 2.9477798658
C -4.3723445397 1.0496636020 2.0069691198
C -5.4432965795 1.8447976372 2.0910810722
C -5.6516915371 3.0513602663 1.1995940150
F -6.7063925579 3.7966372603 1.5579683973
F -5.8373293552 2.6786877902 -0.0914023173
F -4.5608796381 3.8587527687 1.2194583600
Cl -6.7140446868 1.5227551100 3.2426303405
H 0.6342244549 -2.2604840888 0.3890490969
H 2.0656453264 -3.0987092171 -0.2244494612
H 0.4745491508 -3.3827279248 -0.9477058590
H -0.2313653987 0.2813012875 -3.9174859403
H 2.0217039817 1.3076493738 -4.1282153067
H 3.8377061428 0.5771958451 -2.6052001313
H 5.0998397706 -1.7173997256 -2.3121122456
H 7.0151939939 -2.2554100246 -0.8405411403
H 6.7744713237 -2.0904785516 1.6238621617
H 4.6096025127 -1.3719388627 2.6011292657
H 2.7024619926 -0.8296723827 1.1252866177
H -1.0068773640 -2.7571444511 -2.3860590524
H -1.6739569945 -1.2422015026 -3.0491428017
H -2.6772410206 -0.9628503921 1.1919013882
H -3.3921676480 1.8982911752 0.2468811073
H 0.1853050441 1.5262734465 0.8711706842
H -1.0747134394 2.2611022538 -0.1345760641
H -0.7427901652 2.9065907639 1.4854924379
H -2.1830987592 -0.0486573449 3.3621990723
H -1.5470447954 1.5905902869 3.5791638481
H -0.4856560249 0.2907243056 3.0123730852
H -4.3320355417 0.2121468404 2.6973964495
