41
CONF120
C -4.0387830017 -2.1041317588 -2.2082241677
C -3.4415013595 -1.0197566934 -1.3170683116
C -4.4625197706 0.0834517549 -1.0477656001
N -2.2541833362 -0.4696515028 -1.9832845244
C -1.4364123089 0.3900148021 -1.1346398580
C -0.0652770913 0.5819405829 -1.7801768030
O 0.6011914031 -0.6672956442 -1.9662892237
C 0.8206804427 1.5405116096 -1.0010299887
O 1.0363980459 0.9403612993 0.2807444165
C 2.0705929386 1.3798797297 1.0534197845
C 2.7743703019 2.5588232568 0.8137331823
C 3.8115874961 2.9249916299 1.6694683440
C 4.1421346622 2.1277882714 2.7565751578
C 3.4235473533 0.9559176904 2.9880896592
C 2.3852396628 0.5605824637 2.1516550836
C 1.6163461275 -0.7181999342 2.3826296170
C 1.9147375030 -1.7823539362 1.3615912079
C 0.9968452060 -2.5025727858 0.7198416824
H -3.3142271284 -2.9035951445 -2.3989131451
H -4.9183330481 -2.5527312270 -1.7372904640
H -4.3373522123 -1.6767781782 -3.1710833583
H -3.1701073386 -1.4777920437 -0.3425879883
H -4.7361189579 0.5741481073 -1.9880169218
H -4.0718080145 0.8431633288 -0.3644149997
H -5.3658562114 -0.3355579755 -0.5939395193
H -1.6619565567 -1.2414147531 -2.2793455053
H -1.9111956553 1.3750772832 -1.0268942418
H -1.2979461037 -0.0175560160 -0.1132797492
H -0.2091980737 0.9951306118 -2.7868554382
H 0.8720454224 -0.9796217787 -1.0869366981
H 0.3411760072 2.5244190177 -0.8899086372
H 1.7784904156 1.6568823356 -1.5244931583
H 2.5177029782 3.1965844257 -0.0235147361
H 4.3567400250 3.8438245932 1.4790365387
H 4.9479664787 2.4135016883 3.4236522517
H 3.6746568897 0.3283602442 3.8391711012
H 1.8902866075 -1.1016990253 3.3741441558
H 0.5381233774 -0.5224304147 2.3961053988
H 2.9720515100 -1.9649505196 1.1691612320
H -0.0661180149 -2.3437511381 0.8884712561
H 1.2759838365 -3.2828738384 0.0184629737
