44
CONF8
C 3.3665585625 -0.5167628199 -0.7702345454
C 2.4208060236 0.1445733492 -1.7164663630
N 1.4134837853 0.8314628250 -1.1769901623
C 0.5384552737 1.3749046048 -2.0428576039
N 0.6552859393 1.3120885908 -3.3733656289
C 1.7242627546 0.6369618138 -3.7920393329
N 2.6324542189 0.0132778064 -3.0308950742
O 1.8538488561 0.5984791104 -5.1186157887
C 2.9856557698 -0.1199987889 -5.6508281514
N -0.5736992554 2.0431468320 -1.5586518060
C -1.4838033256 2.6408055938 -2.5508687143
C -1.0354764104 2.0679598806 -0.2069132385
O -2.1567686789 2.4573813475 0.0556071939
N -0.1266547469 1.6551896026 0.7407756310
S -0.5969083691 1.3916727748 2.3581434324
O 0.5695526701 0.7300382631 2.9511958758
O -1.1340341743 2.6290343917 2.9109892551
C -1.9385178269 0.1915412714 2.2666662082
C -3.2368645568 0.6578937186 2.4268525607
C -4.2866975894 -0.2535711116 2.4637493841
C -4.0291778059 -1.6164370831 2.3649418776
C -2.7244472103 -2.0754369975 2.2169043974
C -1.6626858358 -1.1740774594 2.1482623123
C -0.2907101429 -1.7013089159 1.8672063622
O 0.3536029091 -1.4311766779 0.8778465476
O 0.0951805643 -2.5697736742 2.8149602924
C 1.4186172603 -3.1200172060 2.6266728792
H 4.1079233339 -1.1016687538 -1.3136781813
H 3.8690877031 0.2421450431 -0.1615861626
H 2.7976349235 -1.1528122330 -0.0848129861
H 2.8924237773 -0.0219514700 -6.7322322621
H 2.9499796764 -1.1708276684 -5.3533438875
H 3.9221110274 0.3224983114 -5.3023889417
H -0.9069419516 3.2496132581 -3.2474051346
H -2.2073999842 3.2478986198 -2.0122740943
H -2.0046286198 1.8632983323 -3.1169276164
H 0.6992480393 1.1317976994 0.3933138909
H -3.4063969274 1.7232824563 2.5237446200
H -5.3037674468 0.1046652045 2.5802893336
H -4.8459887835 -2.3292980382 2.4075235900
H -2.5201033995 -3.1382596658 2.1442166209
H 1.5770509190 -3.7869645781 3.4731568515
H 1.4727222690 -3.6683585223 1.6825616303
H 2.1557266684 -2.3129084290 2.6262721301
