21
CONF7
C -1.9345350127 0.0225034617 -0.7021561349
C -1.2518300770 0.7183838750 0.4758645560
C 0.0935629090 1.3687719560 0.1486326035
C 1.0527953426 0.3789433646 -0.5423223413
C 0.9354982957 -1.0425224575 0.0571364964
C -0.5075337340 -1.3750334972 0.4492745626
O -1.3606836150 -1.3097423771 -0.6901908699
O -0.9953881215 -0.4015409366 1.3592039468
O 1.6886881542 -1.1444590753 1.2709130695
O 0.7561418213 0.4024920527 -1.9404551707
O 0.6783621291 1.8764133771 1.3501035686
H -3.0141389921 -0.0584308942 -0.5387598982
H -1.7300432975 0.5028320375 -1.6613578816
H -1.9009239658 1.4217474286 1.0018108410
H -0.0597446986 2.2267554155 -0.5151006004
H 2.0796822648 0.7340108385 -0.3643493510
H 1.2784630433 -1.7794044270 -0.6847425705
H -0.5793010524 -2.3620013437 0.9179497476
H 2.6258533646 -1.0737184303 1.0475073761
H 1.3461937021 -0.2236886485 -2.3796801107
H 0.7988814553 1.1176882749 1.9407176584
