45
CONF49
C -4.7217531341 -2.4340049339 -0.6799426040
O -3.5982114601 -1.6179893557 -1.0948481692
C -2.4552422955 -2.2970528418 -1.3169258438
O -2.3418210758 -3.5085580783 -1.2985070192
N -1.4166820373 -1.4155715589 -1.5412347193
C -1.5391978644 -0.0105118385 -1.7515832691
C -1.2318720175 0.5087315732 -3.0118023032
C -1.3019970633 1.8766452412 -3.2343623972
C -1.6926558465 2.7280865804 -2.2019442685
C -1.9979610092 2.2055829076 -0.9512159507
C -1.9105581035 0.8342506268 -0.6969261252
C -2.2276633081 0.3025792807 0.6772421463
O -1.8944190363 1.2590308587 1.7074438664
C -0.5800023477 1.4369687001 1.9534026096
N 0.3681821453 0.6314241828 1.4873705743
N 1.5253660498 1.1646349470 1.9786256004
C 1.2940524431 2.2730467960 2.7381728473
C -0.0644007147 2.4873165469 2.7457751405
C 2.7625775955 0.5479695849 1.7033853712
C 2.8134959555 -0.8268462338 1.4654457619
C 4.0295722264 -1.4389613588 1.1903817520
C 5.1866576354 -0.6692486120 1.1732477300
C 5.1521834750 0.6986866093 1.4170107024
C 3.9314953478 1.3111066143 1.6726759841
Cl 6.7300923274 -1.4431117740 0.8330019388
O -0.3076038847 -2.0070070972 -2.1565496534
C 0.8174231441 -1.9771617262 -1.2525462728
H -4.9801123103 -3.1477066498 -1.4651541626
H -4.4822667785 -2.9632214603 0.2453552516
H -5.5371745374 -1.7301674241 -0.5185251531
H -0.9337797765 -0.1673483083 -3.8051429821
H -1.0622523861 2.2754921719 -4.2147487601
H -1.7572500781 3.7981439741 -2.3707419807
H -2.2878729061 2.8692842154 -0.1431113567
H -1.7152394369 -0.6468835542 0.8637816267
H -3.3032925349 0.1473223306 0.7936426903
H 2.0966038143 2.8035927027 3.2283119185
H -0.6105098401 3.2701006274 3.2481032931
H 1.9058700854 -1.4157657302 1.5070110056
H 4.0725259429 -2.5062667159 1.0052937899
H 6.0614081320 1.2881343922 1.3890054474
H 3.8966170240 2.3834726956 1.8283823340
H 1.6391477049 -2.4329246201 -1.8088670532
H 1.0706848623 -0.9449253134 -0.9862400684
H 0.5978359834 -2.5595081810 -0.3511496508
