50
CONF27
C 2.7566551318 -0.5216072980 -2.5565937454
C 2.3141326036 -0.6389133456 -1.1164633939
C 1.1606480538 -1.3703225738 -0.8330979855
C 0.8062786025 -1.6318851893 0.5018161962
C 1.5865446417 -1.2109381267 1.5508282556
C 2.7458503117 -0.4461363235 1.3112925777
C 3.0720331326 -0.0982044177 -0.0360805964
C 4.1594918007 0.8512512187 -0.1397217617
N 4.9193597716 1.1637997985 0.9036629222
C 4.5880523275 0.6342882291 2.1064146583
N 3.5075469214 -0.0807048046 2.3823485935
N 5.4763367960 0.8784995186 3.1218309112
N 4.4591777589 1.4993642214 -1.2969539414
C 0.2838825155 -1.9065721078 -1.9618739340
N -1.0730507230 -2.2590221947 -1.5917387669
C -1.9665797741 -1.3135028262 -1.1089012283
C -1.6938223748 0.0583859931 -1.2047706538
C -2.6384680012 0.9809846647 -0.7483659473
C -3.8577661655 0.5584376878 -0.2060381969
C -4.1118490816 -0.8187775899 -0.1037157038
C -3.1796156950 -1.7525521173 -0.5513030347
O -5.3133850096 -1.1451460393 0.4516092976
C -5.6229758141 -2.5369221866 0.5824764483
O -4.7978992860 1.4777720014 0.2102488448
C -4.6482095130 1.8370908104 1.5971453113
O -2.4529893179 2.3315844929 -0.7828255362
C -1.2032324585 2.8149694326 -1.2873412923
H 3.8420006703 -0.4569299532 -2.6399182532
H 2.4452656148 -1.4001214687 -3.1242420276
H 2.3182684077 0.3510900634 -3.0608205398
H -0.0961935194 -2.2001168421 0.7046978411
H 5.1299975700 0.7416827990 4.0587288194
H 6.1020585197 1.6582080771 2.9928260382
H 5.1001703581 2.2738333851 -1.2062394033
H 3.7600282755 1.5906821678 -2.0133554149
H 0.2418229751 -1.1697314477 -2.7733917542
H 0.7421628156 -2.8046589465 -2.3955283796
H -1.1972364753 -3.1898988737 -1.2241375560
H -0.7488218286 0.3979626059 -1.6032469897
H -3.3757321538 -2.8160254788 -0.4861205091
H -4.8945606493 -3.0446214829 1.2259066603
H -5.6552562913 -3.0275549479 -0.3974930290
H -6.6100509264 -2.5765929820 1.0443096823
H -5.4345976064 2.5617130433 1.8203033918
H -4.7663453595 0.9554609075 2.2387200566
H -3.6660127671 2.2922883493 1.7731657424
H -0.3637919590 2.4397593572 -0.6890987838
H -1.0640210681 2.5315476478 -2.3374255519
H -1.2542609728 3.9012598435 -1.2059528439
H 1.3330813805 -1.4563225080 2.5770100013
