76
CONF10
C -0.5856562296 -1.1792164951 -1.9411081983
C -1.7613837749 -1.1572917446 -0.9758402722
C -3.0169085868 -1.6592107289 -1.6397795928
C -4.1152083136 -2.0907618158 -1.0091814050
C -5.3024308170 -2.6370897640 -1.7692873666
O -5.1110266660 -2.8044440711 -3.1690547712
C -4.3678445361 -2.0654327425 0.4817505303
C -3.5625523883 -1.0549536584 1.3112020310
O -2.3702973350 -1.6276926870 1.8844432701
C -4.3546960508 -0.5129964269 2.5263357938
O -4.9513817672 -1.2254801335 3.3228671123
C -4.2073544394 0.9420314944 2.5718740276
C -4.7701039987 1.7685939063 3.6756301365
C -3.5402940903 1.3398315245 1.4698398358
C -3.2133794075 0.2200343468 0.5276902425
C -1.8941411520 0.2343355091 -0.2755136821
O -2.0958380013 1.2936435616 -1.2154661364
C -0.5882535983 0.4618794428 0.5364137291
C -0.5872841973 1.7064199768 1.4248780447
C 0.6181226048 0.5638218637 -0.4183650329
O 1.8181198631 0.3407249686 0.3781180464
C 2.8533488629 1.2046675220 0.2289155952
O 2.8047511311 2.1599328461 -0.5429548390
C 3.9943578073 0.8638515618 1.0821491411
C 3.9281662389 -0.2518850845 1.9356385941
C 4.9824415206 -0.6105001337 2.7542386364
C 6.1482066970 0.1642684546 2.7292835049
C 6.2546642217 1.2685159459 1.9066817290
C 5.1886300852 1.6579716067 1.0585652685
N 5.3123034333 2.7441098276 0.2603347873
C 6.4942312245 3.5824678875 0.2069520601
C 0.6335941315 -0.3527016558 -1.6155115372
O 1.4058757806 0.2049692712 -2.6982050178
C 0.8948185058 1.2279204833 -3.4058458501
C 1.8553955702 1.6932278564 -4.4528949558
O -0.2078330500 1.7094274192 -3.2071867782
C 0.7264719044 -1.8558237497 -1.5697961497
C 0.8980006605 -2.5814943535 -0.2533174239
C 1.4739109011 -2.5390073340 -2.6991934435
H -0.8385095573 -1.2220127722 -2.9981006903
H -1.5400927154 -1.8483801833 -0.1586963989
H -3.0160885597 -1.6953330377 -2.7270682974
H -5.6116175971 -3.5861411696 -1.2988637360
H -6.1481342717 -1.9452165699 -1.6585871011
H -4.4234509584 -3.4709875033 -3.2953647610
H -5.4341436918 -1.8356060715 0.6244351588
H -4.2354850925 -3.0687539612 0.9104033302
H -2.6585848109 -2.3216428683 2.4952851235
H -4.5877412704 2.8318095063 3.5050989526
H -5.8495076636 1.6053443674 3.7670119575
H -4.3241005397 1.4836682523 4.6350440803
H -3.3349101077 2.3754315098 1.2197860839
H -3.9581487322 0.2948218440 -0.2782804507
H -1.3704996719 1.3040509636 -1.8702525159
H -0.4541493829 -0.4130165491 1.1756081886
H -0.8929082395 2.5921618975 0.8591168815
H 0.4182421962 1.8827824508 1.8200343426
H -1.2554290212 1.5842769958 2.2801510010
H 0.6606475700 1.5893595941 -0.7966881690
H 3.0187762973 -0.8404677333 1.9433413670
H 4.9052349164 -1.4752599519 3.4036255867
H 6.9882249079 -0.1005735599 3.3649949430
H 7.1697059349 1.8481607904 1.9105239829
H 4.5130708451 2.9731165669 -0.3131826091
H 7.3797699095 3.0209027876 -0.1190539355
H 6.3126253400 4.3826359409 -0.5125924708
H 6.7171514183 4.0387713303 1.1806651611
H 2.1402099745 0.8546513356 -5.0946911654
H 1.4023305573 2.4869908151 -5.0447580785
H 2.7655677128 2.0596674917 -3.9680409971
H 1.9652391121 -2.7193156338 -0.0507398312
H 0.4340726822 -3.5724473764 -0.3162383943
H 0.4688537792 -2.0600096059 0.6011104369
H 2.5547454914 -2.5069416836 -2.5230859393
H 1.1680170609 -3.5898930590 -2.7413630108
H 1.2694739415 -2.0832694508 -3.6694212978
