21
CONF64
C -1.6083548004 -0.2148724070 0.6849903213
C -2.9728915491 0.4118812093 0.4224057801
O -3.5450757464 -0.2252557406 -0.7175946354
C -0.5116385923 0.3590764738 -0.1900758121
C 0.8560080601 -0.3586199241 0.0191221997
C 2.0961154089 0.3461723883 -0.6199932894
C 3.3548619535 -0.5714879493 -0.7557287334
F 4.4099225899 0.1858013738 -1.0898271132
F 3.6175114759 -1.1864344798 0.4070947354
F 3.1776717850 -1.4945074915 -1.7074572882
F 1.7896839360 0.7924511257 -1.8587891839
F 2.4441012779 1.3993149842 0.1531617403
F 1.0865886521 -0.4642533424 1.3552514647
F 0.7506085634 -1.6133705596 -0.4920383911
F -0.3246979276 1.6890785800 0.1030595650
F -0.8301213182 0.2780347363 -1.5086470363
H -1.6699786516 -1.2952780243 0.5191545075
H -1.3172439599 -0.0466966529 1.7250644749
H -3.5984294850 0.2512116117 1.3133131315
H -2.8692490639 1.4963694600 0.2723273617
H -4.3353924126 0.2613848242 -0.9726039984
