39
CONF103
C 1.2617582439 4.4375472460 0.2892952953
C 1.8604455307 3.2292989913 -0.3468494879
C 2.0612188029 1.9435294932 0.1086897252
C 2.7039830403 1.0702630187 -0.8393611545
C 2.9890978853 1.7222443621 -2.0091591976
S 2.4667861827 3.3597938396 -1.9710218763
C 2.9328699229 -0.3831870412 -0.6883106664
O 2.2728794451 -1.1212619730 0.0183014971
O 3.9412725741 -0.7984557476 -1.4704955693
C 4.1786586466 -2.2301062640 -1.4722212137
S 1.7130541163 1.4747944956 1.7857862349
O 2.8074828545 0.6475400185 2.3026002855
O 1.2853156257 2.6559117332 2.5355317665
N 0.3825335553 0.3973217541 1.7164681944
C -0.7811095065 0.7688532229 1.0720810981
O -1.0586325885 1.9027644256 0.7353714339
N -1.6520460316 -0.3108376747 0.8484379740
C -1.4493171268 -1.6722255572 1.1233732441
O -0.4742351980 -2.2133540587 1.6292473326
N -2.6169409286 -2.2581709967 0.6818615995
C -3.4191201266 -1.2581624030 0.1863966810
N -2.8935770730 -0.0685000680 0.2579045954
O -4.6001589460 -1.5848114063 -0.2964216677
C -5.3967673169 -0.4771479408 -0.8053685886
C -2.9201267188 -3.6823001800 0.7378863123
H 0.2809780832 4.1985548963 0.7053074278
H 1.8928015861 4.7974623120 1.1066129840
H 1.1547581578 5.2386025759 -0.4449966259
H 3.4443109062 1.3062837887 -2.8973262201
H 3.2861982583 -2.7572717584 -1.8171616982
H 5.0075299598 -2.3807710254 -2.1619726286
H 4.4457264463 -2.5654140801 -0.4675942699
H 0.6294077804 -0.5969384052 1.7260029613
H -5.5979705969 0.2322858921 0.0006459891
H -4.8646962132 0.0130926910 -1.6238187541
H -6.3182565247 -0.9345274446 -1.1596403513
H -3.8095612944 -3.8506005265 1.3494712086
H -2.0629019055 -4.1832336287 1.1894518974
H -3.0836482067 -4.0688673706 -0.2707453526
