60
CONF234
C 7.6602096281 0.1843066047 -1.7482364343
C 6.9532790457 -1.1569119815 -1.9239164924
N 6.0954331448 -1.4938889984 -0.7840060648
C 6.7184226816 -2.2179339038 0.3277289946
C 6.6250572344 -3.7371154946 0.1848567291
C 4.7973556335 -1.0694243813 -0.8062302887
O 4.3419063741 -0.3667987354 -1.7161469656
N 4.0161249144 -1.4743034345 0.2760965136
C 2.6420699338 -1.1934163270 0.3980596400
C 1.7987891460 -2.1694235791 0.9150902300
C 0.4280776401 -1.9522174959 1.1025785756
C -0.1062278227 -0.6898357091 0.7585942305
C 0.7439467421 0.2974593258 0.2472361470
C 2.0992181298 0.0555202482 0.0749491845
O -1.4267016923 -0.4800127267 0.9878390547
C -2.0074441982 0.7717666654 0.5867623819
C -3.4875402042 0.6965083026 0.8741404411
C -4.1497674249 2.0590949409 0.6453624733
N -5.6013334461 1.8781082766 0.7471926240
C -6.4567385381 2.9204747365 0.1221955794
C -6.3583442831 2.8125228428 -1.4025181892
C -6.0741809738 4.3376727189 0.5765396966
C -7.8920034811 2.6129353321 0.5584922342
O -4.0771601481 -0.2778806771 0.0118301130
C -0.3568660702 -3.1015954844 1.6447435547
O 0.2326406093 -4.0204541644 2.2093707569
C -1.8499112349 -3.1693146750 1.4689530827
H 8.2760069851 0.1890453272 -0.8430820280
H 6.9291985197 0.9946025045 -1.6764047393
H 8.3129447158 0.3810200361 -2.6047568497
H 7.6872735341 -1.9636202397 -2.0306313059
H 6.3401553775 -1.1458386380 -2.8283514364
H 7.7711355235 -1.9161812873 0.3585811691
H 6.2844213660 -1.8838554245 1.2762988759
H 7.0941808975 -4.0647784356 -0.7477848346
H 5.5850675024 -4.0791729803 0.1792021578
H 7.1405003215 -4.2242912937 1.0182526013
H 2.1932071116 -3.1469857855 1.1751055443
H 0.3600474000 1.2783533403 -0.0028153530
H 2.7367578888 0.8422729045 -0.3062103277
H -1.5584783850 1.5950266224 1.1590843606
H -1.8409247900 0.9363222641 -0.4860657300
H -3.6278390882 0.3987552501 1.9278713176
H -3.7391232543 2.7915848014 1.3580879599
H -3.9005490612 2.3999453165 -0.3661476157
H -5.8460562241 1.8220067122 1.7325787154
H -7.0541277245 3.5172076520 -1.8683342077
H -6.6143002127 1.7999891417 -1.7311700804
H -5.3547235583 3.0519143349 -1.7666711769
H -6.1221576447 4.4176212108 1.6685656418
H -6.7619972293 5.0744128727 0.1484604670
H -5.0608302453 4.5980936022 0.2544236723
H -8.1819429718 1.6049805431 0.2444595268
H -8.5866044887 3.3306655961 0.1123733848
H -7.9892955161 2.6793555425 1.6484864674
H -2.3351265415 -2.4981614142 2.1855401837
H -2.1755661863 -4.1937838374 1.6572994682
H -2.1564956108 -2.8372792800 0.4744274402
H -5.0177758130 -0.0199317162 -0.0138175235
H 4.3182836051 -2.2912306135 0.7842715950
