46
CONF4
C 3.6901838744 2.3619299129 -3.5146922058
C 3.1090627407 1.3563650017 -2.5266062654
C 1.8892504485 0.5360685824 -3.0918139384
N 1.0979204751 0.1609684887 -1.9452126583
C 1.0038706167 1.1088235274 -0.8298321060
S 2.3950040905 2.2928816704 -1.0618997793
C 1.1396256171 -0.1084126820 0.1510321660
C 1.1950479716 -0.9644254028 -1.1385927351
O 1.3365177781 -2.1363009884 -1.4005535306
N 0.1380527053 -0.3723002301 1.1365524297
C -1.1429415368 -0.6639602694 0.8010037899
O -1.5142507104 -0.7492048295 -0.3699858921
C -2.0713419939 -0.8796739809 1.9591055048
C -2.3519254816 -2.1789301723 2.3970802454
C -3.2594190588 -2.3908396176 3.4392101994
C -3.8748648170 -1.2869116521 4.0220612119
C -3.6162955146 0.0145411081 3.6026878269
C -2.7053595145 0.2132309154 2.5607589749
O -2.3673770750 1.4282503914 2.0492163208
C -2.9802801742 2.5899649836 2.6295753982
O -1.6798965179 -3.1645672394 1.7430347927
C -1.9164027911 -4.5193545661 2.1560517442
C 1.0468925192 1.3403822193 -4.0699441306
O 1.4746559508 1.1706741276 -5.3312181359
O 0.1192599164 2.0516188028 -3.7537637722
C 4.1890122698 0.3813947400 -2.0580568489
H 4.5193344016 2.9011246877 -3.0482957075
H 4.0808807559 1.8301368608 -4.3880167543
H 2.9471309079 3.0921855345 -3.8457466286
H 0.0580676787 1.6511672514 -0.7610777732
H 0.3826771974 -0.3065979838 2.1137153868
H -3.4864433652 -3.3873114080 3.7947757060
H -4.5811476228 -1.4466787855 4.8309138686
H -4.1168387947 0.8468863579 4.0797077009
H -4.0684422322 2.5599013204 2.5058963558
H -2.5706734138 3.4397246075 2.0834737294
H -2.7273209938 2.6756807458 3.6921654975
H -2.9681070350 -4.7924758792 2.0157618214
H -1.6298120191 -4.6637479338 3.2036478982
H -1.2870331065 -5.1347745421 1.5132809564
H 4.9895126306 0.9276278565 -1.5527426072
H 4.6127651504 -0.1390538319 -2.9246781900
H 3.7957362411 -0.3658115670 -1.3633157467
H 2.1243361255 -0.1120588102 0.6265638343
H 2.2656886137 -0.3616350826 -3.5922185108
H 0.9421151868 1.7354031138 -5.9191425170
