54
CONF70
C -2.8104853467 1.4348203419 -1.9345367785
C -2.2524391155 1.3560860699 -0.4897159263
C -2.4179273564 2.7497763217 0.1512890336
C -3.8548397679 3.0334474777 0.5868152167
C -4.4249631933 1.9286743564 1.4458949026
O -5.2862074869 2.1557844058 2.2992858942
C -3.9714680383 0.5731557070 1.1667863017
C -3.0129514535 0.2831253990 0.2612226133
C -2.7152919682 -1.1448359384 -0.1117197670
C -1.2237177951 -1.4871168881 -0.2890601245
C -0.5449519650 -0.4448569765 -1.1900814166
C -0.7550978122 0.9443185156 -0.5396782414
C -0.0589377757 0.8538110365 0.8133249993
O -0.5627988332 1.1819095119 1.8736921463
C 1.3053910133 0.1823910102 0.8365773595
C 1.9726087977 -0.0786187184 -0.5194742611
C 0.9419517301 -0.6415416637 -1.5680224810
C 1.3425331035 -2.1111723204 -1.8388853202
C 2.2054485812 -2.5058071026 -0.6376965604
C 3.0373639164 -1.2479785631 -0.4102269250
C 3.8440761009 -1.1798288451 0.8842406807
O 4.7909909175 -0.4092548812 0.9667265734
C 3.5457909003 -2.1000671828 2.0419526900
O 4.3675780406 -1.8306565207 3.1551914672
O 3.9705653168 -1.1801146049 -1.4923662919
C 2.6359719600 1.2184368028 -0.9934910553
H -2.1524005747 2.0621850391 -2.5450547855
H -2.9012992728 0.4601800925 -2.4150866716
H -3.8055122621 1.8868219791 -1.9235969186
H -1.7736998382 2.8282240768 1.0265788393
H -2.0891955108 3.5065847088 -0.5705726246
H -3.9256663474 3.9770600986 1.1354274231
H -4.5245681019 3.1234081401 -0.2802881471
H -4.4817725845 -0.2254489334 1.7014146664
H -3.2185418776 -1.3347056621 -1.0717341638
H -3.1786866451 -1.8168642550 0.6166021134
H -1.1557023186 -2.4874428783 -0.7249394037
H -0.7483696804 -1.5442808286 0.6965442234
H -1.0878058617 -0.4566414643 -2.1407258578
H -0.2201759032 1.6964211638 -1.1381721675
H 1.9518033700 0.7855545453 1.4862366875
H 1.1205879655 -0.7487919627 1.3847831145
H 1.0806885348 -0.0601374532 -2.4858246386
H 0.4806946624 -2.7691279844 -1.9694153551
H 1.9400251890 -2.1730749788 -2.7517023854
H 1.5704387256 -2.7012206962 0.2335929553
H 2.8353165936 -3.3827504421 -0.8105348176
H 2.4881226955 -2.0351676604 2.3295807443
H 3.7030233210 -3.1274702686 1.6677280846
H 5.0203832391 -1.1757346819 2.8543534313
H 4.6082349384 -0.4843091644 -1.2750885293
H 3.0271063916 1.1182911757 -2.0086249812
H 3.4547360728 1.5039087468 -0.3234497684
H 1.9140418262 2.0406424747 -0.9929248999
