42
CONF71
C 1.9451983153 -4.1498008207 -1.1072357865
C 0.9015527426 -3.6018866417 -0.1377247687
C 0.6490664337 -2.1089241849 -0.3251062470
C -0.4490018822 -1.6388158016 0.6443728098
O -0.1867113685 -1.3456234746 1.8098773271
N -1.6931931296 -1.6378102246 0.1201250181
C -2.8720620155 -1.1935836528 0.8644339763
C -3.2368142621 0.2359814889 0.5341116552
C -2.3674990590 1.2777558667 0.8757947911
C -2.6815093165 2.5929891296 0.5508527159
C -3.8714534924 2.8847725504 -0.1165353666
C -4.7429693455 1.8538202696 -0.4561700849
C -4.4245527546 0.5350848837 -0.1336136930
O 1.8799483666 -1.4398602937 -0.0304849044
C 1.9525562611 -0.0932044935 -0.2299911169
C 3.1627851857 0.4963855529 0.1458103641
C 3.3535136671 1.8622101276 -0.0161412280
C 2.3217912653 2.6295721144 -0.5550748459
C 1.1225854982 2.0633622121 -0.9311040627
C 0.9323350817 0.6922003521 -0.7712263366
F 2.5020263458 3.9624414808 -0.7114800810
C 4.6425236304 2.5171126431 0.3821596157
F 4.4543231790 3.4710158845 1.3297657105
F 5.2465292258 3.1291564199 -0.6687367984
F 5.5301040113 1.6329229895 0.8850537304
H 2.9145908970 -3.6671444627 -0.9588426906
H 2.0746736268 -5.2253419203 -0.9570237279
H 1.6361450473 -3.9862743544 -2.1450736579
H 1.2073968163 -3.7684815024 0.9017115527
H -0.0552581944 -4.1166040226 -0.2807724743
H 0.3638411475 -1.9085587143 -1.3686080261
H -1.8005562381 -1.7912618234 -0.8725504642
H -3.7074377988 -1.8603563271 0.6303414832
H -2.6370836556 -1.2946339637 1.9278246974
H -1.4407322239 1.0517648943 1.3959143662
H -1.9997377137 3.3934369955 0.8222737956
H -4.1171044844 3.9117778969 -0.3682115782
H -5.6708166302 2.0736384467 -0.9754007909
H -5.1048381196 -0.2685186736 -0.4032319613
H 3.9447554421 -0.1252586366 0.5651967221
H 0.3383769140 2.6878834824 -1.3447112551
H -0.0172876063 0.2666577044 -1.0698761088
