44
CONF10
C 3.7588889769 2.4617363305 0.3457775418
N 3.0549197701 1.4655765800 1.1534062345
C 3.4193483335 0.1121468120 0.7188368919
C 2.6989078656 -0.9366902821 1.5588709667
N 1.2517004806 -0.7249500579 1.4682323730
C 0.8561701018 0.6285422640 1.8787699966
C 1.6056246305 1.6594321247 1.0426938671
C 0.5165229900 -1.5327923098 0.6768825819
O 0.8964884549 -2.5575573632 0.1317143164
O -0.8001178750 -1.0971219318 0.6112788605
C -1.5667604642 -1.5626109957 -0.4885255574
N -1.9821179958 -0.4139010953 -1.3122864133
C -3.3638794386 -0.2630792963 -1.4049158073
O -3.9699692517 0.5705113381 -2.0537796351
C -3.9244421596 -1.3561015247 -0.5670304863
N -5.2099477201 -1.6099520249 -0.3453192851
C -5.4158143329 -2.6550675721 0.4663702752
C -4.3671269998 -3.4010360541 1.0236102764
N -3.0743663471 -3.1347810441 0.7808362204
C -2.8901150593 -2.1003262552 -0.0271757315
C -1.0117340165 0.3806650398 -1.9475501432
N 0.1675302846 -0.2151082262 -2.1339531507
C 1.1526083589 0.4777414159 -2.7059073332
C 0.9778108541 1.7934263690 -3.1158110612
Cl 2.3084777688 2.6509675910 -3.8600654924
C -0.2450009382 2.4228277531 -2.9153597388
C -1.2673618182 1.7068231731 -2.3133912238
H 3.4999904496 3.4678149676 0.6920058867
H 4.8403000283 2.3247406603 0.4496092750
H 3.5012313462 2.3883931886 -0.7286136075
H 3.1680059031 -0.0485291161 -0.3496616596
H 4.5020916664 -0.0162187157 0.8315345258
H 2.9392761341 -1.9413874536 1.2101046118
H 2.9924549496 -0.8422723330 2.6115042223
H 1.1189752075 0.7454016411 2.9374309526
H -0.2189653743 0.7584008562 1.7694831304
H 1.2677016947 1.5827417936 -0.0112697322
H 1.3539759049 2.6639329357 1.4025250636
H -0.9898987580 -2.2900878823 -1.0691399317
H -6.4460190285 -2.9182943854 0.6914797102
H -4.5878649307 -4.2371667685 1.6819213255
H 2.1052387450 -0.0282247850 -2.8417389651
H -0.3953944359 3.4551935869 -3.2105073376
H -2.2273438442 2.1662407761 -2.1243993953
