36
CONF42
C 1.8740534266 4.1166827608 -0.9347203630
C 1.1462494660 3.0189778377 -0.1498634344
C 0.8501909326 1.8153973913 -0.9888931413
C 1.2768201856 0.5790858724 -0.7353316746
C 0.9596956248 -0.6405361434 -1.5438092737
C 0.1977662138 -1.6892658136 -0.7329409835
C -1.3012408907 -1.4600234926 -0.4702225396
C -1.7859334625 -2.8486973904 -0.0078799260
C -1.0563079088 -3.8159547191 -0.9463201452
C 0.2264096786 -3.0884220022 -1.3416550847
O 1.1090510050 -3.5378717537 -2.0346855119
C -1.6788356124 -0.2933703064 0.4454177224
C -0.8829158995 -0.1917633185 1.7229923452
O -0.3430669848 -1.1049219167 2.3078550923
O -0.8612104696 1.0865070469 2.1667963322
C -0.1404013734 1.2897465044 3.4000554238
H 2.8389853523 3.7541376314 -1.3013165033
H 2.0514427896 4.9975341327 -0.3102305253
H 1.2851056366 4.4327434364 -1.8021480391
H 0.2022566928 3.4236284264 0.2422222036
H 1.7418600496 2.7185571538 0.7204673625
H 0.2347936230 1.9874279013 -1.8753642127
H 1.8933836517 0.4101988104 0.1508916646
H 1.8859909062 -1.1140336540 -1.8961961225
H 0.3808663907 -0.3688684345 -2.4358214984
H 0.6888957359 -1.8132488452 0.2470954595
H -1.7707612630 -1.2495348733 -1.4440904673
H -2.8751853948 -2.9406137783 -0.0567183524
H -1.4748689428 -3.0085912470 1.0289227518
H -1.6221949018 -3.9897031975 -1.8710958848
H -0.8279020792 -4.7979719253 -0.5234231399
H -1.5889776433 0.6604631141 -0.0788622941
H -2.7342744539 -0.3909612366 0.7390641914
H 0.9038638388 0.9881185406 3.2826364882
H -0.5914230981 0.7076367711 4.2079880762
H -0.2121805251 2.3575101134 3.6061076081
