45
CONF455
N 4.6132020800 -0.7177211164 -0.8236252008
C 3.1796497713 -0.8937924805 -0.6311668889
C 2.4104857824 0.3760029968 -1.0477222689
C 2.7705733639 1.6193843482 -0.2321425766
C 2.5377601269 1.4813452652 1.2761583612
C 1.1290113029 1.0460922957 1.6697492607
N 0.1192211294 1.9957826733 1.1775296739
C -1.2551078905 1.6532149606 1.5420920018
C -1.8706373937 0.7220429932 0.4888444741
O -1.3968756330 1.0905387788 -0.7902819989
O -1.5403613182 -0.6421541722 0.7811306182
C -2.6028062537 -1.5252001996 0.3210794042
C -2.0191804908 -2.5209096263 -0.6626459560
O -1.4863534235 -1.8853604279 -1.8231727099
C -3.6967230554 -0.6088698773 -0.2471416643
O -5.0145614532 -1.1099005130 -0.0739160297
C -3.4033672466 0.7227459500 0.4493655876
O -3.9657545374 1.8682574820 -0.1563297281
C 2.5914849739 -2.0543225854 -1.4214503146
O 1.4208047168 -2.4676542809 -0.8884855774
O 3.0744875335 -2.5411028863 -2.4224277061
H 4.7979841813 -0.5718193869 -1.8125421823
H 5.0982361437 -1.5743842169 -0.5751804434
H 2.9849240643 -1.0970664458 0.4293371356
H 1.3367460750 0.1724833476 -0.9691958820
H 2.6164975715 0.5648070263 -2.1097909717
H 2.1739183381 2.4536892038 -0.6183481443
H 3.8210789902 1.8770899241 -0.4025455839
H 3.2456624471 0.7597052622 1.7018673818
H 2.7633212001 2.4429822202 1.7565227682
H 0.9009439163 0.0609424956 1.2462878032
H 1.0739057967 0.9375492954 2.7667827448
H 0.3409030878 2.9282285979 1.5077952575
H -1.8534240962 2.5711829061 1.5453334755
H -1.3451131561 1.1778206514 2.5306229217
H -0.5663271820 1.5851563432 -0.5924042798
H -2.9973896985 -2.0689565098 1.1923491764
H -1.2484259451 -3.1164983908 -0.1500492422
H -2.8115544722 -3.1999591165 -0.9977785126
H -0.9661190751 -1.1264658450 -1.5139661758
H -3.5646483559 -0.4838569350 -1.3274638123
H -5.1763217371 -1.2089257707 0.8742942446
H -3.7837304432 0.6834326365 1.4796246855
H -3.4650912953 2.0219699501 -0.9717485231
H 1.0290708242 -3.1376515886 -1.4752445872
