44
CONF50
C 2.7332834951 2.1879257232 -2.6495682371
C 3.0269188085 1.4479379479 -1.3886628713
N 2.2079968586 0.4375210108 -1.0525189325
C 2.5090768789 -0.1832353544 0.0944024795
N 3.5450478203 0.1105433024 0.8904659906
C 4.2895643962 1.1216845396 0.4455933380
N 4.0842447467 1.8324502158 -0.6740467231
O 5.3522361053 1.5097477749 1.1426708512
C 5.6520393505 0.7978612483 2.3697031235
N 1.7161830784 -1.2209909106 0.5298377152
C 0.5382882059 -1.7602145840 -0.0004354404
O -0.0029100863 -2.7074480607 0.5462735169
N 0.0634291506 -1.1356051732 -1.1275218142
S -1.2635134400 -1.7297238984 -2.0114896025
O -1.4181299742 -0.7422155868 -3.0902802953
O -1.0259526677 -3.1348071479 -2.3559568366
C -2.6622529276 -1.6419788430 -0.8859081140
C -3.2508277065 -2.8673355320 -0.5702605865
C -4.3943220309 -2.8973111078 0.2137918371
C -4.9434805425 -1.7004923350 0.6638254817
C -4.3393632565 -0.4906042891 0.3477208642
C -3.1744039172 -0.4189908474 -0.4246871551
C -2.5892622344 0.9456230142 -0.7240338455
C -2.3616079931 1.8244988218 0.5156505630
C -1.1796602943 1.4083195524 1.3475726699
F -1.0854978574 2.1505154932 2.4806050840
F -1.2332145213 0.1072443565 1.7361744339
F -0.0019313389 1.5630025259 0.6846639864
H 2.6066046524 3.2520629843 -2.4282307664
H 3.5847314849 2.1002956391 -3.3318773884
H 1.8355872798 1.7995645159 -3.1302372538
H 5.8460850331 -0.2559412414 2.1581367181
H 6.5457214109 1.2827931351 2.7597503128
H 4.8229463723 0.8924139215 3.0743427632
H 2.0092469534 -1.6620045114 1.3926674252
H 0.6260323190 -0.3646313363 -1.5273931262
H -2.8109030274 -3.7850433822 -0.9405157666
H -4.8540145740 -3.8475912024 0.4624795644
H -5.8481218478 -1.7065504152 1.2632769220
H -4.7909520289 0.4303837940 0.7024342055
H -3.2988947267 1.4771375354 -1.3682195705
H -1.6628232135 0.8800009426 -1.2932722411
H -2.1720716583 2.8561781419 0.2047042470
H -3.2311535460 1.8370096593 1.1773163127
