51
CONF40
C -0.9894611268 -0.7932126007 1.2474771033
C 0.2433104622 -0.0781313604 1.7905320666
N 0.5456450691 1.1213651545 1.0026663791
C -0.5818613512 2.0602306601 1.0671017161
C -1.8413670658 1.4326080997 0.4831722505
C -2.2036849745 0.1602094126 1.2450703169
C -3.4065436427 -0.5481076622 0.6550231575
O -3.7925084297 -0.2961567193 -0.4810546181
C -4.0921204181 -1.6047861273 1.4573681167
C -5.0235841960 -2.4284188512 0.8082492820
C -5.6994417799 -3.4243193402 1.4952723630
C -5.4323953395 -3.5795643011 2.8478882323
C -4.5244965169 -2.7881854748 3.5322527932
C -3.8521617837 -1.7993638307 2.8245912271
F -6.0871620581 -4.5476544662 3.5275134005
C 1.7904795832 1.7418933505 1.4534564315
C 2.4000124452 2.6800643585 0.4107560059
N 2.6872773500 1.9736328840 -0.8483518960
C 3.8215005618 1.1546244908 -0.8838820504
O 4.5800355875 1.0977940398 0.0802057979
C 4.0251804864 0.3945520507 -2.1175707683
C 5.1259373557 -0.4591221916 -2.2561339843
C 5.3053816935 -1.1824411724 -3.4220031060
C 4.3776915578 -1.0581265751 -4.4646709084
C 3.2812147777 -0.2203496507 -4.3477866750
C 3.1040846378 0.5108262620 -3.1670583580
N 2.0293362618 1.3603678611 -3.0114351607
C 1.7733447412 2.1197740145 -1.8968337773
O 0.8146945163 2.8814420410 -1.8466158424
H -0.7967113547 -1.1261364083 0.2195659570
H -1.1887169766 -1.6824475347 1.8543183014
H 1.1059600231 -0.7530375673 1.7445888983
H 0.0749902947 0.1743373709 2.8582359356
H -0.3274263099 2.9571344495 0.4951729814
H -0.7692348034 2.3704761678 2.1162298985
H -1.6727011108 1.1947282082 -0.5726520122
H -2.6671862662 2.1509671754 0.5297587348
H -5.2072940093 -2.2776278332 -0.2497259853
H -6.4174358221 -4.0723681551 1.0047621533
H -4.3540409843 -2.9458035145 4.5913714998
H -3.1441865546 -1.1757948251 3.3578761415
H 1.6548427066 2.3214003662 2.3874706070
H 2.5137526697 0.9485222583 1.6674473116
H 3.3406353312 3.0794841419 0.7967810615
H 1.7357153908 3.5106388947 0.1743027086
H 6.1586042827 -1.8429715981 -3.5295009945
H 4.5158335252 -1.6249559707 -5.3798840351
H 2.5618228304 -0.1237601379 -5.1550458088
H 1.3692804449 1.4727360643 -3.7684575251
H -2.4217666071 0.4269485584 2.2882706389
H 5.8262638596 -0.5362549202 -1.4317875714
