82
CONF409
C -5.1071555636 -1.0847173770 -2.2871018260
C -5.1276873047 0.2859830615 -1.6618207953
C -6.2850979671 0.9289993024 -1.4762995709
C -3.7488259489 0.8304254856 -1.3460772648
C -3.6344052298 2.3151728216 -0.9107698391
C -2.7363801128 2.3372136574 0.3394741777
C -2.9334662775 0.9551241694 0.9863372343
C -3.0016927150 0.0072224160 -0.2379111998
C -1.6354466921 -0.5445828941 -0.7285970846
C -0.7547503304 0.4323166500 -1.5110589693
C 0.3997724352 -0.3120819931 -2.1724255769
C 1.3577434595 -0.9968889251 -1.1788655124
C 2.6111540360 -0.0874485569 -0.8060394635
C 2.2614354170 1.3764470086 -0.4761269395
C 3.4757281536 2.2191522090 -0.0828384037
C 4.2101043684 1.6397314043 1.1219798257
C 4.6132953552 0.1657200499 0.9130124326
C 3.4172400178 -0.7106286621 0.3820055753
C 2.4608910903 -1.1400359802 1.5004379643
C 1.4904733477 -2.2178503995 1.0348262686
C 0.5395937779 -1.8291331974 -0.1123215097
C -0.8228039065 -1.1825451843 0.4320503904
C -0.5858342818 -0.0814304177 1.4858518689
C -1.8623318799 0.5768720632 2.0254962713
C -1.6849973023 -2.2829698275 1.0896917320
C 0.1730234267 -3.1573489538 -0.8281436760
C 5.8141461643 0.1352402596 -0.0584476344
C 5.1658892985 -0.3960840425 2.2371843727
O 3.3825683236 1.7398191897 2.3031861433
C 3.4593440113 -0.1095304625 -2.1062126837
C -4.3086621924 0.9055063252 1.6812531416
O -4.3970721884 1.7456718067 2.8440328310
H -6.1162549035 -1.4459888420 -2.4994716902
H -4.6078593527 -1.8133537858 -1.6375641802
H -4.5367302008 -1.0640895220 -3.2244589531
H -6.3457630789 1.9247800557 -1.0503076426
H -7.2252873624 0.4604199718 -1.7538073457
H -3.1976663457 0.6928179414 -2.2832717135
H -3.2289353688 2.9320401813 -1.7188290232
H -4.6139561758 2.7308271638 -0.6638599006
H -1.6852235337 2.4783655385 0.0716157208
H -2.9922238688 3.1562723786 1.0229019118
H -3.6057335991 -0.8664507361 0.0297040949
H -1.9003293025 -1.3445952446 -1.4374376492
H -1.3310147734 0.9370896613 -2.2933493711
H -0.3670935593 1.2208588320 -0.8636105095
H 0.9467774050 0.3751654310 -2.8249098223
H -0.0276745865 -1.0758302970 -2.8364173949
H 1.8593987267 -1.7910535042 -1.7465887774
H 1.5523487879 1.4145718041 0.3535008255
H 1.7680906466 1.8407770107 -1.3373388602
H 4.1771356446 2.3227205631 -0.9172419215
H 3.1518033938 3.2399829058 0.1606968922
H 5.1355898121 2.2151037989 1.2949006768
H 3.8771735784 -1.6365349115 -0.0009186289
H 3.0330095882 -1.5641544400 2.3290938224
H 1.9426983945 -0.2681688898 1.8990819319
H 0.9131912363 -2.5930249728 1.8881745467
H 2.0981654953 -3.0684775809 0.6918809930
H -0.0515351210 -0.5041754504 2.3425118922
H 0.0630951585 0.6903899543 1.0701307128
H -2.3196497018 -0.0892793810 2.7663678896
H -1.5791975099 1.4763353261 2.5855941065
H -2.1320915612 -2.9456205289 0.3434418833
H -2.5057579954 -1.8473451270 1.6614404030
H -1.1026179522 -2.8946710676 1.7852308180
H -0.5837190166 -3.0279627707 -1.6078580972
H -0.1991035133 -3.9006152280 -0.1187165197
H 1.0674009258 -3.5794356610 -1.2965201014
H 6.0710439881 -0.9013852935 -0.3002364498
H 6.6855280743 0.5944228242 0.4207483702
H 5.6404617463 0.6628228354 -0.9939854933
H 4.4578446705 -0.3220315697 3.0616829835
H 6.0639838456 0.1646345323 2.5204860385
H 5.4511549958 -1.4476050909 2.1129347475
H 3.1193592804 2.6652058855 2.3833814078
H 2.8175047854 -0.0742663636 -2.9902204771
H 4.0528906452 -1.0279072488 -2.1661667962
H 4.1394340299 0.7369992283 -2.1892242697
H -5.1116526426 1.1526306514 0.9761931188
H -4.4817449316 -0.1158586917 2.0408090339
H -4.4420634761 2.6613070250 2.5440452807
