44
CONF18
C 0.5035572840 3.2125259113 2.0353584457
C 0.5184912506 2.3490137500 0.7773042731
C 0.3230242849 0.8587134775 1.1230839626
C 0.3653013120 0.0090533100 -0.1229271493
C -0.7688409552 -0.5113569331 -0.7803168480
C -0.6843896655 -0.9303091506 -2.1380715436
C 0.5508778896 -1.0024842496 -2.7660069645
C 1.7126761159 -0.6506833510 -2.0936124586
C 1.5828684603 -0.1310859909 -0.7926538596
O 2.6780212307 0.3211524599 -0.1077482159
C 3.8964721670 0.2538385058 -0.6791289534
C 4.1281963856 -0.2466040426 -1.9112255992
C 3.0352363585 -0.7459612138 -2.7268210001
O 3.2063429224 -1.2046915370 -3.8608022170
C 4.9341354130 0.8124804225 0.2419441070
O 4.6748811733 1.2749896467 1.3302275548
O 6.1577528144 0.7332618094 -0.2925913941
C -1.9049841968 -1.2374779383 -2.9057224653
O -1.8708696617 -1.6569283591 -4.0727867532
C -3.1343100221 -0.9651518631 -2.2081241448
C -3.1393674449 -0.6999424650 -0.8736789955
N -1.9966673903 -0.5849315074 -0.1164392085
C -2.0121955214 -1.1613385289 1.2752102553
C -2.6827017550 -2.5278503444 1.3123062468
C -4.4776266906 -0.4552171212 -0.2347400386
O -5.5068846281 -0.9437970581 -0.6465770064
O -4.4053404269 0.4110034249 0.7859091546
H 0.6231930582 4.2707982399 1.7846009059
H -0.4403437099 3.0975552730 2.5792362176
H 1.3185748813 2.9297636807 2.7105383585
H -0.2854790133 2.6559389889 0.0974639225
H 1.4618843194 2.4894271088 0.2398943901
H 1.0990256492 0.5409721898 1.8283131183
H -0.6335460096 0.7690144794 1.6342061919
H 0.6036528826 -1.3355969794 -3.7964729778
H 5.1359035446 -0.2698902527 -2.3052159425
H 6.7955321109 1.1110308937 0.3378094414
H -4.0727733019 -1.0031932671 -2.7474042493
H -0.9702788410 -1.2802861886 1.5674856392
H -2.4879335747 -0.4607650626 1.9634588585
H -2.2241301614 -3.2059718991 0.5863534535
H -2.5475562676 -2.9476555861 2.3133018864
H -3.7578183044 -2.4803211098 1.1187426439
H -5.3015642677 0.5389573217 1.1447970322
