42
CONF3
C -1.6911133539 -1.2593116441 5.1328264951
C -2.6497789414 -1.4285430768 4.1399217555
C -2.2753369608 -1.3962430285 2.8005572336
C -0.9441949949 -1.1922945889 2.4333631761
C 0.0127323070 -1.0277726773 3.4372066340
C -0.3602238941 -1.0612905701 4.7759916485
C -0.6004904551 -1.1001067164 0.9634429724
C -0.4376738297 0.3336232999 0.4846049471
C -1.4137274657 0.9283144407 -0.3170015868
C -1.2494401534 2.2270889436 -0.7865328376
C -0.1037490206 2.9468890770 -0.4619477930
C 0.8693281090 2.3664797560 0.3470243389
C 0.7023760962 1.0699588329 0.8189050016
C 0.6182297735 -1.9258506708 0.5380888784
O 1.2649301497 -2.6170410388 1.2840570981
C 1.0185951792 -1.8275916203 -0.9439635173
C 2.1408774074 -0.7875188143 -1.1870596711
O 3.1802818418 -0.7021703589 -0.5782270705
C 1.7130594715 0.0536682198 -2.3321094591
C 2.4048552335 1.0966488357 -2.9365654398
C 1.8017834614 1.7330662633 -4.0157476461
C 0.5382545149 1.3360704553 -4.4754383620
C -0.1521222621 0.2953434147 -3.8647186534
C 0.4544678885 -0.3388374936 -2.7869525371
C -0.0647450806 -1.4523574263 -1.9594580506
O -1.1470005456 -1.9899093565 -2.0748837862
H -1.9774547428 -1.2870262236 6.1792163359
H -3.6896929245 -1.5894564387 4.4057898797
H -3.0278040304 -1.5296320329 2.0276696368
H 1.0562648711 -0.8961189224 3.1782497125
H 0.3957373668 -0.9395391761 5.5452660858
H -1.4322542678 -1.5325417050 0.3909129047
H -2.2972045670 0.3593914147 -0.5925906558
H -2.0140117356 2.6735481695 -1.4144182915
H 0.0302087500 3.9565451289 -0.8365462753
H 1.7665636508 2.9200854968 0.6043831840
H 1.4755569884 0.6204418040 1.4340134173
H 1.4254794345 -2.8137744807 -1.2000148196
H 3.3816043393 1.3926999015 -2.5688794250
H 2.3136785426 2.5503589977 -4.5136291614
H 0.0961073046 1.8535507892 -5.3208422044
H -1.1329521643 -0.0188454872 -4.2059120827
