45
CONF8
C 3.7950467080 -0.2649634036 4.4721105269
O 3.8231925988 0.8564457176 3.5573818038
C 3.1790655556 0.7264030690 2.3924650708
C 3.2176366237 1.8140475579 1.5205776473
C 2.5456421970 1.6386920880 0.3186630554
O 2.5515482233 2.6461415229 -0.5612907066
C 1.9173142270 2.4217445379 -1.8439705238
N 1.8965779441 0.5078956792 0.0125078013
C 1.9249713708 -0.4546118574 0.9350314608
N 1.2566798577 -1.6466313221 0.6711053226
C 0.4157488642 -2.0064813013 -0.3731590025
O -0.1487868572 -3.0917857544 -0.3827988622
N 0.2714361812 -1.0619009727 -1.3705852796
S -0.9584813540 -1.1873296796 -2.5231248182
O -1.0568100807 0.1590494646 -3.0918323794
O -0.6926737639 -2.3323143188 -3.3920916327
C -2.4249945696 -1.5192552595 -1.5800018046
C -3.1010699888 -0.6706842134 -0.6974005567
C -4.2328204571 -1.4151652304 -0.3225102342
N -4.2497454929 -2.6108880471 -0.9120940501
N -3.1498356610 -2.6692616726 -1.6725936711
C -2.8764554990 -3.8937649055 -2.4240007284
C -2.7782055555 0.6409696189 -0.1874569637
N -1.5719815463 1.2209020702 -0.1914668325
N -1.8170465082 2.3591724996 0.4404721026
C -0.7967667676 3.3649550913 0.7018059283
N -3.0790289652 2.5019637923 0.8201272697
N -3.7081717787 1.4205517472 0.4314323208
N 2.5392271325 -0.4153787462 2.1186107046
H 4.3703411780 0.0662815168 5.3358943916
H 4.2600249129 -1.1423882151 4.0163504664
H 2.7675071073 -0.4966564517 4.7621792502
H 3.7442469802 2.7277688280 1.7601741677
H 2.0582669621 3.3524571031 -2.3920882493
H 0.8507656183 2.2146215680 -1.7190797967
H 2.4000366962 1.5926348878 -2.3682565785
H 1.3276378872 -2.3492340824 1.3958185427
H 0.6716778275 -0.1261396890 -1.1904251053
H -5.0196123682 -1.1257405576 0.3597756105
H -2.9177935760 -3.6988774614 -3.4969800884
H -1.8901214892 -4.2756463659 -2.1575535191
H -3.6500013085 -4.6066762605 -2.1413554214
H -1.2504227642 4.1413156700 1.3170563002
H 0.0359591540 2.8993730603 1.2334939450
H -0.4497257732 3.7883890694 -0.2435522918
