55
CONF295
C -3.9886174230 -4.9376684509 -0.5070329641
C -3.8570488622 -3.6570723205 -1.2951548359
O -3.3324574572 -2.6487297497 -0.3821467025
C -3.0561227821 -1.4484219200 -0.9408796680
O -3.2217381244 -1.1731717155 -2.1155427011
N -2.5688462378 -0.6022573185 0.0255879217
C -1.9548696064 0.6355339422 -0.2340481876
C -0.8401532675 0.9817617355 0.5314477178
C -0.1624536859 2.1664467748 0.2779674715
C -0.6634828904 3.0770601097 -0.6557843860
C -1.8030148923 2.7487054719 -1.3881066469
C -2.4345780524 1.5251248173 -1.2012819830
S 0.1660587546 4.6343045900 -0.8741171787
C 0.7287269120 4.8688606864 0.8014723844
C 0.7973612341 6.1505786812 1.3476528123
C 1.2568914192 6.3172951453 2.6498147851
C 1.6144198507 5.2097255667 3.4173705832
C 1.5305578611 3.9294964608 2.8804435970
C 1.1109050395 3.7603154382 1.5639322940
N 1.0532177338 2.4687756748 0.9560795172
C 2.2280017964 1.7328616445 0.7926319311
O 3.2627744498 2.0703152016 1.3591191128
C 2.1880877849 0.5141677266 -0.0917443612
C 2.2788538684 -0.7820592092 0.7656621807
N 2.0272958598 -2.0288884271 0.0528643374
C 2.9092213313 -2.2343895629 -1.0989764851
C 2.6748763716 -3.6222515567 -1.6741237925
O 1.3083148954 -3.7894864460 -2.0719455489
C 0.4451077245 -3.5937692705 -0.9466255018
C 0.6290699148 -2.2084742629 -0.3473105939
H -4.6737812778 -4.8117276573 0.3358911712
H -3.0153844434 -5.2629540945 -0.1281586095
H -4.3841156219 -5.7209085129 -1.1599736913
H -4.8211380396 -3.3093197152 -1.6796748783
H -3.1620441998 -3.7635893072 -2.1336469591
H -2.3433377641 -1.0386756997 0.9088221899
H -0.4661461219 0.3054129728 1.2926525738
H -2.2042751150 3.4540493147 -2.1086680555
H -3.3125278852 1.2765040856 -1.7821477408
H 0.4900850852 7.0071661331 0.7562800192
H 1.3161460125 7.3153673423 3.0713632750
H 1.9556195904 5.3415233637 4.4387333495
H 1.8031952714 3.0592198662 3.4658230196
H 1.3058181486 0.4914895990 -0.7318792413
H 3.0741069473 0.5840616859 -0.7297835664
H 3.2817089386 -0.8265761799 1.2069823118
H 1.5631275898 -0.7235397689 1.5949781529
H 2.7335074958 -1.4882566286 -1.8969254012
H 3.9535791274 -2.1446423509 -0.7742432654
H 3.2821228952 -3.7723129942 -2.5712511929
H 2.9382964338 -4.3878630224 -0.9265571826
H -0.5796092562 -3.7163901412 -1.3111676769
H 0.6516179065 -4.3624403696 -0.1842676895
H -0.0108396620 -2.1143834681 0.5389531386
H 0.2979090383 -1.4559047987 -1.0893576411
