41
CONF17
C 3.3870584902 0.9008969346 0.8492272783
C 2.7781004272 1.2437112374 -0.4667808814
N 1.7913929645 0.4547971738 -0.9103912322
C 1.2803770726 0.7929220809 -2.1026422872
N 1.6787683608 1.8174517524 -2.8597850170
C 2.6761417829 2.5224838006 -2.3186621562
N 3.2611540670 2.2964792063 -1.1355141348
O 3.0857063937 3.5390181866 -3.0701335816
C 4.1658270345 4.3628036443 -2.5614917258
N 0.2432667957 0.0478679809 -2.6240518208
C -0.4421651463 -1.0591617270 -2.1146590783
O -1.4050943160 -1.5112803516 -2.7128653573
N 0.0610362485 -1.5751192645 -0.9406049268
S -0.7766381921 -2.7552890399 -0.0487803994
O -0.0092092602 -2.8576620857 1.1991733053
O -0.9664407518 -3.9341151587 -0.8949598591
C -2.3916764956 -2.0592521155 0.3221855318
C -3.4811525911 -2.5388554182 -0.3948510014
C -4.7597542388 -2.1009241389 -0.0631110908
C -4.9389626946 -1.2127839126 0.9917285753
C -3.8435066045 -0.7504623378 1.7154531181
C -2.5516725658 -1.1563475306 1.3808571413
C -1.3998884005 -0.5355578765 2.1069865757
O -0.5256075826 0.1074211148 1.5629821677
O -1.5012380069 -0.7238769110 3.4256815561
C -0.4555918169 -0.1050896307 4.2241592862
H 2.6255559701 0.5212322283 1.5338278386
H 3.8967638024 1.7648585402 1.2761369423
H 4.1242404383 0.1027057377 0.6988334080
H 5.0656427330 3.7611474519 -2.4175800672
H 3.8731682822 4.8313217459 -1.6196156352
H 4.3249339134 5.1149860319 -3.3328827812
H -0.1214357320 0.3730725536 -3.5106919408
H 0.7552552607 -0.9983303886 -0.4352036288
H -3.3273448119 -3.2521740200 -1.1951731190
H -5.6126936837 -2.4662290052 -0.6245878255
H -5.9359310682 -0.8790436833 1.2592173418
H -3.9832864092 -0.0571468149 2.5379489185
H -0.4723911561 0.9779259177 4.0842256137
H 0.5175679682 -0.5060679548 3.9321887915
H -0.6902769464 -0.3676936625 5.2542062639
