123
CONF5
C -1.8945224853 4.3796735850 1.7972891983
C -0.6531338953 3.4975591446 1.5900595624
C -0.3972952572 2.7236545100 2.8537148026
C 0.7784715611 2.5624126507 3.5014892896
C 2.0624179346 2.9884596422 2.9967106931
C 3.2945026702 2.8336376233 3.5318855921
C 3.6322314505 2.2932084967 4.8885607273
O 4.3212442062 2.9810694499 5.6505755582
N 3.2691528151 1.0274560766 5.2779692531
C 2.3971792106 0.1400913587 4.6269401187
C 1.3559311700 -0.4246428140 5.3259541206
C 0.2817395088 -1.1736233849 4.6677257176
C 0.1876062997 -1.1435469338 3.2613169617
C -1.0224973638 -1.5166542345 2.6593351355
C -2.0537958682 -2.0744703843 3.4292953643
C -1.9476694090 -2.2880982496 4.7992342730
C -0.7798255332 -1.7965945916 5.3906855961
O -0.6009235546 -1.9143292859 6.7302685017
C -3.0287359519 -2.9458106504 5.6013840565
O -3.1790807583 -2.3497671543 2.7309454068
C -3.0747508711 -1.6248996971 1.4492051785
C -1.5857978615 -1.2100551627 1.3723594738
O -1.1315215868 -0.6279585154 0.3985327427
O -3.5074023876 -2.4222105872 0.3946501256
C -2.5642005565 -3.2402324254 -0.2326426926
C -2.2150797796 -3.0091415234 -1.4939171735
C -2.7221691558 -1.8550208747 -2.3186895684
C -1.5830788468 -1.1223465889 -3.0544086418
C -1.8951874592 0.3436106434 -3.3955236195
C -2.0907755865 1.2622325498 -2.1555789411
C -1.0789400895 2.4277348553 -2.2075599053
C -1.0563629267 3.3471126379 -0.9614325797
C -0.8321566029 2.5756726395 0.3583405629
O 0.3475205073 1.7527993882 0.2203907718
C -0.0242669158 4.4620218483 -1.1777459343
O 0.2426917534 1.9340643048 -2.4960245414
C -3.5229964790 1.7767207879 -1.9918505990
O -3.0724493946 0.3513797307 -4.2639050489
C -3.1484419527 1.2931389450 -5.2179906505
O -2.3066770605 2.1536257158 -5.4017887560
C -4.3959006507 1.1236226585 -6.0360752268
C -1.0923686159 -1.8831609216 -4.2880343397
O -3.6653773099 -2.3418390066 -3.2918140753
C -4.9313022709 -2.6482698244 -2.7140360038
C -3.9727014259 -0.4095560609 1.5248194119
C 1.3910687681 -0.7857922037 2.5410794649
N 1.6940618573 -1.0251778002 1.3077704209
C 3.0945505942 -0.6204016792 1.1751984992
C 3.2595372298 0.4475358744 0.0738719897
C 2.8770939625 -0.1097401637 -1.2887937775
N 3.6943847631 -1.2756002481 -1.6459187048
C 3.5355027248 -2.3366465881 -0.6434122638
C 3.9208054626 -1.8571603819 0.7518202110
C 3.3015770021 -1.7445470147 -2.9803410004
C 4.1804811511 -2.8538723693 -3.5671124452
C 5.6581332381 -2.4646375726 -3.5650401757
C 3.6975989151 -3.1646554502 -4.9863137595
N 3.5619952143 -0.1001276195 2.4577934429
C 2.5400317909 -0.2051369062 3.2521853048
O 1.2939966600 -0.1314862096 6.6422582745
C 4.5109535450 3.3561708838 2.8151599414
H -2.0466358892 5.0649756105 0.9595190079
H -2.7915597294 3.7576680121 1.9014160562
H -1.7895019857 4.9769386783 2.7076983970
H 0.2092162118 4.1395931805 1.3867299223
H -1.2867483290 2.2978166235 3.3211531389
H 0.7554821321 2.0545065413 4.4623692285
H 2.0438205044 3.4795218002 2.0260150437
H 3.4684692939 0.8360341660 6.2535852332
H -1.4075819685 -2.2081973207 7.1800284468
H -2.6417044852 -3.8139081016 6.1475065187
H -3.8300103073 -3.2894207898 4.9474375333
H -3.4671518400 -2.2514061157 6.3290144468
H -2.1918986005 -4.0657525504 0.3715190371
H -1.5392752808 -3.7182024266 -1.9657279724
H -3.2331820445 -1.1467708451 -1.6526737089
H -0.7544854918 -1.0596142379 -2.3353705011
H -1.0589047912 0.7221833341 -3.9868371315
H -1.8487004051 0.6532759586 -1.2803545101
H -1.3484470901 3.0586050055 -3.0654553930
H -2.0478240477 3.8104251885 -0.8991829545
H -1.6992533023 1.9249897946 0.5432983545
H 0.1078405540 0.8401968416 0.4608174490
H 0.9974995016 4.0898967819 -1.0578351221
H -0.1701354492 5.2888301400 -0.4775181328
H -0.1150664644 4.8652810803 -2.1914891918
H 0.5896872044 1.6592670433 -1.6276049234
H -4.2490038251 0.9604038783 -2.0387980208
H -3.6426958491 2.2721992911 -1.0242414922
H -3.7802135283 2.5009658382 -2.7737012120
H -4.2791762261 0.2447468030 -6.6791297528
H -5.2584924862 0.9469669622 -5.3890520962
H -4.5563846218 2.0047344231 -6.6564184296
H -1.8495492781 -1.8819661576 -5.0760016764
H -0.1851489621 -1.4115146182 -4.6795324054
H -0.8541667953 -2.9240053476 -4.0500534756
H -5.5810367565 -2.9779180423 -3.5283322922
H -4.8553563547 -3.4509931504 -1.9668724569
H -5.3692111357 -1.7599764345 -2.2344160938
H -3.7181973117 0.1980541835 2.3969363458
H -5.0131105435 -0.7373638872 1.5952194152
H -3.8327485480 0.1832312783 0.6168458269
H 4.3121645787 0.7497951548 0.0741909146
H 2.6445795174 1.3171380859 0.3162080512
H 3.0358087072 0.6661420000 -2.0480557597
H 1.7976274102 -0.3631658606 -1.2981050448
H 4.1931330479 -3.1721871157 -0.9055227440
H 2.4975369986 -2.7225754388 -0.6363032061
H 4.9761468402 -1.5663678679 0.7715226297
H 3.7693820452 -2.6610210186 1.4798332772
H 3.3497537452 -0.8795197652 -3.6573159265
H 2.2453706011 -2.0897216703 -2.9749355531
H 4.0557147635 -3.7656669697 -2.9681513893
H 6.0257616364 -2.2919531130 -2.5495122403
H 5.8077837690 -1.5414312256 -4.1385084105
H 6.2663946147 -3.2514674517 -4.0238166876
H 4.2676840781 -3.9935327367 -5.4176816949
H 3.8276704683 -2.2908737647 -5.6363017772
H 2.6369755379 -3.4396130612 -4.9949133311
H 0.5695346272 -0.6336578567 7.0579583680
H 4.2422962293 3.7302311637 1.8247488318
H 5.2605623133 2.5643425661 2.6987860329
H 4.9835852869 4.1633523405 3.3845395281
