51
CONF5
O 4.6990259197 -0.0648764256 -1.7960890609
C 3.8090509643 0.6308657475 -0.9006300748
C 2.6470099989 1.2493777113 -1.6918127642
C 1.7225879259 2.1685633607 -0.8811257212
C 0.6758258365 1.4461178450 -0.0439557197
C -0.4992723322 0.7399974514 -0.8066271714
N -1.4102666785 1.6778395643 -0.1007574544
C -0.4038349592 2.3390439528 0.5674157340
O -0.4190427899 3.2898091540 1.3276250449
C -2.7982012868 1.8049976050 -0.1569870753
C -3.4717293584 2.6757799785 0.7111010601
C -4.8547317230 2.7902601173 0.6399449194
C -5.5421268209 2.0287174846 -0.2907589544
F -6.8954780172 2.1399490494 -0.3552349295
C -4.9032492094 1.1586385063 -1.1567389217
C -3.5188177365 1.0490233811 -1.0892192585
C -0.7337113464 -0.7138462209 -0.5283820997
C -0.5916532667 -1.6577800733 -1.5467183528
C -0.7523375389 -3.0148955977 -1.2965209003
C -1.0671236637 -3.4432110200 -0.0069935103
O -1.2064018001 -4.7870809728 0.1944750564
C -1.2276983421 -2.5113332459 1.0210700989
C -1.0577204297 -1.1589611153 0.7553606716
C 3.3655736995 -0.3671472894 0.1379363654
C 2.8088118977 -1.5874557929 -0.2552196077
C 2.3489304233 -2.4991371052 0.6867799462
C 2.4427424259 -2.1587538911 2.0259358211
F 1.9695659310 -3.0349370969 2.9520802041
C 2.9960919842 -0.9674158401 2.4600088665
C 3.4689751162 -0.0761790746 1.4980355492
H 4.9601957754 0.5580613603 -2.4866392776
H 4.3530318654 1.4429942227 -0.3933971497
H 3.0910314096 1.8433756549 -2.5011823196
H 2.0697808276 0.4445530677 -2.1653938014
H 2.3212541573 2.8078063548 -0.2189084470
H 1.2000115320 2.8400522519 -1.5733400048
H 1.1230829643 0.7848388274 0.7027151353
H -0.4738309479 0.9329972808 -1.8861015160
H -2.9138350620 3.2582950743 1.4336327328
H -5.3940779705 3.4595666503 1.3013290956
H -5.4768722272 0.5797211781 -1.8721561247
H -3.0007150842 0.3725377821 -1.7599555449
H -0.3468375833 -1.3271090198 -2.5529008995
H -0.6365056826 -3.7477235898 -2.0885817148
H -1.4153683402 -4.9532367675 1.1234669320
H -1.4781150442 -2.8479590543 2.0238420956
H -1.1830926466 -0.4411237536 1.5618941978
H 2.7278201208 -1.8274786578 -1.3103699702
H 1.9062687709 -3.4446990668 0.3943471953
H 3.0582619438 -0.7472836030 3.5201590757
H 3.9077162234 0.8658433477 1.8152486647
