36
CONF6
C 5.3279800811 -0.8475491209 2.1712171567
O 4.7005760762 0.3512814208 1.7270476538
C 3.6138935234 0.2278105136 0.9139648748
C 3.0267667495 1.4251701422 0.4968536454
C 1.9147808148 1.4117623920 -0.3279850478
C 1.3573708450 0.2059434699 -0.7693472663
C 1.9618861111 -0.9775178743 -0.3505956666
C 3.0752203674 -0.9851943902 0.4848636884
C 0.1058547940 0.0804535250 -1.6230577347
C -1.1725292067 0.1076922965 -0.8029505574
C -2.1752783677 -0.8270520324 -1.0462776790
C -3.3555513861 -0.8446903144 -0.3069290224
C -3.5403286836 0.0964749115 0.7060041259
O -4.6487547420 0.1796769874 1.4938426361
C -5.6970629882 -0.7545496967 1.2555884846
C -2.5351177656 1.0319433559 0.9735243135
C -1.3688412814 1.0296860270 0.2312394174
C 0.0474265250 1.0237172417 -2.8576554108
Cl -1.2192465048 0.4262655685 -4.0091537860
Cl -0.3745953212 2.7279249654 -2.4515922837
Cl 1.6274554152 1.0057034235 -3.7252527681
H 4.6370142130 -1.4652180413 2.7597134140
H 5.7141920739 -1.4324577327 1.3261743050
H 6.1593953098 -0.5324620969 2.8029181601
H 3.4615872743 2.3615947410 0.8290720222
H 1.4965091574 2.3603914592 -0.6408803422
H 1.5519849601 -1.9293847872 -0.6777111457
H 3.5073439941 -1.9326197529 0.7816694663
H 0.1633951119 -0.9088489946 -2.0914487899
H -2.0423266001 -1.5627983424 -1.8337790532
H -4.1076943783 -1.5912497093 -0.5287627472
H -6.4802501023 -0.5133665295 1.9753283921
H -5.3574483938 -1.7857310900 1.4189440379
H -6.0948400351 -0.6561489444 0.2371768262
H -2.6882975245 1.7456208485 1.7755989328
H -0.5924694122 1.7477267637 0.4695610556
