51
CONF144
C 1.0262382274 2.0770650831 -0.0501939667
C -0.4490982699 1.8157932322 0.0466807387
C -0.9921874382 1.3326969951 1.1765343066
C -2.4238924427 1.0480313243 1.3855489013
C -2.9474778943 -0.4248028973 1.5091352360
C -2.9813913428 0.5414199359 2.6819177476
C -2.0922961455 0.3351792518 3.8874392123
C -4.3715801062 1.0231866068 3.0482845969
C -1.9590591696 -1.4944747483 1.3352423929
O -0.8590890249 -1.5796339730 1.8467495022
O -2.4194385276 -2.4080005368 0.4267197313
C -1.4232250871 -3.3385458104 -0.0648570481
C -0.5004086565 -2.6477213758 -1.0148813712
C -0.7736796384 -1.5295885829 -1.7385131204
O 0.3229013413 -1.1650067322 -2.4761766104
C 1.3093102738 -2.0810173901 -2.2171815118
C 0.8523057791 -3.0052145374 -1.3271319457
C 2.6170330279 -1.8561498633 -2.8879103516
C 3.2835110616 -0.5741643922 -2.4266377513
C 3.2528764407 0.5738744071 -3.2196641552
C 3.8467434125 1.7559602431 -2.7799299330
C 4.4785394695 1.8016638581 -1.5401378353
C 4.5106818592 0.6598385071 -0.7408323912
C 3.9145738079 -0.5181385805 -1.1808345961
C -1.2187748411 2.1161980105 -1.2065085439
H 1.2219696333 3.1156262573 -0.3473526545
H 1.4771950540 1.4441904745 -0.8263039447
H 1.5395449128 1.8810013338 0.8948646812
H -0.3234070193 1.1300414820 2.0082542822
H -3.1113289159 1.6526963130 0.8003875362
H -3.8927427924 -0.6100154118 1.0100371912
H -2.5679432004 -0.3709805547 4.5767723356
H -1.1098404713 -0.0564082067 3.6302569597
H -1.9696556066 1.2882293095 4.4142461866
H -4.3080754845 1.9785471612 3.5811512889
H -4.9933638102 1.1670547857 2.1598305415
H -4.8678218520 0.2992316179 3.7041004584
H -0.8664972591 -3.7757477374 0.7689542143
H -2.0029784825 -4.1251328610 -0.5556950807
H -1.6376583089 -0.8892226698 -1.8203305375
H 1.4146464333 -3.8383271994 -0.9302600424
H 2.4773132173 -1.8255776746 -3.9750373842
H 3.2549785626 -2.7153303888 -2.6599630253
H 2.7635493855 0.5413637766 -4.1894701867
H 3.8160473381 2.6409026711 -3.4085103612
H 4.9425072125 2.7211033454 -1.1968026901
H 5.0012189131 0.6872904479 0.2275423510
H 3.9386732806 -1.4057670083 -0.5533876707
H -0.7395435950 1.6250896322 -2.0626727843
H -1.2009940144 3.1932553528 -1.4179079301
H -2.2589082465 1.7884373039 -1.1638583552
