63
CONF2
C 2.4340454077 -0.1590372044 2.1765237166
C 1.6400508400 -1.4148530859 2.5254108383
N 0.7262155776 -1.7676814746 1.4342226023
C 1.4989576520 -2.0818885454 0.2266188016
C 2.2942850149 -0.8674586959 -0.2399781637
C 3.2140053203 -0.3815537903 0.8800047343
N 3.9779240955 0.8007816076 0.4835418762
C 3.4944259064 2.0481732494 0.0969612526
C 2.2111339168 2.5722883672 -0.0021671193
C 2.0794823237 3.8948135655 -0.4362252867
C 3.1935974757 4.6715685629 -0.7579470303
C 4.4864252979 4.1516836074 -0.6559147994
C 4.6153448231 2.8408338551 -0.2278806438
N 5.7324607114 2.0511387492 -0.0283087955
C 5.3700828253 0.7890568170 0.4076202212
O 6.1188949324 -0.1481342540 0.6727274993
C -0.1583944099 -2.8784028346 1.8126247718
C -1.3831752239 -2.9756966889 0.9026050251
C -2.3259380054 -1.7750972268 1.0469420497
C -3.0868424140 -1.4625881463 -0.2554366353
C -4.2451765522 -0.4969335919 -0.0751472848
C -5.3032147586 -0.5303223183 -0.9906663494
C -6.3716040273 0.3554277261 -0.9002148221
C -6.3627766619 1.2839111409 0.1275609588
C -5.3414628316 1.3553524984 1.0567244275
C -4.2818778403 0.4556196140 0.9463388291
F -7.4020964698 2.1558375072 0.2284876369
C -2.1245273834 -0.9490243650 -1.3171906541
C -1.5294970794 0.3102177569 -1.1853949963
C -0.6124172444 0.7763165004 -2.1207242146
C -0.2942801453 -0.0435439091 -3.1914171179
C -0.8609372556 -1.2921385789 -3.3675470189
C -1.7826744113 -1.7350394829 -2.4190120937
F 0.6094717572 0.4020905010 -4.1050361413
H 3.1289225273 0.0812838137 2.9888397923
H 1.7405687737 0.6820705079 2.0674251540
H 1.0513025856 -1.2361598963 3.4320233487
H 2.3431230698 -2.2451222725 2.7462669290
H 2.1874885820 -2.9326663122 0.4121523338
H 0.8162394620 -2.3840377876 -0.5735634082
H 1.5940919541 -0.0782680359 -0.5312450034
H 2.8895039809 -1.1292053182 -1.1220037591
H 3.9704967279 -1.1542500007 1.0649775048
H 1.3327023317 1.9895584510 0.2452030508
H 1.0853863025 4.3213990826 -0.5219667934
H 3.0574810019 5.6948345619 -1.0919341404
H 5.3586762651 4.7476428703 -0.9025941796
H 6.6920641953 2.3236577243 -0.1689703270
H -0.4951149689 -2.7011496980 2.8424976450
H 0.3879792426 -3.8415383395 1.8150209617
H -1.0559892113 -3.0686942105 -0.1388769182
H -1.9211242190 -3.9028991331 1.1325235077
H -3.0477291337 -1.9624222508 1.8513105574
H -1.7382141639 -0.8969530342 1.3373816708
H -3.5099205875 -2.4030470654 -0.6318051514
H -5.2904305003 -1.2642702586 -1.7920961010
H -7.1952627440 0.3285243324 -1.6055159539
H -5.3757718022 2.0957231504 1.8487119026
H -3.4802349743 0.5070575835 1.6751680144
H -1.7848657458 0.9425312508 -0.3398786361
H -0.1460329186 1.7512544848 -2.0249602858
H -0.5881284243 -1.9011552390 -4.2226496883
H -2.2371154066 -2.7143789003 -2.5401471913
