53
CONF231
C -4.5278234959 1.0661469106 -2.8904833672
O -3.8925175695 0.5079127888 -1.7048163214
C -3.6128710660 -0.7937299189 -1.7555068134
O -3.8143043771 -1.5184944274 -2.7027861738
C -3.0457457531 -1.2911183350 -0.4070442480
C -4.2199084645 -1.3698900148 0.6019453294
C -4.1044686633 -0.0673069222 1.3567855422
C -5.0372299129 0.5155769973 2.1986647619
C -4.6692647317 1.6966817298 2.8405210499
C -3.4190182159 2.2925665843 2.6718608618
C -2.4916462410 1.6977445851 1.8237922603
C -2.8464312686 0.5247597316 1.1636652643
C -2.0902865424 -0.3191998229 0.2567591190
N -0.8084689631 -0.4083560375 0.2184129085
N -0.2960963092 -1.4154444890 -0.5481084762
C -1.1758244141 -2.3308209660 -1.3019262352
O -2.3858225673 -2.5337258953 -0.5874888324
C 1.0610511782 -1.6024777965 -0.6206032779
O 1.5660562753 -2.3353188688 -1.4590597130
N 1.8401923360 -0.8459681634 0.2929201004
C 3.0341209389 -0.2446289859 -0.2149128239
C 2.9405606821 0.6107157109 -1.3111638762
C 4.0905544385 1.1819308477 -1.8427550941
C 5.3095736345 0.8922331742 -1.2505530833
C 5.4212437518 0.0559905320 -0.1497828760
C 4.2703300154 -0.5302669984 0.3618233745
O 6.4708627801 1.5312362323 -1.7446197438
C 7.1663999255 0.8542149808 -2.6846494363
F 6.4339560307 0.5844159176 -3.7897536111
F 7.6390121034 -0.3326931420 -2.2375227654
F 8.2094969991 1.6102827419 -3.0457167035
C 1.5244343498 -0.8600172257 1.6558277747
O 0.8288866084 -1.7041604172 2.1822909221
O 2.1063164412 0.1687807232 2.2835437472
C 1.9328256775 0.1826788336 3.7243064474
Cl -5.8307508997 2.4688464499 3.9100769041
H -4.6811355158 2.1189639252 -2.6609516173
H -5.4801586722 0.5631392983 -3.0699278073
H -3.8681677892 0.9465451361 -3.7521170308
H -4.0365105646 -2.2198428366 1.2698794058
H -5.1911988779 -1.5138878223 0.1220545809
H -6.0131571721 0.0717612274 2.3608075997
H -3.1813552048 3.2136978353 3.1911865042
H -1.5176182536 2.1511923510 1.6727673768
H -0.6770967986 -3.2958483115 -1.3876833972
H -1.3723317293 -1.9138315818 -2.2986838234
H 1.9711309506 0.8322757672 -1.7460864673
H 4.0413130975 1.8533425827 -2.6925379186
H 6.3916921206 -0.1420742902 0.2907903213
H 4.3348507263 -1.2043939483 1.2090329763
H 2.4968678654 1.0482476110 4.0681647242
H 0.8740077142 0.2882594424 3.9705293371
H 2.3314724662 -0.7366438380 4.1588314352
