55
CONF165
C 5.1261819993 -3.8089755084 -2.7305931598
O 3.8739860036 -3.1484738526 -2.9571490356
C 3.2044166505 -2.6784967114 -1.8690051977
C 1.9792294229 -2.0524764190 -2.1321062059
C 1.2196620379 -1.5429763380 -1.0931419683
C 1.6592509701 -1.6393437972 0.2339212336
C 2.8756141727 -2.2741383809 0.4807966099
C 3.6550209881 -2.7916387409 -0.5518642563
C 0.8842013511 -1.0751273391 1.3948678821
S -0.8703707986 -1.6964378736 1.2935056850
C -1.7545194375 -0.5296307417 2.3119422589
C -2.3845089630 -0.9830891368 3.4744809380
C -3.1626725126 -0.1226216689 4.2396553576
C -3.2916917934 1.2124136524 3.8637572443
C -2.6546395585 1.6799746978 2.7213098981
C -1.8949634012 0.8171211458 1.9281144568
N -1.2953048712 1.3232312803 0.7414883177
C -2.1675933493 1.9295296573 -0.2783193298
C -2.7201135802 0.8426454772 -1.2032426539
N -3.5934155313 1.3957703931 -2.2391246020
C -2.8146085426 2.0835314953 -3.2742139859
C -4.3784743095 0.3215524641 -2.8539143766
C 0.0235101260 1.1482352485 0.4325279407
O 0.5186663890 1.5351552023 -0.6222151931
C 0.8744309480 0.4608579537 1.5052497782
O 2.2448213372 0.8719261149 1.3780942070
C 2.4880229164 2.1790563324 1.6563595999
C 3.9225271912 2.5236682131 1.4113473122
O 1.6245456911 2.9434011678 2.0315099196
H 5.4865156112 -4.1043429054 -3.7162205263
H 4.9927217778 -4.6988906409 -2.1044614805
H 5.8488761259 -3.1308993352 -2.2618057007
H 1.6368405621 -1.9782583069 -3.1592684380
H 0.2706395488 -1.0687143559 -1.3184275011
H 3.2320743561 -2.3657601321 1.5031271803
H 4.5940137233 -3.2765591395 -0.3157078830
H 1.3230174349 -1.4534263339 2.3234557548
H -2.2636965502 -2.0207343488 3.7671211905
H -3.6544559957 -0.4912133655 5.1337674691
H -3.8778950622 1.8971890088 4.4676378471
H -2.7363181434 2.7248062783 2.4402057810
H -1.5755649891 2.6649915893 -0.8248767099
H -2.9909698732 2.4442663963 0.2216509319
H -1.8751439626 0.2721428684 -1.6373388971
H -3.3049543448 0.1424604146 -0.5936873465
H -3.4929993738 2.4833058446 -4.0344395022
H -2.0947330151 1.4056662618 -3.7720280080
H -2.2572257410 2.9225985483 -2.8492707277
H -3.7401947647 -0.4452717534 -3.3333830229
H -4.9959180149 -0.1700240806 -2.0952544562
H -5.0394194483 0.7415246302 -3.6190539554
H 0.5139861855 0.7436148581 2.4987722860
H 4.0480478064 2.7090793470 0.3386030218
H 4.1812834651 3.4298647359 1.9583908795
H 4.5802593366 1.6979412362 1.6884527261
