49
CONF19
C -3.2038377610 -0.6209876920 3.0697228099
C -3.1384999039 -0.7509496325 1.5626646925
C -1.7776816740 -0.9485945780 0.8594669085
C -2.5868480189 0.3627154081 0.7246281234
C -3.1585783012 0.6302736284 -0.6540075452
C -2.0730014185 1.6325336350 1.3691232435
C -0.5151030434 -1.0206618947 1.5892657473
O -0.1824827843 -0.4587474703 2.6127045076
O 0.3449718464 -1.8804928639 0.9291635505
C 1.6497012039 -1.9974892630 1.5353688768
C 2.2207271817 -3.2300720959 0.9893158665
N 2.7067003115 -4.1904480516 0.5706955888
C 2.5422157709 -0.8104778115 1.2281114510
C 3.3118125614 -0.2446424292 2.2405636515
C 4.1405286729 0.8348336425 1.9422312168
C 4.1895318822 1.3540155972 0.6546735506
C 3.4074437513 0.7769914512 -0.3458468331
C 2.5880617847 -0.3144011591 -0.0733173652
O 3.5475838363 1.3020859814 -1.6112338981
C 2.5006304598 1.1716397330 -2.5164643978
C 2.8024473553 0.6646263014 -3.7743259770
C 1.7973832008 0.6011636850 -4.7372887638
C 0.5084993304 1.0363908950 -4.4388765885
C 0.2251187657 1.5433872752 -3.1709594714
C 1.2193844928 1.6164556509 -2.2000186408
C -4.2655286878 -1.6162376536 1.0310456463
H -4.1539190729 -0.1478885255 3.3436509589
H -2.3904774169 -0.0364927473 3.4937296589
H -3.1819937751 -1.6150057004 3.5299490209
H -1.8053711654 -1.5893966557 -0.0157121634
H -3.4129153924 -0.2799751137 -1.1979933271
H -4.0626904260 1.2441506491 -0.5664274757
H -2.4309878285 1.1884455274 -1.2517490226
H -1.5990109785 1.4707490468 2.3350270504
H -2.9085457000 2.3293769587 1.5019590254
H -1.3411560620 2.1106459286 0.7082321746
H 1.5528277738 -2.1164925654 2.6209887298
H 3.2571515437 -0.6367886299 3.2510038779
H 4.7422508717 1.2867122885 2.7240209966
H 4.8225748530 2.2009109492 0.4119583203
H 1.9921215259 -0.7678816169 -0.8581568555
H 3.8122725117 0.3301106923 -3.9879813636
H 2.0260727347 0.2068832826 -5.7224189146
H -0.2719422773 0.9855962622 -5.1909092024
H -0.7739242724 1.8972021918 -2.9379319841
H 1.0094432728 2.0168662361 -1.2130962822
H -4.1781701772 -1.8255565068 -0.0355792098
H -5.2278200176 -1.1216711437 1.2076397089
H -4.2769717368 -2.5734112663 1.5630593403
