44
CONF12
C -4.1951245551 2.1739218209 3.3235743198
C -3.6356086387 0.8815835857 2.7857059892
C -4.5640104810 -0.3211375394 2.8547744449
O -4.1544500101 -1.1368503467 1.7371946586
C -3.3569921807 -0.3266261861 0.8678040894
O -3.4503466565 0.9958793586 1.3524649354
C -3.9968787456 -0.3487760547 -0.5331153241
N -3.2013404169 0.3940588789 -1.4941365350
C -3.1482276704 1.7275088719 -1.6907987731
N -2.2138911430 2.0227460923 -2.5861982389
C -1.7080631243 0.7978269763 -2.9051690273
N -2.2709522876 -0.2205172530 -2.2678389126
C -1.9027055610 -0.8019376706 0.8469020514
C -1.5100591712 -2.1246792486 0.6214878402
C -0.1743326791 -2.4973795487 0.5413712048
C 0.8061013278 -1.5231897752 0.6845575369
C 0.4618754400 -0.1942345029 0.9094526174
C -0.8813684459 0.1434769581 0.9799876108
O 2.1138201849 -1.9584274484 0.6558121888
C 3.0698829940 -1.1579227616 0.0541891959
C 4.3170950674 -1.0977965068 0.6656170337
C 5.3426022587 -0.3740730559 0.0663181625
C 5.0933687545 0.2828893195 -1.1325262270
C 3.8489237456 0.2248984243 -1.7501409623
C 2.8286708487 -0.5068263064 -1.1531545001
Cl 6.3851576817 1.2078359629 -1.8907263120
Cl -2.6853999175 -3.4123327459 0.3725367138
H -3.4855676468 2.9921199498 3.1755274594
H -5.1364860870 2.4192779153 2.8230430176
H -4.3824509630 2.0726096155 4.3966972500
H -2.6678275457 0.6428828289 3.2514495730
H -4.4496347668 -0.9025903157 3.7734192722
H -5.6115879908 -0.0177495839 2.7263621814
H -4.0881222839 -1.3763570181 -0.8861527262
H -4.9888718277 0.1044895815 -0.4592079773
H -3.8001217056 2.4214221369 -1.1771026702
H -0.9142302524 0.6484930674 -3.6262488742
H 0.1093387788 -3.5271860645 0.3592898149
H 1.2274639682 0.5646358818 1.0250323348
H -1.1584861977 1.1780157459 1.1468240642
H 4.4815655251 -1.6178829115 1.6030306834
H 6.3192149556 -0.3195643023 0.5333903509
H 3.6755878856 0.7348716979 -2.6908389027
H 1.8558153825 -0.5701684749 -1.6290755465
