31
CONF13
C 5.0624468666 1.1172921935 -2.1822600267
O 3.8026394178 1.1113328574 -1.4564028353
C 3.3392758314 -0.0972937712 -1.1281500571
O 3.8223725199 -1.1538200149 -1.4701885989
C 2.0451236309 0.0089334163 -0.3731522427
C 1.9546277173 0.3487688301 0.9824258721
C 0.7232206845 0.4373415432 1.6252379440
C -0.4416265542 0.1809878523 0.9246347081
C -0.3551046603 -0.1648400551 -0.4252085450
C 0.8791671880 -0.2512124425 -1.0731136188
O -1.4441176564 -0.4234659934 -1.2072936182
C -2.6916720210 -0.4838535146 -0.6083439000
C -3.1115114349 -1.6430781591 0.0452573036
C -4.3892473321 -1.7245017529 0.5856889861
C -5.2323782217 -0.6276092987 0.4522255956
C -4.8359950136 0.5336509384 -0.2009042792
C -3.5531850285 0.5968638906 -0.7312813602
Cl -6.8466368331 -0.7232344790 1.1292874244
Cl -2.0263155557 -2.9995000770 0.1865626447
N 3.1640033049 0.5773523369 1.7585261213
O 4.2418280323 0.2760354815 1.2427579492
O 3.0537129753 1.0456713626 2.8884438521
H 5.8371019624 0.6418886171 -1.5761692344
H 5.2907081934 2.1685925700 -2.3488562511
H 4.9496320040 0.5883978760 -3.1309499383
H 0.6855591578 0.6930949054 2.6766644465
H -1.4011827163 0.2442873312 1.4240044617
H 0.9119769402 -0.5154044462 -2.1245797953
H -4.7142240501 -2.6245011666 1.0931991413
H -5.5122589628 1.3747516823 -0.2944464112
H -3.2079409679 1.4870714968 -1.2461157614
