34
CONF112
C -2.3153120225 -1.2817917228 2.4704425292
C -1.5579647191 -0.4929177536 1.6129330059
C -0.1634361059 -0.4226847461 1.6938045375
C 0.4439062853 -1.2027177804 2.6860133457
C -0.2776509951 -2.0034283528 3.5638650847
C -1.6594697297 -2.0278707179 3.4389125913
Cl -2.5902905242 -3.0319220743 4.5376465813
Cl 2.1952094102 -1.2129796198 2.8650747293
C 0.6508328136 0.4114222125 0.7297660553
C -0.0886376804 1.6875492636 0.2937294756
N 0.7542853316 2.5134480195 -0.5576250104
C 0.6234679891 2.7659564148 -1.8748931342
N 1.6297379381 3.5220471461 -2.2994216603
C 2.3670073503 3.6994960192 -1.1676785593
N 1.8789700906 3.1038776000 -0.0859109536
C 1.1119051745 -0.4138113572 -0.4667147840
O -0.0853972096 -0.7602860471 -1.2284451073
C 0.1088565302 -1.3455119855 -2.4195006530
C -1.2620631101 -1.6222387123 -3.0635614192
F -1.8956926275 -0.4306445253 -3.2669324638
F -1.0642812323 -2.2046079627 -4.2802182787
F 0.8684412886 -0.5750161679 -3.2687898907
F 0.7833978698 -2.5404588380 -2.3137748994
H -3.3946327488 -1.3133995241 2.3809012256
H -2.0813396149 0.0797026846 0.8561133779
H 0.2273857495 -2.5899348597 4.3214144941
H 1.5675910067 0.7287695510 1.2365808758
H -0.3808221895 2.2660139178 1.1750404957
H -0.9827665413 1.4628660586 -0.2909374106
H -0.2038039514 2.3886843365 -2.4627382707
H 3.2801464278 4.2806428557 -1.1340979334
H 1.7892714002 0.1651443057 -1.1018252479
H 1.6072689927 -1.3324740269 -0.1412957588
H -1.8841203446 -2.2709237118 -2.4378765517
