59
CONF16
C 6.9939794528 -1.8499913093 0.7135974568
C 5.5464877939 -1.4546771529 1.0057305540
C 5.0602036707 -0.4797204097 -0.0759608620
N 3.6276791338 -0.2557402307 0.0452367680
C 2.7585797949 -1.2041577514 0.4502367617
N 1.4283834459 -1.0876481924 0.3952509069
N 1.0672474189 0.0593920511 -0.1992148155
C -0.2222028277 0.3147964586 -0.3394988922
C -1.3427033175 -0.5305190022 0.0389166407
C -1.3762814011 -1.5483386572 0.9258072743
C -2.5541491959 -2.3544819831 1.2182825041
C -2.5783257761 -3.1168504979 2.3982434505
C -3.6762835549 -3.8923011598 2.7362687936
C -4.7825098254 -3.9291295572 1.8904472096
C -4.7738671899 -3.1965913523 0.7023189289
C -3.6742864438 -2.4238585955 0.3714535871
C -5.9485140492 -4.8108057141 2.2154781960
F -7.1138689325 -4.3155373959 1.7349990748
F -5.8060279584 -6.0537172445 1.6783579046
F -6.1039657145 -4.9831050937 3.5496324164
C -0.4776594613 1.5789581428 -1.0031440395
C -1.6720342374 2.1926514244 -1.1564090168
C -1.9007934750 3.4629091899 -1.8248915321
C -0.9169099893 4.1357375571 -2.5736750012
C -1.1847365589 5.3502201222 -3.1784649168
C -2.4518238986 5.9272362621 -3.0664617296
C -3.4454601493 5.2766256528 -2.3396820374
C -3.1698569005 4.0606605523 -1.7336302553
C -2.7114110020 7.2624712433 -3.6902091595
F -2.0834352497 7.3973483394 -4.8848479733
F -2.2654432526 8.2829968145 -2.9066229698
F -4.0292325223 7.4855459578 -3.9027714600
N 3.2528325126 -2.3340356859 1.0194441153
C 4.6573054589 -2.7037560842 0.9191590658
C 5.4413975565 -0.8141245794 2.3942057316
H 7.3605606381 -2.5550215392 1.4666506197
H 7.6457968594 -0.9706750374 0.7361255324
H 7.0913464738 -2.3207382613 -0.2704786870
H 5.3135163260 -0.8815022165 -1.0704607890
H 5.5758468581 0.4816349095 0.0329384204
H 3.1750687305 0.5282050616 -0.4076948061
H -2.2697379381 -0.2805357354 -0.4721261148
H -0.4852657508 -1.7798825524 1.4956571901
H -1.7206280102 -3.0835961274 3.0634907135
H -3.6784788628 -4.4641610782 3.6575940140
H -5.6283376891 -3.2395040150 0.0356938099
H -3.6750905071 -1.8829743980 -0.5686959238
H 0.4252996807 2.0600587936 -1.3703108806
H -2.5617629648 1.7431643900 -0.7217793073
H 0.0667751568 3.6962159488 -2.6943485237
H -0.4145834812 5.8511072836 -3.7553789229
H -4.4322156166 5.7172868281 -2.2537308456
H -3.9493997535 3.5574451525 -1.1692132106
H 2.5594427497 -3.0467885925 1.1854035009
H 4.8632944146 -3.2339550252 -0.0255554663
H 4.8979148568 -3.3869412968 1.7417035711
H 4.4177450882 -0.5078157628 2.6235266005
H 6.0835686964 0.0704601836 2.4539640454
H 5.7670102824 -1.5199493126 3.1651375824
