38
CONF5
C 3.0833762098 2.9978874704 2.1526562389
C 1.9444356807 3.7620690008 1.5152658868
C 1.0505242791 4.4717017085 2.5116449793
O 1.1381575773 2.7408216370 0.8032909894
C 0.4378810963 3.1290433666 -0.2485197095
O 0.3745199751 4.2602187767 -0.6918611042
C -0.2918218033 1.9505463238 -0.9405099216
C -1.1693697642 1.1715756842 0.0337789995
C -1.4788001464 -0.1659753818 -0.2090945482
C -2.3695637215 -0.8543699114 0.6101179084
C -2.9478949885 -0.1823453176 1.6779010416
C -2.6701439273 1.1535475429 1.9391049378
C -1.7818976438 1.8237979595 1.1052353979
Br -4.1677982213 -1.1212286468 2.8221045530
C 0.8041745189 1.0979529197 -1.5905862858
C 1.5976718923 0.2415956466 -0.8216123124
C 2.6139639744 -0.5045817092 -1.4057574998
C 2.8329759176 -0.3791811271 -2.7728494959
C 2.0664441759 0.4667243200 -3.5602529041
C 1.0507649198 1.2062816322 -2.9573661918
Br 4.2304803690 -1.4092057660 -3.5899282078
O -1.1569554081 2.5048130841 -1.9227245313
H 3.7358302321 3.7003016908 2.6789689517
H 2.7024097622 2.2697539052 2.8754235822
H 3.6740581391 2.4749913911 1.3956334203
H 2.3145017856 4.4586114014 0.7575427953
H 0.2261980305 4.9842533311 2.0089658575
H 1.6388612190 5.2169862846 3.0551369912
H 0.6432204665 3.7567405037 3.2334054282
H -1.0259810696 -0.6871167748 -1.0460836697
H -2.6045424435 -1.8940348099 0.4141969078
H -3.1345830337 1.6660483160 2.7733771057
H -1.5763260059 2.8717650425 1.3036301390
H 1.4207238919 0.1435942094 0.2439471354
H 3.2200494052 -1.1722177898 -0.8045339212
H 2.2491012578 0.5527815466 -4.6251273791
H -0.8982798342 3.4380401493 -2.0221033179
H 0.4407477057 1.8652560802 -3.5636773023
