47
CONF73
C -4.8599125065 -2.4018172716 2.4777278018
O -3.9038198035 -2.9072906963 1.4947963810
P -4.2143410990 -2.8023647434 -0.0652131035
S -2.7771370885 -3.4966229459 -1.1611967484
O -5.6590213729 -3.4785043998 -0.1645433950
C -6.3182234281 -3.5870134952 -1.4572938386
O -4.6250000639 -1.2475063292 -0.3513410934
C -3.6712750589 -0.2778391818 -0.6626887562
C -2.7261615543 0.1148676433 0.2794008842
C -1.8264626721 1.1221526433 -0.0438892356
C -1.8633483239 1.7141466584 -1.3095394744
C -2.8169938314 1.3058921396 -2.2442951529
C -3.7315892752 0.3098314776 -1.9173396694
S -0.7696781795 3.0591286177 -1.7503303330
C 0.7965249355 2.5283408989 -1.0688129359
C 1.5853433026 3.4713958658 -0.4073737546
C 2.8387820335 3.1133803985 0.0792783944
C 3.2819647065 1.8100911019 -0.0886468305
C 2.5083999793 0.8576896594 -0.7445557030
C 1.2657087150 1.2234449773 -1.2445218608
O 4.5568742313 1.4933512698 0.3798047158
P 4.7997592650 0.3808751926 1.5510184008
S 3.4586145398 0.3373934458 2.9468145455
O 6.3097033518 0.7338419056 1.9382180644
C 6.6033500134 1.9687589263 2.6497489952
O 4.9659739093 -1.0227706825 0.8140900373
C 5.9121725015 -1.1742130502 -0.2893676453
H -5.7553909707 -3.0264757786 2.4788108038
H -5.1155289462 -1.3624541844 2.2555919021
H -4.3491928153 -2.4664496324 3.4377834527
H -5.7010241954 -4.1749064264 -2.1417387826
H -7.2611159089 -4.0974777373 -1.2644719661
H -6.5037737294 -2.5908658210 -1.8676381113
H -2.7024208070 -0.3504498782 1.2593305466
H -1.0956580103 1.4438178941 0.6904447869
H -2.8413231505 1.7561506521 -3.2312533141
H -4.4739706646 -0.0241069605 -2.6341139333
H 1.2193276408 4.4822768584 -0.2609544244
H 3.4611960839 3.8314186115 0.6022454362
H 2.8786530180 -0.1537417270 -0.8762312936
H 0.6620162504 0.4902231363 -1.7688810117
H 7.6819641673 1.9703282763 2.8028287958
H 6.3053470791 2.8296468882 2.0454178149
H 6.0832791993 1.9766252899 3.6112586832
H 5.7251384531 -2.1670949454 -0.6967032824
H 5.7277721446 -0.4127392913 -1.0517066211
H 6.9344968132 -1.1023650649 0.0870778358
