29
CONF5
C -4.7632957947 -0.4594182359 -1.0058350037
C -3.4061766658 -1.0987974562 -0.8501555102
O -2.7605023574 -0.5530503337 0.3573365322
P -1.3966075904 0.2593708278 0.2696849791
S -1.2398818675 1.6228346361 -1.1012402658
O -1.1501955965 0.6553411401 1.7870069010
C -1.4383760536 2.0037204945 2.3021042154
C -2.9217664476 2.2135451822 2.4910547049
O -0.3609109269 -1.0198734560 0.1017535013
C 0.9726624007 -0.8881606609 -0.1234040484
N 1.6092548508 0.1754255341 0.3309517455
C 2.9077741363 0.2982798176 0.1371502480
Cl 3.6566956618 1.7467971278 0.7615781958
C 3.6616053149 -0.6695407990 -0.5277028132
Cl 5.3719667262 -0.5046149145 -0.7724322157
C 3.0020424778 -1.7975877300 -1.0060668804
C 1.6361806950 -1.9122052562 -0.8084429663
Cl 0.7682449234 -3.2950595649 -1.3991045373
H -5.2708420425 -0.9020838639 -1.8685524593
H -5.3769087248 -0.6310293995 -0.1171602306
H -4.6672465495 0.6172090521 -1.1718957046
H -3.4723061066 -2.1762778788 -0.6805225866
H -0.8970562711 2.0354948794 3.2491587812
H -1.0021561459 2.7325030349 1.6124199493
H -3.0832445457 3.1955820220 2.9467105179
H -3.4516190315 2.1902472701 1.5338046217
H -3.3427550194 1.4503660122 3.1512583061
H 3.5492816185 -2.5717189441 -1.5312737266
H -2.7683245282 -0.9125436372 -1.7197292527
