15
CONF24
N -0.2858747428 1.6413595115 0.4115394221
C -0.1748554060 0.1962311250 0.3342242667
C 0.2528295444 -0.3721022078 -1.0393136945
S 1.8585313755 0.3073592180 -1.6306169096
S 3.2222236201 -0.5151510092 -0.2905559076
C -1.5261571713 -0.4196314329 0.6446318454
O -1.3997138833 -1.6820258879 1.1213533415
O -2.5911726702 0.1116764247 0.4420961027
H 0.4854469372 2.0678060770 -0.0921049399
H -1.1516180572 1.9355068701 -0.0304689558
H 0.5446908233 -0.1701730826 1.0786497415
H -0.4686020373 -0.0713773677 -1.8111454247
H 0.3174962079 -1.4644285875 -1.0169813224
H 3.2154000701 0.4639944417 0.6405106292
H -2.2986249226 -2.0290440871 1.2381821123
