50
CONF146
C 0.8953028245 0.0219581316 -1.9261717447
C -0.6039133559 -0.1246974879 -2.0316367872
C -1.2355685896 -1.4484770228 -2.3710009793
C -1.3812724301 -0.8845147493 -0.9501567663
C -0.6598928676 -1.4941358017 0.1711262435
O 0.2770898036 -2.2611152204 0.1279200210
O -1.1831817154 -1.0335722431 1.3543894237
C -0.4178746346 -1.3948698314 2.5207843444
C -1.2917168975 -1.1230827933 3.6633996586
N -1.9423111896 -0.9034439501 4.5916746604
C 0.8693984170 -0.5926037482 2.6350026718
C 0.9450965057 0.6692205817 2.0505216972
C 2.1277218337 1.3945985234 2.1719952206
C 3.2153894011 0.8762691935 2.8756856304
C 3.1162234588 -0.3830665085 3.4523344363
C 1.9449172123 -1.1287026254 3.3362197619
O 2.3218824235 2.6210296221 1.5800980478
C 1.2219049197 3.3357545714 1.1171933939
C 0.2186381494 3.7454271024 1.9907349803
C -0.8297584234 4.5155285357 1.4964557555
C -0.8663344586 4.8790703884 0.1506443119
C 0.1544477237 4.4719188970 -0.7046902053
C 1.2055731189 3.6929989311 -0.2249998291
C -0.4109504688 -2.6380707519 -2.6405981354
C -0.8369827595 -3.8528885991 -2.9953751982
C -2.2547393723 -4.3390310821 -3.1028955372
F -2.4289727155 -5.5231922126 -2.4708823484
F -2.6250060150 -4.5308979103 -4.3954163505
F -3.1328697551 -3.4716406324 -2.5602631650
Cl 0.3155101304 -5.1074950284 -3.4251775937
C -1.2971462319 1.1126002373 -2.5578077597
H 1.3886254791 -0.8392585833 -1.4749689142
H 1.3154842813 0.1829748169 -2.9247968094
H 1.1292888019 0.9001200955 -1.3153530527
H -2.1651600358 -1.3850755221 -2.9250557625
H -2.3529245814 -0.4752654878 -0.6959147251
H -0.1885460203 -2.4674811394 2.5063713998
H 0.1037554671 1.0714166094 1.4985013978
H 4.1254706442 1.4615610946 2.9524272033
H 3.9642430490 -0.7906234721 3.9928766046
H 1.8722481810 -2.1165559692 3.7799148135
H 0.2611938327 3.4623549815 3.0376517498
H -1.6170079294 4.8389238904 2.1700432453
H -1.6854743447 5.4819894558 -0.2272058924
H 0.1347184232 4.7556170939 -1.7522534871
H 2.0092689851 3.3650027832 -0.8758371635
H 0.6658918878 -2.5120366105 -2.5956013877
H -2.3782668488 0.9677938260 -2.6327423400
H -1.1036801304 1.9631586315 -1.8949031987
H -0.9097332845 1.3595073886 -3.5522615187
