37
CONF20
C 3.9663869896 -2.4618967594 -0.0176465563
C 3.2468686190 -1.6949396607 1.0918780303
C 1.7485701689 -1.4988182331 0.8390205730
C 1.4640854940 -0.6390944378 -0.3897621362
C -0.0445900209 -0.3347713529 -0.6114480740
C -0.1566226606 0.5684486078 -1.8830078987
N -1.5046589806 1.0350159592 -2.1290294799
C -2.0634175816 2.2083096501 -1.7638282594
N -3.3530849149 2.2171467780 -2.0720993436
C -3.5366305295 0.9849691426 -2.6260309625
N -2.4467799945 0.2299706711 -2.6802048531
C -0.7022126670 -1.6163330927 -0.8770179874
N -1.1600226478 -2.6546454876 -1.0955046699
C -0.7058294618 0.3768892528 0.5679120408
C -1.9872507466 0.0351887397 0.9987154151
C -2.6174247716 0.7478760836 2.0145056635
C -1.9483879239 1.8147405532 2.5969745346
Cl -2.7309208608 2.7245887314 3.8812855193
C -0.6720348749 2.1814218936 2.1868457873
C -0.0593054110 1.4591663094 1.1701284918
H 3.9756269000 -1.9041057660 -0.9593174384
H 3.4778587723 -3.4253132380 -0.2031362891
H 5.0071423940 -2.6595432037 0.2569087457
H 3.3661969328 -2.2347564014 2.0385776454
H 3.7196589429 -0.7138500560 1.2321161693
H 1.2945421016 -1.0287061315 1.7194523206
H 1.2697354274 -2.4797674601 0.7200373175
H 1.8338393948 -1.1273691843 -1.2974924170
H 1.9913866620 0.3181150803 -0.3102769416
H 0.4734730838 1.4463875090 -1.7197048943
H 0.2023151835 0.0257962808 -2.7613389527
H -1.4995819638 3.0048957512 -1.2955699019
H -4.4889284759 0.6367672618 -3.0056987084
H -2.5168056635 -0.7940744177 0.5403403438
H -3.6142450051 0.4747765765 2.3409313163
H -0.1622536942 3.0180441928 2.6507010838
H 0.9333009953 1.7594705617 0.8517840626
