61
CONF5
C -0.5726534098 -0.3910481259 -3.3985680071
C -1.5134281048 -1.3079590195 -2.6042951897
C -2.2608904563 -0.5588010381 -1.5292220447
C -3.5236956910 -0.0348728086 -1.8110707114
C -4.2319773451 0.7175756996 -0.8743579100
C -3.6455765726 0.9372987622 0.3727950852
C -2.3883192804 0.4252650662 0.6966898795
C -1.6852341955 -0.3241960512 -0.2663714394
C -0.3449958687 -0.8608051242 0.0284945484
C 0.8402482576 -0.1833601429 0.0197130847
N 1.8937478703 -0.9700884519 0.3839557390
C 3.2601718391 -0.8211628877 -0.1231397868
C 3.5815081216 -1.7323945474 -1.3083043521
O 3.9711859626 -3.0480311216 -0.9186172726
C 2.8920909061 -3.8813649834 -0.4965117463
C 2.2028955319 -3.3997396560 0.7778727721
N 1.3617357832 -2.2399411222 0.5602507301
C -0.0146997412 -2.2341994540 0.3549929253
O -0.7365395516 -3.2368364499 0.4759438457
O 1.0369853221 1.1029565154 -0.3817848441
C 1.3612767873 2.0703460736 0.5720629700
O 1.6185642176 1.7792559245 1.7090754292
C 1.2957369911 3.4505560667 -0.0469704181
C -0.1809750102 3.7297822209 -0.3975503484
C 1.7989701797 4.4724056429 0.9742752996
C 2.1587797172 3.4961364268 -1.3198218625
C -1.8430072796 0.6276160318 2.0879704898
C -2.0725259491 -0.6053984476 2.9732111588
C -5.6046415706 1.2481934114 -1.1857792248
H -0.0513990945 -0.9527969647 -4.1803022814
H 0.1790046244 0.0593257752 -2.7426380698
H -1.1348706017 0.4195603695 -3.8736136360
H -2.2380628548 -1.7611127143 -3.2895545773
H -0.9356006506 -2.1256329955 -2.1611583278
H -3.9607723637 -0.2160287424 -2.7909202540
H -4.1831856892 1.5192257179 1.1186318249
H 3.3596118092 0.2249242060 -0.4260032088
H 3.9719226403 -1.0040405949 0.6892561437
H 4.4464477482 -1.3124014429 -1.8302792735
H 2.7293467180 -1.7643109683 -2.0067350892
H 2.1461399934 -3.9760845204 -1.3013473069
H 3.3354546247 -4.8636294811 -0.3070178693
H 1.5301995265 -4.1849551946 1.1374198077
H 2.9369191367 -3.1882978480 1.5637544560
H -0.2573174958 4.7428306555 -0.8042631439
H -0.5530883633 3.0231254339 -1.1440394946
H -0.8141711416 3.6664506655 0.4935388416
H 1.7457475063 5.4718334726 0.5332318096
H 1.1878565374 4.4590628283 1.8806164725
H 2.8371568579 4.2703763014 1.2532271587
H 3.2015740360 3.2498499244 -1.0950672029
H 2.1262196074 4.5111852964 -1.7272118341
H 1.7890905578 2.8053650034 -2.0810290702
H -2.3317343708 1.4978071557 2.5392461455
H -1.6780893686 -0.4389831875 3.9806483146
H -3.1414085649 -0.8287363851 3.0531065701
H -6.3753857078 0.5402190078 -0.8579186839
H -5.7904961563 2.1945728300 -0.6701620743
H -5.7360349456 1.4022533824 -2.2602280051
H -0.7710470952 0.8432153139 2.0511799328
H -1.5752116276 -1.4836209385 2.5495953041
