31
CONF2
C -2.5936419245 -0.9624963385 1.2426439366
C -2.0487168737 0.1553931497 0.3769418565
C -2.3455108521 -0.0230835903 -1.1358907435
C -1.0168191040 0.2834172161 -1.7698559043
C -0.6405888495 0.4941302644 -3.0868276247
C 0.7078998518 0.7149642149 -3.3763412114
C 1.6594200211 0.7098631775 -2.3577744571
C 1.2779931535 0.5014342056 -1.0385625690
C -0.0659201776 0.2977896129 -0.7537473163
O -0.5711268716 0.0993669156 0.4868714678
O 2.2221743597 0.5740881377 -0.0233268104
C 2.4178252493 -0.5960702119 0.7018375443
O 1.9674394348 -1.6737418477 0.3933128053
N 3.2265404070 -0.3262029610 1.7579791433
C 3.5018462641 -1.3403555689 2.7600469261
C -2.4676375187 1.5338414935 0.8682289666
H -3.6866351464 -0.9796324891 1.1848042861
H -2.3034909797 -0.8160911469 2.2868431099
H -2.2061518938 -1.9271378452 0.9048361672
H -3.1466021996 0.6470775768 -1.4636150331
H -2.6552895046 -1.0520597397 -1.3591101895
H -1.3799806199 0.4859666111 -3.8816053755
H 1.0228316061 0.8853605537 -4.3998110515
H 2.7105356045 0.8710941569 -2.5717429748
H 3.3927713728 0.6428696703 1.9733034476
H 2.7392244406 -1.3637281030 3.5495880099
H 3.5193575057 -2.3161506964 2.2713045280
H 4.4790319788 -1.1520994802 3.2131248816
H -2.1225953785 1.6923846273 1.8935232552
H -3.5580987286 1.6289896854 0.8452594767
H -2.0360842271 2.3108190493 0.2291978521
