46
CONF11
C -5.6055470358 -0.0866854576 1.0106179174
O -4.4184724998 -0.4733039218 1.7135848845
C -3.2991018771 0.2745472434 1.4967887565
C -2.1441448236 -0.1346991390 2.2063149872
C -0.9551137473 0.5661061624 2.0502915383
C -0.8787989935 1.6764789572 1.1967275786
C -2.0145495003 2.0674806522 0.5014861906
C -3.2206057285 1.3731812213 0.6502087531
C 0.4291579522 2.4307052511 1.0587877533
C 1.6284699202 1.5257514182 0.9059780823
N 2.4798087319 1.4828353459 1.9234486255
C 3.5604271886 0.6635775886 1.8335365112
C 3.8263539352 -0.1289298306 0.7453107101
C 2.9401061677 -0.1065283338 -0.3537375659
C 3.1447086273 -0.8940749816 -1.5125472566
C 2.2510914991 -0.8444147904 -2.5574939729
C 1.1025775417 0.0156051209 -2.4789615729
C 0.8945043894 0.7873736415 -1.3613281208
C 1.8041005186 0.7473992690 -0.2742887172
O 0.2919058573 -0.0203659480 -3.5642701536
C -0.8826449986 0.8046460230 -3.5278857001
O 2.3459511590 -1.5549731705 -3.7034639232
C 3.4694625743 -2.4409760033 -3.8371308230
O -2.3044289731 -1.2237943804 3.0091844166
C -1.1518471931 -1.6796361535 3.7295967515
H -5.9104783036 0.9309738281 1.2822887185
H -6.3748858130 -0.7950060004 1.3192263204
H -5.4591158889 -0.1502683449 -0.0742344821
H -0.0675874651 0.2550776205 2.5893866498
H -1.9725386340 2.9181398394 -0.1731176695
H -4.0909291628 1.6985241671 0.0931001717
H 0.3588218118 3.1121322572 0.2031104829
H 0.5973145016 3.0464853582 1.9487835307
H 4.2279979666 0.6640861760 2.6927114820
H 4.7048630064 -0.7667964367 0.7249058861
H 4.0165911463 -1.5358040917 -1.5546934393
H 0.0253397717 1.4272520358 -1.2996113099
H -1.3959533645 0.6263691365 -4.4726003021
H -1.5315735033 0.5204345327 -2.6909325214
H -0.6123544929 1.8636298469 -3.4442177913
H 3.4567142950 -3.2032803536 -3.0503198044
H 4.4110016144 -1.8818050419 -3.8001181538
H 3.3555343551 -2.9120980560 -4.8131342006
H -0.7888732661 -0.9088979773 4.4196803777
H -1.4834854020 -2.5516050256 4.2938713899
H -0.3476941967 -1.9674936053 3.0420110471
