45
CONF56
C -3.1030223879 -2.2061539134 2.5675026641
O -3.2290077320 -2.1424102240 1.1244197420
C -2.1408036981 -1.6765149043 0.4917315893
O -1.1030477399 -1.3278475216 1.0354566883
N -2.3342649112 -1.5712108723 -0.8672213632
C -1.2348815800 -1.3574664538 -1.7581346989
C -0.6748141394 -2.4467467237 -2.4224580278
C 0.3664433081 -2.2454178659 -3.3201389167
C 0.8439431241 -0.9555190536 -3.5421842779
C 0.2770160382 0.1277305704 -2.8774311492
C -0.7754541834 -0.0548090342 -1.9802382418
C -1.4474126459 1.1060741353 -1.2878330244
O -0.7578372506 2.3527571946 -1.4961717306
C 0.3399443620 2.5537868467 -0.7386715508
N 0.7775313527 1.6757037257 0.1535931665
N 1.8858373491 2.2642161457 0.6888183720
C 2.1257961710 3.4885214211 0.1331435038
C 1.1446989697 3.7139267830 -0.8030911269
C 2.6045030611 1.6021627316 1.7045934725
C 2.0338351386 0.5006782811 2.3490661435
C 2.7343789320 -0.1559872549 3.3529365968
C 3.9979600041 0.2972684651 3.7103828965
C 4.5786050545 1.3893027695 3.0770548963
C 3.8819629103 2.0387771759 2.0660175057
Cl 4.8834529570 -0.5302998218 4.9868434610
O -3.4012826093 -2.3034634902 -1.4219020256
C -4.3838256199 -1.3899704371 -1.9539712837
H -4.0532713112 -2.6089137625 2.9155056589
H -2.2803466742 -2.8680331434 2.8471498175
H -2.9358009392 -1.2071968107 2.9766777906
H -1.0609619666 -3.4422560565 -2.2294880861
H 0.8073238345 -3.0914738715 -3.8370406759
H 1.6595874611 -0.7897000566 -4.2387610852
H 0.6489982721 1.1293748074 -3.0639469636
H -1.5482472837 0.9185012312 -0.2144386524
H -2.4443421994 1.2650633525 -1.7105502007
H 2.9478415336 4.1131260373 0.4471465964
H 1.0149505964 4.5815902706 -1.4304448493
H 1.0454818713 0.1592404194 2.0687445915
H 2.2914678668 -1.0092862799 3.8539211587
H 5.5697662269 1.7281214797 3.3558253935
H 4.3521554911 2.8741789633 1.5615138884
H -4.7949574247 -0.7621476042 -1.1564273783
H -3.9459135184 -0.7682173664 -2.7435338981
H -5.1639859761 -2.0281994856 -2.3739667888
