51
CONF49
C 2.5250288531 -2.6967736751 -0.5351684938
C 2.4232748203 -1.2074600801 -0.3307528411
C 1.3060763521 -0.5182188049 -0.8396056864
C 1.2133105501 0.8664153537 -0.7256777872
C 2.2263781671 1.5882479550 -0.1027630424
C 3.3257148060 0.9214684770 0.4170989297
C 3.4322737381 -0.4727141479 0.3221558920
C 4.6175114035 -1.1227366353 0.9348781575
C 5.9082951178 -0.6988011891 0.5958039805
C 7.0262635142 -1.2765844984 1.1912125070
C 6.8719142410 -2.2833978159 2.1414175517
C 5.5916747737 -2.7070011465 2.4936076212
C 4.4747503874 -2.1324990105 1.8950791000
C 0.2294485774 -1.3154482952 -1.5350757990
O -0.9351714005 -0.5230624895 -1.8589025449
C -1.8068602408 -0.3041090381 -0.8433893846
O -1.6544868409 -0.7416541712 0.2796027210
C -2.9374154304 0.5208776951 -1.3156988774
C -3.7662271519 1.2638784565 -0.2632616063
C -4.3843910163 0.1262565814 -1.0516293564
C -4.6995076468 -1.1376724183 -0.2848985599
C -5.3675701059 0.4192524053 -2.1631616820
C -4.1101839260 2.6619129150 -0.5187117334
C -4.2727036202 3.6092342140 0.4107511282
C -4.1189221451 3.3549280044 1.8924761226
F -2.8392180228 3.0206298038 2.2073467487
F -4.8971950028 2.3174650741 2.2954797882
F -4.4481946359 4.4131171599 2.6514412220
Cl -4.6601324948 5.2548923609 -0.0381642369
H 2.2599875953 -2.9704462834 -1.5614858958
H 1.8428474394 -3.2410032408 0.1298006556
H 3.5353356979 -3.0573517270 -0.3410458688
H 0.3502316765 1.3867523661 -1.1271422882
H 2.1505626053 2.6675059163 -0.0153221206
H 4.1089451987 1.4752423754 0.9260408863
H 6.0327710137 0.0812880723 -0.1497439863
H 8.0198531194 -0.9412743361 0.9096909899
H 7.7431080074 -2.7337442414 2.6067157627
H 5.4616728712 -3.4839065478 3.2408973842
H 3.4792564289 -2.4574852661 2.1827948847
H -0.0785243563 -2.1715675484 -0.9270161527
H 0.5817097428 -1.6851652399 -2.5034163292
H -2.7646931908 1.0348535834 -2.2553991085
H -3.4998065060 0.9920172284 0.7522529348
H -4.0043191772 -1.3035020858 0.5386522357
H -5.7140629647 -1.0682401726 0.1213082172
H -4.6614160330 -2.0029497793 -0.9560514166
H -5.0820397150 1.2808390141 -2.7698929821
H -6.3622210462 0.6035184140 -1.7426722697
H -5.4353902906 -0.4499991451 -2.8253295779
H -4.2375431499 2.9607217063 -1.5551255076
