28
CONF13
C 4.0532645101 0.1165543681 0.9887615855
C 4.1067677214 -0.1126882768 -0.4713783589
C 2.7962348034 0.3766547770 0.1589707157
C 1.7007646501 -0.5732602321 0.2559839554
C 0.3217810215 -0.2648261263 0.0770333213
C -0.1512336801 1.0437973604 -0.3757600332
O 0.5830367024 1.9410476563 -0.7916114719
C -1.6511372895 1.2966866726 -0.3887699108
C -2.4354354031 0.3790597082 0.5553211516
C -2.1021711363 -1.0685159867 0.2121299269
C -0.6258229925 -1.3227278302 0.3116103198
O -0.2526314301 -2.4971286559 0.5930094664
C -3.9043173706 0.7171664514 0.4635733163
O -4.4622487661 1.5232641976 1.1798648820
O -4.5286172705 0.0629176262 -0.5351443863
O 2.0395647604 -1.7960440724 0.5611291586
H 4.0308811715 -0.7495014746 1.6400151697
H 4.5204909382 1.0084519064 1.3913072691
H 4.1080901837 -1.1375081995 -0.8253609206
H 4.6104181139 0.6132112009 -1.0998923801
H 2.5227104400 1.4019813547 -0.0279274663
H -1.9901287111 1.1404359007 -1.4229491481
H -1.8043451834 2.3525420891 -0.1493779872
H -2.1365163045 0.5944214265 1.5868114191
H -2.4037928061 -1.2901551875 -0.8206439735
H -2.6143110430 -1.7813850345 0.8639189729
H -5.4538115949 0.3622227919 -0.5648508152
H 1.1225154622 -2.3366744011 0.6118124102
