51
CONF122
C 1.8774027514 -1.1262400188 0.7441199213
C 2.4616073506 -0.5938205328 -0.5390151583
C 1.7097594545 -0.6521453643 -1.7286312674
C 2.2117355934 -0.1214698670 -2.9164856282
C 3.4642096177 0.4808438447 -2.9469607261
C 4.2190084028 0.5349086343 -1.7839310919
C 3.7423796948 -0.0073253546 -0.5820592948
C 4.6287560658 0.0563649224 0.6067181359
C 4.9845059383 -1.1019916957 1.3089338198
C 5.8510889312 -1.0360745382 2.3954669749
C 6.3750585775 0.1898751398 2.8014876611
C 6.0310670159 1.3483425289 2.1085494088
C 5.1682288953 1.2813351151 1.0181595107
C 0.3455094897 -1.2716622147 -1.7408243451
O -0.5919262705 -0.2849902291 -1.1933138922
C -1.8598556214 -0.7174782949 -1.0254309338
O -2.2317742660 -1.8395470520 -1.3134288553
C -2.6962183303 0.3602306707 -0.4544538479
C -4.0041422242 -0.0459993804 0.2368564117
C -4.0402565879 0.7449069157 -1.0548220790
C -4.5604242886 0.0224368357 -2.2767448115
C -4.3800702617 2.2189289741 -1.0365356754
C -4.3163506321 0.5570771530 1.5307380819
C -4.8886970702 -0.0668261949 2.5659235427
C -5.2976092764 -1.5212257071 2.5344500664
F -4.2397111082 -2.3242183004 2.2472198201
F -6.2267378418 -1.7502696511 1.5688762991
F -5.8180114663 -1.9554112004 3.6938601148
Cl -5.2197500981 0.7828713944 4.0587274639
H 0.8177632474 -0.8735121376 0.8277024953
H 2.3952261824 -0.7180537886 1.6130047906
H 1.9589923383 -2.2188275898 0.7954514817
H 1.6116118804 -0.1812385987 -3.8201894020
H 3.8532570004 0.8951513807 -3.8715100973
H 5.2082465626 0.9829057800 -1.7994378930
H 4.5897659835 -2.0619456561 0.9899490380
H 6.1216398732 -1.9453710476 2.9235329251
H 7.0487993985 0.2411504294 3.6510473624
H 6.4330036633 2.3081168887 2.4186861885
H 4.8973306582 2.1877997783 0.4844362983
H 0.2888685888 -2.1763137396 -1.1293975709
H 0.0301012302 -1.5147713968 -2.7590323099
H -2.1408247891 1.1785285126 -0.0081681088
H -4.2362987234 -1.0972164470 0.1058709031
H -4.3481440466 -1.0468661848 -2.2452486616
H -5.6445421615 0.1619182337 -2.3429342776
H -4.1085729223 0.4429016582 -3.1820447536
H -5.4660878806 2.3513966094 -0.9811585862
H -4.0286444130 2.6835174460 -1.9635472278
H -3.9216877381 2.7526762071 -0.2016451567
H -4.0585857753 1.6031732273 1.6671832383
