24
CONF101
C 2.7108528781 0.7185668295 0.8073107825
C 1.2909194502 0.2182156706 1.0498165583
C 0.5089780330 0.0220669805 -0.2496864053
C -0.9235136139 -0.4589425315 0.0143402819
C -1.7479605205 -0.4882511745 -1.3013789507
C -3.1638107758 -0.8916842346 -0.9947554476
O -4.1047536658 -0.1822383957 -1.3013812584
O -1.7080565139 0.7640303131 -1.9519095343
O -0.9227542937 -1.7549605969 0.6030981223
O 1.2085127357 -0.9807706580 -1.0001809183
O 0.5573905919 1.1844090353 1.8190211995
O 2.7336820175 1.9707549536 0.1172885576
H 3.2208948583 0.8007331148 1.7800048961
H 3.2595082358 0.0028976553 0.1897029550
H 1.3460914540 -0.7442169610 1.5809875260
H 0.4780144989 0.9726111129 -0.7932203070
H -1.4083179953 0.2224484439 0.7205333464
H -1.3182756252 -1.2773787792 -1.9458167315
H -3.3033493828 -1.8533282935 -0.4715502743
H -2.6326048139 1.0570082341 -2.0335739914
H -0.2837057537 -2.2827376925 0.0988121297
H 1.0953119198 -0.7963920076 -1.9405618766
H 0.9358476702 1.2022394743 2.7074364424
H 2.1710981243 2.5749191892 0.6213559034
