47
CONF107
C -2.9337073440 0.4399783942 4.1714311196
C -3.3915664529 0.9985788986 2.8412180177
C -4.1568981914 0.0525183697 1.9522401273
C -2.6854795444 0.4032017648 1.6243250829
C -2.3480207524 1.2069544676 0.4441791413
O -3.0057094795 2.0745081007 -0.0926828753
O -1.1111132682 0.8380862908 -0.0229012587
C -0.6338915569 1.5876813203 -1.1703577609
C -1.4290042462 1.2348516505 -2.3533973136
N -2.0283508583 0.9457466109 -3.2974127615
C 0.8244578294 1.2524663190 -1.3625898533
C 1.7876410850 2.2346060144 -1.1434165189
C 3.1347641645 1.9131292648 -1.2947413833
C 3.5235847562 0.6287399358 -1.6557443808
C 2.5449642299 -0.3452485150 -1.8617235085
C 1.1957021146 -0.0418199335 -1.7229716878
O 2.8466238570 -1.6221997535 -2.2822717153
C 4.0382973357 -2.2042847197 -1.8682324132
C 4.4212408967 -2.1937302746 -0.5294334670
C 5.5871758671 -2.8568765784 -0.1586047676
C 6.3532877765 -3.5290252377 -1.1103906213
C 5.9477555800 -3.5369185065 -2.4430186576
C 4.7876964123 -2.8702090176 -2.8308564137
C -5.2525266906 0.5041202718 1.0948792890
C -6.2874661217 -0.2441312443 0.7123015169
Br -7.6810419815 0.4658581092 -0.3775317122
Br -6.5220447038 -2.0741922183 1.1836067502
C -3.7372994487 2.4678568453 2.8909817257
H -2.7001640322 -0.6258391921 4.1019766224
H -3.7221857380 0.5746985078 4.9196429852
H -2.0403771382 0.9718630111 4.5154024776
H -4.2548381622 -0.9607635361 2.3286883712
H -1.9757897954 -0.3887472969 1.8358200023
H -0.7628273944 2.6599391995 -0.9883883293
H 1.4893098680 3.2383647342 -0.8594315244
H 3.8921413659 2.6739087452 -1.1367951070
H 4.5725195506 0.3840688781 -1.7818799982
H 0.4536092970 -0.8158960852 -1.8933356285
H 3.8150789232 -1.6767950254 0.2074430046
H 5.8919263224 -2.8544438485 0.8832641996
H 7.2595951339 -4.0461648154 -0.8130325785
H 6.5375119712 -4.0590893289 -3.1898873159
H 4.4587267576 -2.8624525038 -3.8647308343
H -5.2416632710 1.5283368091 0.7386755848
H -4.0203655962 2.8801846782 1.9234743600
H -2.8752809744 3.0319820897 3.2619437766
H -4.5659974526 2.6165990328 3.5913129422
