47
CONF64
C 3.3437544320 -3.6910472950 -2.6372885032
C 3.6009852092 -2.3289739954 -2.1315367552
C 2.8053127895 -1.3425883598 -1.6029325745
C 3.7139020141 -0.2744072159 -1.3283693403
N 4.9437402261 -0.5817351694 -1.6712946532
O 4.8734223367 -1.8951199579 -2.1647652895
C 3.4237317111 1.0654947979 -0.7909498657
C 2.6146532031 1.9401536129 -1.5198585716
C 2.2780751629 3.2083637497 -1.0909372652
C 2.7712132824 3.6325133493 0.1388982012
C 3.5755549844 2.8029582268 0.9131862989
C 3.8912299547 1.5333418811 0.4442725152
Cl 4.8613419434 0.4846126324 1.4560804614
F 2.1418490750 1.5056400585 -2.7079944453
C 1.3451931084 -1.4358175605 -1.4345151539
O 0.6660486875 -2.2090116013 -2.1122949319
N 0.8043068044 -0.6037880756 -0.4968956624
C -0.6028208327 -0.5011484353 -0.2898911263
C -1.2221440852 -0.8761244541 1.1005854299
N -1.7039099350 0.5095874922 1.2050063616
C -1.1952881615 0.9024981911 -0.0265128307
O -1.2439381008 1.9527003385 -0.6236350274
C -3.0268905741 0.7326501977 1.7450329450
C -3.9045611860 -0.4775964841 1.2498052595
S -2.7213200316 -1.9375693895 1.2136285413
C -4.4095905002 -0.1776115855 -0.1615883258
C -5.0691750576 -0.8098078591 2.1763223208
C -3.0334291406 0.8918847061 3.2575161012
O -3.8327648219 1.5876408458 3.8443826158
O -2.0819206844 0.1626345791 3.8588179296
H 4.2373601816 -4.3090498654 -2.5270273804
H 2.5066439515 -4.1373311842 -2.0990875508
H 3.0754800522 -3.6501069135 -3.6989366838
H 1.6477149073 3.8389590129 -1.7070140047
H 2.5231511174 4.6235746352 0.5029757868
H 3.9498229438 3.1334751949 1.8745516199
H 1.4153286174 -0.0731819645 0.1079065787
H -1.1297464702 -0.9936697595 -1.1122952878
H -0.4963174538 -1.1693948959 1.8629881006
H -3.4385954056 1.6578712136 1.3302704705
H -5.1184610923 0.6576441525 -0.1274949408
H -4.9210844546 -1.0540189679 -0.5674419853
H -3.5943549514 0.0844416905 -0.8417596926
H -5.7438283783 0.0505131816 2.2346664573
H -5.6325230846 -1.6553715066 1.7723197176
H -4.7348966224 -1.0675999516 3.1846168648
H -2.1522561741 0.2929181779 4.8212864408
