50
CONF36
C 2.7682840240 -2.4780188577 0.3809756110
C 2.3140041762 -1.1912080770 -0.2681399090
C 1.1473106261 -1.2094851635 -1.0330140469
C 0.7784848411 -0.0743340549 -1.7759088534
C 1.5545420900 1.0585550848 -1.7950497855
C 2.7261970047 1.1306825817 -1.0151179342
C 3.0720245721 0.0148728726 -0.1909490280
C 4.1851529637 0.2761955677 0.6969191835
N 4.9346653430 1.3665702797 0.5804551339
C 4.5738566118 2.2859500998 -0.3475172705
N 3.4819364045 2.2628521252 -1.0973167386
N 5.3919649452 3.3819381199 -0.4384118973
N 4.5273927049 -0.5597241935 1.7130432443
C 0.2735200917 -2.4603400256 -1.0883070117
N -1.0844578989 -2.2603572956 -1.5567985444
C -1.9801225964 -1.4488755795 -0.8740901818
C -1.7255887381 -1.0321960072 0.4399418024
C -2.6727104951 -0.2540602307 1.1104932997
C -3.8769140967 0.1071557318 0.4948254648
C -4.1125765175 -0.3059762668 -0.8263488038
C -3.1768408577 -1.0786945678 -1.5111621758
O -5.2999273119 0.1037298805 -1.3560007778
C -5.5904609569 -0.2832266823 -2.7036012808
O -4.8215356162 0.8448211008 1.1773653661
C -4.6662748041 2.2639291034 0.9851902511
O -2.5040434709 0.2114624370 2.3811666003
C -1.2700722556 -0.0966184931 3.0394974725
H 2.3652899132 -2.6012625446 1.3960866957
H 2.4272401939 -3.3381897557 -0.1968904106
H 3.8558032933 -2.5410628466 0.4320395016
H -0.1331090394 -0.1041626308 -2.3646375167
H 5.2965613467 3.9452647710 -1.2685776428
H 6.3255560505 3.2814187642 -0.0727581051
H 5.1868350915 -0.1853476469 2.3791164296
H 3.8502218039 -1.2046288239 2.0807409709
H 0.7333035690 -3.2064456541 -1.7489909052
H 0.2352270012 -2.9239005354 -0.0949586222
H -1.2027662114 -2.2711746761 -2.5584368754
H -0.7936096797 -1.2917515442 0.9205514562
H -3.3569067246 -1.4083823624 -2.5273549168
H -4.8439487386 0.1179967172 -3.3992859875
H -6.5678788345 0.1449839474 -2.9282803531
H -5.6361493346 -1.3744952552 -2.7998572771
H -3.6887595221 2.5979202704 1.3536368062
H -4.7687197024 2.5233537895 -0.0753848749
H -5.4600543311 2.7467234012 1.5596823400
H -1.1479160997 -1.1790269840 3.1648274032
H -0.4147177685 0.3099540405 2.4861447560
H -1.3327492666 0.3796395348 4.0185099701
H 1.2875583724 1.9151107353 -2.4054765472
