44
CONF27
C -4.1866688384 -1.6169109478 -1.9618593817
S -3.4334706862 -0.3994948687 -3.0639749421
O -4.2675926348 0.8143443666 -3.0793939187
O -3.1132672485 -1.0870718050 -4.3261664302
C -1.8158025582 0.0009518360 -2.2821628053
C -1.6783880276 0.8706179058 -1.1843985395
C -0.3658689382 1.1413675086 -0.7709163630
C 0.7450399863 0.5424662135 -1.3697985973
C 0.5545901249 -0.3386097744 -2.4282816848
C -0.7231020648 -0.5862046157 -2.9066997452
C 2.1431854955 0.8204822298 -0.8949693706
O 2.6525065140 1.9141936090 -0.9831961881
C 2.8243733657 -0.3860472729 -0.2429696855
C 2.4881919888 -0.2562098980 1.2632714222
O 1.5729043000 -0.8888126017 1.7347793224
C 3.3668456060 0.6939393677 2.0315232627
C 4.8548801567 0.4351113266 1.7530945483
C 5.1792919610 0.5349933446 0.2552545327
C 4.3289699704 -0.4196895598 -0.5362425743
O 4.7541621433 -1.2087230809 -1.3488711908
Cl -0.0711739327 2.2245320623 0.5823558899
C -2.8742593689 1.4200360251 -0.4356891380
O -3.4609514656 0.4205809511 0.4119048079
C -2.6518783561 0.0492998976 1.5095821812
C -3.4037127376 -1.0165993460 2.2805904565
F -3.6519335823 -2.1063477795 1.5172852718
F -4.5878865739 -0.5712205553 2.7439882827
F -2.6662685651 -1.4141654098 3.3401334741
H -5.1170531527 -1.9114518595 -2.4554454887
H -3.5099783724 -2.4699900658 -1.8773391379
H -4.3743203996 -1.1564761042 -0.9913216615
H 1.4133477248 -0.8150708416 -2.8922604610
H -0.8817975486 -1.2307934206 -3.7630216630
H 2.3623608527 -1.3059836434 -0.6063620656
H 3.1136420239 1.7114897777 1.6999671541
H 3.1227098874 0.6057983556 3.0923925038
H 5.1327593474 -0.5568560450 2.1287168401
H 5.4552200387 1.1652519909 2.3025854474
H 6.2298028683 0.3201912744 0.0477556085
H 4.9439806639 1.5484961844 -0.0974486942
H -2.5902923506 2.2959043604 0.1553248567
H -3.6600562941 1.6989822056 -1.1356697761
H -1.6862160300 -0.3810428981 1.2045020877
H -2.4668242077 0.8947420977 2.1879288490
