47
CONF79
C -5.3371963665 3.1935368216 2.3300338592
O -4.3822492914 2.8775747295 1.2857895124
C -3.1318203089 2.6752426415 1.6980566389
C -2.1291247086 2.3786521923 0.8369717781
C -2.3495046073 2.2932041146 -0.6227586140
C -2.8673844710 3.3745317592 -1.3469186421
C -3.1108094608 3.2747179494 -2.7117736894
C -2.8521445721 2.0801274791 -3.3821427401
C -2.3434081349 0.9886499451 -2.6860167105
C -2.0911472927 1.1148687502 -1.3278805895
O -1.6773047852 0.0078209896 -0.5779074851
C -0.4507174805 -0.5282429301 -0.7727031722
C -0.0847943223 -1.5521218362 0.0953753764
C 1.1894863708 -2.0539280686 -0.1055458337
N 2.0192094607 -1.6269786598 -1.0549246461
C 1.5399943209 -0.6481211316 -1.8256836103
N 0.3433147023 -0.0676384605 -1.7391324304
O 1.5855664788 -3.0720397079 0.7129713938
C 2.9314428351 -3.3858204180 0.7904564993
C 3.8647585920 -2.4707139800 1.2512673359
C 5.1874405971 -2.8723135166 1.4010704528
C 5.5760647346 -4.1794366137 1.1026158912
C 4.6414657026 -5.0962903480 0.6493381919
C 3.3044552606 -4.7002245988 0.4839485933
C 2.3289763917 -5.6151939922 0.0081379416
N 1.5424648923 -6.3677804306 -0.3885129412
C -0.8083554324 2.1500454146 1.4375328279
O -0.5737445089 2.0320253248 2.6314773218
O 0.1589474410 2.0969498117 0.4939333031
C 1.4930177674 1.8210660202 0.9778287645
H -5.0549794445 4.1282513014 2.8226135832
H -5.3813177195 2.3757027185 3.0548259131
H -6.2985147079 3.3065205197 1.8306589210
H -2.9394851833 2.7492242613 2.7677487910
H -3.0726020267 4.3019794301 -0.8221890299
H -3.5066427424 4.1280970802 -3.2527064394
H -3.0496735855 1.9933339062 -4.4456128231
H -2.1458146312 0.0461495536 -3.1842194211
H -0.7367127056 -1.9100120686 0.8818341734
H 2.2003647351 -0.2839049136 -2.6114891248
H 3.5527034262 -1.4600349849 1.4908100163
H 5.9204654893 -2.1588106611 1.7623594676
H 6.6092937199 -4.4828469803 1.2286856145
H 4.9245541138 -6.1165386444 0.4162687412
H 1.5159594784 0.8583321510 1.4962785961
H 1.8244938324 2.6125342002 1.6542685671
H 2.1210078560 1.7898537897 0.0877582682
