39
CONF20
C -1.5254118333 -3.5227143658 1.5196963406
O -2.2719945470 -2.7901839524 0.5380256155
C -1.8823853294 -1.5107308723 0.2852118840
C -0.8136146704 -0.8675020827 0.9166220700
C -0.5059644474 0.4515702015 0.5845439914
C -1.2548007048 1.1356793454 -0.3726245015
C -2.3240072154 0.4944237224 -1.0053836025
C -2.6372869616 -0.8344207926 -0.6843461892
O -3.6631587827 -1.4805200036 -1.3337441881
C -4.9375019750 -1.3077895644 -0.6787884704
O -3.1220738410 1.0696317018 -1.9463815666
C -2.8403007615 2.4296384344 -2.3053770636
C 0.6805534003 1.1257025002 1.2257207626
C 1.9787810809 0.9194388142 0.4774936207
C 2.0934899315 0.1943248189 -0.6910608286
N 3.2433806969 -0.0033865543 -1.3616183867
C 4.3276135841 0.5696486420 -0.8107641339
N 4.3585414160 1.2974769480 0.3182339191
C 3.1933849237 1.4720493123 0.9603597600
N 3.2337655552 2.1689354817 2.1273508706
N 5.5124996507 0.4421833306 -1.4902465428
H -1.5807608303 -3.0359084431 2.5001607423
H -1.9941178094 -4.5057708578 1.5708880932
H -0.4772063855 -3.6289793535 1.2173748597
H -0.2161276197 -1.3799369327 1.6611640132
H -0.9952730093 2.1587824869 -0.6172130107
H -5.6695725748 -1.8583925675 -1.2728041563
H -4.9043459204 -1.7151727228 0.3384771405
H -5.2112367574 -0.2468450335 -0.6444925236
H -3.5843732798 2.6946769195 -3.0569026563
H -2.9382486984 3.0932521278 -1.4385766393
H -1.8350524017 2.5231555936 -2.7320381053
H 0.7959261073 0.7529301435 2.2529503257
H 0.4768892313 2.2028188814 1.3070063761
H 1.2058736280 -0.2648198223 -1.1235071390
H 4.0756665505 2.6859891335 2.3292855037
H 2.3813650660 2.5323521314 2.5203453622
H 6.3542001028 0.6120085310 -0.9619976667
H 5.5616563918 -0.3078503552 -2.1621815576
