35
CONF68
C -3.0393990418 -2.8788574448 2.2761572771
C -3.5657341125 -1.5236814646 1.8738410787
O -2.4306771842 -0.5951330727 1.7184437937
P -2.0515587674 -0.0017759157 0.2937451599
S -1.9585935780 -1.2060268300 -1.2258997631
O -3.0138815416 1.2612930285 0.1815820896
C -3.2479258250 1.9609219365 -1.0921423728
C -2.0584870024 2.7983310093 -1.4985011083
O -0.6314629953 0.7378588877 0.6785129415
C 0.5509141722 0.0779624093 0.5861416029
N 0.8250106676 -1.0621429204 1.2606529941
C 2.0827995147 -1.2756856549 0.8944771587
N 2.5320971890 -0.3192913615 0.0609282546
N 1.5271003681 0.5755411091 -0.1528053310
C 3.8472515171 -0.1485097069 -0.5854272576
C 4.4998916356 1.1405316173 -0.0986490129
C 3.6879976702 -0.1993638763 -2.1008476138
Cl 3.0290918895 -2.6053003330 1.4180883373
H -2.4121614611 -3.3015816783 1.4864510228
H -3.8839064760 -3.5531013777 2.4500625880
H -2.4555220886 -2.8090353826 3.1980539554
H -4.1939694183 -1.0770135559 2.6479008913
H -4.1317845210 -1.5680160188 0.9380550720
H -3.5015032558 1.2120747182 -1.8486130992
H -4.1256590622 2.5758764021 -0.8859279264
H -1.7882326567 3.5036195635 -0.7076914068
H -2.3223529285 3.3669117620 -2.3958344729
H -1.1908413036 2.1745547571 -1.7327020729
H 4.4373547960 -1.0064357927 -0.2509763267
H 4.5840407403 1.1500125774 0.9914984297
H 5.5026430104 1.2132717840 -0.5277714516
H 3.9210059490 2.0107117616 -0.4204543040
H 3.1940585275 -1.1240328233 -2.4116559644
H 4.6780327683 -0.1588410988 -2.5624920738
H 3.1043619843 0.6543526997 -2.4562010948
