20
CONF10
C 0.2192519023 0.0613869289 -0.6537059387
O 0.8286789574 1.3176128059 -1.0262386584
C 1.8620563246 1.5786672504 -0.1442781520
O 2.5347754592 2.5802262145 -0.1910622243
C 1.9886980289 0.4633188440 0.7801012765
O 2.9536671941 0.4400452170 1.7239072078
C 1.0566316493 -0.4603481203 0.4784141759
O 0.8735098427 -1.6666817718 1.0336046161
C -1.2544244777 0.3581581682 -0.3250124958
O -1.9719234578 0.6031245388 -1.5340571553
C -1.9509894820 -0.7910724546 0.3809334340
O -1.6156337874 -2.0702058935 -0.1867058404
H 0.2623812229 -0.6019583476 -1.5283170503
H 3.4591893937 1.2610979224 1.6162632165
H 0.1421860161 -2.1176962091 0.5672909357
H -1.2781375115 1.2402895476 0.3352822089
H -1.5390429739 1.3336239945 -1.9939423208
H -3.0344171737 -0.6228515914 0.3501745453
H -1.6339580088 -0.8374841913 1.4259908373
H -1.9024989330 -2.0692529583 -1.1086429143
