51
CONF123
C 0.9680734122 -1.5544736443 0.0844706209
C 1.7964921890 -0.7591627381 -0.8900214267
C 1.3877012239 -0.6142384827 -2.2300016819
C 2.1878708715 0.0685785266 -3.1467304866
C 3.4079244476 0.6075387097 -2.7577358551
C 3.8110467451 0.4921088960 -1.4342435681
C 3.0137644100 -0.1689288482 -0.4915489078
C 3.4873340341 -0.2182256886 0.9143511160
C 4.7632318805 -0.7095728300 1.2152804609
C 5.2256635993 -0.7297283550 2.5284570634
C 4.4221454515 -0.2522858310 3.5614031992
C 3.1538378721 0.2482760685 3.2720165000
C 2.6905226996 0.2640638911 1.9604702190
C 0.0902651212 -1.2030003465 -2.7113950571
O -1.0420922931 -0.7176301337 -1.9257245456
C -1.4738155896 0.5281021186 -2.1971017454
O -1.0310187015 1.2185537334 -3.0968654127
C -2.5400230468 0.9934327999 -1.2803340807
C -2.7722107809 0.3194170214 0.0814696324
C -3.8390567986 0.2567148816 -0.9974929689
C -4.1038777164 -1.0989324643 -1.6118607031
C -5.0798626237 1.1168265735 -0.8901949191
C -2.8898403285 1.1973047390 1.2439977529
C -2.5180846917 0.9755994871 2.5103289753
C -1.8946156111 -0.2531529539 3.1078497770
F -2.5057953481 -0.6190120221 4.2592703245
F -0.5845399255 -0.0516703476 3.4122266061
F -1.9495818403 -1.3181127647 2.2826901015
Cl -2.6883983054 2.2522337447 3.7105220783
H 0.4392109114 -2.3699386803 -0.4147987473
H 0.2092796371 -0.9299903533 0.5670921278
H 1.5936454831 -1.9775552549 0.8728809049
H 1.8447731161 0.1775348284 -4.1714637727
H 4.0298415660 1.1327428791 -3.4755943113
H 4.7465407087 0.9381237516 -1.1094425899
H 5.3896656206 -1.0898322444 0.4133875804
H 6.2145728592 -1.1223434209 2.7449162226
H 4.7824725258 -0.2674975703 4.5852258605
H 2.5245895035 0.6326176704 4.0691448658
H 1.7068026842 0.6674117456 1.7405483004
H 0.0538025362 -2.2863560080 -2.5728925562
H -0.0750959252 -0.9677429718 -3.7647247230
H -2.6346755996 2.0745453061 -1.3033471591
H -2.2246264354 -0.6036681917 0.2025353593
H -4.4616485975 -0.9804806772 -2.6407953716
H -3.2167729597 -1.7331652027 -1.6226335169
H -4.8867190966 -1.6070663895 -1.0389067622
H -5.5427668538 1.2114219397 -1.8778574988
H -4.8689545861 2.1222029471 -0.5212066613
H -5.8051273744 0.6442500328 -0.2189150509
H -3.3118694715 2.1807082367 1.0532947219
