38
CONF3
C -4.8560183921 0.2129071855 2.7701784856
C -4.6515510767 0.4087672435 1.2923486527
C -5.6662652474 0.9305676263 0.4885446240
C -5.4623559609 1.0849308492 -0.8817195505
C -4.2554295870 0.7241751439 -1.4618179332
C -3.2299451699 0.2007348317 -0.6612987595
C -3.4305677586 0.0470872414 0.7126144148
N -2.0317519948 -0.1360260458 -1.3176216817
C -0.9096237250 -0.6868256308 -0.7855456688
O -0.7050172627 -0.9920490476 0.3723258054
O 0.0085343904 -0.8681873455 -1.7998005366
C 1.2601990851 -1.3695222132 -1.4231347770
C 1.5445983940 -2.6975015458 -1.6935923867
C 2.8200928681 -3.1638401421 -1.3785888272
C 3.7648671926 -2.3228473946 -0.8100071827
C 3.4511934582 -0.9803388131 -0.5441480935
C 2.1777883793 -0.4948152833 -0.8594955396
N 4.4584156660 -0.1940082372 0.0275346751
C 4.3951999176 1.1225231998 0.3950366159
O 3.4332850685 1.8633701328 0.2841563750
O 5.5899014538 1.4940634497 0.9150055058
C 5.6624643151 2.8715045380 1.3511083136
H -4.9667162453 -0.8517175706 3.0065807964
H -5.7539071591 0.7301166520 3.1164759821
H -3.9972714324 0.5823659654 3.3390486036
H -6.6142233349 1.2170912282 0.9341974187
H -6.2516011207 1.4925166137 -1.5059760684
H -4.0987936752 0.8471137177 -2.5296187034
H -2.6410795638 -0.3521279028 1.3346218342
H -2.0053834836 0.0392284693 -2.3127611578
H 0.7923638663 -3.3402790880 -2.1365155257
H 3.0797479428 -4.1982238497 -1.5785347810
H 4.7544897929 -2.6996416471 -0.5691812843
H 1.9022392425 0.5330015805 -0.6730989700
H 5.3411422270 -0.6549703898 0.1990624599
H 5.4847986840 3.5461735993 0.5102512355
H 4.9309787191 3.0589083348 2.1408879722
H 6.6752023204 2.9957743275 1.7324786836
