82
CONF14
C -4.2636194239 3.1102602471 -0.7748559263
C -4.2269674252 2.0146915905 -1.8042355822
C -4.2291228076 2.2918927223 -3.1130700506
C -4.2514684295 0.5887197670 -1.3074404509
C -5.6635409749 0.2265415827 -0.7167654851
C -5.4151254211 -0.3794197844 0.6814832032
C -3.9783540084 -0.9145159712 0.6056681307
C -3.2856510611 0.2450479002 -0.1493750490
C -1.8192573955 -0.0569639207 -0.4542236589
C -1.1264104023 1.0146396117 -1.2981712453
C 0.3403914983 0.6767744660 -1.5923141416
C 1.1424230522 0.2965051498 -0.3372511719
C 2.6841602659 0.1203608902 -0.5990069896
C 3.2251713347 1.4652543042 -1.1374434496
C 4.7498173585 1.5511613773 -1.1103629233
C 5.2982278588 1.3254494221 0.2892264823
C 4.8919345760 -0.0353810028 0.8883751506
C 3.3358341752 -0.1270398466 0.7968272900
C 2.7486428953 -1.3812591434 1.4464162698
C 1.2516641940 -1.2083507428 1.7079668171
C 0.4302482324 -0.8507688335 0.4515768443
C -1.0222974927 -0.3287210067 0.8640485334
C -1.7603022535 -1.3681880859 1.7526766366
C -3.2649055808 -1.1054535791 1.9447918853
C -0.9486924792 0.9642241203 1.7108216616
C 0.3253043354 -2.1371579306 -0.3985396325
C 5.6302645527 -1.1956248955 0.2036944242
C 5.3065965810 -0.0270996342 2.3730745121
O 6.7369204753 1.4220595223 0.2960045112
C 2.9940613932 -0.9712066424 -1.6458176515
C -3.9645002292 -2.2165064739 -0.2069931257
O -4.7257014214 -3.2102572715 0.5063824147
H -3.3030809151 3.1855343130 -0.2511098128
H -4.4749164197 4.0777329474 -1.2369304578
H -5.0221383159 2.9139675191 -0.0076305194
H -4.2645696634 3.3159523533 -3.4754561595
H -4.1870363356 1.4991794255 -3.8560382364
H -4.0406070486 -0.0633357327 -2.1636670715
H -6.3099231546 1.1074891002 -0.6639179459
H -6.1628897484 -0.4892683965 -1.3768651514
H -5.4548805165 0.4052952681 1.4470717554
H -6.1483858301 -1.1458074979 0.9478792194
H -3.3269891447 1.0940017739 0.5457713131
H -1.8049633544 -0.9797626653 -1.0467799384
H -1.6630598300 1.1281712293 -2.2460530809
H -1.1913672862 1.9882283213 -0.7968901505
H 0.8012025439 1.5402947068 -2.0821430397
H 0.3677201882 -0.1372561894 -2.3254409011
H 1.1119115788 1.1694041481 0.3272126774
H 2.8136535756 2.2829902740 -0.5278344419
H 2.8793266360 1.6277809867 -2.1637577570
H 5.2020630557 0.8258412299 -1.7966434290
H 5.0633481985 2.5443823685 -1.4587224300
H 4.8823425459 2.1038291407 0.9539780723
H 2.9852243467 0.7218756314 1.4105087760
H 3.2379575567 -1.5813394901 2.4045097806
H 2.9364191101 -2.2632967054 0.8248435497
H 1.1467894695 -0.4233094206 2.4644441701
H 0.8494160800 -2.1278381642 2.1509699034
H -1.6408918919 -2.3761164937 1.3470719004
H -1.2823951090 -1.3841235707 2.7393616035
H -3.7051424052 -1.9382579378 2.5049798169
H -3.4245103947 -0.2032820986 2.5482924841
H -0.3197894562 0.8191353365 2.5920326748
H -1.9402604003 1.2345361229 2.0803748980
H -0.5668903925 1.8301214967 1.1695793098
H -0.0056761435 -1.9566995300 -1.4222511779
H -0.3669977990 -2.8535425035 0.0501895359
H 1.2926657267 -2.6364693896 -0.4578806764
H 5.2253432042 -2.1543370346 0.5421809321
H 5.5585471854 -1.1653595074 -0.8844769812
H 6.6910275330 -1.1686233079 0.4692113205
H 5.1979749983 -1.0146979741 2.8298736229
H 4.7014109298 0.6852545218 2.9462780676
H 6.3570696056 0.2628424355 2.4633264971
H 6.9644744485 2.2976678488 -0.0401339009
H 3.9130194538 -0.7484046497 -2.1931446194
H 3.1157025630 -1.9647696353 -1.2120545909
H 2.1942806680 -1.0306452055 -2.3880788703
H -4.4036064212 -2.0526548504 -1.2002623775
H -2.9390106522 -2.5764246503 -0.3522754097
H -4.6846609320 -4.0255537005 -0.0066707487
