40
CONF27
C -3.8929737131 0.9637188878 4.0114131795
N -3.6869352718 0.9158943707 2.5585521798
C -3.8503533676 -0.4497154338 2.0452466541
C -3.7356043918 -0.5125471565 0.5248946388
C -2.3885006317 -0.0541648939 -0.0315311238
O -1.3965736958 -0.9087593356 0.5807343285
C -0.0820038007 -0.5920899888 0.4583209526
C 0.4100935097 0.5350493822 -0.2091443495
C 1.7816301558 0.7565625302 -0.2543167200
C 2.6643057406 -0.1303626648 0.3573642129
C 2.1700903787 -1.2586290430 1.0168961209
C 0.8065023447 -1.4866469731 1.0690969870
C 4.1352959314 0.0953797675 0.2480653624
F 4.4606489445 1.4134418316 0.2616788596
F 4.6516546251 -0.4057076402 -0.9145222952
F 4.8285002739 -0.4946437986 1.2525941166
C -2.3617922498 -0.1538065450 -1.5399114228
C -2.7167342477 0.9538084604 -2.3112266346
C -2.7544717469 0.8628106495 -3.7000464785
C -2.4291292404 -0.3369541405 -4.3294948158
C -2.0700501590 -1.4438213932 -3.5629748665
C -2.0399832309 -1.3548465019 -2.1737378368
H -3.2624192604 0.2484177191 4.5684381560
H -4.9402107307 0.7337900804 4.2390143712
H -3.6799489861 1.9715128993 4.3811244040
H -4.8554933393 -0.7924856264 2.3231420718
H -3.1366668336 -1.1567353087 2.5045504690
H -3.9107351064 -1.5419844882 0.1894935090
H -4.5065124436 0.1175645896 0.0670734337
H -2.1967531512 0.9859440875 0.2651471922
H -0.2536138926 1.2341624061 -0.7008847856
H 2.1588495392 1.6310273001 -0.7741546332
H 2.8490113874 -1.9574025865 1.4931117036
H 0.4070601473 -2.3546618648 1.5826716275
H -2.9604562162 1.8930943354 -1.8205429854
H -3.0301076668 1.7309851000 -4.2907649260
H -2.4510702528 -0.4077941333 -5.4124474758
H -1.8123109759 -2.3802671948 -4.0482232777
H -1.7577163487 -2.2178248781 -1.5783106122
H -2.7338632589 1.2168276757 2.3757489092
