48
CONF25
C -3.6785661754 1.0178197997 -0.7019437766
Si -2.0504248879 1.4601680109 0.0637743769
O -2.1151259406 2.8881245046 0.8994952112
O -1.5289944179 0.3012485387 1.0951617911
Si -1.5473697100 -1.2960217188 1.5119403628
C -3.0386202265 -2.1541180093 0.7962659093
C -1.5020479557 -1.4021014566 3.3671663570
O -0.1693450632 -1.9978271646 0.9387618718
Si 0.6866040655 -2.1115136748 -0.4682266796
C 1.6022222360 -3.7303372430 -0.4324131351
C -0.4451531381 -1.9622067032 -1.9418637128
O 1.7939096239 -0.8941183075 -0.5479837128
Si 2.4165619209 0.4029528600 0.2555390199
C 2.3457507229 0.1546892867 2.0987615971
C 4.1519564038 0.6492940413 -0.3728988603
O 1.5244770673 1.7495154013 -0.0952568969
Si 0.5731911883 2.2974372058 -1.3262478709
C 0.5422445178 4.1549993022 -1.2232020341
C 1.1862066115 1.6792820682 -2.9718654071
O -0.9597696764 1.7041275819 -1.1284553310
H -4.0361615559 1.8409846092 -1.3291947471
H -4.4335238759 0.8171634136 0.0652489936
H -3.5866013300 0.1253279661 -1.3292001723
H -2.6336348083 2.8918760299 1.7122136953
H -3.0401230674 -3.2081377077 1.0961135391
H -3.9655183851 -1.6964254267 1.1584295376
H -3.0416651248 -2.1131679398 -0.2974951690
H -2.4003750888 -0.9506768535 3.8019879196
H -1.4545123660 -2.4466984373 3.6930232357
H -0.6283527720 -0.8786549075 3.7698840104
H 2.2293479318 -3.8430903473 -1.3232424366
H 0.9041197610 -4.5737286481 -0.3977351369
H 2.2498865183 -3.7864406584 0.4496903844
H -1.1761140798 -2.7776532111 -1.9592693043
H 0.1328263984 -2.0035552850 -2.8718712545
H -0.9887331012 -1.0106695705 -1.9262837696
H 1.3067641181 0.0975462093 2.4384551990
H 2.8534218965 -0.7707050850 2.3916113238
H 2.8298719236 0.9894773235 2.6174074250
H 4.7823672946 -0.2126801109 -0.1283203306
H 4.1521439843 0.7721041788 -1.4618307226
H 4.6066877823 1.5414341510 0.0708056354
H 1.5370128280 4.5693579515 -1.4206386715
H 0.2263316323 4.4831928395 -0.2274140434
H -0.1532284836 4.5745203779 -1.9580188797
H 0.5415667376 2.0374875544 -3.7820814639
H 2.2037876957 2.0358194512 -3.1651554879
H 1.1947006401 0.5845780160 -2.9991883862
