35
CONF10
C -3.1940699529 0.1280267719 -2.5569482335
C -3.6852877209 -0.1472033768 -1.1537523611
O -2.5596770884 -0.2664558487 -0.2237169294
C -1.9399021537 -1.4261167156 -0.1715494131
N -2.2949549306 -2.4876314756 -0.8469847959
C -1.5772151820 -3.6070273169 -0.6879937302
C -0.4830634496 -3.7727950528 0.1170322412
C -0.0987932350 -2.6293050306 0.8348323457
N 0.8891717366 -2.3747349541 1.6876707543
C 0.6738947760 -1.0749068950 1.9937115008
N -0.3544544866 -0.4548611720 1.4252563410
N -0.8604085767 -1.4664927398 0.6691281694
S 1.8253212621 -0.1336886238 3.0185827392
O 2.5610124148 -1.0842291055 3.8386144491
O 1.1060392586 1.0198935580 3.5361960215
N 2.9696232654 0.4468802823 1.8596560290
C 2.5552279612 1.4566968088 0.9641456036
C 2.1365117039 1.1842020244 -0.3490921705
C 1.7329217642 2.1821686495 -1.2230885954
C 1.7305394939 3.4996500798 -0.7832929025
C 2.1662576468 3.8175346091 0.4955031608
C 2.5941784126 2.8087127702 1.3506506391
Cl 3.2474014817 3.2584211666 2.8961772380
Cl 2.1648184100 -0.4695729597 -0.9348863437
F -2.0100697330 -4.6408000393 -1.4171791203
H -2.6327131572 -0.7219121417 -2.9514464574
H -2.5626585295 1.0201966851 -2.5765872031
H -4.0556097288 0.3004763858 -3.2093086083
H -4.2497948184 0.6936716568 -0.7474188566
H -4.2851794239 -1.0586820150 -1.0963582573
H 0.0564876581 -4.7053172182 0.1973881907
H 3.4061655835 -0.3541956804 1.4088991785
H 1.4229845720 1.9243884771 -2.2283424625
H 1.4052439651 4.2888200582 -1.4522446989
H 2.2000509014 4.8461883514 0.8328410158
