29
CONF5
C -1.1714999259 2.1909038434 -2.7440728209
C 0.1447808353 1.5972871833 -2.3024658261
O -0.0635924527 0.3343398136 -1.5801341076
P -0.5060912693 0.2844693322 -0.0564831046
S -0.1677644577 1.8156819468 1.0828363776
O -2.0023800077 -0.2411741092 -0.1759050741
C -2.8261056264 -0.4601877318 1.0257321225
C -4.0410080659 0.4306132670 0.9503393028
O 0.2018274107 -1.1263077205 0.4481239694
C 1.5158811511 -1.2285588591 0.7740114579
N 2.3907323373 -0.4084260428 0.2213392097
C 3.6715563877 -0.5146410429 0.5156342250
C 4.1612583517 -1.4831835772 1.3926210041
C 3.2492357209 -2.3568039625 1.9769282781
C 1.9046592670 -2.2300511262 1.6710865027
Cl 0.7296295846 -3.2904418714 2.3856256300
Cl 5.8495924106 -1.6236059840 1.7695697797
Cl 4.7474275273 0.6244373469 -0.2542641598
H -1.7310178692 1.4821888148 -3.3606759677
H -1.7835908876 2.4771174702 -1.8832130687
H -0.9747008694 3.0893675272 -3.3375641037
H 0.7076676270 2.2752215287 -1.6540508644
H 0.7690686487 1.3086329373 -3.1499529857
H -2.2293352563 -0.2533008724 1.9196552966
H -3.0877262807 -1.5212137170 1.0095312783
H -4.6859350282 0.2306680876 1.8116814979
H -3.7492365405 1.4843024653 0.9698951713
H -4.6104874436 0.2340716608 0.0378229733
H 3.5871550175 -3.1214069203 2.6664505001
