59
CONF22
C 3.2507901969 -3.2569390875 -1.2071094584
C 2.1094907791 -2.2621963765 -1.4364413574
C 2.3298203008 -1.2334039736 -0.3209773734
C 3.8781018805 -1.1363637906 -0.1375542912
C 4.4470527848 -2.3345788958 -0.9464609837
C 4.2672935752 -1.2135934074 1.3373848987
C 3.7341188309 -0.0607001826 2.1487457811
O 3.4490336704 -0.1751130717 3.3320280628
N 3.5950826033 1.1679607859 1.4924501275
C 3.9494593959 1.3814399060 0.1547172110
O 3.8760607632 2.5016604553 -0.3297600683
C 4.4162070944 0.1954615335 -0.6501809359
C 3.0577648233 2.3252435439 2.2390032474
C 1.5808698293 2.5686373782 1.9310286351
C 0.6441687530 1.4974384301 2.4883915545
C -0.8047086926 1.7099735161 2.0487914183
N -1.0158940185 1.3862607817 0.6289001734
C -2.1939811836 2.0800114343 0.0945595392
C -2.3701989967 1.7666044049 -1.3891711867
N -2.4909598433 0.3218239547 -1.5881028946
C -1.3355272878 -0.3918697086 -1.0428454904
C -1.1749487564 -0.0605398341 0.4377915838
C -3.7096109466 -0.2840962236 -1.7178365236
N -4.7812189271 0.5099549222 -1.9611811405
C -5.9471554479 -0.1068262010 -2.1408964066
C -6.0963215332 -1.4877313551 -2.0824157426
C -4.9367411629 -2.2077844220 -1.8187536165
N -3.7487617258 -1.6367546401 -1.6327256252
H 3.4151637486 -3.9362640833 -2.0489405245
H 3.0377949919 -3.8652607841 -0.3188862942
H 2.2263182523 -1.7870441777 -2.4188065472
H 1.1150943694 -2.7174510905 -1.4004349610
H 1.8736011677 -1.5989659113 0.6071797548
H 1.8781396981 -0.2602764484 -0.5434734739
H 5.2720569405 -2.8273143549 -0.4222462635
H 4.8372319470 -1.9702791900 -1.9046944962
H 3.9078695815 -2.1322613765 1.8089958358
H 5.3623950326 -1.1976186023 1.4368997471
H 5.5157500428 0.1953478476 -0.6233840991
H 4.1198091713 0.3813750133 -1.6870301620
H 3.6524562426 3.1969067178 1.9587486038
H 3.2053278959 2.1197908223 3.3006367615
H 1.3107545695 3.5417379298 2.3611251489
H 1.4460113373 2.6530241677 0.8471577695
H 0.6867493652 1.5096555585 3.5846513263
H 0.9828145686 0.5006583531 2.1814342249
H -1.0651276833 2.7663347197 2.1951698781
H -1.4882546563 1.1218183144 2.6898778423
H -3.1188106430 1.7914193657 0.6351130917
H -2.0550893724 3.1603299353 0.2187814465
H -1.4853848908 2.1094528605 -1.9407900874
H -3.2505295202 2.2704838803 -1.7853038387
H -1.4605989496 -1.4641942426 -1.1844722381
H -0.4441036807 -0.0622620893 -1.5920342122
H -2.0605867821 -0.4393837488 0.9882867062
H -0.2945971807 -0.5803444608 0.8277526100
H -6.8042558733 0.5369439265 -2.3372094938
H -7.0543876663 -1.9707203420 -2.2269801712
H -4.9614874353 -3.2950905335 -1.7495700222
