55
CONF2
C 0.9124777103 -1.8741829764 -3.3747114563
C 1.7821541743 -2.0717211990 -2.1258872483
C 3.1141949579 -2.7256794103 -2.4894185864
N 2.0530315244 -0.7845867090 -1.5047837796
C 1.1931221555 -0.2561668013 -0.6866592979
C -0.0724510867 -0.7954459134 -0.2859346502
C -0.8745041376 -0.1485840682 0.6165872551
C -0.4582906654 1.1155160211 1.2270172934
N -1.1800648699 1.7469819890 2.1311425929
C -2.3800818544 1.2133181269 2.5073817610
C -3.1520762816 1.8838338145 3.4733282964
C -4.3775641423 1.3881522467 3.8738944793
C -4.8663408417 0.2026084036 3.3133641113
C -4.1325548617 -0.4860801551 2.3598540619
C -2.8881897263 0.0090966606 1.9541122517
N -2.1058990908 -0.6415452422 1.0080805303
C -2.5699468223 -1.8665640691 0.4269340050
C -3.2762908772 -1.8325851431 -0.7703072963
C -3.7151667835 -3.0179535821 -1.3481726258
C -3.4342652948 -4.2225208222 -0.7116633022
C -2.7268365044 -4.2664134380 0.4851890654
C -2.2901951618 -3.0756307412 1.0538524688
Cl -3.9843538028 -5.7183020183 -1.4335398769
C 0.7844613058 1.6725901013 0.8243124096
C 1.5828394637 1.0591691696 -0.1046599716
N 2.7879622967 1.5057740228 -0.5488227314
C 3.4157452652 2.7380033333 -0.3750797229
C 4.8164999454 2.7762814838 -0.4258808673
C 5.5013620221 3.9757542485 -0.3066364372
C 4.7841541525 5.1528165957 -0.1240042684
C 3.3956890020 5.1410082274 -0.0831808015
C 2.7128537193 3.9388989820 -0.2143053618
Cl 5.6435198081 6.6719076850 0.0478817723
H 1.4305064008 -1.2237887665 -4.0867590896
H -0.0444841347 -1.4071271377 -3.1222040460
H 0.7140647971 -2.8348618828 -3.8609059974
H 1.2510163990 -2.7455023767 -1.4312661715
H 2.9522361109 -3.7030425066 -2.9551383108
H 3.7320748464 -2.8632413075 -1.5976022263
H 3.6643871857 -2.0909203572 -3.1914681170
H -0.3977453048 -1.7325396247 -0.7161894675
H -2.7446871378 2.8011296774 3.8845266821
H -4.9612560810 1.9166295299 4.6197696024
H -5.8296707482 -0.1884848560 3.6230656045
H -4.5185807420 -1.4035672820 1.9308375606
H -3.4779119664 -0.8789076101 -1.2467025062
H -4.2681803326 -3.0092907084 -2.2798414998
H -2.5197524873 -5.2171999797 0.9616692383
H -1.7324123920 -3.0810175811 1.9844450839
H 1.0773305251 2.5889780801 1.3190712428
H 3.2456515329 0.8036401247 -1.1308926834
H 5.3706174859 1.8513564569 -0.5538635801
H 6.5842210176 3.9964415077 -0.3434292696
H 2.8470909662 6.0682058369 0.0348895149
H 1.6304900705 3.9453609457 -0.2312956260
