71
CONF295
C 4.4195076787 -1.8430460446 -0.5181714219
C 5.7488984333 -1.7082109843 0.1698236664
C 5.8304668831 -1.1955267796 1.4765420654
C 7.0617127046 -1.0502228901 2.1367698437
C 8.2164505312 -1.4686437445 1.4684573570
C 8.1544451764 -1.9905625371 0.1821499629
C 6.9274058927 -2.0988875351 -0.4655112287
C 7.1620027519 -0.4342106293 3.5020476533
N 4.6299607030 -0.7781568883 2.1070762666
C 4.1228216705 -1.2884830911 3.2576629793
O 4.6525108220 -2.1753093058 3.9259380966
C 2.8294246664 -0.6146218258 3.7147629223
N 2.0805471508 -0.0051124499 2.6225515847
C 1.2718448753 -1.0047673876 1.9135268429
C 0.5737585057 -0.3715090330 0.7219925429
N -0.2913111485 0.7299144274 1.1588897792
C 0.5226101379 1.7218719386 1.8713916616
C 1.2173606609 1.0935982074 3.0689800451
C -0.9792600134 1.3619346403 0.0258997987
C -2.0602278218 0.4832768327 -0.5981109863
C -2.8375299083 1.2449017412 -1.6705090191
C -3.9444499513 0.4062124150 -2.3330774710
C -5.0185217223 -0.0837286115 -1.3752764048
C -5.6662029228 -1.2933371106 -1.6462046164
C -6.6924367224 -1.7677981653 -0.8347066997
C -7.0608346637 -1.0063894350 0.2610375595
C -6.4473891744 0.1936086251 0.5730038120
C -5.4227765563 0.6472930488 -0.2550898937
F -8.0593121723 -1.4589870736 1.0659747267
C -4.5619852055 1.1683896732 -3.4951939900
C -5.3972896457 2.2681159901 -3.2752086196
C -5.9343416305 2.9890051066 -4.3371044831
C -5.6234951924 2.5870702441 -5.6257812992
C -4.8038462249 1.5054631776 -5.8917461400
C -4.2750744576 0.8008963707 -4.8114726977
F -6.1506927534 3.2813486115 -6.6700267113
H 3.9234295393 -0.8725917776 -0.6391737692
H 4.5438282949 -2.2836115786 -1.5096150554
H 3.7403432372 -2.4779852730 0.0612477333
H 9.1767971653 -1.3624176488 1.9652346405
H 9.0638789449 -2.3035406091 -0.3215498775
H 6.8767681000 -2.4996885120 -1.4738796662
H 6.9052202760 -1.1606443910 4.2798348551
H 6.4679807265 0.4054584499 3.6092855876
H 8.1781281240 -0.0761754356 3.6832004389
H 3.9958989417 -0.1501326387 1.6190196853
H 2.2489018126 -1.3622176889 4.2808996564
H 3.1299860572 0.1658904821 4.4267724264
H 1.9262606374 -1.8120979040 1.5640111882
H 0.5179691030 -1.4506666276 2.5901319236
H -0.0296710934 -1.1370632985 0.2245042490
H 1.3366960238 -0.0181432635 -0.0022826985
H 1.2879761153 2.1679294599 1.2042118243
H -0.1307824798 2.5307178177 2.2186922873
H 0.4569932060 0.7409599978 3.7917832724
H 1.8350545033 1.8491585116 3.5675399777
H -0.2555372024 1.6734437798 -0.7548896113
H -1.4522126161 2.2787550333 0.4019539736
H -1.6209472986 -0.4116696797 -1.0552092917
H -2.7371700630 0.1401768324 0.1932906297
H -3.2666221672 2.1636516807 -1.2497466980
H -2.1487605866 1.5671171233 -2.4615427803
H -3.4670425820 -0.4859653761 -2.7572309670
H -5.3646680950 -1.8766433873 -2.5122510596
H -7.1940633854 -2.7069945764 -1.0416353594
H -6.7615675574 0.7557619244 1.4458425574
H -4.9344815428 1.5838985467 -0.0060143589
H -5.6424071160 2.5672273416 -2.2604875216
H -6.5845796835 3.8418166119 -4.1742009524
H -4.5881665366 1.2219079849 -6.9162861260
H -3.6281823820 -0.0510112647 -5.0012900570
