41
CONF159
C 6.5699600293 -0.2528422278 1.6624829128
C 5.2137433527 -0.7098694621 1.1670219085
O 4.1509573416 -0.2449486364 2.0439728459
C 3.7240896010 1.0317208674 1.8382976834
O 4.1029375175 1.7460856677 0.9208938539
N 2.8438559358 1.3883132738 2.8079844976
C 2.0489800788 2.6014228876 2.7275772289
C 0.6304916686 2.3444194075 2.2513168572
O 0.7109845797 1.8481155646 0.9089288032
C -0.4448737984 1.4523977261 0.3016400407
C -0.2954822510 0.9013136831 -0.9776764552
C -1.4062686676 0.4699973652 -1.6845125261
C -2.6704092706 0.5829934705 -1.1104374016
C -2.8302580039 1.1283464612 0.1522252169
C -1.7164100989 1.5725236126 0.8668139798
O -3.8012186518 0.2094713969 -1.8341400252
C -4.0461589338 -1.1366507629 -2.0071299539
C -5.0386937826 -1.4609104958 -2.9331318601
C -5.3659965497 -2.7947305179 -3.1450379491
C -4.7095397712 -3.8066866603 -2.4439897967
C -3.7225314930 -3.4677427681 -1.5227425192
C -3.3826180594 -2.1350689760 -1.2950082578
H 6.6471615554 0.8375202750 1.6406007280
H 7.3509576724 -0.6663824867 1.0163526188
H 6.7469528332 -0.6024704508 2.6837860426
H 5.1249632686 -1.7982644480 1.1980187838
H 5.0151181479 -0.3616568871 0.1500375999
H 2.5581760721 0.6719236145 3.4593357778
H 2.5535846114 3.2938132142 2.0491113635
H 1.9957003159 3.0707553950 3.7165912524
H 0.1349172890 1.6038810949 2.8946087043
H 0.0565369717 3.2810780934 2.2798470002
H 0.6995225638 0.8234576238 -1.4037640898
H -1.2997207749 0.0425147078 -2.6765685607
H -3.8244406775 1.2102432866 0.5794808421
H -1.8591339469 2.0051398995 1.8492162952
H -5.5401041424 -0.6642682164 -3.4730820115
H -6.1379277648 -3.0440390254 -3.8667068788
H -4.9661369572 -4.8468882631 -2.6145729834
H -3.2064666144 -4.2449494019 -0.9672051611
H -2.6152002120 -1.8790787754 -0.5732778978
