43
CONF8
C -0.2612264602 3.1693661081 1.6483897692
C -0.5654725338 2.1370274719 0.5625075210
C 0.0451982326 2.5494300041 -0.7756241548
C -0.0448659172 0.7582735441 1.0297287613
C -0.2413937274 -0.3642558265 0.0464554182
C 0.8580380152 -1.0544435854 -0.5046898795
C 0.6125417131 -2.0647906910 -1.4403215016
N -0.6050994885 -2.4349142657 -1.8184267273
C -1.6482187848 -1.7989195910 -1.2956231600
C -1.5232116715 -0.7564870073 -0.3752860073
C -2.7553681720 -0.0440623456 0.1026407997
O -3.4808034794 0.5908978776 -0.6329602712
O -2.9330245229 -0.2003247163 1.4145831615
C -4.0826499987 0.4927019754 1.9783704506
C -2.9781008131 -2.3398705503 -1.7735185996
F -3.4778126291 -1.5536960744 -2.7873328129
F -3.9045443312 -2.3214573222 -0.7575189570
C 1.7223317859 -2.8289488667 -2.1543846302
F 2.8306622845 -2.9779811563 -1.4007009974
F 1.3224771941 -4.0604253194 -2.5178488093
F 2.0885334697 -2.1775597632 -3.2879176293
C 2.2345805740 -0.7105899279 -0.0661233278
N 2.7193172420 -1.0957035729 1.0431736256
C 4.0439549028 -0.5125163135 1.2897934885
C 4.6787257170 -0.0738126756 -0.0395823946
S 3.2400372681 0.3378654226 -1.1159780899
H -0.6496880136 4.1519398109 1.3629006853
H -0.7138374037 2.8854474181 2.6042932912
H 0.8213761699 3.2615417971 1.7957873201
H -1.6543793997 2.0896448037 0.4451499409
H -0.3405654044 3.5254396832 -1.0861919263
H -0.1846357705 1.8280711510 -1.5677639061
H 1.1352634114 2.6232499717 -0.6910282381
H -0.5447343454 0.4910158375 1.9675358440
H 1.0194038858 0.8583690888 1.2545037154
H -3.9818037084 1.5674936275 1.8106336252
H -4.9999558463 0.1226516407 1.5157773587
H -4.0607074358 0.2606834809 3.0414926821
H -2.8839024354 -3.3641451328 -2.1457021882
H 3.9022430969 0.3480390256 1.9595654943
H 4.6836810930 -1.2355818073 1.8044777923
H 5.2402426455 -0.8827666777 -0.5148600709
H 5.3173935699 0.8041029670 0.0716238199
