50
CONF46
C 2.4941769902 -0.0963984007 -2.7027813656
C 2.3556703899 -0.4054190600 -1.2305044085
C 1.2840618326 -1.1964612071 -0.8145413196
C 1.2020515648 -1.6222185525 0.5226705753
C 2.1735732733 -1.3045667649 1.4397007641
C 3.2635256987 -0.4916283048 1.0688919038
C 3.3179332733 0.0172438357 -0.2659528131
C 4.3738970212 0.9863781714 -0.4713896751
N 5.3242651368 1.1904355133 0.4337981187
C 5.2296919623 0.5255857866 1.6107560903
N 4.2211426373 -0.2367260747 2.0062700108
N 6.2977039306 0.6727630143 2.4574425326
N 4.4548148813 1.7615367721 -1.5850777426
C 0.2042033916 -1.6130566403 -1.8062358601
N -0.9898016410 -2.1585361290 -1.1850288055
C -1.9558556340 -1.3288121365 -0.6360898693
C -1.6643573332 0.0059964302 -0.3215199969
C -2.6448294818 0.8010974070 0.2776487608
C -3.9134964470 0.2860922244 0.5678223620
C -4.1966501087 -1.0481163010 0.2319848815
C -3.2286060063 -1.8569486675 -0.3594440669
O -5.4602271343 -1.4638147455 0.5305249504
C -5.7998753290 -2.8194409047 0.2188972795
O -4.8603971608 1.0650236219 1.1998317345
C -5.6934403768 1.7902516861 0.2752161495
O -2.4493700887 2.1047691179 0.6258581880
C -1.1511651487 2.6633249327 0.3919849701
H 1.9895489829 0.8382999342 -2.9844960433
H 3.5407618996 -0.0268599675 -3.0018141755
H 2.0429484340 -0.8864759084 -3.3046356544
H 0.3564205849 -2.2341311501 0.8196957132
H 6.1391992282 0.4262040666 3.4220548175
H 6.8894718480 1.4732214085 2.2990598133
H 5.1103684734 2.5272043922 -1.5339502891
H 3.6368487819 1.9198472980 -2.1466788973
H -0.0538609528 -0.7509523311 -2.4424993236
H 0.6009427620 -2.3862528709 -2.4758274198
H -1.3484545860 -2.9955245820 -1.6160910423
H -0.6813042765 0.4065372640 -0.5223197956
H -3.4387363609 -2.8885825135 -0.6141631390
H -6.8355283102 -2.9435715446 0.5370001567
H -5.1600707551 -3.5221760535 0.7656264303
H -5.7204347288 -3.0088570935 -0.8582165657
H -5.0882114865 2.4664677462 -0.3405678511
H -6.2451900589 1.0970762486 -0.3712426361
H -6.3968062448 2.3709939233 0.8761866526
H -0.9059824591 2.6612646402 -0.6768528335
H -1.2045508953 3.6909006531 0.7530503494
H -0.3800585243 2.1167964339 0.9485707398
H 2.1281607056 -1.6716503954 2.4599631402
