23
CONF10
C -4.3602479721 -0.1027745457 0.3126801266
C -3.7207762705 0.8773557476 1.0655532115
C -2.3417156099 1.0289290432 0.9909905337
C -1.6048493079 0.1962358045 0.1525060338
C -2.2333366401 -0.7861254280 -0.6087527576
C -3.6130610722 -0.9288154247 -0.5217922895
N -0.1846153325 0.3881880367 0.0646861328
C 0.6935961894 -0.7465946082 0.1224258798
O 0.2623364611 -1.8828915443 0.2234571171
C 2.0832900164 -0.3730243473 0.0613636296
C 2.5045028700 0.9342011513 -0.0070062517
C 1.4780959921 1.9286949692 -0.0152627216
N 0.2061239049 1.6625903990 0.0223776743
N 3.8125745721 1.3110142787 -0.1093882068
Cl 3.2427591145 -1.6644797707 0.1137331855
H -5.4366411429 -0.2229189979 0.3763518416
H -4.2948794626 1.5248837581 1.7201331377
H -4.1052786877 -1.6923056870 -1.1150760211
H 1.7362945165 2.9836274759 -0.0668742287
H 4.0457995039 2.2608699862 0.1256097629
H 4.5123558152 0.6190942744 0.1080423759
H -1.6511043984 -1.4309115399 -1.2529671405
H -1.8325573976 1.7888975126 1.5718164647
