46
CONF73
C -0.4369044992 2.8568257595 0.4898284096
C -1.2437244514 1.9669766409 -0.4532867156
C -2.7462599518 2.2220166450 -0.3354594475
C -3.6061520606 1.3335946004 -1.2126148380
O -3.5967738869 -0.0435486786 -0.7041823176
C -2.8319652941 -0.9479930071 -1.3237595935
O -2.1056849073 -0.7377474415 -2.2713239789
C -3.0437930086 -2.3330968479 -0.7050646058
C -4.1079642028 -3.0811284484 -1.4919649118
O -1.8374230944 -3.0957418440 -0.8039639466
C -0.7364816917 -2.6327206272 -0.1336170919
C -0.7732482132 -1.6314716888 0.8404545019
C 0.4091244649 -1.2279332892 1.4562758789
C 1.6047601290 -1.8240680361 1.0931256305
C 1.6537383016 -2.8313043639 0.1385662256
C 0.4770022299 -3.2370910081 -0.4750490974
O 2.7917438008 -1.4476866502 1.7375595257
C 3.3489466540 -0.2597644257 1.3897499334
C 4.4243971860 0.1735360695 2.1784126970
C 5.0897905665 1.3495337182 1.9307403108
C 4.6699075894 2.1396043032 0.8473049752
C 3.5999205404 1.7253953005 0.0441557227
C 2.9447389652 0.5335336132 0.3152921200
C 5.3375550335 3.3608977339 0.5694433552
N 5.8811842520 4.3591797228 0.3409620377
F 4.8056842105 -0.6007953663 3.2138327834
H 0.6372109653 2.6739472002 0.3859273354
H -0.6211245341 3.9171001145 0.2837818309
H -0.7104973967 2.6659272059 1.5335917152
H -0.9305154539 2.1363180330 -1.4912287336
H -1.0280235202 0.9154480277 -0.2310158294
H -3.0674811145 2.1098220247 0.7083303776
H -2.9649460656 3.2597488452 -0.6209251846
H -4.6566056340 1.6288400896 -1.1674591313
H -3.2664424391 1.3287874285 -2.2512720559
H -3.3527244389 -2.2301035050 0.3414399889
H -5.0541178029 -2.5360972936 -1.4452131348
H -3.8037797441 -3.1836935588 -2.5371573125
H -4.2519194212 -4.0734329415 -1.0576512013
H -1.7010553743 -1.1583024367 1.1379106358
H 0.3965052695 -0.4473606986 2.2104051375
H 2.6041290777 -3.2831004709 -0.1252128054
H 0.4859273274 -4.0153261892 -1.2307169312
H 5.9143237422 1.6496079966 2.5671730920
H 3.2829418234 2.3374181922 -0.7923252044
H 2.1160763527 0.2154494517 -0.3067774599
