42
CONF11
C 1.6101859048 2.4863217162 0.7748128031
C 1.6561409172 1.4278184238 1.6773322396
C 0.7236335309 0.3989561517 1.5938540721
C -0.2651243746 0.4169304944 0.6094921931
C -0.3127627848 1.4919766668 -0.2848035665
C 0.6191577668 2.5198490450 -0.2028973350
C -1.2485473296 -0.7240239641 0.4723209121
C -2.6637820208 -0.4306513059 0.9280797830
C -3.0634884196 0.8266764602 1.3764252098
C -4.3718026567 1.0427226301 1.8046735857
C -5.2947614354 0.0045959495 1.7905002236
C -4.9010813510 -1.2570572092 1.3498162071
C -3.5975517944 -1.4714465126 0.9239601349
C -1.1887542403 -1.2239506422 -0.9833556870
O -2.1414568255 -1.2885341777 -1.7168959298
C 0.2039581900 -1.6174692812 -1.5096753426
C 1.2739279967 -2.0081876902 -0.4871053341
O 1.1538589407 -2.8476894184 0.3818876188
C 2.4834769235 -1.1980649001 -0.7609578175
C 3.7150717308 -1.2341225035 -0.1175459555
C 4.6980278682 -0.3520238608 -0.5517856063
C 4.4520556253 0.5448496972 -1.6008991900
C 3.2186767871 0.5772576843 -2.2423891028
C 2.2408467138 -0.3097373405 -1.8082884912
C 0.8641445153 -0.4845028266 -2.3345900220
O 0.3635043578 0.1171131940 -3.2537986683
H 2.3443646039 3.2834381947 0.8330268149
H 2.4248922263 1.3981410643 2.4429208119
H 0.7719275068 -0.4379870920 2.2847837103
H -1.0793514040 1.5125677913 -1.0549484577
H 0.5769582710 3.3415882074 -0.9104760055
H -0.8647170607 -1.5629132838 1.0703363066
H -2.3505850647 1.6434658766 1.4009215431
H -4.6652293822 2.0282058417 2.1524307375
H -6.3138340511 0.1733597550 2.1232433239
H -5.6133157835 -2.0758963567 1.3361678515
H -3.2997753670 -2.4565356189 0.5773188867
H 0.0277521233 -2.4602792786 -2.1895277556
H 3.8886773250 -1.9294826314 0.6970176487
H 5.6723856973 -0.3528092024 -0.0736303513
H 5.2400661119 1.2221017638 -1.9144528122
H 3.0122310079 1.2654281924 -3.0552471981
