65
CONF314
C -3.5657013699 2.6185733286 -3.3164785463
C -2.9006855096 1.2902237151 -3.6703923649
C -2.4384159201 0.5076682353 -2.4366903737
C -1.8341624545 -0.8527908519 -2.8172282143
C -1.3887209505 1.2867014895 -1.6730184545
O -0.4251260861 1.8286589989 -2.1831811225
O -1.6248573818 1.2662515457 -0.3483726990
C -0.6566189857 1.9250872819 0.5297173755
C -1.0658975019 3.3742385604 0.7318492666
C -0.0522545833 4.0965264883 1.6323076822
C 0.3111519098 3.2466877047 2.8136824426
C 0.0480354649 1.9303242288 2.9220262770
C -0.6716612831 1.1515816754 1.8372794625
C -0.0861732264 -0.2750233525 1.7247787732
C -0.3364147027 -0.9813276564 3.0749238486
C 0.2389620156 -0.1591201658 4.1973905728
C 0.4272755852 1.1681715732 4.1017439725
C 0.1507978386 -2.4315473411 3.1198351110
C 1.4025378373 -0.2468718002 1.3046862500
C 1.6651765361 -0.6840221634 -0.1410627369
C 1.4425268642 -2.1603464446 -0.4125398600
C 1.6545774766 -2.5441230050 -1.8620335844
C 1.5087238876 -4.0492229836 -2.0061602151
C 2.5782200880 -4.7261190483 -1.1673956453
C 2.8080404293 -4.1301648351 0.2010717259
O 3.4424269502 -4.7155603245 1.0591506241
O 2.3709226116 -2.8895276613 0.4718176074
O 1.7000518232 -4.4999272525 -3.3524129575
C 1.2079073315 4.5312303580 0.8624846436
H -4.4336253134 2.4593389317 -2.6674680890
H -2.8698298132 3.2827599623 -2.7914019131
H -3.9069318692 3.1394872707 -4.2159747333
H -3.6032415746 0.6557826101 -4.2234493180
H -2.0378483026 1.4587517393 -4.3255979920
H -3.2916605970 0.3456966544 -1.7690169824
H -1.5024490541 -1.4031982711 -1.9305354780
H -2.5833490113 -1.4565319906 -3.3376229884
H -0.9763896767 -0.7134486916 -3.4827903127
H 0.3255596999 1.8704033192 0.0522289674
H -1.1401818763 3.8794823511 -0.2371201706
H -2.0577035638 3.3896948980 1.2000232356
H -0.5295530820 5.0120986562 2.0089683060
H 0.8371202424 3.7423273275 3.6298044777
H -1.7250783622 1.0500649065 2.1431913705
H -0.6662336676 -0.8107710752 0.9622402507
H -1.4303504760 -1.0133952518 3.2088371981
H 0.5153057761 -0.6783382673 5.1136599377
H 0.8719869048 1.7196837019 4.9281320841
H -0.2680892288 -3.0049234310 2.2859799775
H 1.2410870437 -2.5000507314 3.0640162415
H -0.1664964543 -2.9057201874 4.0543991465
H 1.7953938718 0.7697993031 1.4266483047
H 2.0012604002 -0.8707743734 1.9738339061
H 1.0115327226 -0.1341832133 -0.8302788385
H 2.6971368880 -0.4385461582 -0.4217653779
H 0.4362150208 -2.4633010184 -0.0935661897
H 2.6512584199 -2.2300394442 -2.1987988178
H 0.9054211057 -2.0251661591 -2.4687139911
H 0.5104374334 -4.3494651834 -1.6511997234
H 3.5396942275 -4.6258066173 -1.6911869046
H 2.3928629324 -5.7959302204 -1.0416808244
H 0.9701737652 -4.1559855381 -3.8835773883
H 0.9437292436 5.2246042237 0.0572449483
H 1.7169208485 3.6664209243 0.4242803564
H 1.9152697561 5.0329477400 1.5304782623
