50
CONF26
C 4.4584972599 -2.1460897250 0.0158693076
C 3.4724426546 -1.3955792164 0.9308476534
C 4.2494861688 -0.3072268212 1.6807657454
C 2.8886266599 -2.3727225122 1.9684869842
C 2.3320928675 -0.8201316486 0.0880791945
C 2.0339005022 0.5436433732 0.0420204724
C 0.9699525652 1.0316925574 -0.7131189913
C 0.1988639752 0.1447263377 -1.4424863227
C 0.4811576122 -1.2152608494 -1.4508923633
C 1.5349135316 -1.6809378150 -0.6774248827
O -0.8725748698 0.6709279305 -2.1758834613
P -2.3574502522 0.0589635125 -1.9854919739
O -2.6328917905 -1.2223219379 -2.6514222918
O -3.2602470511 1.2654605384 -2.5118561238
C -3.1259106547 2.5758268060 -2.0261285481
C -3.8858473644 2.9709253684 -0.9352804281
C -3.7919928129 4.2890542164 -0.4990856650
C -2.9516606304 5.1880841458 -1.1498408836
C -2.2018412733 4.7689978031 -2.2455948451
C -2.2847193280 3.4542545502 -2.6932996473
O -2.6205177635 0.1215193899 -0.3905775669
C -2.1723908036 -0.8662444737 0.4978569902
C -1.4048083376 -0.4387599031 1.5722775142
C -0.9587467618 -1.3775364100 2.4947175314
C -1.2763862345 -2.7241723946 2.3373730746
C -2.0578987483 -3.1273431244 1.2587272916
C -2.5215842214 -2.1997417461 0.3298370053
H 4.8765529174 -1.4711692161 -0.7377592890
H 3.9759566762 -2.9765932879 -0.5067685298
H 5.2838166119 -2.5563368896 0.6080091706
H 4.7086454032 0.4098401919 0.9924050289
H 3.6083692026 0.2403484588 2.3792493406
H 5.0529057532 -0.7701401554 2.2620628427
H 3.6927565577 -2.8074163303 2.5723958640
H 2.3404482306 -3.1906014974 1.4922686955
H 2.1943013323 -1.8529221378 2.6359600139
H 2.6245826356 1.2529755926 0.6089880446
H 0.7257972335 2.0887187386 -0.7288742121
H -0.1312560929 -1.8934480235 -2.0354771257
H 1.7328773724 -2.7477577397 -0.6752035875
H -4.5337681075 2.2537708227 -0.4449210533
H -4.3820329075 4.6125074745 0.3521648966
H -2.8847003436 6.2149291352 -0.8065626079
H -1.5496397070 5.4676299629 -2.7594540207
H -1.7113898648 3.1042461015 -3.5438641950
H -1.1526746871 0.6118441034 1.6608630933
H -0.3556920681 -1.0529059363 3.3364179918
H -0.9197563401 -3.4550415702 3.0553407679
H -2.3166243899 -4.1740318343 1.1352488734
H -3.1219419154 -2.4984542222 -0.5209660744
