52
CONF101
C 2.0755767844 -2.3200672435 -0.2839698647
N 2.6095654496 -1.1332879263 0.3908371534
C 3.9574907493 -1.4589315981 0.8921917084
C 4.6184180955 -0.2722291070 1.5771655489
C 3.7500105627 0.2059689543 2.7361310924
C 2.3435623944 0.5031457754 2.2245993110
C 1.7323882223 -0.7027245194 1.4997932822
C 0.3021472264 -0.3980106570 1.0222787132
C 0.2361918991 0.5730925769 -0.1692284514
N -1.0931777866 1.1516061605 -0.4316929574
C -1.4995195193 2.2583889590 0.3399937332
C -0.7839466020 2.6659822259 1.4762088926
C -1.1827540043 3.7711696170 2.2238196520
C -2.3216846864 4.4877014083 1.8806700626
C -3.0476969348 4.0982467345 0.7582459925
C -2.6276507320 3.0211726742 -0.0157022633
S -3.4625010023 2.7161303989 -1.5532830850
C -3.1983002972 0.9691492628 -1.6800245574
C -2.0181107758 0.3946232671 -1.1638393456
C -1.7921816880 -0.9598171192 -1.4474015348
C -2.7035652717 -1.6812122627 -2.2017450081
C -3.8906149979 -1.1328325260 -2.6636575702
C -4.1270682267 0.2107097207 -2.3878892676
S -2.3282476325 -3.4353314105 -2.5230305135
O -1.1479839791 -3.8071969851 -1.6205522321
C -1.6149555980 -3.1921233690 -4.1982462649
H 1.1460752473 -2.0984369014 -0.8133840364
H 2.7999492266 -2.6658413112 -1.0281006239
H 1.8797547095 -3.1535315265 0.4175948305
H 4.5608361928 -1.7910090608 0.0391662112
H 3.9080401308 -2.3065336993 1.6077885231
H 4.7523875862 0.5405705349 0.8513389981
H 5.6139730931 -0.5683399738 1.9269533887
H 4.1800821113 1.0950167386 3.2107817028
H 3.7015378505 -0.5806209777 3.5018636289
H 1.6833355921 0.7784568083 3.0556646526
H 2.3912145687 1.3606792374 1.5407100951
H 1.6500486951 -1.5267224521 2.2418926598
H -0.2140281188 -1.3312506757 0.7803931269
H -0.2451257299 0.0212054519 1.8729169244
H 0.9215257718 1.4116148857 -0.0230179253
H 0.5636359885 0.0792483176 -1.0883172844
H 0.0994213022 2.1297849824 1.7913141098
H -0.5931495311 4.0580638120 3.0886300921
H -2.6433174590 5.3410610226 2.4676310479
H -3.9317743987 4.6516363775 0.4561622995
H -0.9144957537 -1.4812281354 -1.0927186952
H -4.6100689149 -1.7191309185 -3.2261725745
H -5.0342998329 0.6871478122 -2.7466048401
H -2.3914447633 -2.7921984146 -4.8558433996
H -0.7739138124 -2.4991380936 -4.1111263373
H -1.2855923797 -4.1738259261 -4.5471881874
