41
CONF16
C -5.3300100730 0.6428963710 0.7645269404
C -5.1443949900 -0.0641138022 -0.4211475710
C -4.1756000253 -1.0578006421 -0.4975894553
C -3.3784887949 -1.3619445694 0.6100025013
C -3.5751049334 -0.6496157221 1.7958975818
C -4.5451404894 0.3469941077 1.8737311572
C -2.2881192035 -2.3963520719 0.5007531414
C -1.0814678820 -1.8606929509 -0.2794727511
N -0.5871046672 -0.6378094619 0.3576347701
C 0.6087480731 -0.0732397183 0.0006642098
C 1.5837413029 -0.7535037480 -0.7513737486
C 2.8068243621 -0.1696717301 -1.0428647668
C 3.1086931448 1.1133354405 -0.6048240143
C 2.1496741416 1.8159058164 0.1555875137
C 0.9334852736 1.2215712720 0.4449345322
C 2.3527386191 3.2253206448 0.6802167129
F 3.5776024265 3.3886346126 1.2422479542
F 1.4573293700 3.5153006165 1.6569003996
F 2.2003644743 4.1528226540 -0.2742323935
S 4.7304523580 1.7507312187 -1.1332922455
O 4.5876640154 3.1718428143 -1.4302855850
O 5.2363705083 0.7852411258 -2.1094987824
N 5.7855766443 1.6330144715 0.1825123831
S 1.2541507126 -2.4068594547 -1.3576677329
O 2.3907073348 -3.2717485690 -1.0450312368
O 0.7002801661 -2.3087786769 -2.7074815181
N -0.0320013011 -2.8745983210 -0.3344660161
H -6.0875367332 1.4172440013 0.8236495176
H -5.7587451848 0.1573250868 -1.2877581892
H -4.0388982013 -1.6090668876 -1.4242191781
H -2.9720864492 -0.8864799523 2.6689500887
H -4.6903405437 0.8871567045 2.8036682900
H -1.9565550805 -2.7038851337 1.4992671407
H -2.6423515195 -3.2868918058 -0.0267160387
H -1.3816301066 -1.6630378752 -1.3200628038
H -1.2991607743 -0.0130158256 0.7103591114
H 3.5371809368 -0.7145240112 -1.6320437115
H 0.2040030316 1.7639033998 1.0353122680
H 5.4827141690 2.2023566197 0.9658936357
H 5.9314240663 0.6640951444 0.4493957758
H 0.3450140236 -3.0920612932 0.5885615997
