30
CONF1
C 3.2942949186 4.4532298387 0.0604170763
C 1.8978487196 4.5688064442 0.0993068794
C 1.0977231467 3.4410592968 0.0713047668
C 1.6583769681 2.1505759257 0.0038470038
C 3.0733946773 2.0405142032 -0.0352106785
C 3.8710039050 3.2011014659 -0.0062296809
C 3.6775673497 0.7448015867 -0.1034978494
C 2.9363173350 -0.3893323251 -0.1317061593
C 1.5034710571 -0.3462810264 -0.0945477247
C 0.7023428448 -1.4918023896 -0.1209893279
C -0.7060339218 -1.4646633693 -0.0861489822
C -1.3314381523 -0.1640783352 -0.0193831286
C -0.5374728636 0.9863902596 0.0084912367
C 0.8481531177 0.9370270739 -0.0266225685
C -2.7562249941 -0.1309571600 0.0154409311
C -3.5241754033 -1.2620190598 -0.0111949604
C -2.8900869040 -2.5222905635 -0.0761380635
C -1.5251012589 -2.6239060687 -0.1128826327
Br -3.6677415913 1.5573659999 0.1029671337
Br 1.5616360463 -3.2117089945 -0.2091366540
H 3.9152226495 5.3429717913 0.0827946271
H 1.4373255045 5.5501620867 0.1519016668
H 0.0230470831 3.5738868664 0.1031073572
H 4.9512718634 3.0910384344 -0.0371945108
H 4.7618861703 0.6857265165 -0.1326935115
H 3.4293080949 -1.3515616259 -0.1837024357
H -1.0421166812 1.9405758770 0.0593236546
H -4.6053606327 -1.1971680641 0.0170448868
H -3.5031524665 -3.4170408025 -0.0971858744
H -1.0603433277 -3.6000052923 -0.1629833404
