52
CONF111
C 2.7827028953 -2.3026223716 -1.1533417129
N 2.7971538831 -1.3912783413 -0.0045927976
C 3.9783532942 -1.7071572487 0.8188076894
C 4.0979794064 -0.7912020521 2.0282479806
C 2.8416135758 -0.8963024017 2.8871350742
C 1.6170285838 -0.6045255109 2.0262292331
C 1.5571365060 -1.5117582647 0.7908080693
C 0.3049221459 -1.2073236386 -0.0430512812
C 0.3832642996 0.1118003792 -0.8181214724
N -0.9283851516 0.4672694283 -1.3775681264
C -0.9938164165 1.0478199656 -2.6624313334
C 0.1082967660 1.6662280531 -3.2658257092
C 0.0098578106 2.1823866115 -4.5558490085
C -1.1937461614 2.1319883425 -5.2520034724
C -2.3118704458 1.5655735860 -4.6442285101
C -2.2067345017 1.0164221321 -3.3703407791
S -3.6057003895 0.1980640039 -2.6307148433
C -3.3122873279 0.6794198317 -0.9451460148
C -1.9830517828 0.7405172246 -0.4895441830
C -1.7580315643 1.0618006524 0.8543007131
C -2.8387775307 1.2620257226 1.6989086874
C -4.1537950552 1.2184299358 1.2530283334
C -4.3814858018 0.9374161249 -0.0913575855
S -2.4945049898 1.6358397890 3.4486845904
O -0.9976728929 1.9498457172 3.5470948464
C -2.6839995505 -0.0825071817 4.0662200340
H 3.7431519800 -2.2372205616 -1.6745248231
H 2.6270325638 -3.3562300317 -0.8512070420
H 1.9984037992 -2.0341327116 -1.8657017381
H 4.8657850295 -1.6141297322 0.1815127781
H 3.9358877253 -2.7607769299 1.1669073673
H 4.2318705809 0.2447514165 1.6897924462
H 4.9907696786 -1.0679867472 2.6006182363
H 2.8871043669 -0.2058651754 3.7368506290
H 2.7669340633 -1.9132726663 3.2967564100
H 0.6941919701 -0.7482203465 2.6006215257
H 1.6436655386 0.4472156328 1.7124808955
H 1.4558453649 -2.5573580308 1.1548353461
H 0.1018750730 -2.0126593833 -0.7568955393
H -0.5423975091 -1.1943960172 0.6502440878
H 0.7959598912 0.9262034608 -0.2076786691
H 1.0644921553 -0.0204565761 -1.6587835769
H 1.0468800730 1.7510089679 -2.7310754401
H 0.8829968526 2.6417119832 -5.0081619075
H -1.2706691803 2.5392642640 -6.2544316416
H -3.2643817951 1.5304847173 -5.1640310013
H -0.7560568794 1.1461879700 1.2589373270
H -4.9854021316 1.3978054418 1.9273181458
H -5.3955563509 0.9008662067 -0.4766148330
H -2.4646570449 -0.0600762019 5.1365076851
H -3.7143012103 -0.4046411451 3.8927408913
H -1.9738752404 -0.7162474097 3.5276346434
