38
CONF9
C 1.7416978395 -3.1919198473 1.1922293685
C 1.7801335431 -2.2076989720 0.0143594692
C 1.6012536783 -0.7748512922 0.4534893657
C 0.4772185511 -0.0053441902 0.1212661077
C 0.3146714175 1.3177563440 0.5799861842
C 1.3296409865 1.8671502825 1.3607734046
C 2.4627316033 1.1254742603 1.6857911115
C 2.5929236564 -0.1799780975 1.2410403555
C -0.9309836832 2.0973025047 0.2228182551
C -0.9703681484 3.5435229636 0.7042583259
N -0.5524154962 -0.5867105852 -0.6997969983
C -1.5090505851 -1.4991194373 -0.0583142826
O -2.5873493996 -0.8479317131 0.5753223483
C -3.5879289821 -0.3828509436 -0.3369550442
C -0.6230912425 -0.3908040191 -2.0554666087
O -1.4990791909 -0.8774847724 -2.7605012278
C 0.4644282188 0.4718493553 -2.6828183159
Cl 1.8581493647 -0.5972072266 -3.1679190657
H 2.5396247941 -2.9791767563 1.9096179185
H 0.7901491827 -3.1325181139 1.7297100056
H 1.8695051279 -4.2187298966 0.8367736958
H 1.0219764123 -2.4799763639 -0.7239739619
H 2.7475819902 -2.2948838856 -0.4936447074
H 1.2401714272 2.8845585413 1.7230720588
H 3.2456889095 1.5741472184 2.2892802866
H 3.4797807224 -0.7540175105 1.4943854607
H -1.0666424302 2.0822751449 -0.8669811099
H -1.7925784423 1.5516301257 0.6241437551
H -1.9027301737 4.0143247490 0.3807919756
H -0.9279216230 3.6069488735 1.7960087123
H -0.1403583485 4.1292983991 0.2960161200
H -0.9786351004 -2.0294755517 0.7356264941
H -1.8638237282 -2.1983134938 -0.8259222612
H -3.1942998456 0.3883957485 -1.0101837802
H -3.9805206550 -1.2112944916 -0.9407669964
H -4.3888077821 0.0408081299 0.2727221231
H 0.0674735051 0.9108576629 -3.5973531933
H 0.8717847256 1.2339865501 -2.0188851534
