38
CONF5
C 0.5338372452 -2.6867549991 2.6013250290
C 1.3029328784 -1.8935231615 1.5350831758
C 0.9297726583 -0.4315484196 1.5363056098
C 0.1808661177 0.1685848776 0.5102182888
C -0.2464574160 1.5061849199 0.5945602078
C 0.1561155587 2.2557611811 1.6998176895
C 0.9418353999 1.6954433280 2.6999910439
C 1.3107860813 0.3612962483 2.6221456167
C -1.1234030737 2.1459702453 -0.4548478152
C -0.3675403118 2.6818333448 -1.6774757675
N -0.1610579869 -0.6057929421 -0.6532926224
C -1.3331290351 -1.4906114327 -0.5872503092
O -2.5494979504 -0.8768888387 -0.9436742726
C -2.6928353050 -0.6697767969 -2.3511279237
C 0.6611811985 -0.6878615398 -1.7560775079
O 0.3889423471 -1.3570958074 -2.7409344656
C 1.9643328309 0.1042139616 -1.7057399298
Cl 3.3111023946 -1.0029969766 -1.1898351592
H 0.8205988106 -3.7422409936 2.5754334610
H 0.7403932728 -2.3033324599 3.6048464944
H -0.5472168726 -2.6235015186 2.4433952335
H 1.1326727933 -2.3336912396 0.5497738084
H 2.3781781722 -1.9819415891 1.7259092371
H -0.1610657750 3.2919982621 1.7761406967
H 1.2534398006 2.2974566244 3.5476433788
H 1.9108493253 -0.0818442673 3.4120998893
H -1.8858526823 1.4307154334 -0.7734908174
H -1.6526440608 2.9785751497 0.0208389041
H -1.0437386910 3.2533298590 -2.3205253605
H 0.4540223369 3.3407122035 -1.3776731530
H 0.0483261335 1.8731530667 -2.2856368189
H -1.4541458085 -1.7972534396 0.4545611682
H -1.1257727902 -2.3552268106 -1.2318056977
H -2.5776468089 -1.6120629173 -2.9017738037
H -3.6984310931 -0.2713425322 -2.5019977136
H -1.9528906457 0.0455888143 -2.7329857267
H 2.1982444085 0.4351912483 -2.7177635995
H 1.9548973417 0.9392795966 -1.0061802676
