67
CONF12
C 6.6862507182 -1.9242262428 2.2592551766
C 5.5084853900 -1.7392913997 1.3541182541
O 5.5487042412 -1.5792357491 0.1532495838
O 4.3470109341 -1.8016007573 2.0563935641
C 3.1513367155 -1.5646180747 1.3099518461
C 2.9472626160 -0.0789759910 1.0661157142
O 3.7947050172 0.7361895118 1.3672532250
C 1.6052937975 0.3283050187 0.4534782563
C 1.7149653196 1.5910516901 -0.4611714797
C 0.7325204781 2.6180641522 0.0898826751
C -0.3191421035 1.8038058268 0.8672069566
C 0.5249536317 0.6905344664 1.5425164703
C -0.3458860041 -0.4781075815 2.0172005382
C -1.4452304048 -0.9485199317 1.0729203158
C -2.3191843585 0.2066030193 0.5724913122
C -1.4708334580 1.3226213937 -0.0432201603
C -2.3273960419 2.5496260716 -0.4188051463
C -3.7079249230 2.2155742166 -0.9851670320
C -3.7074073999 0.8013220104 -1.4627478144
C -3.7675257928 0.5601670223 -2.7844873232
C -3.5192580299 -0.7626853365 -3.3562174752
O -3.5837944229 -0.9663388938 -4.5751136435
C -3.1797732354 -1.8180295030 -2.4067242168
C -3.1256971997 -1.5874519935 -1.0874878918
C -3.4592899370 -0.2745201203 -0.4351558288
C -4.7910479314 -0.5703067364 0.3288410253
F -4.6903004405 2.3983695120 0.0277443983
F -2.9438914235 0.7514578462 1.7311692534
O -2.2279951470 -1.9532856828 1.7280512540
C 1.2139343146 1.2816274860 2.7879228840
O 1.2725968859 1.1200126540 -1.7455727746
C 1.4690027431 -0.2929153038 -1.7699904396
O 1.1387924517 -0.7034752754 -0.4209257157
C 0.4762404872 -0.9195254625 -2.7207425066
C 2.9110056625 -0.6407707074 -2.1187316198
H 6.6512146543 -1.1918969777 3.0702674844
H 7.6081433430 -1.8148593669 1.6900482057
H 6.6448447945 -2.9197096656 2.7119972738
H 3.1606096844 -2.0990526556 0.3555302056
H 2.3277705540 -1.9587796718 1.9127136665
H 2.7409141276 1.9680700279 -0.5249424043
H 0.3221142806 3.2279038250 -0.7178990378
H 1.2623161074 3.2925809757 0.7678699137
H -0.7715327579 2.4112724035 1.6598234143
H -0.8304585043 -0.1534975433 2.9473333832
H 0.2665326490 -1.3468746260 2.2799443301
H -1.0025421293 -1.4291916457 0.1978012976
H -1.0490958661 0.8957934850 -0.9606718183
H -2.4762749531 3.1902503401 0.4571877659
H -1.7917644876 3.1420193091 -1.1644209003
H -3.9880305722 2.9001127946 -1.7900545603
H -3.9573764496 1.3679061575 -3.4871618377
H -2.9926202447 -2.8085003744 -2.8118518938
H -2.9365471774 -2.4115513394 -0.4074935031
H -4.6434222983 -1.4123362230 1.0073241571
H -5.5585334341 -0.8333096521 -0.4037978145
H -5.1184068409 0.2990771218 0.8938060604
H -2.6229383320 -1.5480243095 2.5127126800
H 1.9130448846 2.0832903857 2.5416726941
H 0.4476559812 1.6814592885 3.4575956397
H 1.7676856141 0.5098143039 3.3332786435
H 0.6856075002 -0.5863893148 -3.7402349632
H -0.5420554481 -0.6341287868 -2.4503401699
H 0.5647612514 -2.0082627099 -2.6834311659
H 3.1299597680 -0.2840231852 -3.1287163914
H 3.0549368729 -1.7242439420 -2.0894721412
H 3.6220039655 -0.1763697849 -1.4299194624
