22
CONF1
C 2.4630187621 -0.5123403827 0.4826512595
C 1.2031235277 0.3354453403 0.4636124854
C -0.0508824705 -0.4946609864 0.1545752682
C -1.3411431793 0.2706839509 0.4794244945
C -2.6003141430 -0.5074685778 0.1018678192
O -2.8091960576 -0.5106954175 -1.3172285852
O -1.3641281765 1.5678844476 -0.1476514993
O -0.0234325139 -0.9441958881 -1.2123322642
O 1.4037646860 1.3321801081 -0.5539737358
O 3.6197323768 0.2681328969 0.7988368157
H 2.5837964314 -1.0139998071 -0.4887682773
H 2.3749210558 -1.2756758827 1.2614415153
H 1.0783844880 0.8150861741 1.4466556858
H -0.0435722508 -1.3972361763 0.7802497282
H -1.3503707282 0.4451554344 1.5631857606
H -2.5344087180 -1.5299304293 0.5006546478
H -3.4764309911 -0.0189861638 0.5389874343
H -2.0088565689 -0.9065445272 -1.7002446904
H -1.7628084296 1.4346947912 -1.0225688376
H 0.3690329716 -0.2201980477 -1.7267802713
H 0.6045210974 1.8858771249 -0.5460026802
H 3.6652496293 0.9767922193 0.1434079266
