35
CONF6
C 1.6397598904 -2.8522797919 2.2419236679
C 2.3587024055 -1.6007108258 1.8717907714
N 1.9704491956 -0.9569778158 0.7653445363
C 2.6504084242 0.1684008800 0.4891453648
N 3.6558813393 0.6667789663 1.2077612943
C 3.9584437655 -0.0685951239 2.2833757128
N 3.3544949765 -1.1966259576 2.6703868491
O 4.9644057628 0.4215204779 2.9993124925
C 5.3674446667 -0.3068963500 4.1868864801
N 2.3009345363 0.9040992624 -0.6239676681
C 1.2916114063 0.7147942780 -1.5722047388
O 1.0836210028 1.5613905340 -2.4256934414
N 0.5973186383 -0.4710361061 -1.4639798647
S -0.8248227895 -0.7632778087 -2.3458711853
O -0.5215064899 -0.7116651298 -3.7765776147
O -1.3549883619 -1.9983695451 -1.7589449411
C -1.9018300960 0.6234381772 -1.9622285978
C -2.3487497087 1.3937039903 -3.0344812376
C -3.2163454079 2.4545673084 -2.8107623790
C -3.6282872738 2.7505020646 -1.5150520112
C -3.1790167986 1.9923728848 -0.4390778730
C -2.3169009077 0.9246230084 -0.6611988111
Cl -1.7710563161 0.0098739296 0.7253032670
H 0.8242773726 -3.0543434309 1.5477621771
H 1.2512672633 -2.7640718096 3.2610287635
H 2.3441233444 -3.6905813061 2.2380762010
H 4.5396518586 -0.3612950226 4.8969058406
H 5.6998388963 -1.3122323335 3.9199209259
H 6.1911693148 0.2739193972 4.5994183963
H -2.0091959455 1.1544223821 -4.0350956357
H -3.5635323955 3.0493389012 -3.6481114785
H -4.3029007490 3.5799725616 -1.3312236805
H -3.4932447588 2.2232650347 0.5723921323
H 0.7678853767 -1.0409345556 -0.6171658866
H 2.8275024356 1.7579162324 -0.7613085815
