61
CONF156
C -5.4991238932 0.6295666184 -3.3134534448
C -4.1354109560 1.0752147257 -2.7857453142
C -3.9620998653 0.8735834803 -1.2773909135
C -4.1115281611 -0.5731952733 -0.7866787656
C -3.0273600821 -1.5280946262 -1.3469418890
C -2.0057626318 -1.7095290708 -0.1867386546
N -2.4293298957 -0.7602934507 0.8456113511
C -3.8895703099 -0.6781615307 0.7240565022
C -1.9678417073 -1.1291226957 2.1810996642
C -0.5827123396 -1.4581193912 -0.6589254059
O 0.0911068339 -2.3655381325 -1.1821927417
N -0.1415112785 -0.2063292072 -0.4884626299
C 1.1584429513 0.2925008271 -0.9064803825
C 2.1645692832 0.3234755477 0.2550581131
C 2.8791952171 -0.9989686636 0.5350311088
C 3.8078618200 -0.8398395485 1.7535654201
C 3.0555404882 -0.2152925717 2.9342454281
C 2.2742567285 1.0450935257 2.5311641301
O 1.4460499239 0.7931444644 1.4087519149
S 3.3640521281 2.5350378504 2.3185811078
C 2.0486339492 3.8056045103 2.4413045287
O 2.1408074913 -1.1619614000 3.4899984332
O 4.9099359592 0.0140629041 1.4568437004
O 2.0086671154 -2.0908202721 0.8423706189
C 0.9762511190 1.6930087457 -1.5374958299
C 0.0108583661 1.6716467086 -2.7131383784
O 2.2482701378 2.2212506065 -1.9308235819
H -5.6299007295 -0.4539571976 -3.2276677202
H -6.3104886721 1.1092115207 -2.7537346092
H -5.6165127000 0.8931215985 -4.3692286018
H -3.3425577666 0.5481962873 -3.3318197046
H -3.9920388570 2.1405019577 -3.0056220509
H -4.7087007182 1.4878376369 -0.7551669932
H -2.9764561204 1.2482673010 -0.9709891353
H -5.1103114542 -0.9395563484 -1.0431169707
H -3.4489507714 -2.4976808145 -1.6212093155
H -2.5459445184 -1.1187280173 -2.2396738201
H -2.0319756826 -2.7514363742 0.1774178417
H -4.3743252681 -1.5893385995 1.1247269105
H -4.2729907679 0.1858740871 1.2792269711
H -2.3603531430 -2.1117075602 2.5010333264
H -2.2893415213 -0.3732183703 2.9046260948
H -0.8725028324 -1.1729857990 2.2000402366
H -0.7551638409 0.3976505862 0.0504820636
H 1.5438687977 -0.3817866991 -1.6831121087
H 2.9472909239 1.0501948435 -0.0013085964
H 3.4973304121 -1.2374463967 -0.3464812027
H 4.1517387974 -1.8385922813 2.0589302125
H 3.7706124773 0.0401432773 3.7229507360
H 1.5865086337 1.2897155795 3.3469891474
H 2.5291728929 4.7781635972 2.3121171414
H 1.3090035112 3.6642623988 1.6493490633
H 1.5644646539 3.7677287340 3.4208385400
H 1.6762077066 -1.5754719162 2.7422346256
H 5.4260694684 -0.3954068173 0.7504765302
H 1.4601594593 -2.2927416681 0.0578027239
H 0.6128620130 2.3779205592 -0.7601495393
H 0.3658577190 0.9738420927 -3.4815068016
H -0.9900610487 1.3582747357 -2.4059270373
H -0.0589846479 2.6711278848 -3.1508594282
H 2.5445861824 1.7279965567 -2.7081500579
