44
CONF78
C -3.3470501568 1.8745668983 3.8871647600
C -3.0292552298 0.6966384971 3.0012922062
C -3.9643364235 -0.4968198418 3.1284289595
O -3.9437466604 -1.0940449987 1.8154636130
C -3.3623869919 -0.1481087453 0.9085599165
O -3.2476566470 1.0642247466 1.6164457827
C -4.3581884786 0.0601411858 -0.2503264593
N -3.7864383866 0.8279892950 -1.3399610853
C -3.2077433817 0.3640120542 -2.4669207097
N -2.6955764173 1.3673468371 -3.1680352471
C -2.9911969291 2.4507548818 -2.3952434991
N -3.6476959347 2.1756336113 -1.2751952570
C -1.9944939991 -0.6287695810 0.4143090015
C -1.7468749389 -1.8980621568 -0.1189347322
C -0.4966434352 -2.2731890014 -0.5918115209
C 0.5440622976 -1.3509708155 -0.5563361129
C 0.3370727904 -0.0676356338 -0.0593041636
C -0.9232435108 0.2694993393 0.4131565489
O 1.7365602434 -1.7684933607 -1.1007255650
C 2.9179429278 -1.1979991265 -0.6525098137
C 3.2218630188 -1.1364925725 0.7047041785
C 4.4509658624 -0.6266853529 1.1062223735
C 5.3548306839 -0.1987679449 0.1393512476
C 5.0606840793 -0.2688540181 -1.2165996249
C 3.8252654502 -0.7712216547 -1.6139448125
Cl 6.9122269953 0.4438278772 0.6485919287
Cl -3.0140411386 -3.1160277999 -0.2482246085
H -4.3765484374 2.2068029460 3.7241057533
H -3.2319117142 1.5850397871 4.9359526280
H -2.6654315011 2.7045575328 3.6838749021
H -1.9836252186 0.3775001118 3.1261511880
H -3.6223279958 -1.2366074793 3.8571861304
H -4.9854921010 -0.1728112779 3.3693780222
H -4.6503330314 -0.9145271848 -0.6451683045
H -5.2390096595 0.5761509519 0.1391723684
H -3.1950100620 -0.6866915170 -2.7280073090
H -2.7261527590 3.4656892648 -2.6637263689
H -0.3251784244 -3.2654301669 -0.9919855823
H 1.1396170811 0.6606641822 -0.0482845342
H -1.0953757206 1.2703403745 0.7921069984
H 2.5074569904 -1.4853107311 1.4428325012
H 4.7036866206 -0.5739247768 2.1590129560
H 5.7783806779 0.0678057965 -1.9557520471
H 3.5656954022 -0.8345013847 -2.6650815372
