110
CONF3
C -2.8345658276 0.0104171004 -1.0858250004
N -3.4130101680 -0.3103263400 -2.4101443183
C -2.4958793929 -1.3237731973 -2.9544237685
C -2.2453105144 -2.2528864221 -1.7645178993
C -2.5143782530 -1.3884853982 -0.4914966994
C -1.3659087679 -1.3143342756 0.4737862712
C -0.0513794289 -0.9613156318 0.2325442991
C 0.8814990484 -0.9110474818 1.2704240113
C 0.4299601353 -1.2278224758 2.5706334320
O 1.3729481261 -1.1553479826 3.5565402198
C 0.9945210384 -1.4868456375 4.8973399171
C -0.8924364824 -1.6010384991 2.8285715494
C -1.7899310155 -1.6223557171 1.7602735649
N -3.1578364768 -1.9009234666 1.8089231548
C -3.5474614418 -2.9961969225 2.7032428954
C -3.6518177267 -1.9880295724 0.4114636568
C -5.0164506970 -1.2888217635 0.1629458172
O -5.4272405661 -1.5478080725 -1.1795213037
C -4.9460353076 0.2205077374 0.4334195702
O -6.2098445563 0.8055596774 0.1164131575
C -3.7326372458 0.9517097444 -0.2649792248
C -2.9217104932 1.6408024489 0.8706504575
C -1.6964241782 2.4454789064 0.4446083717
C -4.2487503084 2.0326551739 -1.1867548732
C -4.1550944324 2.0056938109 -2.5144701458
C -3.5547039743 0.8634178492 -3.2679718136
C -6.1024867196 -1.8828961264 1.0880821987
N -6.7962478840 -2.9055749263 0.5519803010
O -6.2701792639 -1.4819605333 2.2403695716
C 2.3201757292 -0.4245072499 1.0188081661
C 2.7306561155 -0.7454243787 -0.4512258045
C 4.2073734326 -0.6017027105 -0.8369220238
C 4.6479869457 0.8664830794 -0.8687914636
N 3.9126327417 1.5267419432 -1.9224465594
C 4.3162623644 1.1015876512 -3.2373126618
C 3.9752261886 -0.3946746162 -3.4422862554
O 4.7445330425 -0.9122739179 -4.5565889900
C 2.4800106453 -0.5400621938 -3.7733485604
C 1.9421998288 -1.9677920260 -3.8221655353
C 4.4863963875 -1.2019912469 -2.2328243911
C 3.1471136826 2.7198008450 -1.6625912993
C 1.8608782254 2.4575841671 -0.8380989343
C 2.0906786410 2.2092712448 0.6246695055
C 2.3378879532 1.0580953505 1.3666842217
N 2.4749725297 1.4152699566 2.6986402430
C 2.3574609232 2.7679685739 2.8478939810
C 2.4417395104 3.5650656104 3.9892828833
C 2.2729155933 4.9343068464 3.8243872883
C 2.0270080870 5.4899495974 2.5541473387
C 1.9478683066 4.6901269407 1.4218284633
C 2.1155941061 3.3029065185 1.5561809342
C 3.3350792105 -1.2187803465 1.8571383777
O 4.2703682000 -0.7544993408 2.4761771359
O 3.1254303908 -2.5370523865 1.7140230301
C 4.0576042580 -3.3939657832 2.4146815383
H -1.8694757052 0.5212703097 -1.2496900705
H -1.5558815030 -0.8426223467 -3.2788408889
H -2.9411874454 -1.8272762207 -3.8184481066
H -1.2235408166 -2.6398567032 -1.7657985055
H -2.9262961972 -3.1073450082 -1.7884633070
H 0.2505436518 -0.7286059879 -0.7834437066
H 0.6479382893 -2.5245709830 4.9611819166
H 1.8982688942 -1.3632589811 5.4950786491
H 0.2137862494 -0.8100187624 5.2629541907
H -1.2148814031 -1.8480951656 3.8311503533
H -4.6210621560 -3.1668125896 2.6456759715
H -3.0177695680 -3.9283658468 2.4472078418
H -3.3157013406 -2.7307915492 3.7381368352
H -3.7885957559 -3.0481896175 0.1466044633
H -4.7581719589 -1.1009161221 -1.7921231011
H -4.8410916401 0.3429884591 1.5131632458
H -6.3953174667 0.5832233183 -0.8077836017
H -3.6293127427 2.3044111628 1.3846319859
H -2.6274577693 0.8799763927 1.6020268555
H -1.9338819477 3.1401030605 -0.3684296208
H -0.8745403744 1.8026670955 0.1163905473
H -1.3236343970 3.0322094478 1.2905410002
H -4.6982927206 2.8943639096 -0.6991297173
H -4.5101809161 2.8455838314 -3.1065283933
H -2.5694555249 1.1696968213 -3.6739724918
H -4.1789663005 0.6019596803 -4.1324923878
H -7.5440261984 -3.3247929594 1.0824647868
H -6.6994835228 -3.1167690298 -0.4286910183
H 2.1502670979 -0.1057196102 -1.1099177808
H 2.4165346593 -1.7765953829 -0.6332627106
H 4.8355890903 -1.1560567217 -0.1260875449
H 5.7386899698 0.9071539014 -1.0609328727
H 4.4636032533 1.3608607434 0.0873365079
H 3.8081812488 1.6995486055 -4.0044591827
H 5.4092825462 1.2132290926 -3.3897744657
H 4.3968934269 -0.5059718826 -5.3615259549
H 1.8944978025 0.0621831998 -3.0709508124
H 2.3342385142 -0.0655307188 -4.7553380622
H 0.9301333986 -1.9787493073 -4.2394682117
H 1.8921330816 -2.4188960083 -2.8270420536
H 2.5729362188 -2.6037788801 -4.4517363060
H 5.5767913583 -1.2506535787 -2.3509880392
H 4.1175898021 -2.2320232295 -2.2927628904
H 3.7388536355 3.4930691824 -1.1369135348
H 2.8514191281 3.1466103663 -2.6280584834
H 1.2899456152 1.6558293209 -1.3156841066
H 1.2362653889 3.3568534243 -0.9166878514
H 2.6837839005 0.7616256079 3.4348176683
H 2.6301947470 3.1314646165 4.9667846968
H 2.3310176015 5.5869762516 4.6899585436
H 1.8993875171 6.5642249278 2.4618157410
H 1.7619782477 5.1366476236 0.4491746724
H 4.0088589901 -3.1990132403 3.4891919505
H 3.7366556587 -4.4111572088 2.1937260738
H 5.0746865827 -3.2231797812 2.0533636617
