41
CONF24
C -1.7983265044 2.1749022548 -0.3113117187
C -3.0906882641 1.6094628612 -0.8620598280
O -3.2621994817 0.2286683743 -0.4261155291
C -3.7793202165 0.0528625086 0.7975224136
O -4.2136038411 0.9258640472 1.5135963305
C -3.8204840046 -1.4288915440 1.1808787330
C -5.0963432945 -2.0655256690 0.6532641144
O -2.7303696697 -2.1697308162 0.6325918167
C -1.4645209617 -1.7658464196 0.9508837834
C -0.4421445146 -2.3450420164 0.1927492827
C 0.8778531312 -1.9973617100 0.4230727042
C 1.1650628288 -1.0596283434 1.4062538712
C 0.1721226684 -0.4886584441 2.1763367159
C -1.1569331587 -0.8437629065 1.9531114961
O 2.5029090205 -0.7196786263 1.6898797308
C 3.1955641660 -0.0759997902 0.7597583336
N 4.4792704943 0.0434771825 0.7318516519
C 4.7019865168 0.8534538523 -0.3817842206
C 5.8753490721 1.3430359696 -0.9420390219
C 5.7704931256 2.1324366235 -2.0854158790
C 4.5218875696 2.4161434288 -2.6448285307
C 3.3253427972 1.9391781789 -2.1086714796
C 3.4753838184 1.1677862406 -0.9779186269
O 2.4825777357 0.5649712112 -0.2322424712
Cl 4.4482102451 3.4167214709 -4.0845643552
H -1.8418642855 2.2503798393 0.7779703416
H -1.6336219359 3.1772888104 -0.7188423460
H -0.9501908059 1.5413965326 -0.5868354661
H -3.0718227262 1.5417115943 -1.9519405528
H -3.9595251250 2.1916096336 -0.5429283413
H -3.8044413732 -1.4710549557 2.2779908894
H -5.9652848229 -1.5353929036 1.0508186107
H -5.1139371952 -2.0212778130 -0.4385025857
H -5.1422843307 -3.1107682914 0.9680008785
H -0.7053568161 -3.0627167810 -0.5759235696
H 1.6800551795 -2.4390339360 -0.1586405350
H 0.4325404453 0.2326655049 2.9427161579
H -1.9283753119 -0.3842354139 2.5588855398
H 6.8408704759 1.1180709130 -0.5042557313
H 6.6608679088 2.5349931458 -2.5531409133
H 2.3632917479 2.1646854260 -2.5501714984
