42
CONF3
C 1.1486584129 -1.6726799067 1.4071336642
C -0.0214376138 -1.7385411018 0.4301428480
C -1.2291265214 -2.4809573916 1.0547340626
C -2.0050397963 -1.3802432102 1.7314733820
C -1.6510400993 -0.1407975203 1.1970038448
C -0.6094743599 -0.3236172751 0.1203077303
N 0.3384541958 0.7728991628 0.0929383820
C 1.1952648312 1.0017600273 -0.9278374685
N 1.0746383430 0.2323926829 -2.0310144235
C 1.9241808417 0.5538685334 -3.0013992540
N 2.8592753134 1.5016112213 -2.9711897952
C 2.9026249127 2.1780332645 -1.7989087960
N 2.0954169332 1.9872761215 -0.7519396721
N 3.8715388135 3.1215930543 -1.6806335320
C 1.8890367925 -0.2842698665 -4.2614183590
C 2.6856634369 -1.5634064239 -4.0807392172
F 0.5671401054 -0.6188034880 -4.5746787934
C -2.2398622097 1.0308115820 1.6459258849
C -3.2051487740 0.9767888205 2.6598636040
C -3.5501973709 -0.2681546569 3.1920689805
C -2.9611435426 -1.4473458728 2.7332963335
C -3.8675040327 2.2381425267 3.1447089857
H 1.9880516357 -1.1072553325 0.9916886252
H 1.5045350021 -2.6815103854 1.6373179984
H 0.8492968635 -1.1987485402 2.3499206249
H 0.3065272329 -2.2120176112 -0.4997518249
H -1.8437375959 -2.9454928585 0.2716858518
H -0.9217371454 -3.2770902481 1.7411579734
H -1.0936267494 -0.3617292726 -0.8648215620
H 0.5329351622 1.2653021083 0.9513150305
H 4.3540851497 3.4006108856 -2.5170139026
H 3.8134888136 3.7633693140 -0.9091982737
H 2.2822184980 0.3163549260 -5.0891796673
H 3.7293045856 -1.3224575701 -3.8591453937
H 2.2678753584 -2.1410218387 -3.2516051384
H 2.6447846433 -2.1600912985 -4.9956044803
H -1.9616589321 1.9897860968 1.2137321422
H -4.2915862654 -0.3156533512 3.9849109457
H -3.2441480811 -2.4019082397 3.1681143011
H -3.1334228425 3.0314511546 3.3166126851
H -4.5832105379 2.6127503535 2.4037787692
H -4.4118918878 2.0689909378 4.0769403808
