17
CONF7
C 3.0633692570 1.4762190829 -0.1281777845
C 1.8968176583 1.2331613760 0.4679213367
C 0.8965810445 0.2467923097 -0.0322623713
S -0.6157000845 1.1501053764 -0.6005147213
C -1.8436687057 -0.2421308281 -0.5683047948
C -2.1437127731 -0.6662959954 0.8267020196
C -1.7739863100 -1.8391466072 1.3422692234
H 3.3512807280 0.9547087573 -1.0381510300
H 3.7654509268 2.1972436556 0.2791367187
H 1.6247092504 1.7730814806 1.3741529482
H 1.2969544760 -0.3454937860 -0.8605126677
H 0.5755155581 -0.4244131052 0.7740106876
H -2.7293208423 0.1687510822 -1.0642274084
H -1.4517958347 -1.0673941770 -1.1711945629
H -2.6735819782 0.0587907189 1.4430749312
H -2.0008922069 -2.1009623324 2.3713214833
H -1.2380194650 -2.5730170082 0.7444297825
