47
CONF48
C 5.2981987340 -1.0980598416 -1.6415554907
C 4.0104629149 -0.7496859670 -0.9574829854
C 3.1600829674 -1.7742953637 -0.4473720274
C 3.5504966758 -3.2113810497 -0.6017183583
C 1.9664509664 -1.4554067725 0.1821813544
C 1.5660318597 -0.1235922814 0.3432871005
N 0.3949798633 0.2486284638 0.9854118287
C -0.4899682724 -0.7709455270 1.5947945911
C -1.5753583885 -1.3178484713 0.6608735432
O -0.9325114274 -1.8415872307 -0.4960304377
C -2.6765786099 -0.2971818766 0.3048612172
O -3.2582916846 0.2167647215 1.4962092186
C -3.8239502863 -0.9577451015 -0.4804150796
O -3.3391375809 -1.5540398296 -1.7010351589
C -4.9457897576 0.0115259778 -0.8042414310
O -4.3980291017 1.0061491144 -1.6854849170
C 0.0725282342 1.5755598774 1.1293229201
N -1.0402206006 1.9027829296 1.7646494589
C -1.3766567839 3.2202289147 1.9119031694
O -2.4083770580 3.5771222946 2.4748937760
N -0.5098145334 4.1972326885 1.3953471935
C 0.6683735747 3.9754154013 0.7237632509
O 1.3657549048 4.8846799865 0.2979027888
C 0.9961904674 2.5335717622 0.5769271305
N 2.1041039167 2.2165716163 -0.0361771264
C 2.4133604358 0.9049147232 -0.1616325851
C 3.6191733581 0.5599893632 -0.8070822825
H 5.9592460859 -1.6607480891 -0.9730953391
H 5.8204389953 -0.1962276557 -1.9660213259
H 5.1197660637 -1.7305487430 -2.5183268146
H 3.6667308752 -3.4699674456 -1.6605356659
H 2.8046798279 -3.8744748365 -0.1606603225
H 4.5182176986 -3.4043432538 -0.1247657682
H 1.3366956999 -2.2652387811 0.5193087221
H 0.1401691952 -1.5940473798 1.9312584290
H -0.9500502519 -0.3286083013 2.4783869201
H -2.0613216633 -2.1233123632 1.2413903712
H -1.6366756462 -1.9592019306 -1.1620401773
H -2.2422456271 0.5069498105 -0.3110630764
H -2.6206191324 0.8854983367 1.8261301218
H -4.2316952530 -1.7763916011 0.1256008657
H -3.2615560955 -0.8281741820 -2.3403284088
H -5.3283336627 0.4631850719 0.1180471813
H -5.7539674141 -0.5421536681 -1.3003578311
H -5.1303771689 1.4823710921 -2.0928845411
H -0.7934851974 5.1614830716 1.5265917103
H 4.2328784386 1.3745827384 -1.1787350034
