70
CONF193
C -3.0367740182 0.1743318356 -0.6367118900
C -4.4225359337 0.2874095099 0.0412485163
C -4.9877439367 -1.0792702681 0.2510111494
C -6.2559856517 -1.5967436919 0.3529211472
N -6.1742694924 -2.9752353454 0.5288355722
C -4.8533543102 -3.3619113017 0.5284173843
C -4.2077066178 -4.5955038192 0.6435576183
C -2.8169637347 -4.5799686793 0.5708383309
C -2.0702422673 -3.3929269668 0.3915864962
C -2.7110248080 -2.1631067715 0.2879429463
C -4.1025457406 -2.1813301594 0.3579611640
C -2.0821038605 -0.7935224032 0.1274378446
C -0.7158029676 -0.8619422515 -0.5524396469
C -0.1238534959 0.5423464317 -0.7061412316
C -1.1205372218 1.4222256270 -1.4607603567
N -2.3852549641 1.4959883772 -0.7221995666
C -3.2306264505 2.5767366834 -1.2760200071
C -3.7187804869 2.3544204988 -2.6826304910
C -3.3750665717 3.1157155492 -3.7197520677
C 1.1870140282 0.4523188623 -1.4666228581
O 1.2560837036 -0.1687611744 -2.5262315221
N 2.3305675158 0.9839163582 -0.8969101429
C 3.6271871862 0.5970244062 -1.4968413269
C 3.9988570248 -0.8696133333 -1.2634289282
C 3.9606724500 -1.3188213485 0.1935515480
N 4.7577732821 -0.4798751053 1.1033624856
C 6.1849441002 -0.4976733819 0.7702360867
C 4.5544851248 -0.9142929497 2.4893955598
C 2.2695775696 2.0232054774 0.0943878586
O 1.3889255442 2.8843381894 0.0552828928
N 3.2574154263 1.9757784561 1.0018430140
C 3.3651352878 2.9864474037 2.0480475325
C 2.4944627315 2.6648892249 3.2607951731
H -3.1881801700 -0.2606726504 -1.6465744520
H -4.2962319630 0.8164537473 0.9973625620
H -5.1017523990 0.8873013199 -0.5707935403
H -7.2222580828 -1.1127676041 0.3148215888
H -6.9671516000 -3.5886073487 0.6216783828
H -4.7528137464 -5.5243924955 0.7773888048
H -2.2808610634 -5.5210117860 0.6516537969
H -0.9887722725 -3.4659705533 0.3382369840
H -1.9469476257 -0.3613785226 1.1327226668
H -0.0338117380 -1.4880698964 0.0338049215
H -0.8212922296 -1.3241604144 -1.5411397046
H 0.0336117805 0.9719026953 0.2853227523
H -0.7177118175 2.4356748622 -1.5555361333
H -1.2547997094 1.0120998684 -2.4793833655
H -4.0840596073 2.7288922190 -0.6061975377
H -2.6360492689 3.4974377570 -1.2426677585
H -4.3872974203 1.5082060774 -2.8428146879
H -2.7060535459 3.9652627952 -3.5952691784
H -3.7499146331 2.9214822549 -4.7207264389
H 4.3882950627 1.2617023016 -1.0843191385
H 3.5718153158 0.7848890123 -2.5740068984
H 3.3111393869 -1.5115670337 -1.8221285492
H 4.9922568798 -1.0300760109 -1.6973751156
H 4.2847760088 -2.3750646545 0.2505900928
H 2.9225258763 -1.2834770550 0.5499416114
H 6.3547196712 -0.0762964671 -0.2242173062
H 6.6028709583 -1.5204485318 0.7919797274
H 6.7314139071 0.1138755303 1.4946578966
H 3.4903722852 -0.8537065085 2.7418167110
H 4.8928927761 -1.9527699236 2.6539286771
H 5.1104118256 -0.2577749806 3.1666968831
H 3.8745071238 1.1400239433 1.0452048237
H 4.4188421727 3.0425426076 2.3420611804
H 3.0825396342 3.9556327437 1.6250078788
H 2.6050682194 3.4420986795 4.0235659347
H 2.7852393075 1.7058232937 3.7007186634
H 1.4407307636 2.6103164921 2.9720176990
