45
CONF8
C 2.0866478092 0.3853149287 -4.2178817516
C 2.6002994906 0.8215867082 -2.8544244406
C 1.4364055985 1.3433893356 -2.0049710570
O 1.0496588913 2.5032627871 -2.1175484069
N 0.8637835648 0.4258394890 -1.1856348477
C -0.2136472609 0.7436263363 -0.3059472405
C -1.5931706129 0.0156308529 -0.4637726426
N -1.4078260076 -0.5244893291 0.8898723153
C -0.1949715563 0.1168673353 1.1077380002
O 0.5455019087 0.1458797386 2.0620878119
C -2.5636319086 -0.5951896591 1.7529755176
C -3.4197534151 0.6873508722 1.4328017649
S -3.1706878188 0.9645703804 -0.4093222914
C -4.9106350372 0.5145468141 1.7042655522
C -2.8637400577 1.8698632018 2.2259216180
C -3.3273444791 -1.8851510031 1.4980304649
O -3.3747536521 -2.4554524343 0.4318495720
O -3.9571627570 -2.3020632466 2.6093107118
O 3.2414186459 -0.3202603716 -2.2677614982
C 3.9999031130 -0.1314148255 -1.1351408235
C 4.1695005203 1.0955185533 -0.4914621151
C 4.9587502366 1.1549355961 0.6579858782
C 5.5713605976 0.0153293764 1.1669007428
C 5.3912685882 -1.2048914514 0.5139909316
C 4.6097045811 -1.2834143264 -0.6306221844
H 1.5762055506 1.2217652184 -4.7010967834
H 2.9249891664 0.0716814864 -4.8444976231
H 1.3849436711 -0.4471718476 -4.1120904194
H 3.3153360556 1.6455228480 -2.9653605981
H -0.3337201802 1.8298296812 -0.2500602393
H -1.6339206719 -0.7333450425 -1.2581018677
H -2.2452959265 -0.5618846130 2.7995793631
H -5.4430040824 1.4340120011 1.4456409128
H -5.0681053086 0.3210440891 2.7701537483
H -5.3421885638 -0.3063522946 1.1255350695
H -3.0357269124 1.7078464657 3.2963080159
H -1.7912627798 2.0062622993 2.0628102012
H -3.3711362314 2.7901732025 1.9256725731
H -4.4685066257 -3.1016638331 2.3925655117
H 3.7018765051 2.0017418303 -0.8578034462
H 5.0861328342 2.1108235896 1.1566092851
H 6.1807938065 0.0738604431 2.0624242234
H 5.8621975023 -2.1041864700 0.8989343653
H 4.4611850230 -2.2263460796 -1.1469564597
H 1.2501195218 -0.5086639549 -1.1723968069
