50
CONF11
C 4.0082611809 1.1750773558 -0.7396211663
Si 2.2941211675 0.4593568735 -0.6374412194
O 1.2156515209 1.7038341272 -0.6452218240
Si 0.0813331771 2.5046354715 0.2409260898
O -1.4013044798 1.8250024325 -0.0205677604
Si -2.1230499327 0.9004516461 -1.1819504212
O -1.7156151121 -0.6825132114 -0.9480946619
Si -1.5877646638 -1.7561742179 0.2977918147
O -0.2540666222 -1.3899932625 1.1915513370
Si 1.3547831584 -1.6296920622 1.4449279776
O 2.1895979054 -0.3683236522 0.7853178437
C 1.9259000298 -3.2285503542 0.6745463172
C 1.6570847453 -1.5956622225 3.2796584626
C -3.0536103482 -1.6066798485 1.4378910848
C -1.4457275373 -3.4485929340 -0.4649611287
C -1.5258651358 1.3781982300 -2.8796837956
C -3.9625270094 1.1186932154 -0.9919563015
C 0.4412809655 2.3878787537 2.0633358671
C 0.0496471024 4.2625136365 -0.3713006198
C 1.9005902708 -0.6564891100 -2.0773631792
H 4.7642558709 0.3827279095 -0.7571798827
H 4.2080095249 1.8180719498 0.1248851856
H 4.1250767522 1.7780349197 -1.6464608015
H 1.3965814155 -4.0837150330 1.1084072868
H 2.9983029911 -3.3661886878 0.8529700872
H 1.7581417055 -3.2376965057 -0.4070501649
H 1.3031511283 -0.6554544969 3.7162121105
H 1.1315409283 -2.4196171790 3.7743025211
H 2.7255837746 -1.6924251006 3.5001636510
H -3.9933517554 -1.7645547710 0.8980589147
H -2.9918327045 -2.3490190533 2.2412617911
H -3.0864918009 -0.6126805346 1.8981240242
H -1.2515661563 -4.2121695138 0.2954336704
H -0.6337755784 -3.4818677179 -1.1989699041
H -2.3778202843 -3.7079600281 -0.9791868931
H -0.4425147347 1.2422759985 -2.9614467808
H -2.0076444952 0.7617599875 -3.6465799616
H -1.7573220459 2.4275379111 -3.0927693837
H -4.5061791126 0.4631269279 -1.6807189558
H -4.2824795125 0.8823934836 0.0283337205
H -4.2517209524 2.1533217584 -1.2069987036
H 0.3817223532 1.3484278603 2.4006349598
H 1.4441662728 2.7654246162 2.2905505719
H -0.2835753541 2.9763663706 2.6364980504
H -0.7343569806 4.8379335294 0.1325376279
H -0.1469180909 4.2897669873 -1.4490152965
H 1.0086639230 4.7594425459 -0.1884944624
H 1.9413815944 -0.0953619042 -3.0176015919
H 2.6181733184 -1.4814820946 -2.1428964003
H 0.8940776127 -1.0793908063 -1.9807897065
