44
CONF5
C -2.3406568402 -1.2333284671 1.0452608301
C -2.2626764764 -0.4513891556 -0.2724936116
C -1.6233190073 -1.3044435235 -1.3680999300
C -0.1251764487 -1.5351806525 -1.1069840821
C 0.6441319310 -0.2196691437 -0.8829132717
C -0.0138583328 0.6443279116 0.2136911249
C -1.4715827530 0.8664742526 -0.1562089622
C -2.3611435054 1.7582645844 0.7251296213
C -3.8059839406 1.3250542154 0.3519605960
C -3.6517892141 0.1303862479 -0.6109428978
O -4.7636157783 -0.7538125632 -0.4535111222
C 0.7797585666 1.9371108911 0.3760322248
C 2.1716201972 1.6265449479 0.9164140311
C 2.8432897828 0.4713571354 0.2084904754
C 2.1302918931 -0.4163790662 -0.6149989632
C 2.8431504114 -1.4621194506 -1.2166255864
C 4.2033787704 -1.6488926936 -1.0170009839
C 4.8944789677 -0.7653744569 -0.1913694459
C 4.2141635572 0.2860978998 0.4116078893
O 6.2366318982 -0.9773776960 -0.0147838093
H -1.3588921483 -1.5778396026 1.3764313186
H -2.9782255488 -2.1120370579 0.9104702814
H -2.7747880693 -0.6372656059 1.8524365398
H -2.1319138342 -2.2738123189 -1.4594769296
H -1.7389841991 -0.7854198246 -2.3308995559
H 0.0188058833 -2.1877005644 -0.2367063526
H 0.2912341267 -2.0710263019 -1.9653127913
H 0.5526391208 0.3621758506 -1.8172029359
H 0.0359815363 0.0977570354 1.1684707505
H -1.4737329527 1.3129320874 -1.1662964728
H -2.1571073923 1.5786031525 1.7867287346
H -2.1877181381 2.8218159647 0.5399893115
H -4.3788146888 2.1329279312 -0.1107550972
H -4.3683192494 0.9943596301 1.2307294556
H -3.6189431978 0.4930732087 -1.6520458211
H -4.7017602026 -1.4321687537 -1.1363147152
H 0.2652584552 2.6243422552 1.0568937269
H 0.8510113548 2.4408734186 -0.5984723599
H 2.8174655761 2.5106085450 0.8602304418
H 2.0910818228 1.3761390341 1.9840989328
H 2.3273597066 -2.1588832802 -1.8679332398
H 4.7347264836 -2.4669456572 -1.4918144635
H 4.7547281258 0.9806721721 1.0530486797
H 6.5878140259 -0.3008327205 0.5769162445
