55
CONF87
C 4.2450505622 -3.9836338132 -3.0055540078
O 4.8548211409 -2.8757062330 -2.3275154840
C 4.0563307180 -2.0965609620 -1.5474272936
C 2.6856819059 -2.3017555395 -1.3636796371
C 1.9678209386 -1.4418945145 -0.5361473329
C 2.5859993241 -0.3736569499 0.1143482334
C 3.9612439720 -0.1895869172 -0.0751765161
C 4.6919665581 -1.0332861529 -0.8955655831
C 1.8389792134 0.5959162786 0.9920125132
S 0.8258655033 -0.3718691789 2.2200801159
C -0.3797857309 0.8288106520 2.7546081613
C -0.3870706521 1.2370665421 4.0913567333
C -1.3704540523 2.0986688106 4.5628717819
C -2.3402577416 2.5854732543 3.6893320154
C -2.3329128922 2.2020551571 2.3541855603
C -1.3672414122 1.3131624924 1.8758962082
N -1.4187534867 0.9075960326 0.5130099966
C -2.6501444740 0.2627594919 0.0251222666
C -2.5882783436 -1.2530461469 0.3028098460
N -3.7469712563 -2.0294116330 -0.1286270951
C -3.9277350468 -2.0274011482 -1.5803590837
C -4.9806904934 -1.6513780407 0.5600772862
C -0.3412948737 0.9522933237 -0.3235348765
O -0.3781389811 0.5400328116 -1.4808681365
C 0.9253580912 1.5921318142 0.2533063258
O 1.7225340216 2.1436121439 -0.8072580613
C 1.1862795903 3.2158875087 -1.4445348528
C 2.1030041021 3.7140177354 -2.5159588037
O 0.1088862362 3.6869884880 -1.1459740089
H 5.0489860721 -4.4671130341 -3.5608944628
H 3.4705680223 -3.6407327226 -3.7012451250
H 3.8132591253 -4.6922094845 -2.2894728575
H 2.1696201468 -3.1207605634 -1.8492745774
H 0.9061788820 -1.6180770791 -0.3997174513
H 4.4653610553 0.6318299329 0.4263903632
H 5.7577528362 -0.8868774611 -1.0387466547
H 2.5668417350 1.1923137777 1.5509270718
H 0.3827929119 0.8652998655 4.7592281036
H -1.3698262885 2.3993485434 5.6053235613
H -3.0979956755 3.2769597742 4.0427699392
H -3.0754501016 2.5995798238 1.6700165458
H -2.7391404631 0.4685914008 -1.0431058865
H -3.4979443300 0.7165434768 0.5414422809
H -1.6965463900 -1.6553974708 -0.1944369124
H -2.4561915952 -1.3977599718 1.3836512927
H -4.2495585733 -1.0509277659 -1.9854177686
H -4.6917255068 -2.7649166311 -1.8505443657
H -2.9889772992 -2.3093775047 -2.0693264738
H -4.8129746359 -1.6459080451 1.6425183439
H -5.3669966025 -0.6590096741 0.2639749717
H -5.7603627153 -2.3880132202 0.3362132875
H 0.6507599371 2.3978241856 0.9404547505
H 1.6059186343 4.4916096223 -3.0941676661
H 3.0075763888 4.1207693927 -2.0523460954
H 2.4079802054 2.8891268165 -3.1650508826
