22
CONF1
Cl -0.0805600117 -1.5820181156 -2.6407710545
C -0.0320289764 -0.8063851738 -1.0828908346
C -0.0278831582 0.7932870532 -1.0597010834
Cl -0.0720717706 1.6140439850 -2.5944230895
C -1.1078467082 1.1187252027 0.0361324426
Cl -1.7497952908 2.7399524974 0.0789416012
C 0.0349258617 0.7626369141 1.0562435414
Cl 0.0834757953 1.5382622063 2.6141175718
C 0.0307777353 -0.8370222503 1.0330427607
Cl 0.0749566968 -1.6577747666 2.5677655832
C -1.1137803633 -1.1575203833 0.0032774797
Cl -1.7640607276 -2.7759873204 -0.0007719258
C -2.1237259817 -0.0172323912 0.0495761232
Cl -3.1686713326 0.0063792893 -1.3942473287
Cl -3.0834853592 -0.0365156935 1.5512802876
C 1.1107197174 -1.1624363899 -0.0627746139
Cl 1.7527088539 -2.7836243744 -0.1055752902
C 2.1266237955 -0.0264964970 -0.0762486603
Cl 3.0862399036 -0.0071689138 -1.5780560079
Cl 3.1716559911 -0.0500601720 1.3674608735
C 1.1166704562 1.1138058493 -0.0299205020
Cl 1.7668750588 2.7323321087 -0.0258488394
