47
CONF3
C 4.8332151394 -1.9697367788 0.8689297690
C 4.4184749841 -0.9857483327 -0.1500868318
C 3.2319808590 -0.3627211668 -0.4410483680
C 3.5400458502 0.4889926745 -1.5506861270
N 4.8044753247 0.3782494447 -1.8988037989
O 5.3660762857 -0.5461068984 -0.9971410565
C 2.6522906777 1.3713009718 -2.3222305159
C 3.0780106411 2.6537127648 -2.6863242153
C 2.2418620201 3.4793814506 -3.4307244383
C 0.9788194699 3.0342547316 -3.8152418482
C 0.5529602677 1.7560213656 -3.4574398641
C 1.3837768582 0.9256254331 -2.7143072777
C 1.9769435660 -0.5514336277 0.3098425925
O 1.6670745637 -1.6364474604 0.8097953551
N 1.1924025843 0.5524801168 0.4406716245
C -0.1127738312 0.4859217538 1.0152937166
C -1.2295298308 -0.4098386399 0.3720420527
N -1.3611270405 -1.0917064935 1.6640609417
C -0.3645236185 -0.3550811448 2.2911575842
O 0.0518202290 -0.3633718069 3.4260865866
C -2.6893468015 -1.4120453365 2.1298343129
C -3.6125856510 -0.2275239762 1.6572728619
S -2.8924783779 0.2834314220 -0.0021658629
C -5.0720082277 -0.6201775075 1.4538922982
C -3.5020061103 0.9205367012 2.6605785016
C -3.1307399662 -2.7556295024 1.5694322373
O -2.7664861160 -3.2091765901 0.5074016954
O -3.9883540269 -3.3689672900 2.4006601907
H 5.8307682323 -1.7289381547 1.2448490810
H 4.8652023102 -2.9733668612 0.4300810121
H 4.1149091281 -1.9790233746 1.6890065781
H 4.0564753595 3.0021241016 -2.3726442860
H 2.5751939250 4.4751328910 -3.7050994045
H 0.3266123645 3.6819955094 -4.3923415983
H -0.4270697422 1.4023750165 -3.7614200771
H 1.0552632444 -0.0747916983 -2.4493465435
H 1.4926423397 1.4269802332 0.0358568423
H -0.4845702492 1.5010890664 1.1803622924
H -0.8942031623 -1.0421108614 -0.4534433830
H -2.6975977610 -1.4567776212 3.2234715315
H -5.6412040422 0.2452086517 1.1033813204
H -5.5003546123 -0.9421090916 2.4084303146
H -5.1851679600 -1.4255755371 0.7234150790
H -2.4630996904 1.2078364501 2.8437491948
H -4.0361322768 1.7967679463 2.2845928485
H -3.9515245705 0.6180325413 3.6134417850
H -4.2844132311 -4.1990453001 1.9863304973
