39
CONF54
C -1.6393175069 -0.6329002549 3.8754071355
O -2.4717342632 -0.8088949656 2.7208429736
C -1.8516232647 -0.9040921719 1.5126739929
C -0.4666581901 -0.8605640427 1.3261127486
C 0.0625851718 -0.9687857759 0.0406376498
C -0.7774469521 -1.1219027664 -1.0619688198
C -2.1624846579 -1.1645374445 -0.8780120021
C -2.7051104383 -1.0642781285 0.4116002765
O -4.0645995622 -1.1608312383 0.5983439120
C -4.7286699878 0.1191641084 0.5537397494
O -3.0707888679 -1.3091405452 -1.8815988932
C -2.5635349222 -1.4084902388 -3.2191217078
C 1.5524783737 -0.8644466337 -0.1667964115
C 2.0360078821 0.5448915255 -0.4272426918
C 1.2179330197 1.6563612791 -0.4366245275
N 1.6346708183 2.9132307634 -0.6750726410
C 2.9511384623 3.0395298894 -0.9147359623
N 3.8561939490 2.0470459091 -0.9370298123
C 3.4046070011 0.8072243688 -0.6946867813
N 4.3143130799 -0.2015703265 -0.7615603928
N 3.4303012725 4.3111697803 -1.1072821902
H -0.9652071299 -1.4869592548 4.0079926923
H -1.0559720463 0.2921820396 3.8021054982
H -2.3229672172 -0.5701863575 4.7224217108
H 0.2049998042 -0.7361539961 2.1671189700
H -0.3443598323 -1.1978452405 -2.0523101267
H -4.3515936886 0.7755568141 1.3466734350
H -4.5803127154 0.5948866947 -0.4228152131
H -5.7912218226 -0.0764048696 0.7108730558
H -2.0066088940 -0.5060481873 -3.4966303247
H -1.9216470790 -2.2897732508 -3.3319012152
H -3.4410072184 -1.5096338613 -3.8583286152
H 1.8433867437 -1.5035084083 -1.0119940097
H 2.0660250032 -1.2666147072 0.7179105726
H 0.1529416244 1.5369742193 -0.2434419375
H 5.2893195264 0.0554306100 -0.7744306931
H 4.0947287707 -1.0973052447 -0.3583865761
H 2.7482600571 5.0045067321 -1.3734889948
H 4.3266917140 4.3865978767 -1.5628449788
