52
CONF57
C 2.5936782785 0.7401519941 2.5667301920
N 2.0398776609 -0.3342360583 1.7376415593
C 2.5718941592 -1.6226243186 2.2155815740
C 1.9862175925 -2.8006590290 1.4500454656
C 2.2700532067 -2.6473037293 -0.0411259415
C 1.7563297665 -1.2910031823 -0.5139338865
C 2.3526288570 -0.1408100710 0.3049912932
C 1.8806606059 1.2288440918 -0.2115961298
C 0.4036884122 1.5374943016 0.0670096044
N -0.4976392381 0.9677990153 -0.9441289410
C -0.3958205986 1.4191030643 -2.2738507489
C 0.2210199935 2.6341896888 -2.5998419220
C 0.3273491801 3.0419540779 -3.9271124017
C -0.2033756506 2.2670877512 -4.9533501886
C -0.8430132943 1.0690068953 -4.6429107436
C -0.9160782392 0.6409117638 -3.3211848258
S -1.6049505355 -0.9573418571 -2.9452411435
C -2.3402399900 -0.5639670620 -1.3770830961
C -1.6868567885 0.3516924149 -0.5293350136
C -2.2552421632 0.6040023629 0.7265313575
C -3.3893916591 -0.0910034373 1.1187739682
C -4.0408285113 -0.9904846168 0.2852530152
C -3.5091441614 -1.2090194647 -0.9826118437
S -4.0704270366 0.2408640909 2.7751163098
O -3.4178051778 1.5339867712 3.2747966815
C -3.1923628038 -1.1240113437 3.6340902288
H 2.0954089096 1.6926634128 2.3656813165
H 2.4312056860 0.4968563427 3.6214445845
H 3.6807308637 0.8790402183 2.4102109360
H 2.3353427472 -1.7091731405 3.2827108219
H 3.6782238900 -1.6444101489 2.1238337125
H 0.9016308975 -2.8388430635 1.6181780093
H 2.4135516376 -3.7314138728 1.8404873546
H 1.8021385792 -3.4558304495 -0.6143552701
H 3.3536661395 -2.7116694368 -0.2132444976
H 1.9948584999 -1.1280442224 -1.5717493227
H 0.6637006576 -1.2665494765 -0.4221629172
H 3.4556817875 -0.1656491323 0.1679897412
H 2.4838126554 2.0234937662 0.2383412777
H 2.0887246036 1.2686424304 -1.2856665484
H 0.1494656015 1.0739724379 1.0209270934
H 0.2414245994 2.6184918672 0.1776609466
H 0.6319712603 3.2628140387 -1.8191921966
H 0.8243999909 3.9801524458 -4.1521944138
H -0.1258107734 2.5876149440 -5.9867431454
H -1.2663314566 0.4500737342 -5.4280912147
H -1.8327595779 1.3373366132 1.4036508456
H -4.9399247747 -1.5084408779 0.6039728023
H -3.9941054836 -1.8998785982 -1.6652162474
H -3.5277023913 -2.0751592098 3.2118620770
H -2.1180776029 -0.9826597731 3.4872550405
H -3.4614498113 -1.0580540581 4.6911553570
