25
CONF2
C -5.0889529087 -0.5747788506 0.1756990020
C -4.0975567553 0.4338684095 -0.3529354117
O -2.7638682650 -0.0825415012 -0.0718897026
C -1.7305073648 0.6911645280 -0.4732640971
O -1.8770394803 1.7624653883 -1.0413916484
C -0.4500196984 0.0618860172 -0.1295432085
C 0.7103425837 0.6694512191 -0.4373971378
C 2.0569894317 0.1890194017 -0.1693430553
C 3.1416127410 0.9830623171 -0.5791480981
C 4.4509164648 0.5763865324 -0.3501986448
C 4.7005751146 -0.6329285545 0.2937271890
C 3.6326838873 -1.4326730517 0.7070071673
C 2.3251037613 -1.0295871997 0.4797106608
H -6.1038185791 -0.2164209829 -0.0195088840
H -4.9639700839 -1.5424313654 -0.3183143960
H -4.9725201851 -0.7096436105 1.2547175159
H -4.1939372579 0.5763988000 -1.4340558908
H -4.2025124519 1.4075466134 0.1362981072
H -0.4984326159 -0.8969806523 0.3753682928
H 0.6475185211 1.6312587517 -0.9448922296
H 2.9458621038 1.9264450711 -1.0810714848
H 5.2761815471 1.2026609522 -0.6737930664
H 5.7215567551 -0.9540012690 0.4744463324
H 3.8249638390 -2.3755064238 1.2093349910
H 1.5088287899 -1.6641207465 0.8085742844
