85
CONF1
C 3.7259646878 -2.1263075030 -2.4108305989
C 4.2891342246 -0.7231244675 -2.6249737183
C 4.1125674975 0.1941240599 -1.4213063514
C 4.6262373045 1.6206698840 -1.6530962522
C 4.2390303765 2.4987457130 -0.4584323775
C 2.7384282505 2.4225900700 -0.1977256876
C 2.2969558587 0.9717105272 -0.0101595157
O 2.6988032973 0.1953674098 -1.1351424514
C 0.7752063045 0.8111942337 0.0618520315
C 0.3128749474 0.9428908129 1.5019854350
C 0.8847580167 -0.1884334237 2.3436973061
C 2.3228521437 -0.5487077521 1.9098909974
O 2.9348963301 0.5351030990 1.1926011349
C 2.4136125989 -1.8837289217 1.1477762081
C 1.8935112422 -3.0163508459 1.9764299531
C 1.0236567755 -3.9663402597 1.6069868699
C 0.4418012126 -4.0977385362 0.2237526040
C -1.0674304262 -3.6954015019 0.1293462722
C -1.2527755010 -2.4901976060 -0.7410177810
C -2.0399456522 -1.4351377312 -0.4705684001
C -2.1853806730 -0.3288674814 -1.3888208192
C -2.9525303384 0.7655521196 -1.2481451964
C -3.0640858962 1.8638913726 -2.2631335561
O -4.4298004274 2.3002404950 -2.1639130599
C -4.7565117776 2.2636575482 -0.7640681101
C -3.9712644997 1.0678215678 -0.1560378675
C -3.3833989051 1.3870035390 1.2549156975
C -4.1616992818 2.4493056856 1.9844602145
C -4.6718748360 3.5181280719 1.3678224838
C -4.4809831047 3.6261695597 -0.1218268403
O -5.3827966292 4.5931602192 -0.6638992077
C -5.4052960038 4.6115676083 2.0739740137
C -1.9117256718 1.7804351289 1.1380573587
O -1.4940604389 2.8266139375 0.6931558462
O -1.1342843601 0.7862545654 1.6048246725
O -4.8421556001 -0.0517960451 0.0708362115
C -1.9110330628 -4.8616972127 -0.4142661204
C 0.5688892896 -5.0223211098 2.5767782191
C 6.1364619209 1.6565790510 -1.8840115878
H 2.6467834200 -2.0911822788 -2.2433005499
H 3.9177058807 -2.7592734831 -3.2824997578
H 4.1854466058 -2.6057624044 -1.5396142157
H 5.3588308204 -0.7916809764 -2.8495560915
H 3.8081476633 -0.2536472163 -3.4931319533
H 4.6433541787 -0.2325894749 -0.5524774773
H 4.1135397675 2.0092070771 -2.5466582244
H 4.7890588466 2.1655637949 0.4306009422
H 4.5345439143 3.5370722104 -0.6508037201
H 2.1913582113 2.8241987135 -1.0584477201
H 2.4540402502 3.0072148826 0.6830927885
H 0.4949583902 -0.1775672554 -0.3116073459
H 0.2993972543 1.5610513030 -0.5727304705
H 0.5730158186 1.9298245411 1.8989801889
H 0.2402142300 -1.0634174206 2.2058183211
H 0.8498910244 0.0785397177 3.4039025392
H 2.9510779647 -0.6392795929 2.8033850486
H 1.8792711299 -1.8062981275 0.1998145149
H 3.4734749095 -2.0398376484 0.9026568713
H 2.2598669837 -3.0483880813 3.0047343112
H 0.5417913153 -5.1476785872 -0.0822993507
H 1.0220336226 -3.5166408541 -0.4974268428
H -1.4334200393 -3.4487213678 1.1342996255
H -0.7251180262 -2.5126335359 -1.6981875625
H -2.5875583054 -1.3975253401 0.4674577217
H -1.5848842190 -0.3973825694 -2.2976513276
H -2.3756252414 2.6938285609 -2.0262273592
H -2.8824285804 1.5352532980 -3.2901032095
H -5.8319986807 2.0766909469 -0.6805167367
H -3.4234888226 0.4500245520 1.8137485576
H -4.2496217790 2.3424588891 3.0623133257
H -3.4415597328 3.9287283340 -0.3213962708
H -5.2667521865 4.5600260620 -1.6215912622
H -6.4246617118 4.7086204762 1.6880790629
H -4.9172157806 5.5765432175 1.8971293247
H -5.4431482966 4.4220309622 3.1492621349
H -5.1297431655 -0.3634355900 -0.7969048581
H -1.7941098847 -5.7478718007 0.2191356878
H -2.9707458085 -4.5937583265 -0.4510540192
H -1.5907513842 -5.1259553478 -1.4283475806
H 0.8831343536 -6.0186846536 2.2407861985
H -0.5260296396 -5.0485835923 2.6471803019
H 0.9692895229 -4.8537690750 3.5794264102
H 6.4894496825 2.6920434528 -1.9279544652
H 6.4269546832 1.1686623837 -2.8180731456
H 6.6656211022 1.1613572011 -1.0610100728
