48
CONF68
C -0.4820093036 1.3986378580 1.5006600483
C -0.8117679164 -0.0570670273 1.2190012616
N 0.2777110880 -0.9705558961 1.5952799245
C 1.6225425188 -0.5022023326 1.2332611672
C 1.8228596119 0.9747425317 1.5224955665
N 0.7831734763 1.7725890107 0.8785939149
C 1.0402135008 3.2147408996 0.9979362430
C 2.1135674395 3.7043398808 0.0251551606
C 1.6402482186 3.8395455540 -1.4265213684
N 1.0035369641 2.6348059091 -1.9414523382
C 1.6476996040 1.4373332137 -2.0795603517
O 2.8477583737 1.1729148231 -2.0267776636
N 0.5865971403 0.5480609562 -2.3208517667
C 0.6364392087 -0.8091282385 -2.5096880073
C -0.5340300982 -1.4797616270 -2.6685908769
C -1.7753502467 -0.7711691600 -2.6439972537
C -1.8204050814 0.5803906206 -2.4453575831
C -0.6020507450 1.2752324423 -2.2542181534
N -0.3699802311 2.5497052237 -2.0126298128
C 0.0258604707 -2.3306360852 1.4274363182
C 1.0848364997 -3.2602671431 1.3227612917
C 0.8040791136 -4.6123682496 1.2056114003
C -0.4838330180 -5.1253452737 1.1648756217
C -1.5247062469 -4.2028342925 1.2447832459
C -1.2910161281 -2.8404499484 1.3662872222
Cl 2.1671090081 -5.7329923881 1.0848639861
H -0.4589017477 1.5718486025 2.5964397466
H -1.2908514069 2.0082550706 1.0819204690
H -1.7049967152 -0.3030259403 1.7992186445
H -1.0578228237 -0.1771978385 0.1508241704
H 2.3640761121 -1.0495445885 1.8219120653
H 1.8256458260 -0.6967496491 0.1659700826
H 2.8088009518 1.2504013856 1.1357627639
H 1.8308140407 1.1466390538 2.6185583179
H 1.3323701446 3.4788983892 2.0327101314
H 0.1002501024 3.7416753603 0.7893292969
H 2.9915464927 3.0524138194 0.0658555074
H 2.4510964527 4.6984011889 0.3402376445
H 2.4891952865 4.0841584967 -2.0740567994
H 0.8978541498 4.6365929030 -1.5184426714
H 1.6239203346 -1.2558167884 -2.5202002917
H -0.5165289921 -2.5522947697 -2.8160773019
H -2.6980709074 -1.3246711751 -2.7800716301
H -2.7517565368 1.1336973529 -2.4142748430
H 2.1186524681 -2.9473419578 1.3318478604
H -0.6676787846 -6.1878991126 1.0661598665
H -2.5501145034 -4.5576855824 1.2050659140
H -2.1455498149 -2.1801302134 1.4136869253
