119
CONF71
C 2.7250046440 -1.1269273796 1.8382964536
C 3.4189584622 -2.4021927995 1.3460398670
C 4.9111923008 -2.1822840981 1.1046188392
C 5.6094355970 -1.6306740502 2.3530480064
C 4.9180877094 -0.3475632398 2.8605527956
C 5.6635040241 0.2183882308 4.0737811552
C 7.1251812757 0.4797746938 3.7494163565
O 7.7942814952 1.1488493765 4.8314125226
C 7.8839674654 -0.8001453339 3.3124958303
C 8.0356402572 -1.7629087123 4.4891792488
C 9.2527310996 -0.3193022931 2.6647199972
C 9.0247679273 -0.3539754179 1.1288661110
C 7.5246937072 -0.5913334105 0.9205282408
C 7.1229762561 -1.4554010100 2.1150771551
O 7.7094467891 -2.7453551942 1.8256692924
C 10.4532566980 -1.0760409264 3.1114472621
C 11.0023711035 -2.2162274090 2.6592672948
C 12.1684554489 -2.5449753181 3.4715837753
O 12.9362740552 -3.4835207280 3.4101031752
O 12.3224619232 -1.5665227331 4.4304039780
C 11.2791408127 -0.5914910079 4.2613991764
C 3.3959766102 -0.5708375603 3.1242938284
C 3.1660103184 -1.5440905602 4.2935129405
C 2.6754117324 0.7430909123 3.5020111595
C 2.6200210591 1.7825341770 2.3840201319
C 1.9627096549 1.2141724033 1.1355228911
C 2.6440521701 -0.0823408277 0.7123855033
O 0.5640268474 0.9836781314 1.4677657298
C -0.2863171406 0.9236448199 0.3679071954
C -1.6142115941 0.3381806725 0.8066346056
C -2.6155089753 0.3546057031 -0.3424118892
O -2.1923506435 -0.6086248143 -1.3116170949
C -2.6889159593 1.7655324140 -0.9530632678
O -3.4390009030 1.8002214917 -2.1819608410
C -4.7751946466 1.4025836894 -2.0960141151
C -5.5644476207 2.0718165889 -3.2033174655
C -6.9961569669 1.5479191639 -3.2437101906
O -7.6781671242 2.0365457374 -2.0862382267
C -6.9962997149 0.0089273451 -3.2790695847
O -8.3085447284 -0.5498773999 -3.0914941836
C -9.2645607253 -0.2022974999 -4.0501192598
C -10.3052909432 -1.3017162788 -4.1346483278
C -11.4448260958 -0.8851285350 -5.0623818211
O -10.9916608190 -0.7664851804 -6.4259573768
C -11.9899193631 0.4925731875 -4.6825923093
O -12.9747189536 0.9217115286 -5.6208437290
C -10.8538520951 1.5190109503 -4.5570862483
C -11.3266995839 2.8611685830 -4.0439507877
O -9.8925207223 1.0136557407 -3.6067945692
C -6.1307890006 -0.5722999924 -2.1591264854
C -5.9991417140 -2.0788235885 -2.2225634174
O -4.8079122125 -0.0237620422 -2.2942053773
C -1.2946146360 2.2986567503 -1.2965654402
C -1.3127823376 3.7301565580 -1.7909696450
O -0.4916153331 2.2673879550 -0.1067566657
H 1.6908333135 -1.3812277698 2.1107878688
H 3.2827996866 -3.2046093101 2.0816337608
H 2.9375835138 -2.7434315984 0.4206247392
H 5.3867689198 -3.1205135845 0.8019360052
H 5.0502450814 -1.4790982887 0.2745328806
H 5.5215075003 -2.3886981469 3.1472980638
H 4.9987053941 0.3992864099 2.0582996883
H 5.5922147007 -0.4711402158 4.9249312796
H 5.2208216961 1.1683888689 4.3893654302
H 7.1717762919 1.2009694694 2.9240838778
H 7.5992930303 0.6658429764 5.6446396042
H 7.0644610603 -2.1531848596 4.8082074239
H 8.6721993767 -2.6111099089 4.2273019080
H 8.4957569526 -1.2735170715 5.3527943687
H 9.4023226471 0.7135551755 2.9974849358
H 9.5889951633 -1.1783033948 0.6879281346
H 9.3729753439 0.5692636457 0.6579616763
H 7.3150499607 -1.0985018270 -0.0242749945
H 6.9648956735 0.3484816248 0.9243978809
H 7.4659217306 -3.3525331505 2.5364284250
H 10.6723191129 -2.8425720794 1.8432338536
H 11.7317361782 0.3858867764 4.0493008450
H 10.7055559491 -0.5136006523 5.1929331464
H 3.4523394088 -1.0838801787 5.2447921642
H 3.7209894779 -2.4798289895 4.1944135209
H 2.1011423408 -1.7942778032 4.3568579960
H 3.1279875475 1.1809924566 4.3983253597
H 1.6475314916 0.4792185253 3.7817806190
H 3.6284714797 2.1211658374 2.1162014448
H 2.0646469230 2.6670281794 2.7156039359
H 2.0039054184 1.9482909251 0.3204618405
H 2.1189372719 -0.5238425379 -0.1439306377
H 3.6426062905 0.1854097406 0.3473873898
H 0.1549822175 0.3359002964 -0.4555376275
H -1.4792965564 -0.6907452216 1.1553428409
H -1.9923031274 0.9413676939 1.6397054599
H -3.6080462328 0.0801976638 0.0442635244
H -2.9245066351 -0.6723242739 -1.9455174152
H -3.1578126234 2.4411053759 -0.2191687307
H -5.1932001860 1.6297091730 -1.1004496826
H -5.0615417786 1.8590494857 -4.1534294413
H -5.5792507313 3.1559756165 -3.0539809277
H -7.4876133912 1.9254443774 -4.1521986073
H -8.6121418187 1.8104666653 -2.2230017105
H -6.5908724367 -0.3206646300 -4.2495416383
H -8.7911274914 -0.0185704146 -5.0300332882
H -9.8457959971 -2.2272075598 -4.4987454253
H -10.6942089484 -1.4848345368 -3.1256186630
H -12.2630607463 -1.6159062652 -5.0080220919
H -10.9113225764 -1.6550700831 -6.7924139276
H -12.4881249792 0.4133432781 -3.7080407474
H -12.6189280452 0.7128311708 -6.4973939053
H -10.3630004040 1.6361729949 -5.5372915383
H -11.7898336506 2.7482706056 -3.0579847631
H -12.0626181192 3.2859172900 -4.7303524723
H -10.4838864644 3.5534330616 -3.9611859487
H -6.5534470707 -0.2634693949 -1.1898252222
H -6.9778368633 -2.5494843692 -2.1085652748
H -5.3453203566 -2.4308512190 -1.4194222596
H -5.5720532565 -2.3814661530 -3.1844265048
H -0.8477621841 1.6380032794 -2.0575359570
H -0.2925710537 4.0692523464 -1.9914384777
H -1.7606424697 4.3857369101 -1.0367236962
H -1.8941700434 3.8068451712 -2.7122619143
