47
CONF48
C -1.2238930677 0.2119362227 3.3319206269
C -1.4352710845 -0.5223401826 2.0270679756
C -2.8245958705 -0.9084411673 1.6329806266
C -2.1726132724 0.2892959091 0.9478588956
C -1.8080235466 0.1568861201 -0.4677670361
O -1.6565754561 -0.8730878800 -1.0871383664
O -1.6204074943 1.4018761601 -1.0171216151
C -1.2108875437 1.4145468046 -2.4053043049
C -2.0624658614 2.3779568137 -3.0972453965
N -2.7277917377 3.1265175114 -3.6712360660
C 0.2686603662 1.7305920552 -2.5241566526
C 1.1488046123 1.0651225055 -1.6703296276
C 2.5178778576 1.2764486257 -1.7756833672
C 2.9888991569 2.1648619467 -2.7472891716
C 2.1251820345 2.8334035711 -3.5907568989
C 0.7540983981 2.6151699085 -3.4819801063
F 4.3126200214 2.3742996945 -2.8417477941
O 3.4524784684 0.7253309407 -0.9428908415
C 3.2042695851 -0.4931197359 -0.3305487033
C 2.6640594339 -1.5746741468 -1.0208082135
C 2.5213431941 -2.7900622743 -0.3601650134
C 2.9239824974 -2.9289300705 0.9656411904
C 3.4729906610 -1.8399391652 1.6361692013
C 3.6105666214 -0.6138088795 0.9936220743
C -3.9863934996 -0.6926494059 2.5209294120
C -5.2069860053 -0.4040274358 2.0698357144
Cl -5.5541666910 -0.2064252149 0.3818415322
Cl -6.5746125086 -0.1933821978 3.1208421710
C -0.2890276343 -1.4249121023 1.6369633480
H -2.0482842795 0.8919367603 3.5634077045
H -0.3007915555 0.7985082226 3.2874480551
H -1.1273200088 -0.5035505973 4.1566377398
H -2.8938928217 -1.7692995875 0.9682594245
H -2.5006878705 1.2776503324 1.2496489368
H -1.4089842896 0.4167322271 -2.8222619650
H 0.7802319811 0.3773426227 -0.9180286673
H 2.5324271854 3.5206355457 -4.3236381455
H 0.0723909793 3.1420980891 -4.1403596474
H 2.3649440737 -1.4669410638 -2.0575717956
H 2.0994301573 -3.6361758201 -0.8926985288
H 2.8129626708 -3.8820672495 1.4711973550
H 3.7936147474 -1.9400377708 2.6681012073
H 4.0382625171 0.2472232642 1.4951806561
H -3.8638876259 -0.7989965148 3.5949424945
H -0.4803632255 -1.9603634852 0.7061883196
H -0.1192869625 -2.1626587198 2.4287592233
H 0.6371129942 -0.8504811014 1.5209141424
