21
CONF75
F -0.0092820249 -2.4006755438 0.3061553232
C 0.2031154944 -1.0664218556 0.4526056294
F 0.2282744849 -0.7829229327 1.7797378014
C 1.6069020117 -0.7241405911 -0.1408567150
F 1.6561873135 -1.2433342550 -1.4069874001
F 2.4869092159 -1.4748708136 0.6111450290
C 1.9962240464 0.7316234550 -0.1351950722
C 3.4474213833 0.9713513697 -0.5702938647
O 4.4044541397 0.6972239467 0.4541357255
C -1.0036684191 -0.3043421914 -0.1762544771
F -0.8906808524 -0.2966518702 -1.5254534782
F -0.9852520656 0.9747665856 0.2696514883
C -2.4069808832 -0.9002031248 0.1687876855
F -3.3514289280 -0.0438774036 -0.2476658731
F -2.5342681602 -1.0738605410 1.4913244467
F -2.5962959956 -2.0723348385 -0.4472413861
H 1.3301787349 1.2560254405 -0.8285213462
H 1.8356351516 1.1435794059 0.8659278695
H 3.5484630789 2.0352079735 -0.7996184061
H 3.6728505484 0.4081669479 -1.4854622961
H 4.4914623902 -0.2594787793 0.5410581007
