65
CONF739
C -3.2150001189 3.4531553870 -2.3302343541
C -2.1900810148 2.7256758836 -1.4635580318
C -1.6672457991 3.5883246935 -0.2920610941
C -2.7724072058 3.9873297360 0.6884767247
C -0.5405184989 2.8265032897 0.3700422229
O 0.6391146500 2.9766996051 0.1088077606
O -1.0029185153 1.9144134523 1.2463768846
C -0.0278913665 1.0413796302 1.8958382781
C 0.4583323093 1.6834787252 3.1838638681
C 1.5153892981 0.7943727028 3.8571012275
C 1.0954006551 -0.6457879017 3.8362669329
C 0.0933866175 -1.1434144261 3.0865052810
C -0.7401254439 -0.2729538471 2.1659059217
C -1.1044408625 -1.0499675927 0.8831672700
C -1.9488561762 -2.2734623374 1.2939141506
C -1.2080902666 -3.0831049463 2.3242377956
C -0.2627246269 -2.5538265007 3.1199259736
C -2.4048179102 -3.1259044941 0.1068455030
C 0.1526098001 -1.4223407645 0.0624733375
C 0.2040115393 -0.6895262702 -1.2793067447
C 1.5146525128 -0.8898504868 -2.0183357530
C 1.7908758191 -2.3217277388 -2.4282558509
C 3.0164468217 -2.3687419503 -3.3147411136
C 2.7349010434 -1.5586483013 -4.5737310911
C 2.0886836686 -0.2129603175 -4.3395106114
O 2.0775982676 0.6580290642 -5.1871820519
O 1.4427870795 0.0165688614 -3.1820349582
O 3.2893822777 -3.7382138338 -3.6296938705
C 2.9098727014 0.9675213365 3.2280472832
H -3.4934621597 2.8351689318 -3.1891245616
H -4.1286133017 3.6784053857 -1.7727971936
H -2.8069560387 4.3960697360 -2.7104968116
H -2.6286757477 1.8065165391 -1.0541663697
H -1.3368466132 2.4244526147 -2.0838330041
H -1.2040763678 4.4885087534 -0.7120260710
H -2.3541261821 4.4806539637 1.5710734542
H -3.4645558298 4.6851778791 0.2107855129
H -3.3384204833 3.1118550909 1.0197104530
H 0.8077834860 0.8973889462 1.2048997045
H 0.8744371488 2.6745333002 2.9743756734
H -0.4025236479 1.8112504549 3.8515822812
H 1.5975830002 1.1058862589 4.9080448748
H 1.6599137066 -1.3290000927 4.4710336471
H -1.6820047081 -0.0362248267 2.6856727571
H -1.7415222440 -0.3996630158 0.2704033031
H -2.8618377718 -1.8774528628 1.7683324639
H -1.4542218509 -4.1401992276 2.4098720538
H 0.2669336123 -3.1832799624 3.8326553506
H -3.0870366688 -3.9130119422 0.4438991047
H -2.9314616572 -2.5085341666 -0.6283578555
H -1.5621393078 -3.6115078377 -0.3951643947
H 1.0598462992 -1.1901855513 0.6365143598
H 0.1827595596 -2.5024204655 -0.1056685962
H -0.6231473715 -1.0200170368 -1.9214079583
H 0.0731753971 0.3871889695 -1.1174201904
H 2.3461792695 -0.5120308458 -1.4079007838
H 0.9265049681 -2.7395878066 -2.9615614500
H 1.9592113572 -2.9165240535 -1.5253943880
H 3.8709600275 -1.9322393251 -2.7742658520
H 2.0254226857 -2.1227141422 -5.1957058411
H 3.6334509663 -1.3947072900 -5.1753928781
H 4.0956565273 -3.7673756280 -4.1606376257
H 3.6399330040 0.3170248409 3.7200869516
H 3.2483111186 2.0038199621 3.3292934780
H 2.8952376630 0.7097528099 2.1639353262
