45
CONF3
C -1.9630961858 -1.8208961527 1.4517604668
O -2.4620981984 -1.0770240306 0.3143662387
C -2.1888777474 0.2407397919 0.3534214665
O -1.5987891007 0.8070729789 1.2619407253
N -2.6561281603 0.8954108697 -0.7533875823
C -2.3164138978 2.2202289674 -1.1267485049
C -3.3662697164 3.0619129406 -1.5062477071
C -3.1141140181 4.3608855446 -1.9228768204
C -1.8045652913 4.8334086151 -1.9601628307
C -0.7603896031 3.9896645624 -1.6022199250
C -0.9832590904 2.6708789093 -1.1939455335
C 0.2059754929 1.8382425807 -0.8174442383
O 0.1127863499 0.5505545277 -1.4784159889
C 0.7909401696 -0.4660932858 -0.9162898229
N 1.5772251657 -0.3316994207 0.1460500413
N 2.0420405053 -1.5951721311 0.3779425694
C 1.5515903270 -2.4909343320 -0.5272864486
C 0.7382969440 -1.7978317001 -1.3908537940
C 2.8814084058 -1.8471352420 1.4806856320
C 3.6868899836 -2.9885144371 1.5019529071
C 4.4967992339 -3.2474694116 2.6001288128
C 4.5095250151 -2.3503883121 3.6614552048
C 3.7263376986 -1.2028450251 3.6463961973
C 2.9057254258 -0.9529665817 2.5538141445
Cl 5.5433770473 -2.6723401893 5.0481852156
O -3.5490934484 0.2281255406 -1.6000278574
C -2.8576360512 -0.3115199615 -2.7501529796
H -2.4190887676 -1.4574664697 2.3756267675
H -2.2523516698 -2.8539493326 1.2623033714
H -0.8749425512 -1.7324871727 1.5124947566
H -4.3812484968 2.6826881442 -1.4641680785
H -3.9400106700 5.0042858957 -2.2082331395
H -1.5952084543 5.8485271418 -2.2809881628
H 0.2634201159 4.3483969594 -1.6577481414
H 0.2425292702 1.6832677920 0.2646944096
H 1.1295080983 2.3316933910 -1.1389032653
H 1.7869317830 -3.5431201733 -0.4775106098
H 0.1778253817 -2.1842500105 -2.2271403219
H 3.7040297637 -3.6730815690 0.6620505199
H 5.1230463923 -4.1319737547 2.6169110097
H 3.7446692278 -0.5116499594 4.4812603474
H 2.2797774326 -0.0696783995 2.5358244516
H -3.6435092279 -0.7682902128 -3.3548534100
H -2.3656177664 0.4879305732 -3.3149933444
H -2.1279470001 -1.0642776548 -2.4386671349
