22
CONF1
C -1.1107715112 0.0905860711 -0.7756955736
C -1.1752675995 0.3391387061 0.5895087340
C -2.3838065790 0.6860385421 1.1830841269
C -3.5415786788 0.7852868596 0.4007707151
C -3.4767221119 0.5346108634 -0.9731964424
C -2.2540464567 0.1859621249 -1.5611496456
Cl -2.1233422697 -0.1331074962 -3.2551766631
Cl -4.8962435739 0.6509833856 -1.9519763379
Cl -5.0418724679 1.2174929884 1.1415738553
Cl -2.4139676288 0.9859622073 2.8853039014
O -0.0655405071 0.2533528054 1.3894738946
C 1.1107711043 -0.0905876069 0.7756958219
C 1.1752672137 -0.3391402967 -0.5895085077
C 2.3838065952 -0.6860385189 -1.1830842130
C 3.5415788932 -0.7852858280 -0.4007708834
C 3.4767222338 -0.5346099176 0.9731963208
C 2.2540462790 -0.1859625552 1.5611497811
Cl 2.1233419932 0.1331068769 3.2551768323
Cl 4.8962439635 -0.6509809870 1.9519760312
Cl 5.0418730355 -1.2174902405 -1.1415743132
Cl 2.4139676854 -0.9859619325 -2.8853040483
O 0.0655397877 -0.2533559514 -1.3894733864
