41
CONF33
C 4.3445871204 -1.8792308518 -2.3422254687
C 4.1077541006 -2.7488567024 -1.1282696216
O 2.7496047144 -2.5606645396 -0.6114189858
C 2.5355858701 -1.5237820516 0.1675357624
N 3.4605853833 -0.6829777476 0.5551698017
C 3.1031781863 0.3189185467 1.3685524080
C 1.8490002883 0.5781025038 1.8503075341
C 0.8559248893 -0.3172212170 1.4214349082
N -0.4534625654 -0.3999140618 1.6354878750
C -0.7954084583 -1.4924443457 0.9075795400
N 0.1611934494 -2.1271062225 0.2432792248
N 1.2387273170 -1.3654684890 0.5762400198
S -2.5272860129 -1.9750545311 0.7104057858
O -3.1869735856 -1.7543240277 1.9896563135
O -2.5505162373 -3.2352692691 -0.0159354866
N -3.0829582048 -0.7765098107 -0.3973532858
C -3.3463566370 0.5182476417 0.1040866890
C -2.4321565832 1.5887495898 -0.0393406500
C -2.7429389412 2.8492149423 0.4769619478
C -3.9441608878 3.0645403329 1.1335390493
C -4.8636894135 2.0318175614 1.2571525962
C -4.5739152443 0.7771861583 0.7337913364
Cl -5.8052250392 -0.4488843240 0.8114871976
C -1.1585836801 1.3951087032 -0.7745676488
O -0.9238925667 0.4913585337 -1.5593839459
O -0.2594188216 2.3637422281 -0.5041144864
C 0.9655338090 2.2854565587 -1.2622670204
F 4.1121868398 1.1284552713 1.7114263990
H 5.3272677954 -2.1141784770 -2.7624828895
H 4.3325229573 -0.8197694368 -2.0761307003
H 3.5872964285 -2.0697021407 -3.1070154823
H 4.1280614362 -3.8108034813 -1.3784311624
H 4.8194997167 -2.5430491415 -0.3251034126
H 1.6235062947 1.4097451919 2.5021345819
H -2.4252119332 -0.7474460614 -1.1798128973
H -2.0334559550 3.6571832973 0.3546305541
H -4.1782829443 4.0438429346 1.5360541428
H -5.8206778839 2.1929605956 1.7394878233
H 1.5926756643 3.0912112062 -0.8819212674
H 1.4497569351 1.3166493919 -1.1131844207
H 0.7601220079 2.4208058309 -2.3274431559
