36
CONF15
C -0.5404792802 -1.8269846609 -0.6734638776
C -0.5716436042 -0.6779744573 0.3118284359
C -1.1066115593 -1.0675324906 1.7143934366
C -1.4896606822 0.2928626890 2.3669731483
C -1.1205502478 1.3089330430 1.2666704728
C -1.4818250015 0.5486255163 -0.0381408167
C -2.9703710385 0.2014608319 -0.1535773432
C -1.0990371069 1.2951230054 -1.3203060473
C 0.4173764579 1.3592665695 1.2080776757
C 0.8062180770 -0.0178973088 0.6103150201
O 1.6489741333 0.1752608427 -0.5383534158
C 2.6544299067 -0.8238420787 -0.7189274812
C 3.5471357676 -0.3443889074 -1.8408852339
O 4.2009881976 0.8887897211 -1.5127630067
H -0.1162033422 -1.5202767035 -1.6349210489
H 0.0603770290 -2.6582827138 -0.2867956005
H -1.5526762799 -2.2064417783 -0.8518051176
H -1.9738334483 -1.7276547376 1.6176766813
H -0.3498339023 -1.6145129884 2.2869465007
H -2.5539113390 0.3332395640 2.6161884501
H -0.9313154158 0.4868447789 3.2880454493
H -1.5923092768 2.2898686955 1.3814743533
H -3.5579937346 1.1220473528 -0.2463210624
H -3.1514445739 -0.3937144002 -1.0555046621
H -3.3590909609 -0.3591270594 0.6981170440
H -1.2826977397 0.6600385774 -2.1945892069
H -1.7270921799 2.1876913910 -1.4251610641
H -0.0546590672 1.6023424746 -1.3523060982
H 0.8625804606 1.5243268714 2.1939448398
H 0.7763693181 2.1523054709 0.5462947310
H 1.3623134354 -0.6337496844 1.3307089219
H 2.2181546985 -1.7974277746 -0.9856486813
H 3.2376251829 -0.9429582774 0.2079320181
H 2.9544351047 -0.2340937287 -2.7616971358
H 4.3335637558 -1.0830974816 -2.0237866067
H 3.5026990338 1.5009300586 -1.2437103802
