22
CONF352
C 2.3196139117 -0.3883888007 -0.7615005351
C 0.9384052808 -0.7348368495 -0.2095890219
C 0.1200516164 0.5070917645 0.1594517863
C -1.1935422387 0.1921757796 0.8914882875
C -2.1643616255 -0.6855542597 0.1077952642
O -2.7349426038 0.0117256350 -1.0105033110
O -1.8336116722 1.4266725291 1.2545662096
O -0.1254339990 1.2038578370 -1.0780986807
O 1.0660429551 -1.6040944256 0.9186058806
O 3.1709448050 0.1492567719 0.2627915200
H 2.2306948506 0.2989699388 -1.6102416133
H 2.7992917266 -1.3114463752 -1.1017831939
H 0.3997042410 -1.2951734258 -0.9849280842
H 0.7139158037 1.1462758697 0.8323604896
H -0.9404642375 -0.3239648782 1.8237415664
H -1.6682055400 -1.6129722119 -0.2098967224
H -3.0032485226 -0.9564368740 0.7565491677
H -1.9905020537 0.3391741248 -1.5398303948
H -2.4142427129 1.6595403706 0.5144936383
H -0.4151437584 2.0989012646 -0.8565542837
H 1.7472975156 -1.2109732954 1.4849572974
H 2.9777364588 1.0901995104 0.3561248339
