37
CONF77
C -0.8943218357 -0.0267680397 -3.1918258637
C -1.9661172291 -0.7050713871 -2.3720316188
O -2.2651284564 0.1128864176 -1.1900545352
P -1.8635342259 -0.3466504643 0.2692575522
O -2.0451723652 0.6964999008 1.2985110333
O -2.6540235462 -1.7139642717 0.4628160979
C -2.8498106426 -2.2569264072 1.8135379847
C -1.5696557622 -2.8054194404 2.4034101814
O -0.3251148823 -0.8820355462 0.1166362882
P 1.0229413423 -0.0790026223 0.5399313875
O 1.4142358923 -0.2181505991 1.9590493018
O 1.9858853082 -0.7323312043 -0.5491197560
C 3.4297768812 -0.7329417806 -0.3063300444
C 4.0318039057 0.6454061712 -0.4715398019
O 0.7865173280 1.4081942753 0.0140021238
C 0.5756107045 2.5116100329 0.9641251347
C -0.1853066409 3.5882728805 0.2323812859
H -0.7224031610 -0.6015662795 -4.1075795262
H 0.0458427772 0.0305618863 -2.6370642694
H -1.2040239814 0.9844450760 -3.4689343004
H -2.9114599949 -0.7780568196 -2.9156974830
H -1.6646150483 -1.7097562755 -2.0600367997
H -3.5943267619 -3.0424906502 1.6690177556
H -3.2784028333 -1.4666957717 2.4377108706
H -1.1155750642 -3.5415104424 1.7341623375
H -0.8423079009 -2.0136695089 2.6044435098
H -1.8044690576 -3.2978673400 3.3526063700
H 3.8192273754 -1.4308478482 -1.0504592889
H 3.6123758578 -1.1377819790 0.6941927818
H 3.7837273214 1.0633626321 -1.4510245035
H 3.6798625362 1.3306568768 0.3054191477
H 5.1208507591 0.5713070756 -0.3887555125
H 0.0159510345 2.1384708238 1.8242129865
H 1.5635827255 2.8521377058 1.2904348339
H -0.3336947977 4.4417169136 0.9011750761
H 0.3661810117 3.9286089026 -0.6486180388
H -1.1649077690 3.2153667997 -0.0779622963
