111
CONF81
C 2.9272292452 -1.1510987236 1.4653490446
N 1.9536467060 -1.9752478893 2.1948395875
C 2.3535047329 -3.2163516936 2.8291776758
C 0.7269920913 -1.8503186052 1.5631619030
C -0.3899927673 -2.6758442862 1.6664682198
C -1.5460494452 -2.2963810987 0.9724969992
O -2.6851113524 -3.0520577465 0.9820604994
C -2.6945612103 -4.2656259761 1.7397816165
C -1.6076272633 -1.1198727085 0.1985407292
C -0.4470267941 -0.3405091534 0.1020816161
C 0.7068127732 -0.7031155515 0.7646138393
C 2.0312554669 0.0059291504 0.9265773554
C 1.9243343293 1.1396344046 2.0147681335
C 2.3188113101 2.4194049953 1.2776850949
N 3.2458257235 1.9311120926 0.2581244059
C 3.5753395606 2.9185178680 -0.7588062974
C 4.2947476499 2.2714029678 -1.9020369306
C 4.2398443738 0.9613136190 -2.1288733148
C 3.3913406924 -0.0018633760 -1.3309882635
C 2.4646167201 -0.7566113673 -2.3326789760
C 1.7265799844 0.1346058274 -3.3304087454
C 4.3513081340 -1.0082336383 -0.6526993270
O 5.3614299191 -0.2458605156 0.0522335590
C 6.6547208787 -0.6144833752 -0.0793267696
C 7.5438458591 0.3144508697 0.6883003439
O 7.0268397132 -1.5615918234 -0.7427999105
C 3.6729363764 -1.9664626397 0.3703131988
O 2.7659783463 -2.8092428115 -0.3103157363
C 4.7709943856 -2.8802527804 0.9528781411
O 4.9643695677 -3.9974005593 0.5111702408
O 5.4805564613 -2.3254583454 1.9330249535
C 6.5634089090 -3.1391145726 2.4640278139
C 2.5433729753 0.7721362718 -0.3107914944
C -2.9370711122 -0.7030939521 -0.4359929807
C -3.9930782090 -0.3631943147 0.6443989344
C -3.5698298570 0.6111918690 1.7725046333
C -2.7691412460 1.8565931697 1.3697195112
N -3.5694848216 2.9015139042 0.7270330066
C -4.5778474343 3.3789492103 1.6800671698
C -5.2910264368 2.2924405029 2.4620894634
C -6.5296991806 2.7576770310 3.1796952685
C -7.2281188807 1.7287631756 4.0618618615
C -4.8120603662 1.0437044266 2.5088720703
C -4.2256815747 2.4393820855 -0.5213155538
C -3.3037116519 1.7280056756 -1.4632539060
C -2.7808277982 0.4413680191 -1.4247136033
N -1.9964957704 0.2474845921 -2.5501839588
C -1.9774884441 1.3823499885 -3.3173189574
C -1.3401362480 1.6464464501 -4.5297416220
C -1.5091811983 2.9118287023 -5.0756151639
C -2.2963671408 3.8853212629 -4.4314354674
C -2.9367224447 3.6127871234 -3.2311008418
C -2.7854697309 2.3423248902 -2.6546727331
C -3.5257447269 -1.8589336090 -1.2841915548
O -4.7066706072 -2.1079339683 -1.3892003925
O -2.5663821765 -2.5147120817 -1.9622039790
C -3.0325926034 -3.5701980010 -2.8392387205
H 3.6870912649 -0.7577871696 2.1440837940
H 3.2849884838 -3.0582355556 3.3799224125
H 2.4942542894 -4.0387935882 2.1099501495
H 1.5894645780 -3.5192075475 3.5520639244
H -0.3602182454 -3.5867130520 2.2493264563
H -3.6899744278 -4.6895612756 1.6025176543
H -1.9399395732 -4.9686438180 1.3679725530
H -2.5228361448 -4.0664000959 2.8040643049
H -0.4601251845 0.5613186631 -0.5023884171
H 2.6195752630 0.9416661226 2.8353563846
H 0.9151535166 1.1964644745 2.4288514562
H 2.7967197593 3.1635724487 1.9241490610
H 1.4273522644 2.8890664780 0.8133906649
H 4.2039744381 3.7007468965 -0.3130757993
H 2.6639370660 3.4307735134 -1.1404397736
H 4.8725283126 2.9185944175 -2.5574727691
H 4.7879257936 0.5252753278 -2.9640289240
H 1.7370287119 -1.3407487489 -1.7672755054
H 3.0811860993 -1.4768753722 -2.8848527077
H 1.0709637504 0.8567976220 -2.8337532626
H 2.4118791736 0.6919393564 -3.9751869930
H 1.0935822260 -0.4897881122 -3.9689700752
H 4.8348686164 -1.6203092303 -1.4216510796
H 7.1527292448 0.4649299748 1.6975734210
H 8.5564687400 -0.0855142595 0.7234771142
H 7.5516579416 1.2892117937 0.1888289458
H 3.2654283967 -3.6060057311 -0.5571065265
H 6.1574756205 -4.0560111949 2.8968887343
H 7.0332132213 -2.5226313327 3.2285605986
H 7.2693034175 -3.3792468096 1.6660456391
H 1.6456343837 1.1385064939 -0.8472344672
H -4.8885235834 -0.0025928046 0.1385760412
H -4.2814810252 -1.3015705916 1.1232207924
H -2.9342316588 0.0360335288 2.4621103389
H -1.9312531745 1.5969213813 0.7231908044
H -2.3432901304 2.2942441761 2.2825809094
H -4.0953736080 4.0643077145 2.3960943072
H -5.3180972155 3.9825254270 1.1363910416
H -6.2624808519 3.6386136459 3.7830684175
H -7.2364657974 3.1363507202 2.4264124291
H -7.5675932742 0.8672925131 3.4776411957
H -6.5617568230 1.3604967853 4.8487209741
H -8.1042430856 2.1737966101 4.5424047250
H -5.3463133286 0.2751612452 3.0647374306
H -4.5991226741 3.3343646637 -1.0332582650
H -5.1144117232 1.8272751459 -0.3044790379
H -1.4963760734 -0.6049940241 -2.7501015945
H -0.7359814902 0.8938767926 -5.0254122275
H -1.0263361039 3.1543214238 -6.0171560096
H -2.4041704298 4.8651878677 -4.8862267537
H -3.5430638139 4.3735305943 -2.7483150268
H -2.1342222396 -3.9811263472 -3.2980801560
H -3.5527283323 -4.3346693695 -2.2571305218
H -3.7032209108 -3.1613134731 -3.5988696850
