85
CONF76
C 3.7752421160 0.8133493357 -4.3645366282
C 4.7474964933 1.4421931458 -3.3686625563
C 4.4691338933 1.0359048672 -1.9291296454
C 5.4294109707 1.6484918880 -0.9042235776
C 4.9375383228 1.3056780227 0.5063147260
C 3.4861124628 1.7321001856 0.6948845960
C 2.6014206154 1.1230591737 -0.4006737475
O 3.1103062979 1.4582165902 -1.6659546401
C 1.1643014078 1.6592231866 -0.3870916774
C 0.3777352718 1.1015354951 0.7850739189
C 0.4500226490 -0.4109545042 0.7706407407
C 1.9004951118 -0.8640834210 0.7880409496
O 2.6058843963 -0.3155530310 -0.3295691676
C 2.0054659653 -2.3893273499 0.7112238772
C 1.4713406547 -3.0026749390 1.9695065109
C 0.5316002561 -3.9432491213 2.1278712326
C -0.1679820535 -4.6794946038 1.0151813399
C -1.6686127117 -4.3101589738 0.8209138130
C -1.8247564039 -3.1581567492 -0.1178366054
C -2.4718249596 -2.0033143586 0.1130844764
C -2.5543232818 -0.9819512428 -0.9083745314
C -3.0989185874 0.2448852709 -0.8567381456
C -3.0295845920 1.2201465933 -1.9943683141
O -4.1131502125 2.1443275453 -1.8059789024
C -4.9115531852 1.7185608111 -0.7096663152
C -3.9890504916 0.8601096940 0.2011310259
C -3.2719149277 1.7214096581 1.3023290984
C -3.3432939427 3.2125406516 1.0907610555
C -4.3852860670 3.8123547029 0.5158442216
C -5.4955991729 2.9624897014 -0.0549572004
O -6.4948521298 2.6154166819 0.9131878688
C -4.5272483847 5.2944976760 0.3933161204
C -1.8526924886 1.2819977723 1.6176419262
O -1.5257783119 0.7800058476 2.6693731991
O -1.0004177457 1.5635630541 0.6106279090
O -4.7461273680 -0.0985992547 0.9461611931
C -2.4354031202 -5.5220291230 0.2638860964
C 0.1371903971 -4.3909834822 3.5108156438
C 6.8676664407 1.1721622680 -1.1045375903
H 4.0332680117 1.0928147235 -5.3903839632
H 3.8014353742 -0.2795750110 -4.2950248500
H 2.7509271622 1.1356670492 -4.1660271550
H 5.7707315670 1.1412416629 -3.6176607134
H 4.7073956169 2.5372298388 -3.4372236481
H 4.5138166934 -0.0618737500 -1.8450184026
H 5.3879309541 2.7416814953 -1.0279727873
H 5.0275012098 0.2221088123 0.6631624362
H 5.5747132283 1.7940474512 1.2531473198
H 3.4013638782 2.8223558572 0.6105352199
H 3.1221086028 1.4599946535 1.6907865351
H 0.6910350028 1.3339407200 -1.3198518496
H 1.1829075779 2.7529980404 -0.3745467171
H 0.7342919854 1.4959436552 1.7446363299
H -0.0125818970 -0.7788889534 -0.1511617616
H -0.0841960295 -0.8429527276 1.6179719439
H 2.3797137556 -0.5360388652 1.7270740826
H 1.4747725234 -2.7356361939 -0.1811141879
H 3.0670258153 -2.6437894960 0.5850179197
H 1.9102363509 -2.5928055756 2.8811897307
H -0.1169786747 -5.7513762082 1.2518686988
H 0.3521699341 -4.5517849182 0.0601832999
H -2.1039585129 -4.0386786912 1.7899972080
H -1.3860509748 -3.3112783114 -1.1081137438
H -2.9062025111 -1.8047557715 1.0901880863
H -2.0597562957 -1.2421103813 -1.8468508311
H -2.0907195717 1.7923899601 -1.9814259194
H -3.1230905205 0.7191518561 -2.9682082972
H -5.7407574774 1.0696148178 -1.0456227505
H -3.8177205146 1.4825561834 2.2234692632
H -2.5352356081 3.8033940728 1.5157438902
H -6.0326292578 3.5290438298 -0.8245184392
H -6.1089531277 1.9768768395 1.5266698254
H -4.5615190541 5.5890208583 -0.6629143152
H -3.7019628382 5.8240579429 0.8758313118
H -5.4691363473 5.6240481916 0.8486655255
H -5.1203507457 -0.7244577162 0.3116696599
H -2.0063483089 -5.8414521858 -0.6928568577
H -2.3783728975 -6.3662790484 0.9589018592
H -3.4882138814 -5.2770885495 0.0977769885
H -0.9412080172 -4.2809695509 3.6756365925
H 0.6538239328 -3.8175204908 4.2837651728
H 0.3698390760 -5.4538441470 3.6545611032
H 6.9155413420 0.0765888218 -1.1127195910
H 7.5027401037 1.5251771145 -0.2854425320
H 7.3006592731 1.5375243409 -2.0393026777
