42
CONF215
C -6.1059874244 3.0461842000 1.4320269260
C -5.5465750218 1.8731203626 2.2314032173
C -4.6965199575 0.9327014892 1.4080067872
O -5.4270486384 0.4122789128 0.3080622006
C -4.4278161915 -0.0425544966 -0.5938546019
C -3.2451615867 0.9321279132 -0.3716999629
O -3.5876044345 1.6216796345 0.8347888064
C -1.9320627100 0.1896860094 -0.2438260148
O -0.8852704489 1.1503774486 -0.2026168075
C 0.3933820247 0.6928306541 -0.0502621502
C 0.7480360019 -0.6558650132 0.0298066496
C 2.0864757525 -1.0102730619 0.1850924129
C 3.0630242090 -0.0259680142 0.2454261817
C 2.7138586928 1.3186896265 0.1647681639
C 1.3826382609 1.6770542616 0.0233047764
O 4.3946924410 -0.3384696355 0.4726547322
C 5.0189218081 -1.2376871844 -0.3647860708
C 4.6257696102 -1.4451901290 -1.6858902274
C 5.3487924822 -2.3347199584 -2.4749226327
C 6.4530428726 -3.0085828066 -1.9617980490
C 6.8375566041 -2.7841731513 -0.6418483165
C 6.1236967710 -1.9039592628 0.1616930627
H -6.6946182171 3.7010967342 2.0804902201
H -6.7513100162 2.6946055958 0.6234542722
H -5.2970601850 3.6351591927 0.9930028050
H -6.3552184263 1.2794288691 2.6729152838
H -4.9234336841 2.2291503492 3.0595487729
H -4.3225933762 0.0902240161 2.0244953207
H -4.1308142129 -1.0782936133 -0.3547356029
H -4.8302034615 -0.0100786662 -1.6087219402
H -3.1664019311 1.6789010647 -1.1705555855
H -1.8034964997 -0.4811617359 -1.1105410121
H -1.9407305072 -0.4176313551 0.6745393551
H 0.0012226881 -1.4386453678 -0.0151535189
H 2.3698739545 -2.0551992472 0.2561716425
H 3.4917709747 2.0721940629 0.2212669246
H 1.0867458547 2.7185803733 -0.0357229557
H 3.7700064958 -0.9149799946 -2.0883619930
H 5.0454713065 -2.4941263763 -3.5049767051
H 7.0102142183 -3.6997954530 -2.5846433736
H 7.6976304962 -3.3025189349 -0.2298738925
H 6.4071046124 -1.7181454083 1.1918730160
