47
CONF146
C -4.9428417794 -3.8960832589 2.1947586167
O -5.3680278839 -3.6183064478 0.8309464274
P -4.4322147270 -2.7524794952 -0.1319929443
S -2.5990041990 -3.3096215719 -0.4096787123
O -5.2780998236 -2.7255612626 -1.4827851963
C -6.6803352122 -2.3137227862 -1.4721735496
O -4.6190963548 -1.2834972423 0.5592144574
C -3.7709301634 -0.2202349122 0.2498442253
C -3.8271264677 0.3854400431 -0.9974812130
C -2.9830257231 1.4602872360 -1.2637257159
C -2.1157983450 1.9299632804 -0.2769145535
C -2.0919823248 1.3234383728 0.9827286877
C -2.9107211093 0.2336950315 1.2432073137
S -1.0984358580 3.3588643550 -0.6271804303
C 0.5444617812 2.7737016778 -0.2275421605
C 0.9300471469 1.4438146781 -0.4119708074
C 2.2322775805 1.0505596896 -0.1269455227
C 3.1463037958 1.9996502816 0.3149969359
C 2.7844376196 3.3277166830 0.4875993358
C 1.4741231912 3.7127883846 0.2273326715
O 4.4513558052 1.6322525962 0.6580389112
P 5.4938659964 1.0946884501 -0.4644223167
S 5.4620481855 1.9651249161 -2.1936828968
O 5.2281158385 -0.4812661226 -0.6134279705
C 5.2187544386 -1.3262431532 0.5769902139
O 6.7959350121 1.2528753609 0.4560160723
C 8.0879581111 0.8833963664 -0.1036037403
H -3.9981492832 -4.4460465383 2.1850632251
H -5.7325728017 -4.5076908369 2.6295831476
H -4.8374718735 -2.9615838553 2.7521620238
H -6.7864026867 -1.3464746205 -0.9740130191
H -6.9655617176 -2.2300389058 -2.5202251148
H -7.2842891672 -3.0728111542 -0.9712087950
H -4.5072012991 0.0154361390 -1.7573795603
H -2.9983303073 1.9275609568 -2.2425671028
H -1.4253077260 1.6945873229 1.7541004851
H -2.8965068372 -0.2598293343 2.2090300989
H 0.2183055541 0.7091102479 -0.7723221789
H 2.5322124154 0.0164314141 -0.2589710281
H 3.5180599680 4.0455861718 0.8377257092
H 1.1776696582 4.7455389751 0.3805304242
H 5.0089576512 -2.3331466526 0.2177450426
H 6.1934027996 -1.2954588254 1.0703016436
H 4.4343950437 -1.0001930123 1.2654137261
H 8.8052373700 1.0170045973 0.7054032123
H 8.0791346085 -0.1606493210 -0.4300169818
H 8.3323729723 1.5414262561 -0.9414550786
