78
CONF972
C -0.8651303726 -0.6696000850 -0.3693680286
C -0.0477625460 -1.9459941228 -0.4991312282
O -1.0071933633 -3.0046554504 -0.1472450710
C -2.0159928126 -2.4978647890 0.6078872731
O -2.8770348357 -3.2120303367 1.0680321434
C -1.7992670824 -1.0147689263 0.7804456394
C -2.9964235131 -0.0631569068 0.8444341650
C -4.0148796916 -0.2850922150 -0.2683830081
C -5.0590027535 -1.1883844854 -0.0585951547
C -5.9933358838 -1.4368226733 -1.0658377208
O -7.0478788630 -2.2963423917 -0.9584495695
C -7.1815068100 -3.0141784129 0.2752449005
C -5.8868251732 -0.7747645769 -2.2944015908
O -6.8123115735 -1.0239852442 -3.2687158806
C -4.8461179321 0.1389306292 -2.4925474980
O -4.8572429463 0.7315038296 -3.7259768460
C -3.8272676925 1.6889815756 -4.0070277900
C -3.9151950411 0.3900728914 -1.4870708304
C -2.4533185218 1.3601923026 0.8379936071
C -3.3283271481 2.3725531646 1.2861139685
C -2.8899492067 3.6716992764 1.2356198729
C -1.6270592102 4.0002096940 0.7524382365
O -1.4446655090 5.3567980528 0.7990123132
C -2.6582526390 5.9077987912 1.3571432933
O -3.5590229974 4.8048021275 1.6089479880
C -0.7572939232 3.0393698959 0.3055172043
C -1.1805860758 1.6911586715 0.3520251346
C -0.1702765230 0.6478743466 -0.0905133178
O 0.8004746456 0.4733502705 0.9844881944
C 2.1113824460 0.7811582897 0.6488745218
O 2.6231064145 -0.2736408680 -0.1838781369
C 3.9673564877 -0.0050558173 -0.5720396513
C 4.4458727083 -1.0830234073 -1.5270738820
O 5.8282283398 -0.8209378134 -1.8369047677
C 6.6667713595 -0.7515201863 -0.6900657497
O 6.2208773136 0.2089898642 0.2565176155
C 4.8640445976 -0.0253798229 0.6634200815
C 4.4208687397 1.0582007268 1.6245703189
O 5.1783132985 1.1002910207 2.8340512658
C 2.9286052163 0.8680424263 1.9361598550
O 2.4325305322 1.9654610443 2.6940373905
C 6.8747719839 -2.1015966064 -0.0493834836
C 7.1435600093 -2.3884926312 1.2624503691
C 7.3970365389 -3.7683784123 1.4922136624
C 7.3312729656 -4.5187111134 0.3505408124
S 6.9511680297 -3.5398443694 -1.0285006525
H -1.4642427297 -0.5414049658 -1.2798485916
H 0.7775337628 -1.9904353090 0.2151975179
H 0.3093538697 -2.1579597605 -1.5075048871
H -1.2391497933 -0.9198553341 1.7255303496
H -3.5153702243 -0.2245161901 1.7962558883
H -5.1312047682 -1.6989132485 0.8926362085
H -7.3363353625 -2.3277537330 1.1159708390
H -6.2995540411 -3.6373328890 0.4645663784
H -8.0601346560 -3.6481175701 0.1528266467
H -6.5885050640 -0.4723004241 -4.0333403231
H -4.0123840011 2.0322298185 -5.0249560862
H -3.8834752446 2.5358914241 -3.3136090346
H -2.8365930104 1.2239761282 -3.9461436220
H -3.1314285489 1.1219426548 -1.6382719006
H -4.3200673236 2.1240105210 1.6504360163
H -3.1152479261 6.5872990104 0.6304899432
H -2.4268871486 6.4082440759 2.3034064740
H 0.2236204573 3.3027179229 -0.0760256398
H 0.3597731753 1.0023545624 -0.9823344500
H 2.1765484200 1.7345423220 0.0930434329
H 4.0408806537 0.9805916822 -1.0608212632
H 3.9083654126 -1.0540450178 -2.4775422897
H 4.3211218456 -2.0737670746 -1.0665646880
H 7.6167611621 -0.3578318403 -1.0674439359
H 4.7759843127 -1.0115033520 1.1473519130
H 4.5639359708 2.0397755973 1.1543067561
H 5.1268906470 0.2280619291 3.2514799353
H 2.7956983027 -0.0814004206 2.4826759904
H 3.0530096307 2.1031715018 3.4239190401
H 7.1551436276 -1.6296963238 2.0363171710
H 7.6169464401 -4.1884326918 2.4668232458
H 7.4718913557 -5.5852882339 0.2341028852
