21
CONF1
C -1.9003411874 0.0379121009 -0.6061868667
C -1.1165786770 0.6141827652 0.5751432097
C 0.2075710027 1.2702730200 0.1714809848
C 1.1066144425 0.3063336743 -0.6206763315
C 0.9955591806 -1.1438367207 -0.0960252221
C -0.4402279872 -1.4852908829 0.3246244459
O -1.3611862762 -1.2999286140 -0.7474799232
O -0.8394666012 -0.5789227017 1.3433229857
O 1.8615364846 -1.3482489101 1.0232499821
O 0.7343171817 0.4199363930 -1.9959279931
O 0.9577975428 1.6406379828 1.3343057141
H -2.9678573365 -0.0339231504 -0.3734553844
H -1.7505468573 0.5961082586 -1.5329747757
H -1.7109681437 1.2871817692 1.1993276820
H -0.0032084421 2.1478980869 -0.4575876520
H 2.1489125416 0.6267577230 -0.4780112951
H 1.3257521530 -1.8379513767 -0.8774305584
H -0.5147680492 -2.5067339143 0.7121724579
H 1.5690025122 -0.7338744835 1.7136283924
H 1.3018788528 -0.1739840639 -2.5035251216
H 0.3962075734 2.1954730496 1.8920247665
