47
CONF124
C -6.2048212474 0.9436270687 -1.4001549952
O -5.3685912190 -0.0516648818 -0.7670517649
P -5.7449695653 -0.5979749577 0.6931312079
S -6.3795106991 0.6799194439 1.9943917352
O -6.7160555906 -1.8220850242 0.3251831241
C -7.4162835738 -2.5198620049 1.3787348657
O -4.3919182286 -1.4173540416 1.0570051107
C -3.2478195531 -0.7424405527 1.4945819843
C -3.0339159525 -0.5776841152 2.8548709745
C -1.8572179816 0.0223146233 3.2864547776
C -0.9155673352 0.4731392451 2.3579407387
C -1.1543510577 0.3120840989 0.9911371801
C -2.3197983403 -0.3069554566 0.5579490861
S 0.5333014318 1.3100954649 2.9878285657
C 1.7673392937 0.9046382976 1.7614960797
C 2.0707938418 -0.4255120140 1.4569077135
C 3.0520365897 -0.7185072348 0.5227103677
C 3.7542439216 0.3191295008 -0.0825949068
C 3.4809979317 1.6459561673 0.2247463026
C 2.4731319626 1.9341178067 1.1401541793
O 4.7650971155 -0.0423575867 -0.9625180203
P 5.0078028603 0.7052137849 -2.4058338075
S 3.4356090423 1.1284254779 -3.4201295871
O 6.0879698312 -0.3161649221 -3.0140637554
C 5.6411067322 -1.5903697988 -3.5291576307
O 5.9300311870 1.9693841775 -2.0673085421
C 7.1308923580 1.8070919352 -1.2701913239
H -5.6826719775 1.2310880658 -2.3132695682
H -6.3287651480 1.8085933493 -0.7425785173
H -7.1812868292 0.5153104931 -1.6464009974
H -8.0841757020 -3.2214882296 0.8778729031
H -6.7058883384 -3.0660977753 2.0074614091
H -7.9899639058 -1.8137909541 1.9863961832
H -3.7789625902 -0.9243156552 3.5613919635
H -1.6684012580 0.1369721952 4.3488498465
H -0.4307359971 0.6654892833 0.2647758101
H -2.5198874474 -0.4459127135 -0.4984250150
H 1.5263141704 -1.2277506314 1.9434307908
H 3.2917945179 -1.7437402503 0.2633972280
H 4.0268003544 2.4468922625 -0.2616253383
H 2.2289487821 2.9663391794 1.3662596209
H 5.2360742798 -2.2050567880 -2.7190744075
H 4.8828739496 -1.4393003322 -4.3032082130
H 6.5248316226 -2.0676775328 -3.9534549649
H 7.8661571613 1.2079904510 -1.8130984989
H 7.5134165608 2.8148832246 -1.1064225146
H 6.8939929441 1.3353680521 -0.3114513834
