55
CONF154
C 3.8205641073 -4.0725925105 -3.0457007216
O 4.5157423442 -3.0406932437 -2.3304691711
C 3.7785378625 -2.2208126760 -1.5319118787
C 2.3953662811 -2.3213213430 -1.3555088664
C 1.7447658385 -1.4272053575 -0.5089695050
C 2.4427279183 -0.4273110511 0.1684860890
C 3.8293105172 -0.3492266621 -0.0122647109
C 4.4940312299 -1.2282848354 -0.8515720703
C 1.7693809503 0.5816997606 1.0611864302
S 0.6464945195 -0.3200582631 2.2451893275
C -0.4921651982 0.9544806302 2.7550292655
C -0.5264474941 1.3364892816 4.0991823877
C -1.4677540484 2.2544083356 4.5500725359
C -2.3658600790 2.8234833390 3.6502798289
C -2.3289978369 2.4668167367 2.3080669557
C -1.4067756832 1.5238388704 1.8494940516
N -1.4287058353 1.1519700462 0.4755686104
C -2.6760104234 0.5891378451 -0.0694337674
C -2.7531892825 -0.9046220025 0.2525227950
N -3.9993388996 -1.5091490738 -0.2194528530
C -4.0030488345 -1.6445727548 -1.6800466668
C -4.1699102579 -2.8308258842 0.3919622000
C -0.3177955049 1.1495542587 -0.3182297579
O -0.3312983697 0.7735310198 -1.4874615251
C 0.9652734336 1.6749954095 0.3323056111
O 1.8443022049 2.2040038434 -0.6737187404
C 1.4146959514 3.3376368903 -1.2854125078
C 2.4126352364 3.8144672874 -2.2919980541
O 0.3614911168 3.8734466785 -1.0106708666
H 3.0785204872 -3.6441301472 -3.7291481399
H 3.3304285360 -4.7672290454 -2.3538585539
H 4.5844027313 -4.6007968816 -3.6166663394
H 1.8170121905 -3.0848159829 -1.8608996043
H 0.6719733245 -1.5221344415 -0.3787819707
H 4.3950286554 0.4170080398 0.5105109050
H 5.5686561354 -1.1637198530 -0.9888972677
H 2.5357044397 1.0970486800 1.6486047037
H 0.1884448522 0.9002787203 4.7888085329
H -1.4891866745 2.5341396946 5.5981392528
H -3.0893065061 3.5577605985 3.9888697596
H -3.0141702667 2.9261379524 1.6030360547
H -2.6793201573 0.7759985439 -1.1439769760
H -3.5245498529 1.1106694190 0.3794633438
H -1.8631292232 -1.4137574183 -0.1685355372
H -2.7051713659 -1.0192644929 1.3428266904
H -4.9372040751 -2.1182678188 -1.9977351826
H -3.1595803800 -2.2629729193 -2.0430191987
H -3.9441970776 -0.6654627501 -2.1632324122
H -3.3477801576 -3.5244490254 0.1311465948
H -4.2069046068 -2.7352376095 1.4819150633
H -5.1108383210 -3.2743571931 0.0505603323
H 0.7246232750 2.4728782066 1.0406308373
H 2.7307875255 2.9884458916 -2.9327809873
H 1.9795078402 4.6168881337 -2.8875744281
H 3.2982251452 4.1860584465 -1.7659302946
