48
CONF5
C -5.7223938255 -1.7589738591 -1.4284213137
C -4.4949280201 -1.3147010767 -0.6463259023
C -4.5137761696 0.2132220871 -0.4528215830
N -3.3531952686 0.6520810828 0.3473096606
C -3.3308377072 -0.0433182472 1.6404155401
C -3.3047343934 -1.5657463188 1.4577313665
N -4.4181807719 -2.0466536944 0.6283870300
C -2.1675756230 0.9741794778 -0.2695392485
C -2.1251491002 1.8633266459 -1.3836051218
C -0.9705455437 2.2388052716 -2.0040211652
C 0.2714153600 1.7681931965 -1.5403304325
C 0.2682750978 0.9216905390 -0.4116220447
C -0.9205554024 0.5396032730 0.2044803728
N 1.4949416732 0.4447290353 0.0680512775
C 2.6553665907 0.8074077523 -0.5131828023
C 2.7165083452 1.6486361553 -1.5955557966
C 1.5035009758 2.1719569006 -2.1756307913
O 1.5184136704 2.9381663497 -3.1827806900
C 4.0489470454 1.9813494786 -2.1519322601
O 5.0989771638 1.5563745575 -1.6926820715
O 4.0293315931 2.7935266613 -3.2115284416
C 1.5366505961 -0.4431489668 1.1932954268
C 1.1820560077 -1.7806479521 1.0349675761
C 1.2029359121 -2.6742780391 2.0895945344
C 1.6046847047 -2.1784373482 3.3206385807
C 1.9727655102 -0.8586965394 3.5286618825
C 1.9289577548 0.0125276512 2.4469211960
F 1.6349134729 -3.0308211082 4.3654835405
F 0.7979455272 -2.2101687448 -0.1799062629
F -3.2823617380 2.4256794363 -1.8107811305
H -6.6373180896 -1.5196364544 -0.8734796565
H -5.7687345828 -1.2515297425 -2.3965257530
H -5.6965788896 -2.8385346711 -1.6011170068
H -3.5852487709 -1.5624469591 -1.2158324566
H -4.5181729368 0.7048476001 -1.4244227422
H -5.4264027014 0.5033639591 0.0860155565
H -4.2553405929 0.2345504252 2.1636733940
H -2.4923806223 0.3140469654 2.2449451833
H -2.3643785189 -1.8704064768 0.9788549586
H -3.3488843919 -2.0519139645 2.4386835515
H -5.2886170054 -1.8883758840 1.1344301879
H -1.0062633236 2.9338224491 -2.8353398049
H -0.8763619861 -0.1275346578 1.0525329840
H 3.5566092773 0.3881705127 -0.0786004754
H 0.9229590743 -3.7123196865 1.9539741142
H 2.2777234939 -0.5239755134 4.5129806366
H 2.1971642563 1.0567076963 2.5682332312
H 3.0461534693 3.0046872855 -3.4003786811
