26
CONF1
C 3.1554852967 -0.2849276787 0.7503203881
C 1.8094876694 -0.3072589998 0.0847610949
C 1.2761945226 -1.4309818872 -0.4041023322
C -0.0627620905 -1.5454099982 -1.0697032389
C -0.8345666593 -0.2480533409 -1.1969830363
C -0.2439230826 1.0393716929 -0.6524058896
C 1.1128581268 1.0256019893 0.0202079170
C -1.4641851754 0.4302622289 -0.0015185585
C -2.7842127274 1.1345748383 -0.2339072651
C -1.3501448108 -0.1996190748 1.3681931644
H 3.0685954127 0.0679664220 1.7863438202
H 3.6177174393 -1.2757606334 0.7597322775
H 3.8332458151 0.4109452582 0.2392789603
H 1.8436402127 -2.3576591111 -0.3185654931
H 0.0859708002 -1.9647458568 -2.0743130589
H -0.6652969218 -2.2981173297 -0.5365270186
H -1.3979349608 -0.1531590187 -2.1225946758
H -0.4388762940 1.9341009525 -1.2396560306
H 1.7768019182 1.7220470780 -0.5109903420
H 1.0405727812 1.4295642996 1.0431964323
H -2.9318960526 1.9371943619 0.4994646099
H -2.8255097978 1.5773854905 -1.2341444745
H -3.6225123683 0.4334230584 -0.1374628560
H -0.3964640902 -0.7121591852 1.5143670195
H -1.4480000256 0.5653713800 2.1479657880
H -2.1542852236 -0.9299568567 1.5190424701
