45
CONF1
C -7.7341684831 -0.3139677008 -0.9448013834
C -8.1928647968 1.1064915691 -0.6076991729
O -7.4696891903 2.1232345584 -1.3009192237
C -6.4644190517 -0.7887329491 -0.2740494755
C -5.1530984217 -0.0168851735 -0.6238413501
C -3.8303846069 -0.7941163811 -0.2914461106
C -2.5657640788 0.1363929196 -0.2251431044
C -1.2140139434 -0.6528779470 -0.3613856961
C 0.0259727468 0.1592180354 0.1599486204
C 1.3924339819 -0.3966073509 -0.3821263900
C 2.6254863271 0.0741573464 0.4704487823
C 3.9893804027 -0.0715322324 -0.2950565442
C 5.2343192036 -0.0554135267 0.6616291058
C 6.5756702581 0.2659472346 -0.0821736702
C 7.8578331739 -0.1262011887 0.7248268804
F 8.0127698697 -1.4535259496 0.7619492082
F 8.9262873558 0.4130170645 0.1235833818
F 7.7813428135 0.3438759829 1.9776914756
F 6.6326244048 1.5922624688 -0.3253603147
F 6.6102080304 -0.4040793895 -1.2571245953
F 5.3435943747 -1.2679147845 1.2495086599
F 5.0439039428 0.8822305624 1.6173519911
F 3.9871922038 -1.2401896933 -0.9743705605
F 4.1023109980 0.9507837756 -1.1720747500
F 2.4563872387 1.3735218620 0.8020893257
F 2.6776047010 -0.6700239490 1.5976185221
F 1.3516588245 -1.7475519835 -0.3666617036
F 1.5555167257 0.0291254141 -1.6545982837
F -0.0975423303 1.4469388468 -0.2314707258
F 0.0397296770 0.1040482767 1.5106300402
F -1.0178504474 -0.9514316578 -1.6656754158
F -1.3011464646 -1.7997248617 0.3488662570
F -2.5675041756 0.7866760939 0.9612419236
F -2.6308782411 1.0426171668 -1.2265617689
F -3.6201465939 -1.7302540262 -1.2476450682
F -3.9621678997 -1.4088992169 0.9060805829
F -5.1490160849 0.2521560525 -1.9525780813
F -5.1362120920 1.1504762524 0.0671820753
F -6.6064261811 -0.7497579594 1.0882251176
F -6.2500942495 -2.1053787432 -0.6162348265
H -7.6286904435 -0.4380002396 -2.0270063359
H -8.4992164027 -1.0230003221 -0.6059714889
H -9.2653715127 1.1716484370 -0.8325968865
H -8.0646156328 1.3082535548 0.4598720316
H -7.6773570387 2.0446717058 -2.2403468225
