24
CONF12
C -4.2745547324 0.2312547191 -0.9613564723
C -3.3165398472 0.3989048551 0.2082475021
C -1.8701953836 0.1287272481 -0.2370658026
C -0.7943169262 0.3448661217 0.8697043775
C 0.6182036813 -0.3223041329 0.6643979235
C 1.3870417495 0.0325694431 -0.6469499683
C 2.9019352770 -0.3622163268 -0.6355293104
F 3.5972566591 0.4187945674 0.1980919296
F 3.3915714655 -0.2040834318 -1.8738523204
F 3.0568418028 -1.6417087949 -0.2706734190
F 0.8080654549 -0.6168861102 -1.6815900997
F 1.3239553655 1.3657361803 -0.8686940826
F 0.4851976715 -1.6650340748 0.7352248566
F 1.3783464559 0.0837224108 1.7160515875
F -1.2684409713 -0.1852976635 2.0300902111
F -0.5900810189 1.6685035203 1.0587472972
F -1.7776393200 -1.1698345650 -0.6631914529
F -1.5267464083 0.9324581690 -1.2910871694
O -3.4128358712 1.6750452390 0.8224713971
H -4.1926933646 -0.7655112216 -1.4016517234
H -4.0768038235 0.9782367999 -1.7362747125
H -5.2941478344 0.3657637196 -0.5929935444
H -3.5400273506 -0.3362452605 0.9880708162
H -3.4036279976 2.3490267913 0.1281499443
