35
CONF45
C -5.4797634872 0.6442986008 -1.2740727078
C -4.2822815117 0.0039675836 -0.5851713458
C -4.7601900988 -0.7310835516 0.6648624933
O -5.1314109415 -1.8799408421 0.6549101726
O -4.7807043303 0.0635203983 1.7547999827
O -3.3588759899 1.0500697250 -0.3051697570
C -2.1300986364 0.7094074926 0.1915712797
C -1.2821356967 1.7856521433 0.4695660568
C -0.0121323304 1.5583724185 0.9731195285
C 0.4104798110 0.2521994323 1.1973631319
C -0.4216322729 -0.8210117450 0.9310893549
C -1.7018154680 -0.5986194440 0.4249661109
O 1.6630913031 0.0232738527 1.7655651386
C 2.7439715173 -0.0494814592 0.9397936222
N 3.8886576866 -0.2138907183 1.5883403400
C 5.0057329751 -0.3031380188 0.8670024284
C 5.0224369390 -0.2300413614 -0.5216442957
C 3.8087803754 -0.0584988870 -1.1886358586
C 2.6412887134 0.0360973216 -0.4568865972
C 6.2873860510 -0.3510090876 -1.3074758047
F 6.4310349897 0.6740707715 -2.1870300306
F 7.3844350027 -0.3630255814 -0.5205092533
F 6.3122142123 -1.4911103774 -2.0476388194
H -6.2231176947 -0.1200121661 -1.5126018363
H -5.9296536595 1.3966511542 -0.6215146359
H -5.1519482166 1.1258420617 -2.1980819140
H -3.8277678612 -0.7504589561 -1.2408831850
H -5.1188491037 -0.4758643203 2.4878230825
H -1.6421510194 2.7926101013 0.2907124918
H 0.6537917238 2.3838156423 1.2013273779
H -0.0731514259 -1.8296638131 1.1253817420
H -2.3400496472 -1.4521390569 0.2292967324
H 5.9295149189 -0.4366046826 1.4240682588
H 3.7820178778 0.0019072583 -2.2720597848
H 1.6828952946 0.1699329108 -0.9421835998
