57
CONF80
C -1.0161490956 -1.8348390845 -1.8424920482
C -1.3123021721 -0.9764609517 -0.6261881461
C -2.0666165422 0.3194116532 -1.0026512144
C -1.3856988509 1.1867850188 -2.0274774230
C -0.4779700759 2.1738699072 -1.6296364862
C 0.1517723334 2.9829592680 -2.5708872751
C -0.1165315943 2.8170231079 -3.9280085174
C -1.0224737849 1.8409895382 -4.3362035672
C -1.6539922552 1.0352043349 -3.3913994078
C -2.0835733517 -1.6828388452 0.4780708993
C -2.7575475479 -2.8840259746 0.2512796674
C -3.4927092518 -3.4872093845 1.2706550906
C -3.5621772582 -2.8992727464 2.5297849824
C -2.8962634065 -1.6969665955 2.7622411091
C -2.1691993631 -1.0916195695 1.7435557754
O -0.0208948533 -0.4812363034 -0.0658482525
P 1.1678233688 -1.4158678805 0.4223250049
O 0.8472830384 -2.7911273987 0.8624333673
O 1.8911949787 -0.4681363200 1.5110016235
C 1.1518286122 -0.0032871704 2.6121719003
C 0.9138137196 -0.8484936923 3.6868499486
C 0.1908439964 -0.3572980624 4.7718187298
C -0.2746859652 0.9556994883 4.7720243792
C -0.0106724824 1.7889215318 3.6858503396
C 0.7081361577 1.3115878908 2.5930456578
O 2.2762759071 -1.4555059078 -0.7404747939
C 2.6546734206 -0.3603583186 -1.5344512420
C 3.3096996527 0.7333791033 -0.9826032864
C 3.7310840066 1.7552674357 -1.8316885834
C 3.5067816866 1.6755246036 -3.2033336330
C 2.8573226099 0.5638783961 -3.7349429550
C 2.4262479313 -0.4638563243 -2.9008959519
H -0.5177811669 -2.7664978742 -1.5610928667
H -0.3783803094 -1.2779367226 -2.5311175193
H -1.9437760133 -2.0782147029 -2.3667616779
H -2.2242671394 0.8884819808 -0.0812324889
H -3.0503641707 0.0034608903 -1.3662666948
H -0.2697692484 2.3095224049 -0.5721177879
H 0.8548577992 3.7433501366 -2.2446982186
H 0.3765325538 3.4462346138 -4.6627040273
H -1.2433168627 1.7098203113 -5.3913294187
H -2.3678480321 0.2818214386 -3.7137420020
H -2.7131116859 -3.3651283782 -0.7189250472
H -4.0078984278 -4.4229520037 1.0765391516
H -4.1304781797 -3.3724041870 3.3244799324
H -2.9409422772 -1.2278704591 3.7404932618
H -1.6504416455 -0.1587248816 1.9418456952
H 1.2821657291 -1.8682853447 3.6671878627
H -0.0090910695 -1.0074237118 5.6175574301
H -0.8397059120 1.3309989056 5.6189518304
H -0.3681640598 2.8136370513 3.6840844128
H 0.9167692802 1.9373808151 1.7317828647
H 3.4951603261 0.7822256701 0.0834308327
H 4.2428569039 2.6153531258 -1.4115228964
H 3.8366802665 2.4767208840 -3.8564344901
H 2.6803394606 0.4925354023 -4.8033734277
H 1.9307027735 -1.3429103848 -3.2981942310
