38
CONF8
C -6.0325685276 -2.7220946070 0.0014336373
C -5.6671665541 -1.2893175414 -0.2775704982
C -4.3279799164 -0.9213441219 -0.4226265447
C -3.9861291440 0.4090943583 -0.6911761949
C -4.9923272447 1.3743271018 -0.8152555294
C -6.3228526817 1.0029738000 -0.6693378121
C -6.6654551426 -0.3182120717 -0.4014247020
N -2.6602576074 0.8533799511 -0.8487588973
C -1.5153592235 0.1243657377 -0.7764863226
O -1.3986686760 -1.0663699616 -0.5742734429
O -0.4475580580 0.9823916192 -0.9603508504
C 0.8213247915 0.4024423815 -1.0356064165
C 1.1771414934 -0.3679469130 -2.1343946076
C 2.4785737911 -0.8539769016 -2.1880068568
C 3.4061109556 -0.5790523165 -1.1865991189
C 3.0231483045 0.2050409049 -0.0913066852
C 1.7110857725 0.6955166797 -0.0188232863
N 3.8772570081 0.5429067103 0.9667647125
C 5.1943845787 0.2075196329 1.1289209256
O 5.8775163688 -0.4569093612 0.3704350809
O 5.6432400438 0.7399755410 2.2934019227
C 7.0305612491 0.4627993453 2.5910399012
H -6.6709562576 -2.7964266188 0.8878309709
H -5.1432233860 -3.3354686752 0.1629205463
H -6.5940784451 -3.1486439707 -0.8371805400
H -3.5533102082 -1.6691766160 -0.3262690552
H -4.7308132491 2.4077410620 -1.0233823001
H -7.0978705502 1.7571867709 -0.7654528819
H -7.7085595434 -0.5992839812 -0.2877940866
H -2.5380907943 1.8397435528 -1.0322332881
H 0.4562128735 -0.5774206351 -2.9163706400
H 2.7860757605 -1.4608591913 -3.0336382586
H 4.4124224151 -0.9647069071 -1.2540341945
H 1.3853458131 1.3030017511 0.8196026550
H 3.4800113681 1.1099156399 1.7026399385
H 7.1926050329 -0.6140399595 2.6815092890
H 7.2221315345 0.9583205685 3.5420977469
H 7.6764430343 0.8713778337 1.8100852720
