52
CONF1
C 1.8095092951 0.6326841876 -0.2080895766
C 2.9203184140 1.3700001481 -0.9738570331
C 4.2323170947 0.7102715471 -0.4802189153
C 3.8141868697 -0.4547864883 0.4661647760
O 4.7501803374 -1.5277669250 0.3002502028
C 3.8279800466 -0.0165334223 1.8620548744
C 3.8764385087 0.3189835738 3.0189581982
C 2.3606903080 -0.7897934861 -0.0188853920
C 2.4714500626 -1.5723229251 -1.3347358179
C 1.4615992835 -1.5305589374 0.9682823761
C 0.0055566050 -1.5384979507 0.4783177625
C -0.5369753608 -0.1263966159 0.1871380858
C 0.3886746099 0.6691172226 -0.7609262426
C -0.1144525671 2.1039626992 -0.8949657429
C -1.5447265038 2.1263426383 -1.4287343920
C -2.4862251260 1.2924190437 -0.6102624610
C -3.7352935708 1.7367277408 -0.3550771149
C -4.6490956510 0.8522661285 0.2979519713
C -4.3043058082 -0.3433624150 0.8546178076
C -2.8719235374 -0.7459023017 0.9151532455
C -2.0370700727 -0.1327334135 -0.2528036276
C -2.2783928715 -0.9805932505 -1.5220504614
C -5.5326672032 -0.8427061746 1.3380287944
N -6.5403624465 -0.0292428663 1.0896386848
O -5.9726951763 1.0714804415 0.4180027858
H 1.7626123300 1.0758188845 0.8001538571
H 2.9064195206 2.4456297073 -0.7804643493
H 2.7965125323 1.2345152171 -2.0544381276
H 4.8876347853 1.4081385110 0.0436642702
H 4.8094312638 0.2723474168 -1.2985044027
H 4.6813014241 -2.1004767781 1.0734153444
H 3.9116638698 0.6288954041 4.0355495092
H 2.8794615116 -2.5674382945 -1.1414015481
H 3.1332298851 -1.0859268083 -2.0547666942
H 1.4951141817 -1.6901725443 -1.8090917245
H 1.5099886797 -1.0301100350 1.9430078257
H 1.8059233041 -2.5628634912 1.1155740368
H -0.0749489152 -2.1618385320 -0.4185887051
H -0.6120596010 -2.0199706332 1.2429728218
H -0.5157125329 0.4260062032 1.1422040827
H 0.3817356425 0.2076808916 -1.7598058760
H 0.5370163963 2.6758780361 -1.5651993748
H -0.0749628065 2.5921364992 0.0891228557
H -1.9276966844 3.1498965399 -1.4962266009
H -1.5312706146 1.7324454896 -2.4567481277
H -4.0670273682 2.7172694767 -0.6821560510
H -2.7715170623 -1.8353150922 0.8922212294
H -2.4476975501 -0.4096724559 1.8739246054
H -2.0166327633 -2.0284305234 -1.3494663177
H -1.6972475746 -0.6188531776 -2.3741901697
H -3.3383537071 -0.9396822853 -1.7918338741
H -5.7376339831 -1.7689653381 1.8611356207
