63
CONF155
C 2.2461010352 1.7305767849 0.7253900384
C 1.0273867302 2.5493067408 1.1394454656
N -0.0635532221 1.6551195610 1.5243605331
C 0.3066264291 0.8997280925 2.7191517050
C 1.4814645328 -0.0216026940 2.3994961404
C 2.6616306635 0.7921926717 1.8613209156
N 3.7742919411 -0.0712654982 1.4648577333
C 3.7952169780 -1.0372843461 0.4606979895
C 2.8354242580 -1.4855912832 -0.4405788169
C 3.2049447299 -2.4953486626 -1.3344333572
C 4.4896708333 -3.0415583905 -1.3308010884
C 5.4576579081 -2.5954048819 -0.4277641115
C 5.0911225018 -1.5950980809 0.4573080705
N 5.8051098975 -0.9527219877 1.4520305295
C 5.0193425359 -0.0088391018 2.0870750585
O 5.3497937709 0.7329257667 3.0105952023
C -1.3481069065 2.3418022804 1.6533943964
C -1.9159129645 2.7820613679 0.2922412520
C -1.6689649680 1.7687096535 -0.8283609527
C -2.2170257580 0.3627478626 -0.5204531055
C -3.7305606114 0.3159065138 -0.6401149739
C -4.5288256780 0.1892609100 0.4985780390
C -5.9203613852 0.1695788427 0.4100193343
C -6.4939387605 0.2777768722 -0.8432029137
C -5.7430997345 0.4030655053 -2.0011192917
C -4.3569899060 0.4208325861 -1.8865728832
F -7.8511680714 0.2575266203 -0.9462247709
C -1.5523298450 -0.7257292750 -1.3446726335
C -1.0761624166 -0.5093306736 -2.6406522297
C -0.4629558404 -1.5311720587 -3.3644431075
C -0.3352445157 -2.7720285836 -2.7676885011
C -0.7894970806 -3.0346055000 -1.4865883527
C -1.3988001140 -1.9989653892 -0.7849261333
F 0.2744703751 -3.7727973114 -3.4616618105
H 3.0817132186 2.3946998738 0.4771764254
H 1.9963037906 1.1572950896 -0.1738624461
H 0.7087804180 3.1743937847 0.2991958334
H 1.2959726989 3.2326467259 1.9717985638
H 0.5735275460 1.5705808624 3.5621179919
H -0.5519888785 0.2978661864 3.0384114274
H 1.1555157741 -0.7579471718 1.6568511989
H 1.7935187060 -0.5651751096 3.2982627218
H 3.0557300228 1.4040136327 2.6819533505
H 1.8312601918 -1.0792969789 -0.4638281992
H 2.4705820766 -2.8581727649 -2.0456649222
H 4.7431797767 -3.8239192216 -2.0385480899
H 6.4590633575 -3.0124453183 -0.4161130247
H 6.7667134295 -1.1205544077 1.7021202039
H -1.2878717881 3.2189805907 2.3270059164
H -2.0448990068 1.6385507978 2.1250552875
H -2.9916406523 2.9598931283 0.4180328391
H -1.4817621092 3.7423659347 -0.0089313845
H -2.1105772047 2.1455627911 -1.7591279204
H -0.5905923581 1.6821348077 -0.9976891976
H -1.9728493779 0.1350247320 0.5214802300
H -4.0591580271 0.1040073694 1.4745739269
H -6.5450764097 0.0712768304 1.2913546209
H -6.2357015808 0.4814128158 -2.9644602706
H -3.7557862939 0.5126013530 -2.7866407487
H -1.1691085867 0.4683614139 -3.1021998036
H -0.0864998836 -1.3672150484 -4.3685284137
H -0.6591897102 -4.0193520646 -1.0506734440
H -1.7559130740 -2.1823280971 0.2251748419
