43
CONF34
C -3.1682704637 0.8092826976 2.8832921414
Si -1.5631361877 0.7627882838 1.9431390452
C -0.4480172796 2.2139357491 2.2527351043
O -0.6733454753 -0.5746221990 2.4167489851
O -1.9065987933 0.6956340570 0.3349964223
Si -1.8928912620 -0.3044066295 -0.9778489818
C -2.9816154114 0.4779621046 -2.2683721826
C -2.4562517400 -2.0136990136 -0.5006742242
O -0.3549485993 -0.4303138645 -1.5628330871
Si 0.9998563913 0.5109120739 -1.6527839220
C 2.0091930195 -0.1142975746 -3.0879609621
C 0.5368001043 2.3062809700 -1.8345058192
O 1.8642952244 0.3679125883 -0.2564698073
Si 2.5349279223 -0.8043099729 0.7007858796
C 1.8868629472 -2.4804567735 0.1938138308
C 4.3877775821 -0.6764275010 0.5945967168
O 2.1387378328 -0.4833670149 2.2781030186
H -2.9916846268 0.8777550024 3.9618341914
H -3.7551779866 -0.0957315057 2.6883339327
H -3.7696797619 1.6726327997 2.5786075263
H 0.4900219789 2.0970147494 1.6990105595
H -0.9256611050 3.1423411511 1.9222526581
H -0.2115858622 2.3095395918 3.3176889617
H -1.1437791022 -1.4072044315 2.5425504073
H -2.6315923356 1.4889067505 -2.5048817950
H -2.9750856062 -0.1101713516 -3.1923392982
H -4.0164117881 0.5491121938 -1.9161710875
H -2.4622257322 -2.6768809411 -1.3726831720
H -3.4703277134 -1.9873451577 -0.0870003545
H -1.7901929816 -2.4503084704 0.2515351448
H 1.4636503000 0.0046586216 -4.0304501945
H 2.9517576734 0.4381137539 -3.1675781932
H 2.2467403248 -1.1767930511 -2.9654198171
H 1.4335977942 2.9317000298 -1.9043008086
H -0.0583677572 2.4638086021 -2.7405471550
H -0.0509486283 2.6474454746 -0.9753271542
H 2.3371077087 -3.2674399263 0.8088344470
H 0.7997397186 -2.5247908816 0.3233478782
H 2.1113862360 -2.6985834088 -0.8561018754
H 4.7247382003 0.3232863081 0.8902016717
H 4.8724318391 -1.4088164824 1.2490577791
H 4.7280405111 -0.8594666350 -0.4305139866
H 1.1801327793 -0.5455906023 2.4532971053
