33
CONF150
C -4.0806192001 -2.2274053400 1.1979528870
C -3.1683351501 -1.0045170334 1.2942367206
C -1.7509688540 -1.4149932596 1.6656105331
S -0.5903830734 0.0154743955 1.8957218763
P -0.3381916803 0.5165116165 -0.1144323156
O -0.5245594392 -0.5900591485 -1.0864390559
O -1.2345074751 1.8162999618 -0.3599822645
C -1.6411769612 2.1605742910 -1.7239843665
C -0.5076970506 2.7913058922 -2.5027064055
O 1.1497848411 1.2086545390 -0.1194332928
C 2.2774520567 0.4561425493 0.1417276486
C 2.6383771751 -0.6164787858 -0.6666313828
C 3.8066739739 -1.3245676081 -0.4130353037
C 4.6096741648 -0.9391824348 0.6526273871
C 4.2735535507 0.1303681618 1.4713012192
C 3.0969654893 0.8241159820 1.2110546688
Cl 2.6449316356 2.1584553655 2.2323229062
Br 6.2234761567 -1.8972312649 1.0066262257
H -4.1291138889 -2.7620427276 2.1526451465
H -5.0986355840 -1.9331660457 0.9276040319
H -3.7204363381 -2.9274981850 0.4372635629
H -3.1507259214 -0.4787650070 0.3326862785
H -3.5519605736 -0.2974816952 2.0379643629
H -1.3136872198 -2.0776082940 0.9136726265
H -1.7278300453 -1.9258132467 2.6348496261
H -2.0157401854 1.2562953569 -2.2147552425
H -2.4679656380 2.8599274848 -1.5792271459
H -0.0982091439 3.6496480103 -1.9638281225
H 0.2971007281 2.0731615609 -2.6817593387
H -0.8824880550 3.1327524524 -3.4731243659
H 1.9847960486 -0.8945833172 -1.4855203036
H 4.0866320720 -2.1614288258 -1.0407023541
H 4.9038115849 0.4231347898 2.3011209594
