54
CONF185
C 3.9465319240 1.3559903425 -1.6135013656
C 3.4276146771 0.9255266655 -0.2483718351
C 3.1031082379 -0.5393822665 -0.1422991396
C 2.5486061280 -1.0804936367 1.0058486935
C 2.1657413542 -2.4364105039 1.0202318606
N 2.4477010711 -3.2122248219 -0.0401114368
C 3.0318026675 -2.6143750355 -1.0749845277
N 3.3492857133 -1.3303334103 -1.2053496636
N 1.5188135123 -2.9919019914 2.0785559941
C 0.8148338635 -4.2643670566 1.9717294789
C -0.3249133598 -4.2632893451 0.9477334428
O -1.2310290924 -3.1781674664 1.1749160581
C -0.9504554406 -1.9689315864 0.5620035975
C -1.1214628073 -0.8056588697 1.3231998310
C -0.8926920952 0.4510363407 0.7277467725
C -0.4476853900 0.5282796081 -0.6019897440
C -0.2984146996 -0.6526688581 -1.3308567062
C -0.5635861315 -1.8923785359 -0.7735247061
C -0.1466664611 1.8313682508 -1.3056287732
C -1.3219842480 2.3527950940 -2.1259558646
O -2.3817236769 2.6899392512 -1.2453420394
C -3.5615517986 3.0862755847 -1.9340975121
C -4.6286461903 3.3918117799 -0.9045624046
C -1.1008640310 1.6869838554 1.5623327720
C -1.5275104501 -0.9050747673 2.7684713304
Cl 2.2702934757 -0.0855046796 2.4280630733
H 3.2273521094 1.1185234636 -2.4012989757
H 4.8777728407 0.8427628790 -1.8632287257
H 4.1279597666 2.4346568395 -1.6183941838
H 2.5210171012 1.4869045437 0.0146750476
H 4.1546056411 1.1751244245 0.5360065907
H 3.2657036374 -3.2574503353 -1.9240931438
H 1.1455797007 -2.3328309035 2.7442875488
H 0.4186658838 -4.4889605072 2.9668747410
H 1.5222163361 -5.0568594357 1.7005243980
H -0.9097912143 -5.1817694702 1.0646906476
H 0.0857063077 -4.2402834834 -0.0639215553
H 0.0366832109 -0.6006039498 -2.3638075410
H -0.4539997113 -2.7878444464 -1.3736090918
H 0.6894272263 1.6738879053 -1.9976748820
H 0.1704660916 2.6090070409 -0.6045443278
H -1.0161059347 3.2385616166 -2.7103533601
H -1.6513536459 1.5745033360 -2.8364987845
H -3.8899312261 2.2763403034 -2.6074041119
H -3.3544013725 3.9729059763 -2.5582390511
H -5.5567426898 3.6956959589 -1.3976309350
H -4.8306001286 2.5073188963 -0.2941265521
H -4.3040381332 4.2012726070 -0.2446609905
H -0.2562127632 1.8455404034 2.2463217350
H -1.9993480286 1.5938389156 2.1783266234
H -1.2243513928 2.5755923900 0.9466363401
H -2.5596955315 -0.5660080161 2.9192801920
H -1.4723100083 -1.9369483212 3.1170448429
H -0.8894216290 -0.2785721903 3.4005602395
