119
CONF208
C -4.3073671560 4.0970140531 -3.1772129204
C -4.9270992770 3.2312921012 -2.0810777087
C -5.3760760030 1.8808054251 -2.6445168514
C -6.1107095719 3.9524921833 -1.4116967190
C -6.6922275152 3.0636945358 -0.3047540979
O -5.9698765165 2.7719130383 0.6625526297
N -7.9572230434 2.6255147149 -0.4221473723
C -8.9165050787 2.9482426546 -1.5017853010
C -10.1128336176 2.0917331496 -1.1442230655
C -10.4856271129 0.9133407632 -1.9979671896
C -11.3755024971 2.1331321725 -1.9427061480
C -10.0873805551 1.9717048473 0.3654086290
C -8.5926530727 1.8341559398 0.6705179053
C -8.1214229118 0.4092828452 0.6498605745
N -8.8610564287 -0.6791896955 0.5194304939
C -7.9753530996 -1.7247591416 0.5516092463
C -6.6754843889 -1.2703554980 0.6997007872
N -6.8002725360 0.1016248470 0.7646027454
C -5.3949623926 -1.9486150929 0.7217865103
C -4.2019149933 -1.2547477908 0.4333756915
C -3.0130457795 -1.9459950869 0.4482327742
C -2.9436754313 -3.3181555660 0.7287098602
C -4.1157405156 -4.0114152452 1.0121836786
C -5.3229772526 -3.3219772951 1.0142043761
C -1.5444920061 -3.7495735934 0.6514567560
C -0.7447416751 -2.6442428022 0.3243415510
C -1.6232127582 -1.4265833633 0.1646124968
F -1.5262619721 -0.8782260638 -1.0982631866
F -1.2649026093 -0.4113645744 1.0269364400
C 0.6195637848 -2.7424043899 0.1752803845
C 1.2391513866 -3.9928830032 0.3610350969
C 0.4361139253 -5.0967687524 0.6879139582
C -0.9450359281 -4.9897175564 0.8332707553
C 2.7008333995 -4.1290535677 0.2215103220
C 3.5391146045 -3.1082589337 0.6802830519
C 4.9043389617 -3.2813988635 0.5101610069
C 5.4659462364 -4.4263914669 -0.1021763289
C 4.6230254414 -5.4439530916 -0.5514385289
C 3.2572414994 -5.2809809669 -0.3832423848
N 6.8443090219 -4.3148094649 -0.1440453553
C 7.1022179756 -3.1544412795 0.4218793124
N 5.9818099794 -2.4940572312 0.8547332713
C 8.4939384795 -2.6004365728 0.5595149314
C 9.4525394682 -3.6216472042 1.2145629279
C 10.8864436599 -3.0492470140 1.1547761652
C 10.8711508118 -1.9057681470 2.2181451886
C 9.4040599513 -1.9262118516 2.6808840218
C 9.0877987459 -3.4238651803 2.6957007824
N 8.5927005270 -1.4778510077 1.5208476805
C 8.4295645841 -0.1503402612 1.2765234155
O 8.7467962897 0.7105859130 2.0921703615
C 7.8221992202 0.2474213937 -0.0814934903
C 8.9368714489 0.5189434556 -1.1202780653
C 8.3488480877 0.6015730586 -2.5303317498
C 9.7821762597 1.7546271846 -0.7965865650
N 6.9741568077 1.4180577733 0.0808524967
C 5.8958532349 1.3247758872 0.9101730346
O 5.4076179020 0.2785643328 1.3181294807
O 5.3981997517 2.5453074061 1.1971968774
C 4.2373931333 2.5367346846 2.0534876117
N -5.6799958561 5.2072889077 -0.8073867419
C -6.6156875144 6.1686621850 -0.5404916647
O -7.7475542589 6.1958232855 -0.9882339027
O -6.0897893515 7.1223370631 0.2726784781
C -6.9897515749 8.2054329215 0.5716891925
H -3.9726753871 5.0629108113 -2.7914583219
H -3.4474742513 3.5870344630 -3.6218928297
H -5.0357638007 4.2858284423 -3.9745160572
H -4.1810701862 3.0444554162 -1.2959372801
H -6.1160942243 2.0192244310 -3.4421702324
H -4.5240503890 1.3457484570 -3.0732912410
H -5.8208050280 1.2366968614 -1.8786829708
H -6.8603967251 4.2045092525 -2.1659325338
H -9.1524792776 4.0206146922 -1.4783793236
H -8.5126925104 2.6902157994 -2.4861455051
H -9.9144476035 0.7460196637 -2.9059065433
H -10.8057513301 0.0132137007 -1.4856676573
H -12.3142123990 2.0547314129 -1.4034150029
H -11.4065871689 2.7821759631 -2.8127921267
H -10.4692462703 2.8896447200 0.8274244290
H -10.6531889388 1.1150655990 0.7341168804
H -8.3075972808 2.2944272402 1.6243340048
H -8.3082698181 -2.7465018885 0.4355205045
H -6.0876353666 0.8088252100 0.9178408410
H -4.2120592077 -0.1985192212 0.1810101236
H -4.0970941997 -5.0720568577 1.2416780658
H -6.2372815300 -3.8523319025 1.2593423427
H 1.2090391236 -1.8767880362 -0.1096475758
H 0.9133194083 -6.0560668127 0.8606357663
H -1.5330803517 -5.8633319920 1.0964630972
H 3.1379613231 -2.2309267509 1.1764606973
H 5.0305417301 -6.3261584545 -1.0331194845
H 2.5839941018 -6.0433997748 -0.7613187189
H 5.9266591111 -1.5400644320 1.2101588645
H 8.8635356236 -2.3169680536 -0.4348898745
H 9.3247275843 -4.6197124337 0.7971227905
H 11.6128050790 -3.8248304945 1.4126439156
H 11.1367396502 -2.6878492594 0.1522517499
H 11.5416102728 -2.1197941231 3.0564963741
H 11.1428078839 -0.9287147025 1.8113270756
H 9.1728704931 -1.3360831857 3.5663773338
H 9.7429860189 -3.9767937711 3.3734971343
H 8.0420087540 -3.6492378590 2.9217372644
H 7.1959141996 -0.5629355209 -0.4694127680
H 9.6034751533 -0.3536393215 -1.0774980918
H 7.6398431002 1.4319383876 -2.6057864677
H 9.1420133112 0.7662679174 -3.2660451438
H 7.8210306699 -0.3192897946 -2.7982114030
H 10.1183457349 1.7608899239 0.2435647538
H 9.2294081932 2.6819893863 -0.9880822390
H 10.6611518478 1.7787239938 -1.4474899979
H 7.4474442234 2.3091038274 0.1173738023
H 4.4737795926 2.0647715753 3.0102772954
H 3.9800526600 3.5859152803 2.1957236289
H 3.4136037445 2.0005010993 1.5757627002
H -4.9128258551 5.1422160958 -0.1519894359
H -7.8876258515 7.8323108704 1.0714512732
H -6.4317579147 8.8694367530 1.2319746777
H -7.2790653518 8.7283113917 -0.3437577667
