53
CONF39
C -1.4260815734 4.4060833455 -1.5555288000
C -1.2772865498 4.3195398184 -0.0499364908
O -1.0195481102 2.9504434283 0.3561790225
C 0.2665872211 2.5236139308 0.3140744453
O 1.2022366523 3.2655704545 0.0313628165
C 0.3609955105 1.1102630065 0.6525021866
C 1.5713532417 0.4828844077 0.6092576164
N 1.6821326027 -0.8204407224 1.0080921854
C 0.6694904835 -1.5213521634 1.6182783035
C -0.5804095092 -0.9742530136 1.6865537865
C -0.9112854649 0.3323450286 0.9706943602
C -1.6985550338 0.0628611807 -0.3127156662
C -1.0904267104 -0.7087867308 -1.3112988719
C -1.7199174908 -0.9966336879 -2.5145611945
C -3.0018226190 -0.5074648399 -2.7539861948
C -3.6370625642 0.2607398494 -1.7862210601
C -2.9850540281 0.5352747638 -0.5853825316
Cl -3.8779890131 1.5205445458 0.5771974939
C -1.6455057055 -1.6743090264 2.3961972073
O -1.5625119484 -2.7409982025 2.9929569183
O -2.8141286285 -0.9837865150 2.3257914274
C -3.9398038896 -1.5924034613 2.9883069850
C 1.0951406401 -2.8449971553 2.1780828100
C 2.8879474348 1.1175708761 0.1837050305
O 3.9251331186 0.1555069872 0.0740983224
C 3.9490487915 -0.5191802116 -1.1958036359
C 4.6838650582 -1.8301230476 -1.0105667584
N 3.9063877483 -2.7288084527 -0.1382867681
H -0.4946846793 4.1273259235 -2.0557183666
H -1.6784672250 5.4323811110 -1.8401249279
H -2.2264193639 3.7443013716 -1.9005176187
H -2.2095472708 4.5793005126 0.4572303212
H -0.4724985102 4.9623911346 0.3165314388
H 2.5915622888 -1.2750475311 0.8975624549
H -1.5387825230 0.9395374324 1.6235737885
H -0.0895018687 -1.0894314157 -1.1270669750
H -1.2131184590 -1.5982386020 -3.2620933673
H -3.5109907845 -0.7197359474 -3.6884541629
H -4.6350507862 0.6489610047 -1.9570414625
H -4.7765742923 -0.9157409331 2.8146223895
H -4.1491922799 -2.5770744574 2.5618355317
H -3.7461942769 -1.6938127482 4.0596640396
H 2.1336877127 -3.0508929480 1.9105499526
H 0.9992899322 -2.8480677161 3.2668351998
H 0.4563908468 -3.6485107763 1.8063499067
H 2.7522857835 1.6704981232 -0.7518035801
H 3.1967689589 1.8410934632 0.9451203923
H 2.9224541380 -0.7071325386 -1.5485842862
H 4.4563941755 0.1125138431 -1.9391160074
H 4.8938649365 -2.2528914375 -2.0054729860
H 5.6485712189 -1.6251601579 -0.5326446319
H 4.4991590334 -3.4753263629 0.2076286484
H 3.1776635877 -3.1809431477 -0.6827205160
