42
CONF2
C 0.3617654253 -4.1561759751 1.1026833077
C 0.6010055820 -2.6813042228 0.8069306007
C 1.5438370492 -2.5123451218 -0.4115299783
C 1.9061491159 -1.0780545732 -0.6628105766
C 1.3428525406 -0.3065079683 -1.6876275843
C 1.5804851466 1.0542465712 -1.8451219116
C 2.4381603562 1.6755001056 -0.9518009227
C 3.0722477684 0.9658150399 0.0573998309
C 2.7965554231 -0.3878420470 0.1739831671
Cl 3.6242986585 -1.2515730007 1.4557783721
Cl 2.7443935095 3.3877066611 -1.1136493858
Cl 0.2978882907 -1.0523321227 -2.8887136064
N -0.6592812756 -1.9606584112 0.6160041298
C -0.7662138239 -0.6184721856 0.9408177495
O 0.0003652610 -0.1241706202 1.7646743899
C -1.8401561766 0.1847093017 0.3350819640
C -2.5042936692 0.0928674348 -0.8823451057
N -3.2864387525 1.1886797523 -0.9796725417
N -3.1996524382 1.9944422310 0.0950617340
C -2.3199111178 1.4011824444 0.8925860632
C -1.9736735534 1.9841759155 2.2291251360
F -2.4745964487 1.1608630091 3.2186727014
F -2.5599756055 3.2076656537 2.3844877977
C -4.1651819082 1.5568149523 -2.0756237049
O -1.4458433999 -2.4545603338 -0.4409889115
C -2.6473184177 -3.0564324003 0.0762487623
H 1.3175868128 -4.6434358864 1.3142829119
H -0.2826601601 -4.2769741088 1.9774669702
H -0.0945780166 -4.6643750494 0.2475778548
H 1.0513066127 -2.2009226186 1.6785684514
H 2.4507057986 -3.0910277243 -0.2100715931
H 1.0629554491 -2.9447339459 -1.2911832787
H 1.1120301511 1.6087573078 -2.6471868680
H 3.7539343500 1.4534514479 0.7413951386
H -2.4435046922 -0.6390362750 -1.6706119275
H -0.8965532694 2.0779953542 2.3921247084
H -5.2027840214 1.5836561305 -1.7313483876
H -4.0614028628 0.8171529940 -2.8713161797
H -3.8890445833 2.5442716248 -2.4541547197
H -3.2501548507 -2.3178746447 0.6165030871
H -2.4166401429 -3.9023389359 0.7311510909
H -3.1906019915 -3.4072606327 -0.8052838018
