48
CONF22
C -3.9587137091 -0.6260307204 -4.2569500632
C -2.6717285607 -1.1535666342 -3.6406129406
C -2.1025609271 -0.1484321996 -2.6361458392
N -0.8877425938 -0.6830563764 -1.9899919781
C -1.1491821027 -1.9563580404 -1.3226142517
C -1.7216326325 -2.9518499728 -2.3347348316
N -2.9103517765 -2.4705805986 -3.0367295395
C -0.0633711572 0.2279199256 -1.3410975657
C 0.4953942663 1.3231421920 -2.0499200893
C 1.3425771224 2.2259563328 -1.4738608611
C 1.7135391583 2.0865643885 -0.1274824552
C 1.1930643515 0.9985127037 0.5962492009
C 0.3177377905 0.0891037114 -0.0051403651
N 1.5653262695 0.8493073546 1.9372489277
C 2.4296177906 1.7210478903 2.5164636746
C 2.9848633710 2.7789346094 1.8570412364
C 2.6447106278 3.0343731766 0.4751384151
O 3.1097908621 3.9981560296 -0.1714097381
C 3.9285698201 3.6466604988 2.6293715944
O 4.2151464709 3.4223733852 3.7865686465
O 4.4294175651 4.6790309013 1.9481966648
C 1.0446194482 -0.2209466781 2.7276963764
C -0.2698402125 -0.1764952056 3.1902465189
C -0.8054808122 -1.1836183710 3.9736727670
C 0.0253459294 -2.2462985400 4.2965917342
C 1.3408866503 -2.3323452617 3.8674976034
C 1.8415201159 -1.3083218869 3.0728855189
F -0.4741889618 -3.2312066154 5.0618384151
F -1.0377615695 0.8718390776 2.8626891103
F 0.2214170599 1.4448891016 -3.3683689274
H -4.7202887221 -0.4564108507 -3.4861069018
H -3.7859152400 0.3237991896 -4.7713279954
H -4.3555293733 -1.3467092150 -4.9760246373
H -1.9196012216 -1.2966409930 -4.4305792257
H -1.8678285177 0.7915754057 -3.1365693084
H -2.8673423431 0.0612880787 -1.8628475390
H -1.8576286048 -1.8332755078 -0.4790943269
H -0.2069395555 -2.3465105955 -0.9211994625
H -0.9496695458 -3.1712461263 -3.0840876196
H -1.9605848117 -3.8908205724 -1.8226346311
H -3.6826175620 -2.3919399320 -2.3780666348
H 1.7658589548 3.0381885155 -2.0541064544
H -0.0834317917 -0.7259208877 0.5813321504
H 2.6682977338 1.5453353428 3.5608967222
H 4.0459851583 4.6469790310 1.0226986405
H -1.8267693565 -1.1331698856 4.3304526697
H 1.9489886657 -3.1824999804 4.1510860394
H 2.8640251665 -1.3407253747 2.7118407303
