24
CONF62
C 2.7358568120 -0.7344217254 0.2773694534
C 1.5400669358 -0.3150385993 -0.5598412278
C 0.2799256785 -0.1837649539 0.2917600372
C -0.9360653161 0.2338799514 -0.5518275212
C -2.2506600850 0.0545089324 0.2387869651
C -3.3898523683 0.5517500961 -0.6085717790
O -4.1137468202 1.4563400059 -0.2435517151
O -2.2213763561 0.7190909598 1.4933109836
O -0.8009654593 1.5743652126 -1.0161584535
O 0.5587666552 0.8063682924 1.2864674613
O 1.2649723859 -1.3008312343 -1.5603376170
O 3.8344143440 -0.8900718822 -0.6368378488
H 2.9570200742 0.0318201393 1.0297576436
H 2.5131051824 -1.6854636404 0.7826647976
H 1.7569998161 0.6565135180 -1.0330431624
H 0.0660055528 -1.1613197902 0.7532720007
H -0.9928753962 -0.4130074892 -1.4340438311
H -2.3980017050 -1.0266002154 0.3981190096
H -3.5150277684 0.0584578458 -1.5910063130
H -2.8499011544 1.4592997506 1.4328125213
H -0.4304078675 2.0885039775 -0.2823326787
H -0.2628072824 0.9266494658 1.7915368864
H 2.1195605403 -1.5342964669 -1.9495913935
H 4.5349938132 -1.3727319494 -0.1830208212
