47
CONF131
C -5.4584312449 -0.3411771224 1.6648929497
C -4.4152884210 0.6169763328 2.1991126799
C -4.4626290784 2.0207142699 1.6932270811
C -3.3747162863 1.0609566395 1.1628562264
C -1.9745371080 1.3185550403 1.5057708992
O -1.5269740942 1.8019908918 2.5252907685
O -1.1639933210 0.9522225301 0.4572064106
C 0.2530152176 1.1729567966 0.6694426404
C 0.5269546934 2.6157589372 0.6974500838
N 0.7611512824 3.7468305915 0.6952133189
C 0.9945092370 0.4945975294 -0.4561557568
C 0.8786648411 0.9691236631 -1.7637465077
C 1.5428507557 0.3049928155 -2.7882471609
C 2.3244644573 -0.8167274382 -2.5234232157
C 2.4386878416 -1.2689367103 -1.2105172645
C 1.7742391831 -0.6211537463 -0.1711169414
O 3.1427212839 -2.4020880203 -0.8682910782
C 4.2478161216 -2.7658748260 -1.6282087948
C 5.2615202821 -1.8537643748 -1.9095919391
C 6.3823294359 -2.2896995758 -2.6099316021
C 6.4921481643 -3.6198594001 -3.0140276816
C 5.4718714667 -4.5194898168 -2.7137344764
C 4.3400089950 -4.0958025288 -2.0208066406
C -4.1129686817 3.1745216033 2.5453632928
C -3.6602540432 4.3320388135 2.0703253012
Br -3.2793950304 5.8177472747 3.1952917657
Br -3.3033382300 4.6062102127 0.2239629209
C -4.0002665961 0.3341684186 3.6231031080
H -5.0797226606 -1.3681816731 1.6899846869
H -5.7384692029 -0.0978002843 0.6362669030
H -6.3574508511 -0.2922525461 2.2887602688
H -5.2085003347 2.2380266369 0.9301610993
H -3.5274491775 0.6988897233 0.1524203720
H 0.5501867279 0.7570141709 1.6381746736
H 0.2728239946 1.8441753591 -1.9772421809
H 1.4519683464 0.6588748042 -3.8099902430
H 2.8377007174 -1.3327869796 -3.3272169869
H 1.8721012688 -0.9944663572 0.8431238854
H 5.1733744897 -0.8222458798 -1.5840941880
H 7.1777769072 -1.5852324232 -2.8321997020
H 7.3702720096 -3.9528159173 -3.5574313944
H 5.5504506903 -5.5569720922 -3.0231256317
H 3.5337428283 -4.7812801373 -1.7814941264
H -4.2531934299 3.0970829592 3.6204084387
H -3.6138131441 -0.6873148296 3.6994180417
H -4.8780994178 0.4131612708 4.2737662637
H -3.2338599803 1.0183360931 3.9866461387
