78
CONF591
C -0.5696350350 -0.6532626319 -0.6751211984
C 0.6536724435 -1.1088790487 -1.4572037201
O 0.3057654451 -2.4745647663 -1.8752104325
C -0.6429259603 -2.9946231317 -1.0523163350
O -1.0196461801 -4.1372502025 -1.1679398672
C -1.0249738089 -1.9521731677 -0.0297175841
C -2.4685190055 -1.8562319842 0.4702084027
C -3.5003032991 -1.8241996404 -0.6531640616
C -3.9433800511 -0.6147104088 -1.1928372630
C -4.8614951871 -0.6228440102 -2.2404091529
O -5.3728251329 0.4903699119 -2.8525736068
C -4.9237094472 1.7665649826 -2.3809011986
C -5.3506185513 -1.8269999922 -2.7572147241
O -6.2556207498 -1.8484619532 -3.7804119414
C -4.9136953816 -3.0369373944 -2.2052152747
O -5.4511558936 -4.1589533278 -2.7641702981
C -5.0026966347 -5.4202914984 -2.2536682035
C -3.9947042451 -3.0300798643 -1.1542221418
C -2.5632670422 -0.6215597426 1.3569940068
C -3.6593056866 -0.5603618406 2.2432349321
C -3.8044340379 0.5677299120 3.0105485765
C -2.9128672560 1.6324381534 2.9236243783
O -3.2896125879 2.6315420286 3.7817223310
C -4.4727287705 2.1549519589 4.4592326173
O -4.7803340591 0.8466548461 3.9277529666
C -1.8422797864 1.6043089944 2.0678559954
C -1.6642670869 0.4510644362 1.2699931818
C -0.4337976861 0.4258692936 0.3809051608
O 0.7254035671 0.1484447031 1.2217090553
C 1.7033652101 1.1322765490 1.2171609532
O 2.3957920465 1.0739670599 -0.0419535900
C 3.4102744002 2.0713160695 -0.1118063528
C 4.0557045237 2.0390438220 -1.4852826433
O 5.1373432496 2.9902402302 -1.4976625978
C 6.0964690822 2.7864227421 -0.4749196103
O 5.5157835378 2.7671357189 0.8269346332
C 4.4848409340 1.7757619282 0.9314910005
C 3.8692143678 1.8149004486 2.3146978025
O 4.7903964573 1.5159754093 3.3636023981
C 2.6769707948 0.8473679067 2.3589369095
O 1.9656220609 0.9855928018 3.5824996119
C 6.9380575795 1.5612069247 -0.7327093133
C 7.1990369364 0.9420777255 -1.9255462031
C 8.1256246670 -0.1301363332 -1.8077128329
C 8.5712254745 -0.3098385609 -0.5274259192
S 7.8550409959 0.8354734780 0.5590498611
H -1.3415096031 -0.3291680793 -1.3849655452
H 1.5492370207 -1.1656998112 -0.8343936571
H 0.8555507360 -0.5363315500 -2.3631739054
H -0.3772225287 -2.1571077624 0.8388385381
H -2.6817448810 -2.7377635706 1.0855909369
H -3.5887411799 0.3218991950 -0.7809714961
H -5.1888130328 1.9084032224 -1.3267467024
H -5.4386806045 2.5069441233 -2.9933604229
H -3.8396665485 1.8696456345 -2.5075645216
H -6.4395253123 -0.9295006355 -4.0258926910
H -5.2607397536 -5.5313543106 -1.1937961768
H -5.5257410704 -6.1770295828 -2.8391023496
H -3.9200327540 -5.5348702893 -2.3839027614
H -3.6478158719 -3.9604162999 -0.7245722062
H -4.3665885536 -1.3811357944 2.3035438573
H -5.3068674314 2.8332967930 4.2518890173
H -4.2661877199 2.0696877036 5.5316585407
H -1.1527627839 2.4393627843 2.0025401064
H -0.2946106560 1.4079003425 -0.0866940231
H 1.2667969136 2.1415486565 1.3343441114
H 2.9856477033 3.0714410197 0.0764225814
H 3.3630726662 2.3564273058 -2.2679852587
H 4.4150141509 1.0238298205 -1.7032450541
H 6.7184320976 3.6879549944 -0.4871045552
H 4.8981142323 0.7716046255 0.7360271941
H 3.5105320098 2.8315614880 2.5217568777
H 5.1929938581 0.6556208633 3.1761117744
H 3.0476492088 -0.1846050026 2.2320465225
H 2.6241684316 0.9728353637 4.2915756266
H 6.7379832775 1.2491190476 -2.8569114165
H 8.4471339789 -0.7451805209 -2.6400876477
H 9.2681189636 -1.0477863112 -0.1527140920
