49
CONF366
C 2.9216875534 -1.7312611434 -2.8012824136
C 1.7393718230 -1.2019966389 -1.9977866447
C 0.4290233520 -1.8798741821 -2.4437873307
C -0.7672059458 -1.4046977665 -1.6603787812
C -1.6137688322 -0.4045355178 -2.1572002808
C -2.6756029102 0.0840752167 -1.4084166361
C -2.9233245134 -0.4261023693 -0.1300453434
C -2.0982355533 -1.4295882221 0.3840580691
C -1.0353008817 -1.9026442397 -0.3843173828
O -3.9869721062 0.1185913845 0.5312220301
C -4.3111369358 -0.4222237638 1.8184914613
N 1.5887390479 0.2491449723 -2.1793501481
C 2.6608021006 1.0840849846 -1.6424954680
C 3.0855106791 0.8252589155 -0.1864213766
C 1.9435993857 0.6954280177 0.7924090438
C 0.8253328048 1.5225877029 0.7357431217
C -0.2283733099 1.4004713279 1.6454865247
C -0.1502080411 0.4396562545 2.6751204603
C 0.9855694066 -0.3709721771 2.7427469835
C 2.0042597238 -0.2605883402 1.8093952021
O -1.1370281439 0.2082436554 3.5717154070
N -1.3698544913 2.2119033305 1.4008557322
C -2.2872858950 2.7051154505 2.2521646228
O -2.3379224920 2.4925642923 3.4723830775
O 3.9454160265 1.9402477899 0.1429664979
H 2.9940991031 -2.8176038229 -2.6905618958
H 3.8676423690 -1.2982537268 -2.4616646101
H 2.7960392370 -1.4948719099 -3.8638077856
H 1.8915231689 -1.4653549573 -0.9334945419
H 0.2815430422 -1.6804409965 -3.5121533089
H 0.5513252394 -2.9616794107 -2.3191736485
H -1.4366597710 -0.0016933952 -3.1512433762
H -3.3272804237 0.8580108569 -1.8022988873
H -2.2650434251 -1.8416756415 1.3718773900
H -0.3958340570 -2.6780693677 0.0307558664
H -3.4800983078 -0.2949930676 2.5213624332
H -4.5697332456 -1.4853564626 1.7420775149
H -5.1769008073 0.1421832941 2.1667678328
H 0.7181770299 0.5258447665 -1.7340380236
H 2.3412693847 2.1308588317 -1.7200414980
H 3.5579911659 0.9886449185 -2.2660492211
H 3.6724810204 -0.1040569221 -0.1366571052
H 0.7484933724 2.2828998970 -0.0379714764
H 1.0293994514 -1.1126993222 3.5339212318
H 2.8611502917 -0.9265772967 1.8690042031
H -1.6722764639 1.0448397381 3.6730120517
H -1.4716399603 2.5203504160 0.4420550518
H -3.0257168872 3.3468806528 1.7490096259
H 4.3029574098 1.7799233007 1.0256965338
