45
CONF1
C -0.2649258745 -3.4309984497 1.6663241370
C -0.4999924962 -2.6675934614 0.3763035820
C -1.8971464322 -2.0776072299 0.2711113027
C -2.1460113063 -1.3857507853 -1.0680163385
C -3.4688565946 -0.5954394852 -1.1007874543
C -3.3984210211 0.6057718009 -0.1764492517
O -3.8425414710 0.5690543031 0.9548848481
C -2.7326817742 1.8461809270 -0.7438768144
C -2.4083853952 2.9206585587 0.2871535549
C -1.2962002320 2.5161466437 1.2677859733
C -0.0014716850 2.1868833826 0.5936077213
C 0.7348541378 1.1020712518 0.8612494593
C 2.0447038303 0.8214887488 0.2497790193
C 2.4771353731 -0.4859523039 -0.1325454508
C 3.7907691022 -0.6339408114 -0.6713717405
C 4.6275342972 0.4693032365 -0.8384291660
C 4.1779499349 1.7246606954 -0.4665413649
C 2.9059753156 1.8999094881 0.0816408001
O 4.9474576214 2.8402881598 -0.5910753907
O 4.2831896954 -1.8178077357 -1.0524414419
C 1.6564273996 -1.6947066228 -0.0765553325
O 2.0665778223 -2.8182310553 -0.3971557129
O 0.3932920109 -1.5077338518 0.3286757457
H -0.9385831740 -4.2919828714 1.7137968908
H -0.4650045833 -2.7886399592 2.5296038925
H 0.7631164589 -3.7952945140 1.7193261911
H -0.2708515541 -3.2988187178 -0.4897976622
H -2.6247393328 -2.8856870634 0.4155236193
H -2.0437692182 -1.3742129549 1.0998826706
H -1.3113317269 -0.7097176978 -1.2869049526
H -2.1631403788 -2.1339564604 -1.8694786120
H -4.2986070376 -1.2324433633 -0.7783354088
H -3.6570638495 -0.2578064584 -2.1268583101
H -1.8356155972 1.5437527008 -1.3005470586
H -3.4254715238 2.2378852250 -1.5040568228
H -3.3129390449 3.1574565722 0.8562043049
H -2.1066064627 3.8338709233 -0.2404883790
H -1.1343402819 3.3592507653 1.9552382677
H -1.6262480374 1.6712436740 1.8811547654
H 0.3421093573 2.8875776527 -0.1699808743
H 0.3581559301 0.3858719818 1.5828578853
H 5.6180277244 0.3076518934 -1.2521319925
H 2.6174005665 2.8865889576 0.4215189776
H 5.8042761336 2.5947436179 -0.9595292053
H 3.5619938716 -2.4839893125 -0.8794078878
