44
CONF8
C 4.7752720890 1.9980516982 -2.5976027689
C 3.8798825473 1.4536415253 -1.4901942092
C 2.9364109125 0.2809137580 -1.9555318262
N 1.7768720414 0.3370454393 -1.0978693434
C 1.3027878075 1.6508726787 -0.6517304107
S 2.7041739620 2.8120567751 -0.9391197314
C 1.0598522896 1.0290473388 0.7682561313
C 1.5632574697 -0.2873252559 0.1251877142
O 1.7772558922 -1.4147872977 0.5036561565
N -0.2254619402 1.0670505986 1.3861149531
C -1.2959453284 0.4329545416 0.8516369866
O -1.2352830081 -0.1910689247 -0.2074827289
C -2.6087831792 0.5647219573 1.6365724356
C -3.3396491656 -0.7615657935 1.6727003212
C -4.6722303170 -0.8594079732 1.2769791084
C -5.3652799450 -2.0640078414 1.3709990018
C -4.7166743106 -3.1939578193 1.8673691147
C -3.3796132944 -3.1153486937 2.2655915028
C -2.7051032118 -1.9073439157 2.1651550134
O -5.3365160798 -4.4066048451 1.9843284788
N -2.3894763594 1.1720435334 2.9622980998
C 2.5886431358 0.3530168462 -3.4343365336
O 1.4967832238 1.0967775098 -3.6739260353
O 3.2437588797 -0.1898612167 -4.2964057111
C 4.7199249147 0.9697736894 -0.3079271476
H 4.1968368333 2.3874990807 -3.4392514078
H 5.4342291638 1.2017441089 -2.9587817251
H 5.4012681755 2.8049817766 -2.2066786138
H 3.4566612160 -0.6697218923 -1.8029362748
H 0.4051425074 2.0140822191 -1.1574247738
H -0.3696905569 1.5783961207 2.2474578633
H -5.1830097308 0.0169439291 0.8867515415
H -6.4040431634 -2.1273638886 1.0572561296
H -2.8833012587 -4.0037633834 2.6427574513
H -1.6619093571 -1.8596680802 2.4702215499
H -6.2463548939 -4.3339279301 1.6662964995
H -3.2793543341 1.5063312536 3.3174839075
H -2.0890546603 0.4497843765 3.6122103326
H 5.2862448838 1.8039013615 0.1139957289
H 4.1005029292 0.5425499639 0.4854956504
H 5.4258986818 0.2034635056 -0.6483816053
H 1.3424551323 1.1140429291 -4.6348259372
H -3.2089922972 1.2711374973 1.0472988729
H 1.8140852153 1.3896579395 1.4736471218
