45
CONF139
C 6.1105975488 -3.1125073832 0.8942814645
C 4.9291674237 -2.8672644820 1.4826215145
C 4.0418483319 -1.7536058274 1.1859245036
C 2.8475406071 -1.6160154450 1.8308847184
N 1.9153834926 -0.6738786483 1.4285738005
C 1.9853460064 0.1862185981 0.2506702837
C 0.9530956646 1.1328115347 0.9414341910
C 0.9476410064 0.0812278206 2.0819061929
O 0.4100870828 -0.0359229984 3.1564402086
N -0.2685184544 1.4660378623 0.2844946740
C -1.1835332677 0.5137913723 -0.0066592280
O -0.9907706993 -0.6747061002 0.2509743143
C -2.4670545369 0.9897354504 -0.6806371104
N -3.3340878851 0.0281412928 -0.7147433117
O -4.5334363921 0.3779898851 -1.2987702834
C -5.3994924633 -0.7509567857 -1.2985971107
C -5.0104878251 -1.7494128484 -2.3714843548
O -4.1119221566 -1.6080889308 -3.1680456191
O -5.8248609556 -2.8166417221 -2.3185803821
C -2.6452549064 2.3444960453 -1.2228098916
C -3.4951622545 2.6984248935 -2.2398656670
S -3.3336609253 4.3867540823 -2.6072463750
C -2.1185926562 4.5141261027 -1.3261272679
N -1.8787969305 3.3845038514 -0.7147847752
N -1.5663359721 5.7053781167 -0.9911408961
S 3.6817537640 0.8300666506 0.0488097735
C 4.4470024006 -0.8425384409 0.0526550043
C 2.3448558513 -2.5151855158 2.9175079036
O 1.2613297948 -3.0579679821 2.8725964868
O 3.2077585236 -2.6313756641 3.9382004084
H 6.5431636566 -2.4730496284 0.1322938178
H 6.6800467122 -3.9919263458 1.1749473743
H 4.5805280066 -3.5760255250 2.2273650910
H 1.6338451116 -0.3077508283 -0.6597857022
H 1.4304516742 2.0527799292 1.2935611358
H -0.5109565189 2.4405400140 0.0908280248
H -5.4169361288 -1.2412881244 -0.3188680015
H -6.4003056996 -0.3655818983 -1.5181403890
H -5.5758728460 -3.4358835710 -3.0268182555
H -4.1738737303 2.0837584697 -2.8079990152
H -1.5897701683 6.4523503690 -1.6683117475
H -0.7326374501 5.6633301920 -0.4223094392
H 4.2553007281 -1.3301372981 -0.9108382392
H 5.5218028844 -0.6499116121 0.1095995103
H 2.8337760693 -3.2548383343 4.5868533902
