50
CONF3
C 4.2043318631 -3.0324768729 -0.7542560571
C 3.0254115511 -2.4952607517 -0.0013888077
O 3.0612288391 -2.0081645011 1.1082708131
O 1.8937924946 -2.6171205280 -0.7416941114
C 0.6635168284 -2.0821163743 -0.1967318794
C -0.4437487834 -3.0892933534 -0.3851491270
C -1.7030749536 -2.7199524913 -0.1227931969
C -1.8811101605 -1.3114599177 0.3551301013
C -3.2805603554 -0.7168240971 0.5664052106
C -3.1652623124 0.6857624541 1.2774813189
C -1.8484958339 1.4082300213 1.0751170200
C -0.9332400803 0.8830464074 0.1819424908
C -1.1376287292 -0.3584481725 -0.6106921931
C 0.3106705881 -0.7840467720 -0.9269713826
O 1.1844200170 0.3347414630 -0.5204812184
C 0.4102857290 1.2139158331 0.1835575470
C 0.8458958027 2.2789797215 0.9566398712
C -0.0846153132 2.9276605382 1.7702430497
C -1.4049229066 2.4831664758 1.8616751975
O 2.1955963205 2.6213494166 1.0527699266
C 2.8266975401 3.0358087795 -0.0949568187
O 2.2507318389 3.1850657478 -1.1453967142
C 4.2798339609 3.2652849282 0.1690374832
C -1.9371073780 -0.1772158955 -1.9121229585
C -3.3796741409 0.2296004180 -1.6599149770
N -4.0010927809 -0.7004389848 -0.7152507887
C -5.4273232096 -0.4267740871 -0.5601953038
H 5.0569707214 -3.1284560503 -0.0832203468
H 3.9643250196 -3.9939440176 -1.2138839537
H 4.4532216813 -2.3331963185 -1.5596105837
H 0.8170490394 -1.8591217413 0.8678977904
H -0.1706189008 -4.0847900632 -0.7210128686
H -1.3671811395 -1.2372262017 1.3265269418
H -3.8452751213 -1.3765328018 1.2357861266
H -3.2949472185 0.5390486848 2.3560936686
H -4.0059784542 1.3168532278 0.9657248165
H 0.4769532933 -0.9235212217 -1.9985723291
H 0.2603585082 3.7549590206 2.3826229464
H -2.0740108702 2.9522064085 2.5771603141
H 4.3989312382 3.9891944602 0.9802863737
H 4.7439942788 2.3294163174 0.4944813577
H -1.4363754829 0.5714904889 -2.5363213359
H -1.9195781720 -1.1312148756 -2.4534687259
H -3.4254904817 1.2760455291 -1.2992401324
H -3.9402614180 0.1954371893 -2.6012621510
H -5.6474507156 0.5948194684 -0.1997077307
H -5.9244180055 -0.5485811554 -1.5286602300
H -5.8662276624 -1.1403239516 0.1452125277
H 4.7645741057 3.6295436040 -0.7353497722
H -2.5434582946 -3.3986856285 -0.2377383277
