73
CONF998
C -1.4692711719 1.5952051993 -4.7502258468
C -1.7606425665 2.2458313200 -3.4153044831
O -3.1296485596 1.9080592628 -3.0844822846
C -3.5781960303 2.4101077938 -1.8448013830
O -2.8620888850 1.8667510349 -0.7455641734
C -3.1816255601 0.5111386582 -0.4290589583
C -4.1016923501 0.4678963392 0.7924153618
O -5.3698610171 1.0753286569 0.5353717891
C -4.2739637086 -0.9587971150 1.3071083184
O -5.0022719161 -0.9718958409 2.5318413767
C -2.9049834908 -1.5798018628 1.5699130372
C -2.9627147147 -3.0391308122 1.9863328658
O -3.6386768118 -3.8591360126 1.0336252743
O -2.1445017452 -1.5336551709 0.3481892990
C -1.8817129954 -0.2133698406 -0.0892417503
O -1.1197434434 -0.3125978722 -1.2710821656
C 0.2203850148 -0.5543981466 -1.1703029897
C 0.9171516489 -0.4533101338 -2.3759327986
C 2.2859406748 -0.6671036334 -2.3793295016
O 2.9637793020 -0.5382802993 -3.5302942858
C 2.9769652464 -0.9918868899 -1.1768520366
C 4.4120729251 -1.0852678372 -1.1459214338
O 5.1179359323 -0.9578629391 -2.1657004579
C 5.0310305611 -1.2975234852 0.2101950301
C 4.0977260369 -2.0953944684 1.1106773252
O 2.7992027662 -1.4245317053 1.1961455089
C 2.2208135687 -1.1067395715 0.0134638275
C 0.8496094590 -0.8922665480 0.0311087914
C 4.6090731666 -2.2641991314 2.5096049978
C 4.9587750773 -3.5271079151 2.9850573198
C 5.4682862651 -3.6935204253 4.2690648565
C 5.6184405671 -2.5820323502 5.0986764373
O 6.1048123381 -2.6737313030 6.3700385027
C 5.2624989441 -1.3106681292 4.6394343985
C 4.7680619750 -1.1592804972 3.3526647957
C -3.4349301166 3.9282347705 -1.7392561776
O -4.3878450693 4.4922700600 -2.6387964325
C -2.0149469277 4.3488014196 -2.0986068528
O -1.9933993435 5.7798740217 -2.1106489350
C -1.6099057730 3.7702318528 -3.4445945777
O -0.2427688465 4.1540042128 -3.6509579363
H -1.6236845355 0.5143759938 -4.6844405355
H -0.4304064662 1.7734052950 -5.0423490462
H -1.0925251534 1.8445210713 -2.6405740321
H -4.6381526468 2.1345963653 -1.7953292049
H -3.6452395332 0.0053040006 -1.2881964676
H -3.6479749632 1.0756796160 1.5867004252
H -4.7894586055 -1.5602022808 0.5398695055
H -5.7881382046 -0.4242245534 2.3962472073
H -2.3874306700 -1.0085932630 2.3592508256
H -3.5191929421 -3.1167942649 2.9239332991
H -1.9366693729 -3.3948301683 2.1576968638
H -3.1307287821 -3.8279903072 0.2126385468
H -1.3273289200 0.3513418590 0.6798193167
H 0.3971550568 -0.1961842749 -3.2905334699
H 3.9241995439 -0.6800697088 -3.3014806334
H 5.2319071622 -0.3111622667 0.6515093601
H 3.9161586327 -3.0812461285 0.6603571637
H 4.8349336978 -4.3968381964 2.3457620951
H 5.7407048201 -4.6820153631 4.6288636227
H 6.3117294092 -3.5962560915 6.5720977428
H 5.3798463160 -0.4560033710 5.2977363035
H 4.4928574454 -0.1682746953 3.0038466957
H -3.6558352983 4.2294179994 -0.7047910335
H -4.1483759628 5.4239253262 -2.7427347031
H -1.3248740335 3.9625329839 -1.3318380706
H -1.1637700320 6.0434398892 -2.5322066213
H -2.2513474014 4.1875859188 -4.2337637063
H -0.0634443198 4.1488366404 -4.5986099927
H -2.1302332452 1.9981927797 -5.5248137094
H 5.9871563030 -1.8168173707 0.1026209309
H -5.8121178111 0.5644818076 -0.1583370622
H 0.3068941136 -1.0369278448 0.9552903565
