46
CONF31
C 3.3872678218 -4.8290876561 0.6735950719
C 4.4314905425 -3.9031135895 0.0885404274
O 4.4864067430 -2.6417028768 0.8221732282
C 3.6003906751 -1.6859524250 0.5355009314
N 3.7106486210 -0.6060131299 1.3048285777
C 2.8293346434 0.3723092181 1.0126941552
N 1.8995272033 0.3009499834 0.0300520870
C 1.9016535141 -0.8409671399 -0.6497157432
N 2.7234278736 -1.8810771603 -0.4590118262
N 0.9765290544 -1.0176987832 -1.6646730698
C -0.0558279276 -0.1947232220 -2.1133590487
O -0.8227304785 -0.5803872825 -2.9825273290
N -0.1175389394 1.0467312062 -1.5159834992
S -1.4477431494 2.0780857432 -1.7284519335
O -1.2263111895 3.1412493977 -0.7381117616
O -1.5616578583 2.4107487929 -3.1496258684
C -2.9084704561 1.1430399643 -1.2526076836
C -3.7480042683 0.7004920460 -2.2677030953
C -4.9442891798 0.0715086393 -1.9361626662
C -5.3005217158 -0.0869807662 -0.6013842835
C -4.4617282234 0.3739858041 0.4090932974
C -3.2462324810 0.9833228594 0.0972185418
C -2.3270044392 1.3487954222 1.2190847477
O -1.2033685442 0.9058168648 1.3434554771
O -2.9259629534 2.1660421694 2.0898461093
C -2.1286755621 2.5316082880 3.2494951653
N 2.8716429735 1.4941738202 1.7409567367
C 2.0034114192 2.6404631731 1.5075185656
H 2.3820016472 -4.4179481002 0.5525946291
H 3.4319020987 -5.7914465499 0.1539928002
H 3.5777393099 -5.0024900338 1.7365200424
H 5.4369250226 -4.3104742305 0.2134675729
H 4.2545905017 -3.6968499159 -0.9691968836
H 1.0164114752 -1.9126846008 -2.1353664164
H 0.4719767976 1.1854261695 -0.6751056317
H -3.4708245606 0.8570495889 -3.3029034508
H -5.5990949604 -0.2820879501 -2.7250987800
H -6.2377539367 -0.5672877855 -0.3409952803
H -4.7387082715 0.2502447620 1.4505552401
H -1.2234070920 3.0499104964 2.9254294344
H -1.8651944602 1.6366174403 3.8172026784
H -2.7648306097 3.1918792777 3.8363031479
H 3.5825044126 1.5457670036 2.4535469565
H 0.9491062771 2.3568471254 1.5904363393
H 2.2289397233 3.3943987711 2.2627972600
H 2.1720526363 3.0715087793 0.5140277052
