38
CONF37
C -6.4613051216 0.0872998277 1.8614308993
C -5.1238896212 0.4577132038 1.2357958404
C -5.0386856128 -0.1339140003 -0.1714160639
O -4.5494248673 -1.2072656524 -0.4427748572
O -5.6305070939 0.6841142878 -1.0520434421
C -5.6968602727 0.1938316008 -2.4180899715
O -4.1087987305 -0.0973515772 2.0689370443
C -2.8039600608 0.2236530337 1.8055068408
C -1.8610875459 -0.3971852416 2.6318442466
C -0.5101510519 -0.1362111506 2.4656755490
C -0.1109281156 0.7423048966 1.4671646180
C -1.0281693908 1.3666901979 0.6433693801
C -2.3889567638 1.1095864489 0.8092799526
O 1.2498750166 1.0738565516 1.3413586976
C 2.0429986534 0.2458756302 0.6289722984
C 3.4124907238 0.5698870917 0.5544835997
C 4.2513818178 -0.2514599967 -0.1646090751
C 3.7049596633 -1.3765996900 -0.7905145086
C 2.3453568296 -1.6177067336 -0.6694371211
N 1.5340639270 -0.8160650590 0.0300071716
C 4.5956818834 -2.2740366858 -1.5883729376
F 3.9738587404 -3.4108326821 -1.9670739144
F 5.7032369495 -2.6333186696 -0.8898756606
F 5.0419969466 -1.6685647448 -2.7220521885
Cl 4.0288703558 1.9846886641 1.3624213318
H -7.2778837483 0.4989519910 1.2638555387
H -6.5168942552 0.5024904829 2.8704212821
H -6.5658646815 -0.9999140172 1.9127522873
H -5.0231341657 1.5488925686 1.1795310900
H -6.2116593948 0.9726685319 -2.9782680998
H -4.6875732805 0.0395468984 -2.8060071193
H -6.2571312509 -0.7432041431 -2.4512615174
H -2.2036983631 -1.0796728469 3.4022167607
H -0.6879245049 2.0502912300 -0.1271022904
H -3.0941974942 1.6105860592 0.1569225671
H 5.3101326423 -0.0260276026 -0.2364835672
H 1.8833268771 -2.4788840748 -1.1431411258
H 0.2301880440 -0.6110354797 3.1006806295
