27
CONF1
C 2.2738949157 0.7284628788 -1.7528846494
C 1.7439355161 -0.6006731271 -1.1897227981
C 0.2357412451 -0.6898046147 -1.2550376572
C -0.4179624606 -1.8354261806 -0.5192034879
C -0.3518511297 -0.4762676245 0.1283075093
C 0.8014480515 -0.3062660208 1.0987946589
C 2.0515465157 -0.6515513992 0.3059172854
O 3.1407124878 -0.9042482657 0.7847457156
C -1.6321051953 0.3129239262 0.3223196678
C -2.3174468528 -0.0662554822 1.6383841688
C -1.3959723525 1.8232143525 0.2376502873
H 3.3585531393 0.7982095835 -1.6317810872
H 2.0352847240 0.8003139321 -2.8180630241
H 1.8072216081 1.5764032112 -1.2399330503
H 2.2522274093 -1.4359959965 -1.6867462610
H -0.2732957979 -0.2771734853 -2.1219237201
H 0.2202942910 -2.6300764700 -0.1363037195
H -1.3894825662 -2.1633788151 -0.8767522292
H 0.9038114802 0.7390714441 1.4243349492
H 0.7403175650 -0.9221819909 2.0021004131
H -2.2981582997 0.0304531996 -0.5051669304
H -1.6930085516 0.2171698426 2.4936987401
H -2.4968096022 -1.1454584281 1.6907643865
H -3.2786288063 0.4482958799 1.7402927212
H -0.7823248329 2.1780713691 1.0734162784
H -2.3483646594 2.3620030541 0.2782381804
H -0.8895774450 2.0901652374 -0.6960700666
