57
CONF10
C -3.6496274691 4.9122187234 -0.5406609450
C -3.1469645222 3.4958925891 -0.6040109992
C -2.2469868104 3.1082286726 -1.5985391185
C -1.7580912507 1.8044798646 -1.6800086170
C -2.1906320201 0.8576772009 -0.7309162832
C -3.1011923235 1.2232632450 0.2767754521
C -3.5618582870 2.5398355202 0.3230026486
C -3.5496531073 0.2287486670 1.3110614291
C -1.6865276525 -0.5212745539 -0.7898724922
C -0.4413120198 -0.9943650944 -0.6187426564
C -0.3526869861 -2.4694791735 -0.8059916376
C 0.0926643710 -3.2617979194 0.4515546185
C 1.0754415746 -4.3411757436 -0.0569799161
C 0.8312727114 -4.4113366685 -1.5704676099
C 0.5740066605 -2.9470093986 -1.9318664517
O -1.7293540769 -2.8156636827 -1.1454869418
C -2.5076749058 -1.6905101822 -1.1460866488
O -3.6854327964 -1.7422897846 -1.4354192689
O 0.7098996912 -0.3181816974 -0.3724708904
C 0.7986322632 0.5326587140 0.7344597142
O -0.0607613354 0.5748688586 1.5740868083
C 2.0892507467 1.2833605735 0.7114970580
C 3.2602078452 0.5467278746 1.4328550575
C 3.6057336025 -0.7640800607 0.7180432105
C 2.8963109096 0.2651826469 2.8942261695
C 4.4681545491 1.4912627540 1.3771469008
C -0.7976711591 1.4322476599 -2.7779665747
H -4.1332268274 5.1979230723 -1.4809555335
H -2.8225221092 5.6123812475 -0.3794991665
H -4.3703367328 5.0412014834 0.2703481585
H -1.9212309076 3.8389078753 -2.3354171747
H -4.2587537387 2.8256300598 1.1072145352
H -4.1350570863 0.7197564301 2.0916686815
H -2.6878251296 -0.2617514477 1.7753035340
H -4.1675844906 -0.5569207108 0.8635374899
H 0.5569657505 -2.5947649763 1.1835394463
H -0.7977540535 -3.6924921361 0.9158836918
H 2.1058400371 -4.0188953869 0.1297989398
H 0.9282628316 -5.3003773419 0.4458425600
H 1.6743382031 -4.8381247959 -2.1204863321
H -0.0587512983 -5.0125405268 -1.7895813581
H 0.1268700339 -2.7751757004 -2.9142531178
H 1.5099954722 -2.3792330619 -1.8655271462
H 2.3769781284 1.4779062873 -0.3258104313
H 1.9094306461 2.2341706234 1.2215596046
H 2.7860446895 -1.4869145319 0.7794955528
H 4.4875360596 -1.2167516684 1.1836862754
H 3.8280913929 -0.5884820186 -0.3401288630
H 2.6205891209 1.1884993326 3.4152577112
H 2.0590948882 -0.4362249622 2.9726845290
H 3.7550685440 -0.1768910195 3.4101287730
H 4.2489285800 2.4373567766 1.8836394569
H 5.3274805136 1.0277473151 1.8728621380
H 4.7464757769 1.7098604258 0.3405664927
H -0.7743323148 2.2089801861 -3.5454605859
H -1.0767162352 0.4840546316 -3.2481930265
H 0.2209522591 1.3116745156 -2.3918309664
