44
CONF32
C 3.4830425436 -0.8159774351 -1.2883403235
C 2.7318618793 0.4653566858 -1.4158772577
N 1.6839408899 0.6602548228 -0.6128529469
C 1.0374396350 1.8362469280 -0.7548636324
N 1.3703349600 2.7737412597 -1.6426232704
C 2.4262188462 2.4613533435 -2.4009129886
N 3.1513613909 1.3419148421 -2.3374297281
O 2.7419088293 3.4019448975 -3.2858346751
C 3.8775110979 3.1570749906 -4.1540026842
N -0.0493800917 2.1232762097 0.0590614390
C -0.7318666642 3.4112890181 -0.1702789808
C -0.5555488429 1.3248003614 1.1174201767
O -1.5163782064 1.6861314428 1.7789542892
N 0.0966989421 0.1375111005 1.3384608833
S -0.4483955321 -1.0020256970 2.4673316663
O 0.3814640865 -2.1825645742 2.1855090000
O -0.4337118730 -0.3999184756 3.8028669005
C -2.1563318852 -1.3869976966 2.0520259088
C -3.1488190568 -0.8280629918 2.8506219393
C -4.4742414327 -1.1968216183 2.6491693477
C -4.7944518383 -2.1382465829 1.6760236794
C -3.7941801916 -2.7073858269 0.8954728185
C -2.4618945864 -2.3270322494 1.0605542622
C -1.4580247217 -2.9762016208 0.1603501036
O -1.3317588691 -4.1772730296 0.0583212515
O -0.7928031387 -2.0711156405 -0.5675001942
C 0.2097835901 -2.6110982513 -1.4685075281
H 4.5541333478 -0.6099035880 -1.2116387337
H 3.1442483038 -1.3841718950 -0.4219398030
H 3.3334399159 -1.4136770836 -2.1944163628
H 3.7041883936 2.2670317635 -4.7624170512
H 4.7872296649 3.0354155786 -3.5623199903
H 3.9418082221 4.0454185771 -4.7807888841
H -1.0706987457 3.4685169553 -1.2060672176
H -0.0470710516 4.2387364931 0.0281693502
H -1.5822091165 3.4631613240 0.5037841974
H 0.8386669805 -0.1348813572 0.6616387890
H -2.8805070652 -0.1196495472 3.6243303032
H -5.2514833192 -0.7568939477 3.2644841621
H -5.8263229916 -2.4374918597 1.5258414220
H -4.0381952688 -3.4474289457 0.1404540655
H 1.0026797816 -3.0908066308 -0.8893713959
H -0.2476328912 -3.3320238295 -2.1491968140
H 0.5939459738 -1.7515256164 -2.0151882914
