47
CONF8
C -6.5442736538 2.4107332119 0.0039353696
O -5.5818327588 1.5546723756 -0.6750537448
P -5.8878353746 -0.0030951464 -0.8599904900
S -6.5423650632 -0.9805155767 0.6847459105
O -6.8022941092 0.0073517480 -2.1709126303
C -7.4025027328 -1.2285983049 -2.6501348284
O -4.4792245470 -0.5164113993 -1.4804279880
C -3.4373468504 -0.9690610086 -0.6664224987
C -3.1227624465 -2.3187348284 -0.7015070664
C -2.0415708386 -2.7809183680 0.0427491499
C -1.3073405777 -1.8948755284 0.8333169137
C -1.6509971524 -0.5404717637 0.8708366167
C -2.7100484035 -0.0698005208 0.1057908057
S 0.0094724552 -2.5543255184 1.8480956011
C 1.3304315996 -1.3737109414 1.6014416061
C 2.1406429330 -1.0571655163 2.6941226154
C 3.2267383298 -0.2028582647 2.5322374519
C 3.4722201522 0.3470222069 1.2834709197
C 2.6695041066 0.0526481594 0.1871529174
C 1.6042488925 -0.8243169144 0.3457762935
O 4.5241031563 1.2601358715 1.1641371478
P 5.8645430677 0.9155832316 0.3180716882
S 6.4875439571 -0.9204707466 0.4211530559
O 6.8503897456 2.0600845288 0.8416862304
C 7.5475187343 1.8962922518 2.1082969917
O 5.4604019548 1.4816243535 -1.1210267523
C 6.3472140006 1.2762518556 -2.2574690167
H -6.0873599639 3.3994271307 0.0292465889
H -6.7179571060 2.0447732953 1.0188840469
H -7.4814682304 2.4413906407 -0.5580269418
H -7.9808408994 -0.9505907922 -3.5306336472
H -6.6215153595 -1.9442280016 -2.9217033153
H -8.0557779229 -1.6495270671 -1.8818301905
H -3.7074828224 -2.9935750376 -1.3171630767
H -1.7708494311 -3.8308617268 0.0050521099
H -1.0875802928 0.1498117182 1.4897390634
H -2.9773680365 0.9812969793 0.1161344947
H 1.9256893917 -1.4750179261 3.6722054958
H 3.8689905453 0.0493138608 3.3690690357
H 2.8825556550 0.4954078301 -0.7798791546
H 0.9831569992 -1.0724871634 -0.5081932036
H 6.8261415654 1.8169101584 2.9263226464
H 8.1841768033 1.0087440027 2.0729335911
H 8.1531398091 2.7941838890 2.2269350198
H 7.3006212847 1.7826834122 -2.0857031780
H 6.5049551458 0.2070506289 -2.4194846586
H 5.8341931875 1.7182249061 -3.1109309836
