63
CONF9
C 5.5311935668 -2.3613706969 -1.1864000510
O 5.8186555351 -1.2140536154 -0.3674388112
C 4.9114870626 -0.9729418499 0.5855311136
O 3.9439103801 -1.6526810515 0.8417243227
O 5.2942917485 0.1498889112 1.2227154619
C 4.3597696854 0.6360310834 2.1930526039
O 3.2616977666 1.1954961253 1.4840904579
C 2.0316040694 0.7233412309 1.7689919598
C 1.2050424163 0.2839413763 0.7602815183
C 1.6789055577 0.0312004045 -0.6377942237
O 2.7645181385 0.4092223909 -1.0484776044
N 0.8151488483 -0.7030384471 -1.4362033914
C 1.3932502207 -1.5289679820 -2.4985119446
C 1.6202626917 -2.9295146193 -1.9310924284
O 0.3989121545 -3.4759264235 -1.4199523741
C -0.1278858979 -2.6867058357 -0.3573992141
C -0.4176306063 -1.2800136659 -0.8892583064
N -1.0202790541 -0.4005067695 0.0935551694
N -0.0757956185 -0.1391080262 1.1059661438
C -0.5236535041 -0.1298105134 2.3885633827
C 0.2685497230 0.2789538718 3.4128943042
C 1.6064099462 0.7556079847 3.1832446661
O 2.3718351234 1.1644201738 4.0652948828
C -1.5126022736 0.8981127891 -0.5088967435
C -2.5491719087 0.6558892659 -1.5801259689
C -3.7299341448 -0.0647466523 -1.3297054948
C -4.0003406293 -0.6988518207 -0.0055097904
S -4.4105715303 0.5209593138 1.3049124212
C -3.1230729736 1.7517896182 1.3512667614
C -3.3796396973 2.7198823430 2.3357016361
C -2.4997860651 3.7617908392 2.5719738095
C -1.3384817752 3.8739263285 1.8141658446
C -1.0886497224 2.9317598682 0.8309503907
C -1.9532810187 1.8573378880 0.5764246036
C -4.6604501384 -0.1737980489 -2.3570155580
C -4.4378695297 0.3946008788 -3.6059058539
C -3.2737871457 1.0931825751 -3.8583176042
C -2.3355431782 1.2165287798 -2.8390694085
F -5.3673524346 0.2454760073 -4.5610490690
F -5.8060521586 -0.8486512512 -2.1589952253
H 6.3980397704 -2.4759860536 -1.8367432526
H 4.6322549070 -2.1758732443 -1.7813615444
H 5.3886695451 -3.2526078323 -0.5696865214
H 4.8882842456 1.4271579807 2.7219993423
H 4.0435040274 -0.1682851436 2.8575415845
H 2.3281451747 -1.0703650620 -2.8289014479
H 0.6903210621 -1.5688670805 -3.3398366447
H 1.9572795877 -3.6194713890 -2.7105669196
H 2.3745406531 -2.8820614250 -1.1288091537
H 0.5829627554 -2.6391276255 0.4837116365
H -1.0517461174 -3.1731333512 -0.0299666893
H -1.1318758608 -1.3740726823 -1.7182800214
H -1.5503784933 -0.4560781211 2.5118194550
H -0.1123383137 0.2747553648 4.4266761755
H -0.6670154579 1.3857305527 -1.0113091241
H -3.1571703663 -1.3077247410 0.3205594556
H -4.8953528995 -1.3233288853 -0.0491144408
H -4.2872018564 2.6407262314 2.9276037837
H -2.7249453032 4.4851777438 3.3485419599
H -0.6352984580 4.6802713435 1.9887610724
H -0.1802315811 3.0107972923 0.2403298768
H -3.1153963447 1.5276632630 -4.8386559073
H -1.4186670049 1.7660493451 -3.0266525269
