30
CONF11
C 4.1898235494 -0.5837957633 -0.7042699019
C 3.2089318319 0.5817764864 -0.5880971605
C 1.7600101355 0.1616853529 -0.8357668692
C 0.7737719776 1.3217857109 -0.6984479277
C -0.6723199133 0.9645748381 -1.0591753300
C -1.2891606034 -0.1381246136 -0.2022697435
C -2.7599312029 -0.4354081398 -0.5205201310
C -3.2056805363 -1.2920247960 0.6681087707
C -2.5160853083 -0.6338087713 1.8870459600
C -1.3196337261 0.1720601622 1.3086260207
H 5.2209629813 -0.2614565068 -0.5268941781
H 3.9522955698 -1.3675745427 0.0239223060
H 4.1446452448 -1.0328086148 -1.7029718955
H 3.4833363151 1.3687882074 -1.3033116643
H 3.2857707604 1.0317871871 0.4109593087
H 1.6746293360 -0.2731646605 -1.8425070022
H 1.4979257511 -0.6384387619 -0.1304691995
H 1.1056958201 2.1453985734 -1.3451952428
H 0.8115069088 1.7059316340 0.3303007968
H -0.7143523414 0.6645968021 -2.1159888011
H -1.2968783901 1.8643054285 -0.9621965213
H -0.7264795547 -1.0704942399 -0.3559034611
H -2.8959739694 -0.9300022811 -1.4884410659
H -3.3236198110 0.5086704279 -0.5405899557
H -2.8345176954 -2.3151647327 0.5327423124
H -4.2931348736 -1.3489874750 0.7786215166
H -2.1949456624 -1.3812607705 2.6187933130
H -3.2114485528 0.0368256963 2.4021582292
H -1.4827703344 1.2482677267 1.4487253369
H -0.3723744048 -0.0739395693 1.7986704839
