70
CONF576
C -1.5253246426 -1.4368708113 2.0332397063
C -2.5477552292 -1.2965258801 3.1889575390
C -1.8358179175 -1.3094871793 4.5012810804
C -2.1805745516 -1.6659538698 5.7794955551
N -1.0782847819 -1.4888296521 6.6139099239
C -0.0087462064 -1.0309320550 5.8745275971
C 1.3141246640 -0.7113298848 6.1824144682
C 2.1148070249 -0.2918627760 5.1250795562
C 1.6402583464 -0.1821677644 3.8002780457
C 0.3206441771 -0.4885438887 3.4957246387
C -0.4769057163 -0.9130878895 4.5537065854
C -0.3757727843 -0.3854262616 2.1553024940
C 0.5990177593 -0.4809224088 0.9848564662
C -0.1521348738 -0.3363919474 -0.3296382622
C -1.2335350655 -1.4178183717 -0.3839082764
N -2.1818103367 -1.2551988691 0.7233749055
C -3.3328091951 -2.1220506407 0.4696800957
C -4.2814212274 -1.5615627714 -0.5553985657
C -4.3145068998 -0.2991540330 -0.9705799192
C 0.7864520384 -0.4796081998 -1.5198085816
O 1.8565941294 -1.0676367570 -1.3683274446
N 0.3477421934 -0.0287761794 -2.7590984364
C -0.8451750969 0.8320306493 -2.9098186377
C -0.5227608562 2.3255530443 -3.0054096146
C -0.0363669476 2.9896183317 -1.7186100028
N 1.1943130675 2.4226468534 -1.1587772005
C 1.4654053150 3.0235402035 0.1431899961
C 2.3388271290 2.6018554556 -2.0478933463
C 1.0723737641 -0.2018395722 -3.9955165317
O 0.6277797861 0.2973933438 -5.0240197873
N 2.2057804099 -0.9323088594 -3.9444052094
C 3.0459548159 -1.0560286461 -5.1282442823
C 3.9130868639 0.1785768358 -5.3677473844
H -1.0573988817 -2.4419200077 2.1080127852
H -3.1004249928 -0.3576627175 3.0387199155
H -3.2793179358 -2.1084735765 3.1624505616
H -3.1132989219 -2.0340646193 6.1830682811
H -1.0673649787 -1.6902923457 7.5975601449
H 1.7127096867 -0.7868207870 7.1888631455
H 3.1516495346 -0.0410433600 5.3255367330
H 2.3298856663 0.1433855553 3.0289213875
H -0.8701068763 0.6003004279 2.1126976728
H 1.3629241776 0.2978441409 1.0585301870
H 1.1208638654 -1.4437579651 1.0112807967
H -0.6398712068 0.6409478262 -0.3414273032
H -1.7950102431 -1.3635699345 -1.3219008298
H -0.7412155598 -2.4115309469 -0.3536169877
H -3.0202293431 -3.1397228292 0.1572720148
H -3.9091155658 -2.2655104891 1.3886273948
H -5.0035260746 -2.2769685339 -0.9477216452
H -3.6097085885 0.4298444664 -0.5809385623
H -5.0482958626 0.0340983714 -1.6965785527
H -1.5306584893 0.6388097369 -2.0855347693
H -1.3459581757 0.5218671709 -3.8291179942
H 0.1776426230 2.4857563645 -3.8297481621
H -1.4489408934 2.8361283094 -3.2984798059
H -0.8188951910 2.8945814953 -0.9514479235
H 0.0808051804 4.0781856983 -1.9074573624
H 0.6376775308 2.8143600931 0.8311532548
H 1.5966523632 4.1226368504 0.0891115593
H 2.3782981144 2.5943158891 0.5691122580
H 2.1803453255 2.0772560835 -2.9939390120
H 2.5398589011 3.6679327590 -2.2733278580
H 3.2305996908 2.1743269680 -1.5789443366
H 2.5276340040 -1.2104932859 -3.0211629857
H 3.6719598470 -1.9440436709 -4.9900636362
H 2.3996280510 -1.2318189004 -5.9935519620
H 4.5391744041 0.0401696540 -6.2550344624
H 4.5670290602 0.3682139846 -4.5107041893
H 3.2805391068 1.0558322582 -5.5280362179
