50
CONF19
C 5.8065388855 2.4340850015 -1.6435355032
C 6.0198013553 2.1905426350 -0.1643391467
O 4.8105604826 1.6759848764 0.4594979231
C 4.6028528937 0.3383581838 0.3484248921
O 5.3976644690 -0.4275416272 -0.1874501081
N 3.4385035079 -0.0480199984 0.9477083587
C 2.3778129486 0.8994297670 1.3039655311
C 1.3311797733 0.9724727258 0.1755156781
C 0.8063837883 -0.4042375153 -0.1269516675
C -0.4947388277 -0.7519815730 -0.0908563042
C -1.5953111143 0.1662050592 0.3057494740
C -2.7251213203 0.4201326419 -0.4978433904
C -2.9744297553 -0.1351381490 -1.8887382009
C -1.9176784975 -1.0610544868 -2.5028755540
C -1.6688937443 -2.2731729224 -1.6556248864
C -0.9557268224 -2.1213883721 -0.4569315189
N -0.7009992696 -3.1342096891 0.3839848658
C -1.1494038343 -4.3523146795 0.0450228719
C -1.8627561828 -4.6062530640 -1.1199954357
C -2.1253079721 -3.5460942727 -1.9825719616
C -3.7264876040 1.2669545352 -0.0033078987
C -3.6151427222 1.8367997047 1.2525292636
C -2.5227643065 1.5841124640 2.0717765370
C -1.5324847406 0.7444005066 1.5848615419
Cl -4.8993859764 2.8989770799 1.8314268724
C 1.9087423630 -1.3711143826 -0.4637699532
C 2.9405803460 -1.3984440897 0.6809236320
H 6.7098334545 2.8798416131 -2.0721211677
H 4.9726147446 3.1235747642 -1.8046813709
H 5.6011571237 1.4977041486 -2.1688302410
H 6.2132826028 3.1245954339 0.3681286816
H 6.8418612825 1.4941416844 0.0193139825
H 1.9014730757 0.5362404031 2.2232613799
H 2.8049040978 1.8806206270 1.5042923734
H 0.5390307286 1.6716214426 0.4495907242
H 1.8326436213 1.3644087150 -0.7213081871
H -3.1255912744 0.7143542577 -2.5660926820
H -3.9325584085 -0.6707313593 -1.8622675405
H -2.2683115680 -1.3652659680 -3.4937823104
H -0.9797489353 -0.5103732574 -2.6393992124
H -0.9264425904 -5.1587972735 0.7412672991
H -2.2022230732 -5.6115734037 -1.3458667954
H -2.6744548723 -3.7061323476 -2.9066561733
H -4.5959644438 1.4772740391 -0.6185581640
H -2.4507019429 2.0179343367 3.0623972600
H -0.6832181424 0.5110740977 2.2190977009
H 1.5341863141 -2.3812881586 -0.6391927231
H 2.4233436474 -1.0324108295 -1.3743207000
H 2.4643747062 -1.7726025829 1.5954299820
H 3.7814286990 -2.0463708412 0.4321291248
