55
CONF56
C -3.1681034140 1.0163622027 -1.4356939152
C -2.5977638071 0.3863881698 -0.1366737001
C -3.2559089352 1.1964524605 1.0096180792
C -3.4195529028 0.4666007240 2.3396391697
C -4.0895011975 -0.8725885042 2.1654948998
O -4.8123257792 -1.3697010188 3.0180366828
C -3.7449625326 -1.5924625983 0.9356867438
C -3.0242793276 -1.0672608473 -0.0740956298
C -2.5429652968 -1.9327802644 -1.1968343552
C -1.0100093303 -1.8972302382 -1.2030177314
C -0.4792809877 -0.4635994162 -1.3384273842
C -1.0210687534 0.4890377058 -0.2289981768
C -0.2293167340 0.3025436370 1.0730643627
C 1.2802109862 0.4307087508 0.8321973209
C 1.8685675632 -0.5445223372 -0.1891120845
C 1.0503333764 -0.4286204293 -1.4953797583
C 1.5593994988 0.8576166539 -2.1836060967
C 2.9840841157 1.1164808737 -1.6402903870
C 3.2769409843 -0.0561867540 -0.6864994945
C 4.2454452063 0.1943525626 0.4430040031
O 4.7885191591 -0.7278228946 1.0324626266
C 4.5659957342 1.6111249769 0.8844451532
O 5.3937800952 1.6257514722 2.0149445628
C 1.9655195442 -1.9555413102 0.3894235124
O -0.5937796876 1.3629810116 1.9737613109
H -4.2454182581 0.8344244843 -1.4963585759
H -2.7138091373 0.6374452258 -2.3516484415
H -3.0086955504 2.0995517877 -1.4025101144
H -4.2641632627 1.4589682244 0.6636676642
H -2.7147283367 2.1349787036 1.1516313765
H -2.4436081349 0.2802627080 2.8004021558
H -3.9996367994 1.0626882985 3.0498676378
H -4.0696312245 -2.6301117620 0.8944053732
H -2.9031162961 -2.9576914949 -1.0682328710
H -2.9214220465 -1.5702492397 -2.1611386479
H -0.6248808398 -2.5016022347 -2.0330151878
H -0.6544881076 -2.3647782245 -0.2804834159
H -0.8695055018 -0.0872983078 -2.2932109527
H -0.8163098106 1.5252907309 -0.5370505599
H -0.4744166185 -0.6720065291 1.5271355216
H 1.4405355789 1.4664451148 0.5062533465
H 1.7999069755 0.3145328338 1.7951804642
H 1.3333497270 -1.2828416278 -2.1267704374
H 0.9034502123 1.7039203575 -1.9567106640
H 1.5485024322 0.7396649000 -3.2707886779
H 3.7335717053 1.1681434664 -2.4348219972
H 3.0178858052 2.0764493867 -1.1182789993
H 3.6936773380 -0.8995176768 -1.2528047256
H 3.6281504592 2.1537639146 1.0845906925
H 5.0467982348 2.1242729859 0.0319116448
H 5.6156950868 0.6924091625 2.1800120532
H 2.2184259350 -2.6818339186 -0.3904031503
H 1.0302723707 -2.2703378542 0.8565211310
H 2.7481031227 -1.9990657963 1.1514647726
H -0.0244735520 1.2960379455 2.7493287590
