29
CONF215
C -2.4102583225 0.7954912583 -1.3821950607
N -1.8676234512 -0.3433728584 -0.6257590868
C -1.6284208578 -1.6034093456 -1.3656172869
C -2.6895653425 -2.6415461127 -1.0220061956
O -4.0088803635 -2.1683717520 -1.2850676937
S -0.9755717058 -0.0352724562 0.7368401816
O -1.6182261806 1.0389759843 1.4869313696
O -0.5970315655 -1.3222910992 1.3177907614
C 0.6557349531 0.7332578556 0.0554786026
C 1.8352938325 0.6389194047 1.0670380153
C 3.0272681527 1.5971009765 0.7315568475
C 4.3615283459 1.2421207146 1.4639667067
F 5.2341189919 2.2433356638 1.2832321559
F 4.1451036546 1.0874027183 2.7770515718
F 4.8950897977 0.1194090149 0.9707170358
F 2.6888544945 2.8562446643 1.0793958133
F 3.2691714046 1.5556917927 -0.6015821791
F 2.2901953458 -0.6336890537 1.0750203577
F 1.3687682910 0.9548737406 2.2953650873
F 0.4064953916 2.0239394365 -0.2502436363
F 0.9721000566 0.0726284066 -1.0820609436
H -2.6540308060 1.6080577741 -0.6958148610
H -1.7017340889 1.1547017935 -2.1405450772
H -3.3254636856 0.4626649156 -1.8787484500
H -0.6371048135 -2.0071426366 -1.1372731758
H -1.6603566090 -1.3627216913 -2.4341410725
H -2.5384249007 -3.5230034449 -1.6551832734
H -2.5757812005 -2.9482618382 0.0263884538
H -4.2612497185 -1.5957338369 -0.5522351648
