66
CONF60
C -0.5206729037 -3.2723574333 1.8097448466
C -1.5928535219 -2.4000419705 2.4197508608
O -1.4069300059 -1.0561102636 1.8988823955
C -2.2823084391 -0.1161829461 2.3466205574
O -3.1688859705 -0.3885259144 3.1481414716
C -2.0125746880 1.1853340228 1.7451477001
C -2.7620870256 2.2741587938 2.0831630434
N -2.5426330723 3.4636512691 1.4259716047
C -1.7610772119 3.6025621238 0.3006068239
C -0.9806955113 2.5563261812 -0.0939993517
C -0.8487408324 1.3078553515 0.7718976871
C 0.4876667882 1.3211988731 1.5205092750
C 0.6754078083 2.3201740993 2.4800569303
C 1.8609519327 2.4369504762 3.1933581360
C 2.8979982374 1.5336857515 2.9587888085
C 2.7340119155 0.5374396525 2.0112303800
C 1.5427109709 0.4124399180 1.2706670783
C 1.4118614001 -0.6417630430 0.2727961854
C 2.4219567263 -1.3113941496 -0.3120972106
C 2.2255103426 -2.3721261500 -1.3090308397
O 3.1560555239 -3.0304253631 -1.7565010551
O 0.9370207054 -2.5150398849 -1.6678377287
C 0.4974261401 -3.5400386264 -2.6473057980
C 1.1490388929 -3.2861382640 -4.0017420329
C 0.7889555043 -4.9329540803 -2.1028377003
C -1.0044362663 -3.2931496837 -2.7220988913
C -0.2017318438 2.6331398417 -1.3260752662
O -0.1026318420 3.5962376414 -2.0770204261
O 0.4299050643 1.4533216192 -1.5679988031
C 1.3290665984 1.3982711082 -2.7058056497
C 2.6856813881 1.9707231838 -2.3474027796
C -1.8924496712 4.9287689184 -0.3830764700
C -3.8505443478 2.3293740435 3.1102544921
H 0.4769641346 -2.9190903937 2.0865615010
H -0.5967272358 -3.2836121038 0.7184314935
H -0.6395852736 -4.2967693163 2.1750243781
H -1.5182071561 -2.3665377145 3.5115900340
H -2.5979117583 -2.7437916591 2.1534545923
H -3.1137540667 4.2518199661 1.6932298511
H -0.8757524009 0.4450214587 0.1106164851
H -0.1286314259 3.0250321963 2.6709564770
H 1.9742611827 3.2230196074 3.9334873169
H 3.8242115007 1.6022376265 3.5204433706
H 3.5336623632 -0.1783818814 1.8519259634
H 0.4067634101 -0.9090698990 -0.0266768455
H 3.4647827981 -1.1071550264 -0.0904478444
H 0.9923346924 -2.2465069235 -4.3065612522
H 2.2183441114 -3.4980285336 -3.9807236248
H 0.6756118943 -3.9357437062 -4.7444330037
H 1.8608444664 -5.1305939936 -2.0580141756
H 0.3239217962 -5.6723193655 -2.7621478944
H 0.3584741468 -5.0457809257 -1.1026812706
H -1.4573901814 -4.0065345493 -3.4159294108
H -1.4647802243 -3.4207701256 -1.7376672150
H -1.2078849835 -2.2791389873 -3.0794657563
H 0.8751871044 1.9234221357 -3.5507066198
H 1.3988923290 0.3319916311 -2.9366234756
H 3.3659780178 1.8533899800 -3.1968692892
H 2.6117265078 3.0346360058 -2.1073262943
H 3.1079390279 1.4394523520 -1.4891860769
H -2.2865664600 4.8029256227 -1.3945290121
H -0.9179350914 5.4109073268 -0.4823224167
H -2.5631027624 5.5848851765 0.1770154760
H -4.7198775907 1.7547006548 2.7778292899
H -3.5206856242 1.8882253010 4.0515351160
H -4.1610813253 3.3627948776 3.2834527906
