63
CONF10
C -11.8267243909 2.1583192138 -0.9270107076
C -10.8462079406 0.9890503962 -0.8530923672
C -9.4114231336 1.4389607679 -0.5793199075
C -8.4194656180 0.2796963753 -0.4951495634
C -6.9865554906 0.7338030555 -0.2202637877
C -5.9946225058 -0.4237966127 -0.1141653965
C -4.5638770035 0.0354041434 0.1635921923
C -3.5736154162 -1.1197145484 0.3045233447
C -2.1445781268 -0.6554517889 0.5830954458
C -1.1597866739 -1.8086091968 0.7696608636
C 0.2680842912 -1.3419991550 1.0519768464
C 1.2393115935 -2.5019340688 1.2762588856
C 2.6568840675 -2.0697658689 1.6631680086
C 3.4127056564 -1.3291732104 0.5593280733
C 4.8461417654 -0.9783615738 0.9570174178
C 5.6184729125 -0.2545150162 -0.1447296674
C 7.0471855914 0.1046525031 0.2610339032
C 7.8234842694 0.8193016553 -0.8441713316
C 9.2511561704 1.1793470051 -0.4315555593
C 10.0077273451 1.8900295190 -1.5440697618
O 11.3452839088 2.2545884727 -1.1645300002
H -11.8358497969 2.7199594348 0.0138484275
H -11.5452849745 2.8530551326 -1.7263144726
H -12.8476227467 1.8156904305 -1.1238247857
H -10.8736335147 0.4245751445 -1.7947046405
H -11.1612339902 0.2916449493 -0.0654624307
H -9.3843030379 2.0083497820 0.3607510833
H -9.0934995359 2.1337030172 -1.3698357822
H -8.4466010389 -0.2905607293 -1.4345312535
H -8.7379941865 -0.4132987494 0.2965054017
H -6.9636780204 1.3151660641 0.7124766294
H -6.6633962148 1.4177002963 -1.0179381635
H -6.3176503146 -1.1055758017 0.6854151847
H -6.0155027485 -1.0077282559 -1.0452776352
H -4.2332985624 0.7022790773 -0.6454143522
H -4.5495478650 0.6367287159 1.0838095555
H -3.5873958829 -1.7260669891 -0.6123087401
H -3.9035987317 -1.7821273696 1.1174847898
H -1.8038736756 -0.0139077708 -0.2420071894
H -2.1384149471 -0.0266680962 1.4848946333
H -1.5022080882 -2.4463307289 1.5971586088
H -1.1640877695 -2.4415918234 -0.1292025439
H 0.6103176412 -0.7174695668 0.2165239386
H 0.2690765834 -0.6959312475 1.9419476602
H 0.8353040819 -3.1461815017 2.0689321898
H 1.2837728681 -3.1205151022 0.3684216393
H 2.6085871361 -1.4340655620 2.5588864019
H 3.2361711968 -2.9589463924 1.9467073058
H 3.4283824945 -1.9520857265 -0.3467602555
H 2.8813582120 -0.4065824988 0.2917696936
H 4.8279936715 -0.3512471012 1.8597477613
H 5.3824632683 -1.8979751674 1.2312994356
H 5.0795303891 0.6615111346 -0.4252771824
H 5.6443038834 -0.8857512136 -1.0442897235
H 7.5845605955 -0.8102140931 0.5478209303
H 7.0210553476 0.7417905175 1.1561273540
H 7.8517186741 0.1807353422 -1.7380508396
H 9.7948245932 0.2648243088 -0.1544600628
H 9.2324057762 1.8241887778 0.4566691904
H 9.5074073882 2.8303940046 -1.8006084832
H 10.0243652380 1.2628448823 -2.4489707009
H 11.8177619950 1.4391007993 -0.9563163938
H 7.2860486722 1.7336220359 -1.1321011865
