38
CONF33
C -6.3863506653 0.4694301686 2.0089018826
C -5.1084158605 0.6246192830 1.1958989420
C -5.0911730914 -0.4116910651 0.0721932706
O -4.5690653854 -1.5014507662 0.1426701392
O -5.7802709059 0.0420363392 -0.9835663076
C -5.9161818880 -0.8880021592 -2.0914864201
O -4.0199085346 0.4067335323 2.0902078862
C -2.7506095205 0.6585567312 1.6432532636
C -1.7346464669 0.4260070926 2.5768425287
C -0.4113226205 0.6606350419 2.2388610613
C -0.1127190132 1.1209506958 0.9631139431
C -1.1029278501 1.3568459173 0.0284365673
C -2.4364198752 1.1261519590 0.3659358981
O 1.2160788170 1.4427329161 0.6358632281
C 2.0377882640 0.4455394474 0.2462217976
C 3.3747389029 0.7884905193 -0.0391492743
C 4.2425469124 -0.2011268695 -0.4421088005
C 3.7571096846 -1.5085620564 -0.5491876253
C 2.4263913964 -1.7568346118 -0.2523764117
N 1.5860233820 -0.7910845090 0.1377619252
C 4.6853481000 -2.5938171320 -0.9917162242
F 5.8060928469 -2.6397876908 -0.2248794362
F 5.1096835885 -2.4066691282 -2.2703178798
F 4.1137572716 -3.8152040897 -0.9382376253
Cl 3.9151202431 2.4369050727 0.1177271720
H -7.2562519605 0.6349355040 1.3692389512
H -6.3945564331 1.2064020104 2.8152982318
H -6.4411396628 -0.5349432368 2.4376269148
H -5.0562636654 1.6321537188 0.7640134578
H -6.5056153407 -0.3600449459 -2.8393367073
H -4.9296375543 -1.1432129683 -2.4846400277
H -6.4310335273 -1.7917957147 -1.7583261792
H -1.9998125509 0.0661846092 3.5652686774
H -0.8407599220 1.7185938883 -0.9600620077
H -3.2001703147 1.3195562680 -0.3778086416
H 5.2772225088 0.0350560321 -0.6667608283
H 2.0117708412 -2.7578729305 -0.3259484265
H 0.3853135325 0.4872622698 2.9546772287
