47
CONF70
C -4.4327447913 1.6434180144 2.2910821098
O -3.5737607486 1.8369414010 1.1387961487
C -2.2730775567 1.9382777559 1.4043215804
C -1.3628209668 2.0940313645 0.4122877474
C -1.7584558837 2.1237675559 -1.0132550824
C -1.5474194336 3.2581252217 -1.8037800111
C -1.9284096714 3.2864938224 -3.1411585108
C -2.5289370631 2.1706371489 -3.7200208219
C -2.7370000112 1.0229154899 -2.9612042082
C -2.3459956425 1.0137474727 -1.6305818895
O -2.6210116074 -0.1389686662 -0.8888041424
C -1.5848527116 -0.8382001646 -0.3673888783
C -0.2715633613 -0.6848209779 -0.7926310723
C 0.6501130359 -1.4773428139 -0.1241305938
N 0.3371796408 -2.3430335093 0.8343300957
C -0.9671077709 -2.4199059524 1.1210686471
N -1.9524831809 -1.7122597204 0.5759336555
O 1.9567959723 -1.3255581447 -0.4833309707
C 2.8986565497 -2.1929051723 0.0535936019
C 3.8092777404 -1.7077292489 0.9735313286
C 4.8123082754 -2.5513394455 1.4456474320
C 4.9016455663 -3.8688356495 0.9998817632
C 3.9912713706 -4.3537052341 0.0718879186
C 2.9793757673 -3.5131244444 -0.4129841854
C 2.0428910404 -3.9813768223 -1.3707878678
N 1.2746124251 -4.3591505368 -2.1514502598
C 0.0647303213 2.2192451531 0.7248606722
O 0.9395318201 2.3620060695 -0.1165937891
O 0.3325263983 2.1422916392 2.0492719024
C 1.7321143336 2.2158667039 2.4044634220
H -5.4477451744 1.5884986821 1.9000797743
H -4.3360989173 2.4915857326 2.9748019466
H -4.1716752565 0.7098811741 2.7971273427
H -1.9768301426 1.8966679364 2.4501795759
H -1.0873587379 4.1294633815 -1.3487317084
H -1.7613039325 4.1823862737 -3.7300085413
H -2.8314191985 2.1879147307 -4.7618853666
H -3.1916894155 0.1351204923 -3.3878140404
H 0.0281927002 0.0088389609 -1.5666157267
H -1.2499593474 -3.1355991095 1.8916222317
H 3.7264511054 -0.6807016074 1.3112012286
H 5.5274942485 -2.1736128576 2.1685711446
H 5.6848372822 -4.5190248225 1.3731319402
H 4.0502987842 -5.3743341892 -0.2889346165
H 2.1532723554 3.1769824188 2.0991561994
H 2.2868136506 1.4026745162 1.9292240380
H 1.7593298274 2.1137498980 3.4888372331
