30
CONF11
O -2.3851758773 -0.8192049631 -2.3474241811
C -2.4898649644 0.4766022789 -1.9918264702
O -2.2044477800 1.3927021241 -2.7340674582
C -3.0597190363 0.6391473359 -0.5973833514
C -2.5234035448 -0.3354370456 0.4167898414
C -1.1487331854 -0.3507227686 0.7212368544
N -0.3100443253 0.5574383634 0.0440396746
C 1.0799627981 0.5380777259 0.1769940707
C 1.8625410552 -0.5165384659 -0.3275269995
Cl 1.0754085481 -1.8410919382 -1.1589918702
C 3.2457962540 -0.5336655977 -0.2177619526
C 3.8984592466 0.5420458877 0.3739635547
C 3.1714243445 1.6230943121 0.8577944049
C 1.7870155774 1.6011144414 0.7664374148
Cl 0.8804429856 2.9584480547 1.4160574887
C -0.6535418005 -1.2600908808 1.6589261519
C -1.5114936008 -2.1597197860 2.2823339833
C -2.8723473640 -2.1524000623 1.9909106988
C -3.3651761233 -1.2357962750 1.0649210415
H -2.0347102813 -0.8544119952 -3.2539145489
H -2.8967406016 1.6821433753 -0.3055180321
H -4.1441264638 0.5047986359 -0.6895085034
H 3.8047989331 -1.3722112434 -0.6161666213
H 3.6691114107 2.4687342804 1.3177037013
H 0.4034084895 -1.2582390686 1.9048569910
H -1.1102315835 -2.8610856496 3.0072309873
H -3.5447314244 -2.8505493081 2.4781630488
H -4.4253001924 -1.2222469399 0.8273225909
H -0.6922744426 1.4914357723 -0.0325146446
H 4.9800258468 0.5411345574 0.4510292368
