50
CONF115
C 1.2001552107 -0.7796157160 -0.4105654841
S 1.1746966905 0.7674509423 0.5621713956
C 0.4926510522 0.0370867006 2.1326906703
C 1.2167628327 -1.2023190537 2.5630654927
C 1.9313538864 -1.1880496286 3.8669559189
S 3.2899306630 0.0927378599 3.8133619529
C 4.2127088820 -0.5287485899 2.4647375840
N 4.3749695619 -1.7946073103 2.0888998769
N 5.1615620439 -1.7452159337 0.9874064895
N 5.4886658764 -0.5270959828 0.6943074661
N 4.8923934575 0.2645581171 1.6072391946
C 5.0127708492 1.7152235951 1.5841333665
C 1.2584694995 -2.2381517779 1.6880359580
N 0.8143309010 -1.9510648715 0.3912863088
C -0.2555402836 -2.3237040710 -0.4014330169
O -1.0320291634 -3.2439916575 -0.3342175257
C 0.0467601834 -1.1772980430 -1.4099860957
N -1.0066520569 -0.2623020278 -1.7249248975
C -2.0090328609 0.0400087218 -0.8705335317
O -2.0883461462 -0.3850682135 0.2790459263
C -3.0824800386 0.9498079567 -1.4341436418
N -4.0490887419 0.4933483362 -2.1577174602
O -3.9130398333 -0.8761574669 -2.3803456664
C -5.0127959449 -1.3362461604 -3.1831554221
C -3.0474890529 2.3548337288 -1.0715146547
C -2.0553035747 2.9013525197 -0.2995247261
S -2.3405837673 4.5989526742 -0.0771042109
C -3.8115514100 4.4298498970 -1.0692934414
N -4.5679794222 5.5161959982 -1.3760983019
N -4.0349235899 3.2207637160 -1.5023889660
C 1.8183621486 -3.5837872019 1.9603176858
O 2.1296253101 -4.2271652352 0.8184033240
O 1.9486505654 -4.0743671620 3.0643197359
H 2.1976384383 -0.8801151611 -0.8503308758
H 0.5734993546 0.8304338513 2.8784193000
H -0.5609991662 -0.1918953814 1.9467770780
H 1.2878077082 -0.8259112522 4.6754240436
H 2.3591489438 -2.1503456803 4.1362697024
H 5.4905345902 1.9958436259 0.6457897269
H 5.6190091996 2.0546512066 2.4279273426
H 4.0132191722 2.1541792734 1.6422912138
H 0.4629578905 -1.5666478042 -2.3431135990
H -1.0499930745 0.1061999861 -2.6641738727
H -5.9631895042 -1.1646036665 -2.6677738590
H -4.8435859772 -2.4066531966 -3.3115806616
H -5.0144700230 -0.8358427351 -4.1569032612
H -1.1957977141 2.4117911788 0.1406316130
H -4.5036485634 6.3238831962 -0.7761738123
H -5.4947173112 5.3161359167 -1.7249055653
H 2.4646018379 -5.1083179223 1.0566178848
