46
CONF100
C -2.0272469267 0.5797782768 0.5176307025
C -2.1297178966 -0.8697837537 0.1058239099
C -2.9556785028 -1.2754176505 -1.0908419021
C -1.4205006424 -1.3701596830 -1.1534177947
C -0.6071877233 -0.4560562495 -1.9706899141
O -0.9239932844 0.6376098740 -2.3971879911
O 0.6233852188 -1.0022155005 -2.1713350548
C 1.5989807664 -0.1512093035 -2.8066217548
C 2.1995736461 0.8518669550 -1.8516375117
C 1.8993107218 0.8353826105 -0.4922767676
C 2.4955547084 1.7705778584 0.3520075723
C 3.3851869629 2.7208789299 -0.1390593235
C 3.6736179156 2.7306679190 -1.5005987423
C 3.0891968296 1.8036274361 -2.3573873272
O 2.1877138123 1.8591352701 1.6962117271
C 1.7819246134 0.7321316121 2.3931771050
C 0.7295547345 0.8949143831 3.2887954872
C 0.3325275462 -0.1828947885 4.0757290327
C 0.9764160418 -1.4129704191 3.9623459963
C 2.0318921519 -1.5582054808 3.0630029222
C 2.4468457262 -0.4867120324 2.2771925418
C -3.7002702453 -0.2971346137 -1.8859781481
C -4.7929508811 -0.5689542652 -2.5999305095
Cl -5.6529906669 0.6664122461 -3.4872020086
Cl -5.5061541808 -2.1536738178 -2.7501865725
C -2.1066121420 -1.8297137182 1.2748390744
H -1.1302041638 0.7195835899 1.1307649826
H -1.9703771860 1.2675187762 -0.3257538759
H -2.8970195013 0.8447010503 1.1285794368
H -3.4190428703 -2.2544489358 -1.0178791912
H -1.0203409623 -2.3759086291 -1.0861282329
H 1.1477898048 0.3577521984 -3.6639643898
H 2.3690130888 -0.8376613670 -3.1695842351
H 1.2092676319 0.1051682817 -0.0860421609
H 3.8318298599 3.4393063428 0.5399244726
H 4.3641973045 3.4699985957 -1.8940466583
H 3.3214273344 1.8178634446 -3.4183874062
H 0.2354439671 1.8583556064 3.3605257433
H -0.4900595978 -0.0591374780 4.7732063423
H 0.6597117299 -2.2534037387 4.5711802816
H 2.5459039841 -2.5103477487 2.9756377895
H 3.2751571052 -0.5946026240 1.5849396348
H -3.3609859230 0.7315819592 -1.9022043805
H -2.9301411413 -1.6017856146 1.9605424316
H -1.1655880220 -1.7243617967 1.8267225853
H -2.2043594393 -2.8680539912 0.9465856627
