48
CONF54
C -2.1349390448 -0.9749192124 3.8168279466
O -3.3770695779 -0.7733225494 3.1396283270
C -3.3713507416 -0.8666055554 1.7808354938
C -4.6309791164 -0.6450723888 1.1715029682
C -4.7524387805 -0.7109690453 -0.1878302641
C -3.6330265385 -0.9968699900 -1.0108657063
N -3.8349754780 -1.0451338153 -2.3538994121
C -2.7910581246 -1.3157510250 -3.1138904465
C -1.4998303634 -1.5501997357 -2.6127602717
C -1.2617205615 -1.5038409026 -1.2550290960
C 0.1468724542 -1.7303482781 -0.7578179835
O 0.6995565971 -2.8045176678 -1.5367968405
C 1.0043384184 -0.4627923167 -0.9470604187
C 2.5138192645 -0.6883588792 -0.6699945276
C 3.0835663728 0.6232187170 -0.0996731165
C 2.5316490703 0.7926220318 1.3207555430
C 0.9973895911 0.5743504391 1.2471887877
N 0.5026572554 0.6704770628 -0.1433438542
C 1.0452106141 1.9074187158 -0.7320299451
C 2.5837347965 1.7882752452 -0.9922503562
C 3.2850283011 3.0823416073 -0.7447098115
C 3.9390593450 3.7827282840 -1.6708635978
C -2.3585370021 -1.2194009125 -0.3949136370
C -2.2588143523 -1.1478807205 1.0174214525
H -2.3520594123 -0.8538051314 4.8784760292
H -1.7455103872 -1.9840679435 3.6328509439
H -1.3920334502 -0.2301485075 3.5044073693
H -5.4827814835 -0.4267973885 1.8072033071
H -5.7083195139 -0.5456366107 -0.6738250191
H -2.9652113463 -1.3550260583 -4.1886757451
H -0.6923884648 -1.7759141930 -3.3003115054
H 0.1397959341 -2.0229021149 0.3006305606
H 1.5847966458 -2.9863364672 -1.1989907865
H 0.8749922410 -0.1784249196 -1.9996902129
H 3.0363769040 -0.9760528885 -1.5883705299
H 2.6675987981 -1.4910065901 0.0674343055
H 4.1777112530 0.5978212587 -0.0952961618
H 2.7712311636 1.7866746211 1.7123648283
H 2.9944628614 0.0627446393 1.9941186458
H 0.4594296969 1.3141519942 1.8508113623
H 0.7347359206 -0.4121670581 1.6417388811
H 0.8411671150 2.7296061271 -0.0348545606
H 0.5195896665 2.1296373538 -1.6676321209
H 2.7532163636 1.5060084314 -2.0396918545
H 3.2275259754 3.4773287657 0.2707334655
H 4.4175342211 4.7282162587 -1.4348825932
H 4.0127604963 3.4297373904 -2.6969668069
H -1.3027650943 -1.3090905748 1.4924268459
