66
CONF10
C 0.2948263872 -1.9383366903 4.0375615550
C -0.8946265498 -2.2172132021 3.1406548920
O -1.2688060917 -1.0222123476 2.4063682634
C -2.0704083089 -0.1251929863 3.0438842822
O -2.5529696670 -0.3471542668 4.1479053313
C -2.2441978392 1.0756916907 2.2334752171
C -3.0687463742 2.0805776997 2.6469240361
N -3.2386629134 3.1796458527 1.8359477231
C -2.7851134954 3.2758186383 0.5391790788
C -1.9618079204 2.3040515466 0.0524996978
C -1.4189998411 1.2065942051 0.9604791570
C 0.0483186880 1.4795504801 1.3042550335
C 0.3297439294 2.6218065843 2.0586840272
C 1.6294528195 2.9706975673 2.4017798020
C 2.6903184498 2.1634279795 1.9911951768
C 2.4336246492 1.0281713924 1.2400909525
C 1.1224411517 0.6658912153 0.8767509620
C 0.8993336269 -0.5355415192 0.0824918746
C 1.7893882126 -1.1097329851 -0.7452637380
C 1.4220371231 -2.3161478186 -1.5034887420
O 0.3579715221 -2.9095088613 -1.4084351506
O 2.4319814637 -2.6622577036 -2.3280758968
C 2.3309123920 -3.8326487810 -3.2388847191
C 3.6779896779 -3.8121276421 -3.9512331618
C 2.1734064032 -5.1128936598 -2.4267062675
C 1.1958159474 -3.6204636105 -4.2337876329
C -1.5341482207 2.3227253881 -1.3429810138
O -1.7800256334 3.1849076298 -2.1782694252
O -0.8031343156 1.2132589588 -1.6337161415
C -0.2234541807 1.1230336295 -2.9606096328
C 1.0888218714 1.8780188290 -3.0248171913
C -3.2940975428 4.4718077367 -0.2053961489
C -3.8546807894 2.1245079798 3.9213621090
H 0.6005406622 -2.8629977493 4.5371060578
H 0.0422671890 -1.1990134619 4.8024806484
H 1.1398417061 -1.5667705530 3.4497422024
H -1.7564221303 -2.5782318045 3.7081540424
H -0.6442225471 -2.9429028426 2.3628575392
H -3.8629991125 3.9025792072 2.1616715798
H -1.4838545687 0.2662695556 0.4177009949
H -0.4924192685 3.2536381022 2.3827432470
H 1.8149278077 3.8630317935 2.9915393235
H 3.7101291053 2.4139085656 2.2655763918
H 3.2585262884 0.3868086825 0.9471315506
H -0.0743373640 -1.0092454309 0.1522567503
H 2.7760012612 -0.6961267518 -0.9259808497
H 3.8089938114 -2.8742651885 -4.4988233343
H 4.4953706477 -3.9213054817 -3.2325228950
H 3.7246257684 -4.6413967196 -4.6622516894
H 2.9590118460 -5.1786151488 -1.6676177669
H 2.2760725750 -5.9690189692 -3.1005785466
H 1.1984213634 -5.1651229992 -1.9411952435
H 1.2412699208 -4.4119804624 -4.9881350512
H 0.2206693447 -3.6567378778 -3.7468345591
H 1.3117711856 -2.6573069358 -4.7406514505
H -0.9429678285 1.4934503523 -3.6957495158
H -0.0700238718 0.0512999981 -3.1124453157
H 0.9348927159 2.9482714161 -2.8627099170
H 1.7829830456 1.4993375652 -2.2687230101
H 1.5413365707 1.7388871001 -4.0117906549
H -3.9197662043 4.1640797470 -1.0472830747
H -2.4665290271 5.0486571789 -0.6219560545
H -3.8829641021 5.1131562146 0.4548336588
H -4.5481578065 1.2819619806 3.9739674716
H -3.1925656235 2.0416176680 4.7858123645
H -4.4229293038 3.0553322251 3.9918517543
