35
CONF1
C -5.8174585601 0.1772867217 0.6094321056
C -4.4530239221 0.0459975753 -0.0543186519
C -4.0691103725 -1.4304182191 -0.1159943062
O -4.3779324615 -2.1571988376 -1.0298252061
O -3.4099572835 -1.8389654659 0.9875590468
O -3.5460398412 0.8329122445 0.7067015273
C -2.2720516132 0.9919572032 0.2270788832
C -1.4254589246 1.7583934840 1.0320715209
C -0.1167371827 1.9884988044 0.6420572160
C 0.3420182121 1.4483177614 -0.5515969873
C -0.4844519174 0.6908272258 -1.3588508115
C -1.8032398276 0.4560716990 -0.9731164431
O 1.6427674717 1.7435789487 -0.9846450574
C 2.6481034491 0.9170828075 -0.5964871624
N 2.3795107126 -0.1274705216 0.1681794513
C 3.4015919662 -0.9144795267 0.5237282158
C 4.7096182457 -0.6802557392 0.1272160108
C 4.9734749293 0.4317017877 -0.6825249450
C 3.9319572198 1.2507887544 -1.0555757799
C 5.8331713224 -1.5780285831 0.5312908262
F 5.4280187734 -2.5799815346 1.3408279870
F 6.4312849351 -2.1495438255 -0.5470607346
F 6.8082321364 -0.8972698085 1.1882970193
H -6.1220877881 1.2262519146 0.6063583260
H -6.5559734365 -0.4121192751 0.0608948865
H -5.7672475677 -0.1747634212 1.6428149442
H -4.5028815808 0.4023551111 -1.0918135213
H -3.2279695909 -2.7852184696 0.8699301132
H -1.8132161350 2.1636192938 1.9599056280
H 0.5527243024 2.5788508854 1.2578889602
H -0.1012406971 0.2790495782 -2.2859278215
H -2.4354787612 -0.1426535256 -1.6178554577
H 3.1570830459 -1.7663064486 1.1526191766
H 5.9865969085 0.6427564844 -1.0096066876
H 4.0754038278 2.1244697333 -1.6796523774
