51
CONF40
O 4.1551684291 -1.0343511784 -1.8876707447
C 3.5472012167 -0.0646289435 -1.0123500399
C 2.1584287307 -0.5286017235 -0.5674549699
C 1.4103508020 0.5318899970 0.2402436198
C 0.0063677927 0.0766527167 0.6000442164
C -1.0578501275 0.0393609940 -0.5525677608
N -1.8247104109 1.0370177888 0.2350446917
C -0.8992305239 1.1228754615 1.2514688464
O -0.8513216937 1.8110027714 2.2540472088
C -3.0359233896 1.6708482448 -0.0428752671
C -3.6524157022 1.4593830655 -1.2817290469
C -4.8621455437 2.0795721740 -1.5739479463
C -5.4310820693 2.9049770492 -0.6198983074
F -6.6126353881 3.5147750719 -0.9025882139
C -4.8424630091 3.1336142029 0.6129387818
C -3.6364354910 2.5093131429 0.9066919774
C -1.7587866287 -1.2595359611 -0.8144695957
C -2.6031430698 -1.8334818341 0.1390303026
C -3.2160920042 -3.0583985264 -0.0940077831
C -2.9823540103 -3.7314454786 -1.2958563657
O -3.5545941410 -4.9372841977 -1.5840539622
C -2.1432033277 -3.1708331146 -2.2592090270
C -1.5441067905 -1.9414445479 -2.0142256358
C 4.4496034358 0.2748166254 0.1560546575
C 4.9360032029 1.5718815707 0.3223440760
C 5.7607353567 1.9017393366 1.3962825370
C 6.0905086187 0.9024633196 2.2937025557
F 6.8940283861 1.2087852327 3.3457349282
C 5.6345560791 -0.4000212701 2.1657484553
C 4.8072082471 -0.7032576252 1.0899309120
H 4.2312823097 -1.8670099949 -1.4033068270
H 3.4369728814 0.8333000832 -1.6309282438
H 1.5870056206 -0.7859848514 -1.4679948117
H 2.2547759594 -1.4460353455 0.0295107068
H 1.9552421870 0.7558171054 1.1652854534
H 1.3546931357 1.4679790076 -0.3321459139
H 0.0248075029 -0.8604455423 1.1682400442
H -0.6730121716 0.4694290647 -1.4856212746
H -3.1904688944 0.8094684684 -2.0167417647
H -5.3540014178 1.9263958595 -2.5281623654
H -5.3223124338 3.7878107007 1.3326666764
H -3.1588148171 2.6703902050 1.8650148976
H -2.7942412439 -1.3155834584 1.0752240297
H -3.8767298712 -3.4933585118 0.6514551681
H -4.1114477546 -5.2150223194 -0.8443772868
H -1.9750343037 -3.6988250357 -3.1922127282
H -0.8982539595 -1.5037628511 -2.7709615936
H 4.6665053264 2.3416460734 -0.3952876035
H 6.1416985772 2.9078064992 1.5343861798
H 5.9198146790 -1.1508015049 2.8947052910
H 4.4398514951 -1.7208983025 0.9865549711
