38
CONF24
C -6.6013500587 0.4809101650 1.6358867440
C -5.2047674352 0.8479668986 1.1540706234
C -5.1021255124 0.5760162058 -0.3458560045
O -5.4736695309 1.3759342328 -1.1795899584
O -4.6245939768 -0.6415306566 -0.6138218500
C -4.5310627890 -0.9811437577 -2.0230626052
O -4.2842681108 0.0773064838 1.9289084073
C -2.9463375439 0.3271096369 1.7830378751
C -2.1009347134 -0.5030115036 2.5268093296
C -0.7263989539 -0.3372563332 2.4584574273
C -0.2067808534 0.6572345531 1.6406988353
C -1.0266641310 1.4897746924 0.9025573377
C -2.4103234272 1.3284103506 0.9699897002
O 1.1816626899 0.8782661610 1.6251797877
C 1.9305059034 0.1477628421 0.7718357882
C 3.3223237917 0.3502437424 0.7945823695
C 4.1183742194 -0.3766281809 -0.0667098820
C 3.5026674079 -1.2859841764 -0.9266073525
C 2.1209058189 -1.4220255786 -0.8832760924
N 1.3543399517 -0.7162748306 -0.0487205138
C 4.2909915795 -2.1119187603 -1.8943505394
F 4.0672493282 -3.4405125042 -1.7208037455
F 5.6214702969 -1.9131757419 -1.7794286170
F 3.9562460099 -1.8365624296 -3.1826811150
Cl 4.0283547979 1.5005633740 1.8965265957
H -6.7827750231 -0.5878802972 1.4936274169
H -7.3466045351 1.0498427700 1.0752391130
H -6.6946704094 0.7241665131 2.6968604616
H -5.0257980741 1.9205270857 1.3005066916
H -5.5228151449 -0.9543240159 -2.4796449415
H -3.8663668143 -0.2783527287 -2.5304023187
H -4.1197799420 -1.9888589387 -2.0479075300
H -2.5366586625 -1.2725097386 3.1550687812
H -0.5931561946 2.2606741332 0.2744086925
H -3.0389801118 1.9920923891 0.3887031027
H 5.1928960183 -0.2371410914 -0.0655534896
H 1.6083939459 -2.1214496608 -1.5402735521
H -0.0597661178 -0.9745821510 3.0298391870
