44
CONF14
C 4.6264611704 2.3108033188 -0.8528058271
C 3.6104570751 1.1950778324 -1.0732847195
C 2.5473421997 1.5140823831 -2.1904136055
N 1.3695228958 0.7530216418 -1.8446304797
C 1.0375424120 0.6108968470 -0.4208904171
S 2.5920898848 0.9877660995 0.4923609443
C 0.6207573334 -0.8722564618 -0.7198517571
C 1.0563816738 -0.5615384647 -2.1690950145
O 1.1306450278 -1.1752409916 -3.2076919185
N -0.7275876902 -1.2802008122 -0.5029543945
C -1.0820733530 -2.1543668260 0.4726257134
O -0.2785001421 -2.7120996461 1.2170305793
C -2.5960887559 -2.3722839600 0.6281700716
C -3.0589108042 -1.5273815646 1.7994010181
C -3.2098578533 -0.1439052439 1.6712801797
C -3.6068400590 0.6347620970 2.7521871140
C -3.8508106296 0.0306498837 3.9878416458
C -3.6977060012 -1.3482713487 4.1331506977
C -3.3048168484 -2.1140148347 3.0421995467
O -4.2447944461 0.7390360457 5.0874066169
N -3.3201711214 -2.0072486199 -0.5963896911
C 2.2070649075 2.9938639851 -2.2701463694
O 2.9990170170 3.6259548230 -3.1528168684
O 1.3457190512 3.5364308416 -1.6158753493
C 4.3198738818 -0.1139501306 -1.4208373476
H 5.3175721535 2.0275418422 -0.0542138493
H 4.1493625525 3.2544374536 -0.5755005221
H 5.2093624870 2.4607269787 -1.7672054041
H 2.9335646510 1.1778811657 -3.1577604940
H 0.2299013761 1.2563459776 -0.0672030626
H -1.4815828484 -0.8737564278 -1.0455926681
H -3.0196636277 0.3345694497 0.7154741352
H -3.7259638120 1.7093478678 2.6401504174
H -3.8937561323 -1.8077973838 5.0964928698
H -3.1910950812 -3.1879094347 3.1596114810
H -4.3150977433 1.6758628290 4.8605359008
H -3.1884204088 -2.7297727553 -1.2979874049
H -4.3141740803 -1.9760587190 -0.3950212877
H 4.9248739252 0.0253906838 -2.3241731495
H 4.9790758847 -0.4086329291 -0.6003679556
H 3.6134734818 -0.9296230051 -1.5973525815
H 2.7798710781 4.5744265773 -3.1393507073
H -2.7036410689 -3.4299844040 0.9095716797
H 1.3040939043 -1.5858234498 -0.2487668659
