26
CONF12
C 0.5361014728 2.5692521971 0.1408740717
C 1.1879581845 1.4298124183 -0.6352839459
N 1.0687933444 0.1386631249 0.0712107778
C 2.1761291338 -0.1604605287 0.9989223511
C 3.2984356834 -0.9262509010 0.3080321823
C 0.0472726243 -0.7092681018 -0.0895576672
S -0.1065125869 -2.1831750171 0.7139635494
S -1.1738433985 -0.1321068082 -1.2955680102
C -2.4952098396 -1.3714454098 -1.1611194131
C -3.4636969803 -1.1360187741 -0.0413829912
C -3.5089084219 -0.1621350138 0.8546910231
Cl -4.6978889864 -2.4168256395 -0.0099889862
H -0.5356843516 2.3940610402 0.2678674380
H 0.6724227912 3.5061331282 -0.4070157538
H 0.9934283274 2.6794075507 1.1284036580
H 2.2581583190 1.6177555070 -0.7643355995
H 0.7681398149 1.3423944337 -1.6411937087
H 2.5399416794 0.8011999064 1.3741808133
H 1.7765070648 -0.7297677843 1.8401743647
H 4.1101202562 -1.1035935262 1.0197363866
H 2.9372466056 -1.8918798194 -0.0557825547
H 3.7004631372 -0.3581305178 -0.5360939838
H -3.0206417002 -1.3283693709 -2.1231336753
H -2.0387204390 -2.3627111973 -1.0646653178
H -2.7501878288 0.6130537828 0.8353760420
H -4.2798238158 -0.1195944732 1.6139752441
