22
CONF149
C 1.9622789394 -1.2779889178 0.2709688244
C 1.1153618161 -0.0705674284 -0.1165316033
C -0.3782349118 -0.4118917401 -0.1506439225
C -1.2768936244 0.8198708027 -0.2880913545
C -1.2882786933 1.7112310172 0.9436438029
O -1.6868631010 1.0082631438 2.1234675221
O -2.6359979226 0.4045588946 -0.4890378536
O -0.6540262954 -1.2293728528 -1.3105811567
O 1.5525826408 0.4437275770 -1.3823715913
O 3.3531604474 -0.9498781535 0.2798910696
H 1.7660955369 -2.1110335552 -0.4232543031
H 1.7032174990 -1.6024827518 1.2844201264
H 1.2991086629 0.7272668300 0.6118892482
H -0.6529009271 -0.9522179049 0.7645492096
H -0.9314571832 1.4180796691 -1.1468883453
H -0.2919330848 2.1173252942 1.1360879738
H -1.9642279031 2.5559067606 0.7456557746
H -2.5402657510 0.5989020747 1.9257085025
H -2.6007098886 -0.3518084989 -1.0929170302
H -0.5855978754 -2.1583229600 -1.0595815548
H 1.2003867270 -0.1606756576 -2.0542135953
H 3.5351956965 -0.5288914416 -0.5721697490
