30
CONF12
O -2.5231437485 1.5349264503 -2.5723216732
C -2.7897033520 1.1521182251 -1.3050505898
O -2.9783278005 1.9368224695 -0.4016365836
C -2.8797955411 -0.3556816829 -1.1851403249
C -2.4122562355 -0.8626327019 0.1505306300
C -1.0602636630 -0.7318780254 0.5220844643
N -0.1747522144 -0.1239483174 -0.3930258467
C 1.1564624619 0.1532995884 -0.0716460540
C 2.2285731958 -0.4879043298 -0.7170536429
Cl 1.8743463063 -1.7247216892 -1.9138786457
C 3.5559399278 -0.1858725874 -0.4481006838
C 3.8498792997 0.7693547987 0.5176172073
C 2.8248508386 1.4309829750 1.1843719895
C 1.5050865439 1.1353068800 0.8734823824
Cl 0.2368736212 2.0457398013 1.6651190978
C -0.6351013637 -1.1909184993 1.7711280248
C -1.5445966090 -1.7631055141 2.6539679022
C -2.8825248352 -1.8996512281 2.2966439359
C -3.3012189022 -1.4522625632 1.0455957182
H -2.5315198057 2.5072706935 -2.6008716481
H -3.9387917450 -0.6060034019 -1.3215811457
H -2.3474362249 -0.8168491819 -2.0242605520
H 4.3462911232 -0.7058327673 -0.9766152125
H 3.0435945541 2.1908656467 1.9254461328
H 0.4102199001 -1.1062947649 2.0498286101
H -1.1977023549 -2.1126971396 3.6213879526
H -3.5937951115 -2.3487381156 2.9816469222
H -4.3438410647 -1.5506352501 0.7561445134
H -0.2941844092 -0.4428165977 -1.3462535250
H 4.8831701115 1.0052620022 0.7465477728
