55
CONF12
C -2.8521680404 1.1682130299 -1.1724657680
C -2.2367051370 0.4265461260 0.0376224001
C -2.4832358991 1.2788380181 1.2997278273
C -3.9158719176 1.1844472912 1.8189288638
C -4.3031315164 -0.2558579711 2.0827289254
O -5.0705826403 -0.5768220318 2.9781954155
C -3.7651185900 -1.2404587507 1.1370607759
C -2.8896319303 -0.9369576609 0.1582524775
C -2.5592854871 -1.9342235838 -0.9172069032
C -1.0549807471 -2.0735883360 -1.1811117318
C -0.3931375041 -0.7020097062 -1.3748940567
C -0.6978024042 0.2469086103 -0.2035026921
C 0.0927164805 -0.1468398893 1.0645900609
C 1.2197086183 -1.1496110209 0.8369852380
C 2.0529323756 -0.9691914808 -0.4384533082
C 1.1187746487 -0.7800142849 -1.6903999062
C 1.6361571640 0.4876049055 -2.4104447495
C 2.2801943093 1.3542749043 -1.3279555715
C 2.9694841383 0.3155651074 -0.4395117586
C 3.4773581880 0.7947966099 0.8966675254
O 3.8348022494 0.0290401734 1.7802733079
C 3.6480566396 2.2846961597 1.1190224956
O 4.1739528347 2.5629069779 2.3913786561
C 2.9354016204 -2.2129711524 -0.6017620745
O 0.6133522610 1.0908520808 1.6033065117
H -2.3455465048 2.1290514752 -1.3125438027
H -3.9147998657 1.3633660970 -1.0038844233
H -2.7707451399 0.6044550964 -2.1031183208
H -2.2136830360 2.3191162814 1.0847387679
H -1.8184039380 0.9570239925 2.1046058505
H -4.0503879527 1.7577764697 2.7398873318
H -4.6346123604 1.5803122009 1.0884071669
H -4.1833406102 -2.2417285548 1.2156795021
H -3.0013976168 -2.9043673697 -0.6704545376
H -3.0475353772 -1.5977458554 -1.8437965682
H -0.8964883556 -2.6821840915 -2.0794673504
H -0.6050346604 -2.6246068311 -0.3514400832
H -0.8538479260 -0.2722641310 -2.2738588014
H -0.3366625462 1.2442803250 -0.4785483104
H -0.5961033789 -0.5994713577 1.7961636490
H 1.8780928705 -1.1463431304 1.7112915587
H 0.7897950646 -2.1547350092 0.8152179405
H 1.2485633079 -1.6440436615 -2.3539900853
H 0.8450926282 1.0083850361 -2.9604223729
H 2.4023094832 0.2038849410 -3.1419610484
H 2.9795798542 2.0873037602 -1.7426838565
H 1.5252238513 1.9018780544 -0.7579216019
H 3.8968630218 0.0196398742 -0.9589250930
H 2.6695392407 2.7696647040 0.9906277862
H 4.3063710364 2.6725375311 0.3210627865
H 4.3767054897 1.6938041964 2.7786217489
H 3.6314332491 -2.3016356185 0.2386674652
H 3.5179190709 -2.1591140608 -1.5286170705
H 2.3227313755 -3.1204406577 -0.6417421769
H 1.0471291323 0.8900563586 2.4426668816
