47
CONF37
C -3.4519922841 -3.5842151661 0.2468231302
C -3.0585082287 -2.8635379237 -1.0469247478
C -2.8784767139 -3.8926038418 -2.1698221809
C -1.7906121486 -1.9909610434 -0.9308671577
C -0.6559254403 -2.5179290226 -0.0459716593
C 0.3499022273 -1.3588371304 -0.0343419755
C -0.4991066872 -0.0622654267 -0.1705649515
C -0.3419328893 0.8925785392 1.0257010850
C 1.0416252775 1.4870959279 1.0840208537
C 1.9733620118 1.0707444385 2.0373074820
C 3.2619302815 1.6001097270 2.0736611190
C 3.6120013135 2.5635410115 1.1382573380
Cl 5.2385663503 3.2465800761 1.1716920414
C 2.7104994837 3.0077364014 0.1776338275
C 1.4313742494 2.4625350381 0.1593517011
C -1.9677750724 -0.5399270200 -0.4166583283
O -2.7787972662 -0.4768191887 0.7659847949
C -2.7163445262 0.3133551872 -1.4427191401
N -2.7892421551 1.7223111344 -1.0746365820
C -3.6227184287 2.3211706081 -0.2023635768
N -3.3111626835 3.6070863293 -0.0738893851
C -2.2459191786 3.7396907171 -0.9119674764
N -1.8908431305 2.6256016557 -1.5413230833
H -4.3915684923 -4.1264172735 0.0959500990
H -2.6898739896 -4.3183628239 0.5308087312
H -3.5925822321 -2.8939243222 1.0817875839
H -3.8939675482 -2.2082639718 -1.3289397669
H -2.0289469587 -4.5512791898 -1.9538653279
H -3.7705555136 -4.5196931787 -2.2713000176
H -2.6926157016 -3.4038845713 -3.1319892603
H -1.3738137335 -1.8829688602 -1.9445839532
H -1.0248330321 -2.7145642258 0.9686612212
H -0.2258303555 -3.4529524571 -0.4170997718
H 1.0356007024 -1.4490766018 -0.8828303318
H 0.9603612928 -1.3493602801 0.8735952576
H -0.1817628886 0.4810264690 -1.0673698283
H -0.5392619521 0.3520744222 1.9581526722
H -1.0815980761 1.6973963749 0.9569873019
H 1.6921100577 0.3202608772 2.7706877655
H 3.9763800626 1.2687998547 2.8188613994
H 3.0001002360 3.7666071329 -0.5407001996
H 0.7204635371 2.8064921258 -0.5869730973
H -3.7416265060 -0.0539278570 -1.5462502510
H -2.2178133763 0.2553351158 -2.4123073726
H -4.4238851918 1.7939899898 0.2972105061
H -1.7229706946 4.6743970980 -1.0715732123
H -2.3374006553 -0.9628140764 1.4733730872
