43
CONF34
C 2.6339115623 -0.1991253862 4.5530402714
C 1.1868619305 0.0335292339 4.1868222469
O 1.1215306115 0.0381794547 2.7377143201
N -0.1892323406 0.2660999995 2.3424773323
C -0.3314995554 0.2676479155 1.0686155754
C -1.6628135616 0.5104029557 0.4872155818
C -2.1799808477 -0.3765021378 -0.4820086195
C -3.4410870948 -0.1629154193 -1.0357667412
C -4.1963742241 0.9304505877 -0.6293279805
C -3.6921131358 1.8130293111 0.3129410730
C -2.4287848060 1.6200395482 0.8818170599
O -1.9758080912 2.5026452603 1.8167784501
C -1.0256450589 3.4641869486 1.3023857118
Cl -4.6449088240 3.2049038764 0.7947496832
O -1.3753640451 -1.4174550953 -0.8079576506
C -1.7973334291 -2.2968058409 -1.8642125796
O 0.7365159914 -0.0756417674 0.2647714311
C 0.8158832973 0.3839968201 -1.0325523209
O 0.2486621724 1.3845334255 -1.4074764259
C 1.6939614868 -0.4688465328 -1.8547013633
C 2.0062438487 -0.0312196227 -3.1478264424
C 2.8094751875 -0.8111559959 -3.9681027177
C 3.3020806507 -2.0311112033 -3.5051457161
C 2.9905283590 -2.4704563974 -2.2194671749
C 2.1897184381 -1.6937879062 -1.3911416187
H 3.2705219649 0.5976036385 4.1576263200
H 2.7310184312 -0.2093963339 5.6423472515
H 2.9861314752 -1.1599412060 4.1666493149
H 0.5392955530 -0.7645872723 4.5686449712
H 0.8241701845 0.9984644457 4.5605000642
H -3.8510501985 -0.8407415241 -1.7727930392
H -5.1799380930 1.0958496033 -1.0544288405
H -0.1210646473 2.9609779371 0.9434598096
H -0.7796885927 4.1211715813 2.1374106469
H -1.4763623644 4.0422770426 0.4877817868
H -2.7131180885 -2.8287873114 -1.5855533801
H -1.9529885174 -1.7377671790 -2.7931806601
H -0.9801432580 -3.0068573652 -1.9910756372
H 1.6154472759 0.9186067169 -3.4960336715
H 3.0523687593 -0.4703174184 -4.9692009210
H 3.9286876644 -2.6408757682 -4.1483934755
H 3.3714567369 -3.4217639522 -1.8626562953
H 1.9408271185 -2.0385370740 -0.3947455509
