47
CONF64
C 4.2560013648 0.1296582734 4.3427154336
C 4.1636153567 0.9375288851 3.0411645423
C 3.7001814395 2.3731714362 3.3215649550
C 3.2658307485 0.2546006640 2.0300159682
C 3.7758318554 -0.1902921833 0.8086189822
C 2.9630499307 -0.8182626243 -0.1338691932
C 1.6213151783 -0.9923865333 0.1631117504
C 1.0764138009 -0.5690365856 1.3666513128
C 1.9057480755 0.0509271721 2.2942137112
O 0.7749168106 -1.6500416162 -0.7544268368
P 0.2871502606 -0.8554196055 -2.0618609380
O 1.2842116964 -0.5535062951 -3.1065150908
O -0.4452451789 0.4154821448 -1.3975962240
C -0.4005336936 1.6945758716 -1.9702968598
C 0.2023928157 2.7007866826 -1.2297824855
C 0.2116072567 3.9943734291 -1.7454184971
C -0.3702807321 4.2629865824 -2.9827681129
C -0.9677853788 3.2343442760 -3.7080897289
C -0.9906894952 1.9365009354 -3.2029136077
O -0.8681165181 -1.8218134823 -2.6030906832
C -1.9726347557 -2.1816021739 -1.8052306466
C -1.9148217381 -3.3616143764 -1.0779762087
C -3.0316391498 -3.7416948375 -0.3379361358
C -4.1770730307 -2.9482452230 -0.3335132093
C -4.2106266773 -1.7698679622 -1.0759402971
C -3.1025072496 -1.3768673898 -1.8227543700
H 3.2785536993 0.0699717664 4.8335385955
H 4.9538264281 0.6079048998 5.0379183215
H 4.6039758157 -0.8899105951 4.1496604048
H 4.3973358951 2.8707424495 4.0037690873
H 3.6441985528 2.9570193642 2.3974015962
H 2.7098254514 2.3786580779 3.7895772136
H 4.8293568490 -0.0469690094 0.5851726642
H 3.3624803939 -1.1654795451 -1.0806127901
H 0.0203048543 -0.7213339174 1.5631664771
H 1.4797696953 0.3830247623 3.2363205986
H 0.6534425307 2.4662135201 -0.2709175593
H 0.6791725926 4.7919038016 -1.1770132744
H -0.3583282820 5.2720816675 -3.3810673039
H -1.4227422865 3.4384865275 -4.6719325969
H -1.4560626918 1.1259635669 -3.7546501488
H -3.0030370631 -4.6629481154 0.2350004905
H -5.0439364662 -3.2500282631 0.2450269313
H -5.1023044959 -1.1512956628 -1.0790517760
H -3.1103882046 -0.4648606082 -2.4099070724
H 5.1670164246 0.9855339299 2.6002656706
H -1.0144258713 -3.9655867315 -1.0970497800
