21
CONF4
C -2.3591865334 0.6408484084 -0.3856031081
C -0.9285651242 0.2429352832 -0.1932036817
C -0.5350592176 -1.0560986696 0.1654025195
C 0.7682661492 -1.4302666372 0.4474721976
C 1.7519543410 -0.4625627980 0.3489426987
C 1.4562907121 0.8452577232 0.0083406779
C 0.1344887473 1.1572416203 -0.2620499942
N -0.1186542205 2.5590469862 -0.6650270730
O -0.8905564452 2.7414975586 -1.5953987695
O 0.4847748973 3.4302731487 -0.0565870130
N 3.1557193431 -0.8343384878 0.6215771562
O 3.3794021392 -1.9991956212 0.9181879301
O 3.9965180754 0.0490370193 0.5334250488
N -1.5392270799 -2.1412313103 0.2423632493
O -2.3858837948 -2.1818086000 -0.6387364941
O -1.4279983177 -2.9377012790 1.1625654868
H -2.5107051771 1.6841404609 -0.1087727982
H -2.6502193789 0.5260941579 -1.4338899475
H -3.0197908715 0.0154510304 0.2146856952
H 1.0076690503 -2.4477848936 0.7286231285
H 2.2307628169 1.5991648043 -0.0523172054
