33
CONF22
O -4.1136666184 2.8236280662 -1.7102192588
C -3.6049207973 1.7399796539 -1.0677075663
C -4.4303344003 0.8310947888 -0.4061893795
C -3.8527497703 -0.2608215081 0.2308544214
O -4.6403672648 -1.1497579490 0.8410922395
C -2.4404637950 -0.4426903728 0.2161937254
C -1.8490906483 -1.6331334179 0.7641365838
O -2.5105569501 -2.5211502234 1.3288984089
C -0.3565151718 -1.7803784011 0.5761610674
C 0.3022682999 -0.4144379950 0.5451366000
O -0.2962902238 0.4021858265 -0.5091509463
C -1.6467525895 0.5189756722 -0.4556078901
C -2.2147389765 1.6027435470 -1.0996402747
C 1.7879517992 -0.3936085899 0.3142664793
C 2.5400037131 -1.5392231050 0.0740215777
C 3.9154325583 -1.4560388976 -0.1326966044
C 4.5525703825 -0.2249586890 -0.1130820421
O 5.8953015947 -0.1536258367 -0.3197002947
C 3.7968842632 0.9340588264 0.1241072783
O 4.5108992627 2.1091889397 0.1268610256
C 2.4341148909 0.8483111658 0.3402565357
H -5.0735742688 2.8268029754 -1.6155962560
H -5.5091779078 0.9467436115 -0.3866694914
H -4.0344293365 -1.8655089561 1.1841314358
H 0.0425482989 -2.3960121279 1.3866241376
H -0.1868475870 -2.3084165604 -0.3723732419
H 0.0755039442 0.1027575333 1.4927065727
H -1.5991951389 2.3345186527 -1.6065757886
H 2.0687521832 -2.5145766733 0.0496201698
H 4.5094982854 -2.3444505762 -0.3164806963
H 6.1587294209 0.7752595417 -0.2744749943
H 3.9141841159 2.8504934770 0.2744645805
H 1.8550293264 1.7520469028 0.5166316903
