41
CONF591
C -4.8025324936 0.7711553765 2.1781588124
C -3.7419328547 -0.3256063079 2.1977531696
C -3.3976953220 -0.7279546320 3.6355886452
N -2.5767334193 0.1348483189 1.4186942841
C -1.5077665377 -0.8551627589 1.2596651014
C -0.6210739401 -0.4264971519 0.0888784787
O -1.4279405771 -0.1612237107 -1.0640049217
C 0.3672648846 -1.5212148743 -0.2605503951
O 1.3145916741 -1.1077763629 -1.2589364046
C 2.3638236669 -0.3101106789 -0.8960650550
C 2.6698424346 0.0427249224 0.4212759345
C 3.7811118907 0.8435349407 0.6835046439
C 4.5873417013 1.2965462274 -0.3539908350
C 4.2709808629 0.9389312922 -1.6641806130
C 3.1681691635 0.1419606906 -1.9604015010
C 2.8252975245 -0.2045600244 -3.3826931020
C 1.7368925892 0.6386313890 -3.9966276456
C 1.1067198085 1.6561109713 -3.4139466538
H -5.7023821948 0.4448734994 2.7080189675
H -4.4262709471 1.6729500971 2.6763536376
H -5.0758796822 1.0323781181 1.1514600879
H -4.1364132035 -1.2070296745 1.6720589207
H -4.2939592053 -1.0695194078 4.1640474666
H -2.9866119885 0.1311829918 4.1799023044
H -2.6621047784 -1.5374564693 3.6634344986
H -2.1943283462 0.9643474714 1.8682540295
H -0.8812093844 -0.9934314792 2.1555029056
H -1.9702814280 -1.8230474104 1.0207921932
H -0.0745226728 0.4888632900 0.3723797939
H -2.2301191490 0.2496550633 -0.6920932335
H -0.1709904952 -2.3564586831 -0.7177726286
H 0.8802248217 -1.8886771110 0.6362099035
H 2.0578029872 -0.2930367016 1.2491641764
H 4.0072455865 1.1107786554 1.7113244805
H 5.4519860326 1.9194518310 -0.1499398539
H 4.8924504583 1.2874903673 -2.4853466970
H 3.7254654279 -0.1048578205 -4.0034560458
H 2.5263252180 -1.2577555224 -3.4593330954
H 1.4741465059 0.3642820544 -5.0184928948
H 1.3374569011 1.9599435212 -2.3955395275
H 0.3356089775 2.2113760945 -3.9390513431
