33
CONF22
C -4.0789021195 0.9649178167 0.0167190882
C -2.5750094473 0.8775130491 0.3208941305
C -2.3885408602 0.0699391341 1.5974648953
O -2.7650176863 0.7872006387 2.6834796459
O -1.9903426992 -1.0700060663 1.6699951823
C -1.7244188544 0.3047940842 -0.7931508689
C -2.2603532067 -0.2822934045 -1.9372148938
C -1.4246838064 -0.7896188470 -2.9344309036
C -0.0479117431 -0.7236388675 -2.7961354686
C 0.5066673295 -0.1648194238 -1.6379155207
C -0.3360506729 0.3510408195 -0.6537570816
C 1.9913619758 -0.0865921498 -1.5188427727
O 2.6868804135 0.0441517221 -2.5200643859
C 2.6177817130 -0.1788836036 -0.1682800721
C 3.8577432531 0.4391565502 0.0350960606
C 4.4963455776 0.3387828913 1.2630446032
C 3.9160721622 -0.4026103975 2.2925986083
C 2.6942915715 -1.0394837786 2.0907292766
C 2.0399340935 -0.9214313508 0.8690063181
H -4.6004659731 1.4580345799 0.8392643349
H -4.5128873492 -0.0299016867 -0.1205252345
H -4.2417790138 1.5464073914 -0.8944485253
H -2.2171024350 1.8916808966 0.5399172278
H -2.6693846919 0.2117391798 3.4603813538
H -3.3347237672 -0.3471821685 -2.0675270655
H -1.8601387560 -1.2402128765 -3.8205757543
H 0.6132448353 -1.1081237644 -3.5652901628
H 0.0932267688 0.8117590423 0.2317591975
H 4.3023465259 0.9994603827 -0.7806699451
H 5.4490242325 0.8343104736 1.4205567527
H 4.4202175907 -0.4873841210 3.2502397141
H 2.2492896423 -1.6302439584 2.8849188760
H 1.0932855980 -1.4284620918 0.7134848878
