38
CONF10
C -1.8737421393 0.8714939734 2.6646462288
C -2.0446506913 -0.2543577596 1.7006733389
N -0.9295312239 -0.8291848533 1.2403831490
C -1.1217083553 -1.8157426804 0.3535071110
N -2.3061462008 -2.2802432737 -0.0549135749
C -3.3400020292 -1.6509608260 0.5024346318
N -3.2846431947 -0.6264653199 1.3657946609
O -4.5291844240 -2.1153948385 0.1223990938
C -5.6975789822 -1.4825769764 0.6846684201
N -0.0258805217 -2.4205572292 -0.2203263767
C 1.3491684080 -2.1117357276 -0.1597000855
O 2.1193766567 -2.6537337436 -0.9262462556
N 1.6986724340 -1.2025926104 0.8157095129
S 3.2439956160 -0.4802521175 0.8319735016
O 3.1224663757 0.6069707486 1.7984655943
O 4.2541706544 -1.5214340346 0.9764942657
C 3.4384931071 0.1879964763 -0.8246395060
C 4.4736022477 -0.3016123148 -1.6508238834
C 4.5388757202 0.3700396208 -2.8411844439
S 3.3440296153 1.6033427623 -2.9608601653
C 2.7144719387 1.2257666092 -1.3834718945
C 1.5389929146 1.9318599781 -0.8623180743
O 0.8729413352 1.5759227743 0.0857241912
O 1.2705848777 3.0344509118 -1.6002074267
C 0.0995299866 3.7676742619 -1.1853074763
H -1.0653230699 1.5261350728 2.3288903815
H -2.8055237581 1.4250977172 2.7789716732
H -1.5801426652 0.4679663146 3.6404262211
H -5.7027114317 -1.5801315446 1.7729409849
H -5.7293034039 -0.4238870055 0.4161705909
H -6.5397359030 -2.0171417613 0.2458681374
H -0.2400213143 -3.1214426210 -0.9165734388
H 0.9350847182 -0.6430805727 1.2239774225
H 5.1195372305 -1.1191369025 -1.3621665718
H 5.2249643796 0.1972453479 -3.6594001279
H 0.0232250168 4.6054177721 -1.8774662520
H -0.7876293831 3.1316576830 -1.2460311587
H 0.2212753686 4.1226256942 -0.1588128875
