49
CONF54
C -4.0723339625 -0.7942021447 -0.5949108715
C -3.0016082689 -1.4496019500 0.2534641071
C -1.9183347757 -0.6016124132 0.9319111114
C -1.5912068376 -1.5547658679 -0.2498661306
C -0.7258399963 -2.7458230503 0.1081355490
C -1.2081178681 -0.9705832951 -1.5923608260
C -1.7792315634 0.8431280400 0.7768476024
O -2.2094441195 1.5759124389 -0.0878456220
O -0.9854360669 1.3292126089 1.8054778137
C -0.6236148266 2.7100678663 1.6746763116
C -0.1731985427 3.1307751802 3.0033410539
N 0.2023070504 3.4944611618 4.0329549236
C 0.4784765527 2.9409879005 0.6470909174
C 1.1946350129 1.8645326647 0.1349410742
C 2.1945951813 2.1101741793 -0.8042052407
C 2.4861512664 3.4081866960 -1.2188038119
C 1.7585758741 4.4693347047 -0.6936002288
C 0.7512363392 4.2451618616 0.2402502271
O 2.9017167917 1.1061394320 -1.4269705241
C 3.0197486500 -0.1433943662 -0.8353956415
C 2.8246640609 -1.2467150683 -1.6590818178
C 3.0219145702 -2.5239073400 -1.1409818274
C 3.3996049527 -2.6937264564 0.1889120187
C 3.5919761641 -1.5764168542 1.0002109081
C 3.4108452866 -0.2929634703 0.4929538425
C -3.5829312445 -2.5569173555 1.1137395130
H -4.8617124684 -0.3929106333 0.0499004009
H -4.5247778177 -1.5534094526 -1.2432425019
H -3.7027878355 0.0187513393 -1.2151644817
H -1.5741458682 -0.9632039664 1.8953946642
H 0.3310146176 -2.4613877333 0.0553933142
H -0.9217781426 -3.1317361477 1.1088578100
H -0.8900975131 -3.5556175283 -0.6128759481
H -1.7361251154 -0.0504630202 -1.8380244078
H -1.4136300784 -1.7077581905 -2.3771133023
H -0.1329401778 -0.7579140892 -1.6077409916
H -1.5037990644 3.3087580903 1.4054635595
H 0.9730640511 0.8513740281 0.4484628534
H 3.2682191385 3.5685973401 -1.9530692969
H 1.9782729982 5.4809775634 -1.0187893704
H 0.1813938754 5.0756482801 0.6458480669
H 2.5271695574 -1.0951852783 -2.6914134994
H 2.8707352643 -3.3879796314 -1.7803734954
H 3.5459257536 -3.6905910345 0.5914874463
H 3.8966430455 -1.7001692191 2.0346756370
H 3.5742121189 0.5798704624 1.1164242315
H -3.9426384840 -3.3735636387 0.4771389610
H -2.8694603313 -2.9687314394 1.8286964306
H -4.4379061936 -2.1708002143 1.6788489776
