47
CONF132
C -3.0337448312 -1.1209015535 -2.4722670929
O -2.7907483778 0.0984529001 -1.7259009315
C -1.5625056919 0.5980601868 -1.8368473102
C -1.1726853387 1.7012842952 -1.1543721292
C -2.0646113078 2.4079650022 -0.2099557940
C -2.4254169160 3.7453370728 -0.4128874787
C -3.2763291621 4.4088292473 0.4639018318
C -3.7892291245 3.7428444617 1.5749656880
C -3.4429773182 2.4155986181 1.8059553164
C -2.5891712755 1.7721108269 0.9218128804
O -2.3536992019 0.4142778130 1.1568739209
C -1.0841432476 -0.0281888417 1.3000253661
C -0.8712082102 -1.3897818856 1.1249815600
C 0.4462220196 -1.7919342514 1.2761120575
N 1.4487084744 -0.9683349956 1.5735603224
C 1.1018606491 0.3116228951 1.7368630833
N -0.1178833349 0.8336543995 1.6236926472
O 0.7082217392 -3.1200690186 1.1103878361
C 2.0346043311 -3.5269550937 1.0547056029
C 2.5736184630 -4.2276661964 2.1172345875
C 3.8770080044 -4.7097976489 2.0192106653
C 4.6318559472 -4.4916281713 0.8678728142
C 4.0877876575 -3.7940570869 -0.2011281156
C 2.7759427179 -3.3071947917 -0.1154158200
C 2.1840555493 -2.6055797439 -1.1978168546
N 1.6899998586 -2.0333195494 -2.0759614308
C 0.2125469468 2.1404107452 -1.3797163620
O 1.0178978414 1.5937519674 -2.1209977419
O 0.5199203390 3.2366074540 -0.6538345712
C 1.8779456787 3.7130168664 -0.7920775916
H -2.3737407644 -1.9145981563 -2.1109004204
H -2.8725162859 -0.9436174837 -3.5394466114
H -4.0745657967 -1.3825402575 -2.2864331194
H -0.8707568346 0.0867856689 -2.5050034940
H -2.0318672480 4.2609617592 -1.2829380800
H -3.5435199478 5.4435679950 0.2759652228
H -4.4557420258 4.2524610287 2.2630746254
H -3.8228590374 1.8721148622 2.6646125955
H -1.6666009432 -2.0749961601 0.8613360688
H 1.9049135017 1.0011652165 1.9939537697
H 1.9746301655 -4.3870259930 3.0069764188
H 4.3044315923 -5.2586209776 2.8516716293
H 5.6457485328 -4.8698402908 0.8011427812
H 4.6596881630 -3.6223139974 -1.1059639214
H 1.9447317871 4.5843611015 -0.1414326073
H 2.0803983184 3.9921920423 -1.8290488856
H 2.5837836427 2.9415275970 -0.4737445202
