48
CONF3
C 2.6356134838 1.7634431764 1.1881291232
C 2.8218903365 0.7601533373 0.0289572640
C 2.2179884519 1.3146383252 -1.2611086160
C 0.6847218928 1.4115123640 -1.1394165177
C 0.0013823609 0.1096348205 -0.6656850167
C 0.6774676562 -0.5065183976 0.5893198957
C 2.1642008459 -0.6134092817 0.2937605208
C 3.1450976735 -1.3221242655 1.2416243595
C 4.4631819612 -0.7620399424 0.7449882388
C 4.2839965295 0.3563377507 0.0322777553
C 0.0633641809 -1.8681023814 0.9205104291
C -1.4541965905 -1.7924188538 1.0673162233
C -2.0882153423 -1.1781002213 -0.1786684871
C -1.5438665505 0.2421844886 -0.4930088662
C -2.1791913088 0.6900370278 -1.8240732189
C -3.7186544597 0.6397970227 -1.8245273568
C -4.2554011418 -0.6870863953 -1.3574811907
O -5.1335762445 -1.2895164018 -1.9621612156
C -3.6256556620 -1.2246891588 -0.1011447311
C -1.8970019022 1.2554673668 0.6083723573
H 2.9435445887 1.3210644571 2.1406612920
H 1.6007788755 2.1002854916 1.2904031719
H 3.2599684255 2.6461353792 1.0092886026
H 2.6292637861 2.3044318604 -1.4992538400
H 2.4794359139 0.6442231233 -2.0908879810
H 0.4313217854 2.2311503068 -0.4588770178
H 0.2812431728 1.6929548590 -2.1174304020
H 0.1466526753 -0.6329933821 -1.4697348491
H 0.5283815407 0.1565637637 1.4520036567
H 2.2528198172 -1.1582401148 -0.6610053226
H 3.0910327278 -2.4142590072 1.1788650812
H 2.9779863058 -1.0535899027 2.2963085041
H 5.4235259841 -1.2114884583 0.9807482106
H 5.0734021004 0.9728973128 -0.3905510565
H 0.3125772877 -2.5727494850 0.1124478921
H 0.5141483479 -2.2665187641 1.8376387220
H -1.7226977078 -1.1977369020 1.9508504022
H -1.8690036273 -2.7953514774 1.2286955699
H -1.7948519943 -1.8080853198 -1.0343605413
H -1.8024058284 0.0442665161 -2.6289306249
H -1.8763749193 1.7134482823 -2.0659641107
H -4.1228507587 0.8650953335 -2.8153012350
H -4.1058977529 1.3980960336 -1.1288725847
H -3.9745600056 -2.2478640421 0.0688776270
H -3.9703568816 -0.6093994543 0.7421552717
H -2.9738919078 1.3014542290 0.7918538077
H -1.4171817365 1.0161987886 1.5600363257
H -1.5791558825 2.2608100970 0.3167941839
