42
CONF28
C 0.6740308898 0.1728972837 4.0322374973
O 0.9592908767 -0.0120492071 2.6239602298
C 1.3759491934 1.0735388057 1.9761358980
C 1.7025883246 1.0434241001 0.6613385175
C 1.6657171178 -0.2103328061 -0.1307321228
C 2.4958819449 -1.2752949140 0.2388898485
C 2.4847088644 -2.4738026408 -0.4653417189
C 1.6379144350 -2.6209386487 -1.5612590380
C 0.8086581225 -1.5700604951 -1.9394185841
C 0.8060528907 -0.3671913904 -1.2316021381
C -0.1022009743 0.7557393917 -1.6636448007
O -1.3253059677 0.2783692060 -2.2711321107
C -2.2553694945 -0.2675280985 -1.4591543940
C -3.4198951399 -0.7514574831 -2.0806699817
C -4.3982759015 -1.3013116007 -1.2804975288
C -4.2084043161 -1.3633002275 0.1061685560
C -3.0225269155 -0.8571235331 0.6001290336
N -2.0513941829 -0.3178988485 -0.1514544938
C -2.6985478402 -0.8994793644 2.0748460099
F -2.3095595466 0.3112019075 2.5408476611
F -1.6833173689 -1.7631796948 2.3337362817
F -3.7542553107 -1.2944371746 2.8184766525
C 2.1382101112 2.3180161156 0.0777124618
O 2.1354100083 3.4054217739 0.6371724382
O 2.5683999668 2.1541625127 -1.1956828723
C 2.9852688019 3.3618811566 -1.8731424881
H 1.5977513114 0.4059115483 4.5696658887
H 0.2630164578 -0.7737152242 4.3806320936
H -0.0594963061 0.9727011319 4.1654943285
H 1.4374501320 2.0016585322 2.5432443977
H 3.1577711367 -1.1512636042 1.0906292537
H 3.1365895148 -3.2869594785 -0.1616908985
H 1.6229239074 -3.5506002350 -2.1216133648
H 0.1420890427 -1.6872160439 -2.7883326653
H 0.3645215467 1.3481595131 -2.4553263269
H -0.3411835250 1.4143729730 -0.8234276829
H -3.5261799213 -0.6823941578 -3.1570715377
H -5.3119942632 -1.6846538521 -1.7220711201
H -4.9583074306 -1.7903638452 0.7591742228
H 2.1587182125 4.0754458459 -1.9180235501
H 3.8348978085 3.8141803534 -1.3558033794
H 3.2724046068 3.0454699037 -2.8753457803
