47
CONF111
C 1.8987399195 2.2532708373 2.7395375412
C 0.6265257629 1.9432926398 1.9841458071
C -0.5230415491 2.9255455049 1.9992078025
C 0.3539144557 2.8144195090 0.7540184031
C -0.2239447636 2.2198846640 -0.4587033253
O -1.2540007097 1.5867929511 -0.5482397895
O 0.5983175550 2.4522902724 -1.5301643385
C 0.2053680604 1.7619216865 -2.7499554360
C 0.8609386245 2.4892251994 -3.8352564615
N 1.3674597447 3.0420274212 -4.7130906791
C 0.6264349345 0.3113908437 -2.7019842969
C -0.3484159301 -0.6805057062 -2.6167247880
C 0.0320025781 -2.0073309015 -2.4829581239
C 1.3888369164 -2.3239893117 -2.4423583395
C 2.3684886506 -1.3512891782 -2.5303114328
C 1.9803485535 -0.0230252066 -2.6611243709
F 1.7415873579 -3.6176919566 -2.3078874085
O -0.9196578216 -3.0009930390 -2.4397182533
C -1.1199869435 -3.6449255387 -1.2248062918
C -0.6699676168 -3.1277804880 -0.0134021215
C -0.9467511212 -3.8278198984 1.1598972198
C -1.6633142705 -5.0208423946 1.1252414829
C -2.1092676550 -5.5182682301 -0.0992947211
C -1.8394043823 -4.8358984604 -1.2803194956
C -0.4826612067 4.1688370189 2.7726522131
C -1.5087495725 4.6874822277 3.4475645904
Cl -3.0928349211 3.9647769150 3.5273019974
Cl -1.3742369023 6.1769647652 4.3475551823
C 0.2797394778 0.4722556768 1.9560335632
H 2.1852749785 3.3044176253 2.6715459372
H 2.7200229159 1.6518042742 2.3366344300
H 1.7747947009 1.9936377434 3.7967213604
H -1.4997040482 2.4654545144 1.8853072536
H 1.0801209043 3.6015090339 0.5803300714
H -0.8789035169 1.8417761820 -2.8862127584
H -1.4048484969 -0.4345219393 -2.6308603109
H 3.4137341556 -1.6385694977 -2.4988631981
H 2.7384814961 0.7512577965 -2.7251387110
H -0.1193049496 -2.1938082914 0.0224648302
H -0.5981310327 -3.4270323325 2.1068012680
H -1.8744407072 -5.5588612680 2.0432750063
H -2.6688783202 -6.4476162119 -0.1392565917
H -2.1766643608 -5.2119012523 -2.2405945315
H 0.4482411870 4.7267881987 2.8069977916
H 0.2052420836 0.1014891336 2.9837799712
H 1.0700967227 -0.0934583481 1.4491126422
H -0.6676006567 0.2776169220 1.4507295071
