31
CONF21
C -1.6729646918 0.9704158402 -0.2694182887
C -0.4136764265 0.1669743203 0.1958589506
C 0.9403405766 0.8201046594 -0.2604394675
C 2.1524270773 -0.1765841255 -0.2080019208
C 3.5360852155 0.5415122068 -0.2180920516
F 3.5386919231 1.5541222146 -1.1107035132
F 3.8050675090 1.0409238760 1.0084326030
S 4.9793701371 -0.6375849191 -0.6809538390
O 4.9021629510 -1.7460984411 0.2610432163
O 4.9663691540 -0.7736121051 -2.1302760857
N 6.3284241297 0.2706803428 -0.2844071491
F 2.0913494059 -0.9917110489 -1.2826105670
F 2.0676688950 -0.9128843214 0.9204254040
F 0.8118250397 1.2738982474 -1.5258218928
F 1.2107797988 1.8635993061 0.5583101472
F -0.4135415167 0.0916750984 1.5442397571
F -0.4924184936 -1.0805861967 -0.3226290045
C -3.0336007317 0.6455900711 0.4596113553
C -3.5046630932 -0.8420801902 0.4474953466
C -4.9955860569 -1.0509338290 0.8738230227
F -5.8316980345 -0.5783521438 -0.0557415592
F -5.2427673669 -0.4395908807 2.0398624718
F -5.2146379268 -2.3647115117 1.0184485848
F -3.3651077136 -1.3516292903 -0.7969556617
F -2.7332518914 -1.5462452749 1.3059026001
F -3.9711048037 1.3910063775 -0.1769392151
F -2.9469606471 1.0648759703 1.7387398392
F -1.4435674950 2.2870017558 -0.0371775203
F -1.8502903002 0.7857623499 -1.5927892088
H 6.3894937475 0.4849710890 0.7058076403
H 6.4456531492 1.0827486938 -0.8823665455
