48
CONF30
C -2.7628820844 1.7898828139 -1.4700074564
C -3.0265954338 0.9634756148 -0.2091332765
C -3.4550268359 1.8361885471 1.0001538203
C -4.9224655487 1.4740900340 1.1997995135
N -4.9735574353 0.0441635615 0.8554643780
C -4.2084440833 -0.0423132686 -0.4047162193
N -3.5619212080 -1.3224036352 -0.6577249945
C -2.2690620595 -1.2935017812 -0.1753774521
C -1.8745116832 0.0310079752 0.0836255140
C -0.5950753616 0.3150710618 0.5143464011
C 0.2881774275 -0.7513774503 0.6928980984
C -0.0883815227 -2.0633079564 0.4586914759
C -1.3859921946 -2.3557286431 0.0258967893
O 1.5786699010 -0.4940975714 1.1920284634
C 2.5267877107 -0.1406556749 0.2610304944
O 2.3150001260 -0.0600873505 -0.9323849132
N 3.7018141003 0.0890920468 0.9116122490
C 4.9395047661 0.4631824602 0.3625271837
C 5.1474099981 0.6949899615 -1.0022456283
C 6.4149951944 1.0629473119 -1.4468703582
C 7.4790942338 1.2059700747 -0.5614066643
C 7.2652502002 0.9752847127 0.7965616261
C 6.0089836521 0.6069075619 1.2580522392
C -4.2971173102 -2.5563956069 -0.8358228902
C -6.3531816903 -0.4277522681 0.7424948246
H -2.5827687681 1.1362199797 -2.3300482293
H -3.6216238083 2.4323999788 -1.6931260735
H -1.8816796494 2.4231380774 -1.3268369329
H -2.8733668170 1.5711832519 1.8873051807
H -3.3124620353 2.9018001213 0.8021539977
H -5.5625283624 2.0710661299 0.5200238233
H -4.8512319726 0.2226506364 -1.2657484249
H -0.2714052992 1.3321042876 0.7175401166
H 0.6290725223 -2.8612715461 0.6212570275
H -1.6830132764 -3.3849739100 -0.1427088931
H 3.6768973385 -0.0365535391 1.9139695314
H 4.3318363856 0.5883355793 -1.7027266604
H 6.5648628957 1.2397402481 -2.5076473669
H 8.4610349396 1.4931776258 -0.9223761906
H 8.0807169954 1.0811839092 1.5052327495
H 5.8484425084 0.4279427342 2.3176254679
H -4.5700496832 -3.0364632430 0.1170318063
H -5.2109409306 -2.3532544912 -1.4014431155
H -3.6944580367 -3.2651440119 -1.4145374993
H -6.9057407452 0.0892371413 -0.0648046709
H -6.8765866043 -0.2432941646 1.6863697610
H -6.3847264290 -1.5025334479 0.5487250779
H -5.2783552191 1.6339328216 2.2231776261
