25
CONF2
C -1.6505374344 0.4301494751 0.3288844116
C -0.3303549223 -0.3908057110 0.1211429310
C 0.9429725164 0.3318628140 0.6880066631
C 2.1511550001 -0.6345981612 0.8983970860
F 2.2606457558 -1.4790430539 -0.1452926928
F 1.9729953458 -1.3407187031 2.0266091672
S 3.8262028623 0.2720757466 1.1094821887
O 3.5556034473 1.4698541385 1.8996648191
O 4.7519010798 -0.7850595160 1.5068438864
N 4.1692497224 0.7012895127 -0.4749868013
F 0.6356105832 0.8959446619 1.8736843596
F 1.3073525313 1.3009655779 -0.1865131086
F -0.1524783970 -0.5996632734 -1.2032070800
F -0.4642219423 -1.5829565782 0.7445133815
C -2.8224507361 -0.0420932555 -0.5982223219
C -4.2356684347 0.4257446245 -0.1180918886
F -4.6170127670 -0.2468255313 0.9722013800
F -4.2240710984 1.7384425483 0.1540576097
F -5.1222404658 0.1941331532 -1.0951695308
F -2.6248652575 0.4528097730 -1.8381975124
F -2.8375489905 -1.3939520563 -0.6554079447
F -1.4020047756 1.7334881851 0.0666489781
F -2.0393541536 0.3053747826 1.6173976511
H 4.1470704175 1.7069342288 -0.6052802509
H 5.0264353322 0.2663524375 -0.7985712899
