32
CONF1
C 2.9805130799 -2.2694144026 -0.2913333885
C 3.6100143023 -1.0477260421 -0.3109019669
C 2.8533415524 0.1437280806 -0.2215290724
C 3.4916820765 1.4056338141 -0.2407993017
C 2.7474639507 2.5578775485 -0.1541517362
C 1.3510284826 2.4944048033 -0.0455844484
C 0.6711595463 1.2811710161 -0.0215801618
C 1.4263340323 0.0718864073 -0.1107068402
C 0.7914070044 -1.2075673627 -0.0920241758
C 1.5847855145 -2.3465729598 -0.1827992057
C -0.6711595010 -1.2811708914 0.0215805893
C -1.3510283776 -2.4944047058 0.0455851778
C -2.7474638459 -2.5578775049 0.1541523404
C -3.4916820471 -1.4056337986 0.2407995379
C -2.8533415467 -0.1437280372 0.2215291343
C -1.4263340075 -0.0718863291 0.1107070044
C -0.7914069968 1.2075674636 0.0920242699
C -1.5847855886 2.3465730550 0.1827987011
C -2.9805131700 2.2694144506 0.2913326560
C -3.6100143694 1.0477260811 0.3109015500
H 3.5583030968 -3.1857461098 -0.3597410751
H 4.6903905474 -0.9761593076 -0.3949353154
H 4.5737605380 1.4436319455 -0.3252996872
H 3.2343494820 3.5278792844 -0.1690383123
H 0.8073498575 3.4287042136 0.0200185810
H 1.1337104864 -3.3311443592 -0.1713826072
H -0.8073497127 -3.4287041001 -0.0200175777
H -3.2343493215 -3.5278792698 0.1690391167
H -4.5737605070 -1.4436319594 0.3252997304
H -1.1337106070 3.3311444754 0.1713817862
H -3.5583032362 3.1857461640 0.3597398640
H -4.6903906147 0.9761593368 0.3949347330
