48
CONF2
C -1.4106479718 1.9584651070 3.8681729265
O -1.3001845759 0.6747115367 3.2243203443
N -2.2370105328 0.5871829847 2.2151239722
C -2.1710564737 -0.5217580178 1.5607424750
C -3.2178508567 -0.7669120165 0.5550350464
C -4.5643056609 -0.5102109542 0.8364038883
C -5.5491304798 -0.7655518558 -0.1108557385
C -5.2051337063 -1.2874938680 -1.3555140600
C -3.8696748235 -1.5376984214 -1.6623594711
C -2.9029011803 -1.2686176677 -0.7114432529
O -1.5663569794 -1.5519062308 -1.0307150540
C -0.7467861793 -0.5027436158 -1.2704054662
C 0.6110485566 -0.7721780421 -1.3873089911
C 1.4577608515 0.3111128393 -1.5701171761
N 0.9950198106 1.5520302047 -1.6788995519
C -0.3262358930 1.6977312199 -1.5810594928
N -1.2238090472 0.7327980201 -1.3772387873
O 2.7855693450 0.0530972164 -1.6414998147
C 3.6573789232 1.1359188138 -1.5483380253
C 4.3551399163 1.5284541167 -2.6798528085
C 5.2923297098 2.5526483921 -2.5876197601
C 5.5238159855 3.1776540958 -1.3653756690
C 4.8269572005 2.7807231191 -0.2275028385
C 3.8959996700 1.7534311446 -0.3214463971
Cl 3.0214363826 1.2284146888 1.0998543673
F 1.0900507037 -2.0195427082 -1.2678302975
C -1.1486655346 -1.5725716260 1.8264376167
N -1.6034239792 -2.7208469002 2.1889115619
O -0.6613343654 -3.7389589663 2.4337357244
C 0.6051101851 -3.5224441385 1.7824650838
C 1.1104600530 -2.1414433972 2.1095369781
O 0.1263280023 -1.1744125645 1.6564051832
H -0.6663809354 1.9403712894 4.6655912615
H -1.1849298422 2.7616536513 3.1600607183
H -2.4126327774 2.0905301909 4.2878155747
H -4.8264308902 -0.1309157695 1.8181602248
H -6.5891044646 -0.5714529576 0.1293132169
H -5.9726510322 -1.4972536442 -2.0930210669
H -3.5716045970 -1.9225308378 -2.6316100935
H -0.7131784452 2.7105208961 -1.6734691126
H 4.1512636377 1.0262087112 -3.6194955252
H 5.8381557203 2.8613315931 -3.4724668206
H 6.2522701891 3.9776307365 -1.2885353188
H 5.0048376950 3.2580654124 0.7295540133
H 0.4814982738 -3.6430803975 0.6990762825
H 1.2745692681 -4.2930709698 2.1708828545
H 1.2507804832 -2.0125892616 3.1877176067
H 2.0336415658 -1.9045019454 1.5773896580
