33
CONF14
C -5.2889274430 0.8391274158 -0.0133177694
C -3.7858426398 0.9911780802 0.1786968324
C -3.4385930689 0.6992971977 1.6362458923
O -3.4526540278 1.5414724541 2.5012776332
O -3.1783300242 -0.6070659745 1.8553770595
O -3.1601203791 0.1031335022 -0.7393310536
C -1.7987620253 0.1680778611 -0.8735082292
C -0.9728743961 1.0522022493 -0.1749401142
C 0.4012791413 1.0331884082 -0.4039489786
C 0.9371446531 0.1349376107 -1.3128992880
C 0.1211904714 -0.7487195760 -2.0093045834
C -1.2474461006 -0.7294316560 -1.7907820786
O 2.2988685755 0.1527934177 -1.6007829719
C 3.1657353085 -0.3017591926 -0.6486282613
C 4.5264674453 -0.0223399580 -0.8318516072
C 5.4764329201 -0.4730291558 0.0738388693
C 5.0592364899 -1.2070293514 1.1776423586
C 3.7176400311 -1.4982301603 1.3808797795
C 2.7762614230 -1.0445162834 0.4645645090
Cl 6.2558330128 -1.7716443670 2.3273246962
Cl 5.0363674965 0.9021206194 -2.2189109397
H -5.5891789412 -0.1943538602 0.1767369308
H -5.5507948908 1.1014989484 -1.0406919821
H -5.8201998048 1.5030351429 0.6725978437
H -3.4839991827 2.0288360344 -0.0157455139
H -3.0025036247 -0.6989166948 2.8057855926
H -1.3713359305 1.7625598467 0.5395808928
H 1.0557583236 1.7179426087 0.1249712904
H 0.5654185701 -1.4375610120 -2.7193318514
H -1.9088843506 -1.4042906492 -2.3221774827
H 6.5237579628 -0.2472578357 -0.0821047343
H 3.4070957097 -2.0763797115 2.2426912522
H 1.7259593008 -1.2688757579 0.6107672988
