37
CONF158
C -1.7850302587 0.7710838673 -2.7666737799
C -2.2992031713 -0.5856702994 -2.3380779347
O -1.3187958600 -1.3106049298 -1.5276581689
P -1.0781454707 -0.8810165541 -0.0137158206
O -2.2266832362 -0.2861740663 0.7057164460
O -0.4148108263 -2.1921859377 0.5832938699
C -0.8097054009 -2.6839380455 1.9112669050
C -1.9944069825 -3.6136854330 1.7963992149
O 0.1796811766 0.1494239812 -0.1890571768
P 1.2070371138 0.6140187850 0.9930537415
O 0.8254602079 0.1460159283 2.3404793535
O 2.6112858970 0.0752535247 0.4940439795
C 3.1279693344 0.3957147731 -0.8381610021
C 4.4208866279 -0.3624986820 -1.0135437059
O 1.3184009770 2.1859855902 0.7625625019
C 0.4121441695 3.0991526214 1.4685314326
C -0.9526545966 3.1494191379 0.8192766992
H -2.5085353616 1.2274988053 -3.4498298426
H -0.8266937370 0.6784993103 -3.2852093975
H -1.6605343678 1.4376094399 -1.9086223606
H -3.2288805527 -0.5033705927 -1.7662933633
H -2.4635870341 -1.2409216597 -3.1960910146
H -1.0140928437 -1.8277016961 2.5581000612
H 0.0817874924 -3.1966058437 2.2783576036
H -1.7733960173 -4.4467759201 1.1233202036
H -2.2304344947 -4.0194137719 2.7856355695
H -2.8735577899 -3.0780976984 1.4268490178
H 3.2814653790 1.4781028196 -0.8957429310
H 2.3810487448 0.0959742541 -1.5811220224
H 4.8368929893 -0.1409556446 -2.0009600067
H 5.1496272452 -0.0663836431 -0.2545533270
H 4.2509101140 -1.4397704766 -0.9406742070
H 0.3537442322 2.7839951756 2.5149879113
H 0.9204620695 4.0642790865 1.4142286424
H -0.8685770583 3.4179744336 -0.2378657895
H -1.4762245325 2.1927229723 0.9053887766
H -1.5548534052 3.9130461079 1.3223603231
