21
CONF96
C 2.5385004333 -0.5201450804 1.3561955984
C 1.0612767890 -0.1091292241 1.3205164646
C 0.5702290869 0.3092356806 -0.0453970265
C -0.8099718080 1.0249756625 -0.0060213102
C -1.4814967277 1.3487483689 -1.3751005223
F -1.8088670584 0.2292549401 -2.0333378281
F -0.6720950293 2.0863129673 -2.1471769387
F -2.6073985340 2.0484865616 -1.1493056276
F -0.6624437068 2.2035068551 0.6529182742
F -1.6829397874 0.2486049115 0.6879499338
F 0.4362554227 -0.7786481478 -0.8807807727
F 1.4513356950 1.1644642084 -0.6542583399
C 2.9150438597 -1.7303251126 0.5056799001
O 2.1786357169 -2.9120123120 0.8564000555
H 3.1669005247 0.3249577650 1.0534383227
H 2.7785177979 -0.7374413251 2.4025919372
H 0.9078381478 0.7331951838 2.0026443986
H 0.4170971017 -0.9241300267 1.6651706120
H 3.9683052728 -1.9667414730 0.6874343611
H 2.8063798669 -1.5133222650 -0.5645306465
H 1.3067173153 -2.8573872935 0.4471250966
