43
CONF57
C 6.0509284631 -3.3631070595 1.1713350694
C 4.6081755382 -3.4781970261 0.7317305452
O 4.2014875326 -2.2851126589 -0.0174576572
C 3.8257962801 -1.2202819418 0.7003545690
O 3.7315116883 -1.1827526436 1.9081163143
C 3.5787311388 -0.0278356398 -0.2247713514
C 4.9028535171 0.6618090327 -0.5226946058
O 2.7450672621 0.9345682197 0.4184332710
C 1.4327304052 0.6131847376 0.6406179731
C 0.6884915837 1.5853005540 1.3177629795
C -0.6545494852 1.3713702426 1.5878382081
C -1.2452347660 0.1833188008 1.1776129632
C -0.5235468204 -0.7897045798 0.5108404105
C 0.8278022315 -0.5793604588 0.2376820736
O -2.5868178480 -0.0692384959 1.5122010656
C -3.5446723571 0.3778074156 0.6627884789
C -4.8864262568 0.1003173465 1.0701551938
N -5.9081759755 0.4720717562 0.3465242715
C -5.6379294335 1.1389060950 -0.8180179244
C -6.7094191203 1.5597521191 -1.6306341819
C -6.4259675328 2.2286400408 -2.7972201838
C -5.1073655633 2.5048409994 -3.2040929850
C -4.0553452164 2.0967792632 -2.4157948099
C -4.2951422112 1.4075018923 -1.2098417555
N -3.2430929085 1.0080650735 -0.4365648423
Cl -7.7457901028 2.7632863843 -3.8270958564
H 6.3461738576 -4.2886141485 1.6753029367
H 6.1854965183 -2.5328989314 1.8696511559
H 6.7072230052 -3.2157177312 0.3090459236
H 3.9274963662 -3.6043763984 1.5771324516
H 4.4649331454 -4.2940593922 0.0213039656
H 3.1175692063 -0.3763690666 -1.1571331769
H 5.5788201955 -0.0337973745 -1.0252047454
H 4.7268958476 1.5187919758 -1.1771401391
H 5.3673975585 1.0062270186 0.4055378193
H 1.1772008944 2.5029469205 1.6277878246
H -1.2421034388 2.1180772753 2.1117403559
H -1.0086530919 -1.7103939948 0.2040733658
H 1.3780315058 -1.3528490175 -0.2844899908
H -5.0644995794 -0.4321244772 2.0026187120
H -7.7267730044 1.3489957719 -1.3210693355
H -4.9284981332 3.0352552201 -4.1324430998
H -3.0308105045 2.2989767911 -2.7103054839
