51
CONF116
C 2.0561258822 -0.1324985949 -0.0231889496
C 2.1152132437 -0.1982443345 1.4801847530
C 1.2782843430 -1.0866815850 2.1853306711
C 1.3626771433 -1.1943145996 3.5736396762
C 2.2852507870 -0.4371992020 4.2868183807
C 3.1065181103 0.4498123871 3.6056525751
C 3.0242193725 0.5912825587 2.2134627647
C 3.9149633671 1.5852064790 1.5637472062
C 3.3957830859 2.6067517845 0.7583362382
C 4.2359995557 3.5598140303 0.1910974801
C 5.6106970306 3.5060897033 0.4154560303
C 6.1381570163 2.4959831811 1.2169728444
C 5.2965066497 1.5461726526 1.7896617388
C 0.2929432941 -1.9505896608 1.4599497674
O -0.6985428655 -1.0725675511 0.8378236568
C -1.5357570711 -1.6608171496 -0.0414582648
O -1.5090520411 -2.8487207590 -0.3056274388
C -2.4634659779 -0.6590186327 -0.6104043898
C -3.1785386846 -1.0105483457 -1.9201369334
C -3.9674675695 -0.8763802626 -0.6307817474
C -4.5593169042 -2.1467106439 -0.0648531056
C -4.8199762225 0.3497749688 -0.3894148513
C -3.2319110000 -0.0061135206 -2.9728482157
C -3.1765467104 -0.2411939721 -4.2860391673
C -3.2346983040 0.8371383017 -5.3254280108
F -2.1164660904 0.8613451165 -6.0950245142
F -4.2788503204 0.6692745449 -6.1763099510
F -3.3642604480 2.0592221282 -4.7704480899
Cl -3.0212778667 -1.8398232187 -4.9814035306
H 1.8554450549 -1.1179816084 -0.4524179397
H 1.2557419491 0.5328898156 -0.3648623964
H 2.9952942337 0.2376555506 -0.4376209460
H 0.7028737586 -1.8828231447 4.0939235217
H 2.3535437819 -0.5283793210 5.3661128684
H 3.8148026969 1.0642540103 4.1536780280
H 2.3246742072 2.6621107205 0.5891882065
H 3.8154504178 4.3496617605 -0.4239053319
H 6.2658945189 4.2482545785 -0.0298409200
H 7.2079178372 2.4449382574 1.3957527814
H 5.7121570361 0.7567301786 2.4093589696
H -0.2246713620 -2.6236736822 2.1487013383
H 0.7628879611 -2.5512494477 0.6750386612
H -2.1484101833 0.3720197473 -0.4879740233
H -3.0191607941 -2.0358935173 -2.2385110614
H -4.6590226220 -2.0610411535 1.0229283035
H -5.5589535357 -2.2972649789 -0.4857994970
H -3.9502837913 -3.0224755706 -0.2921081340
H -4.3355565006 1.2733744460 -0.7126325600
H -5.0315365260 0.4386860225 0.6811042468
H -5.7748845781 0.2522410609 -0.9172618835
H -3.3214141322 1.0350264987 -2.6776194580
