19
CONF1
C -1.5823277871 -0.0263667522 0.5041994200
N -0.7608583969 -1.2206701660 0.2785942948
C 0.5801091482 -1.2010622597 0.8479143380
N 1.2967802637 0.0029542772 0.4010156172
C 0.5495675899 1.2356365088 0.6930122549
N -0.7897295667 1.1481580682 0.1262595460
N -1.0775609367 1.9577434615 -0.9029674241
O -2.1473588854 1.7621429222 -1.4572325459
N 1.8339196925 -0.0739712673 -0.9108683405
O 2.0625151573 0.9824155868 -1.4784478539
O 2.0885745661 -1.1881922256 -1.3395909268
N -1.0304572650 -2.1669623200 -0.6313707992
O -2.1062387235 -2.0738157546 -1.2009835193
H -2.4822237696 -0.0761854276 -0.1108024549
H -1.8344859446 0.0391627859 1.5684542095
H 1.1116438042 -2.1072219674 0.5626385657
H 1.0585323612 2.1110489396 0.2932109542
H 0.4825466789 1.3006300806 1.7837620286
H 0.5136077193 -1.1267568352 1.9380247005
