27
CONF4
C 3.1188948650 2.0233002717 0.2768394382
C 3.4767154836 0.7470510824 0.7020719826
C 2.5603527165 -0.2999175757 0.6313363473
C 1.2632668392 -0.0920023373 0.1351916850
C 0.9154122066 1.1862816267 -0.2909163256
C 1.8385400759 2.2228749405 -0.2160016751
Cl 1.3623848526 3.8335490860 -0.7607022371
C 0.3094581193 -1.2668800716 0.0713921463
C -1.0869801050 -0.9177694781 -0.3573099903
C -1.9795735633 -0.3169869530 0.5436717397
C -3.2745014090 0.0170726721 0.1488490776
C -3.7002911049 -0.2375856512 -1.1506900717
C -2.8136162722 -0.8274672689 -2.0401956157
C -1.5218411489 -1.1670447844 -1.6574755400
Cl -3.3365254317 -1.1581897646 -3.6923607884
O -1.5179250866 -0.0764887582 1.8050214752
O 2.8680170920 -1.5695164663 1.0308200771
H 3.8297573294 2.8396372765 0.3315447150
H -0.0798296540 1.3705303959 -0.6806162764
H 0.7217400323 -2.0151268170 -0.6156864297
H -4.7069750280 0.0214925447 -1.4579542155
H -0.8430327706 -1.6275168871 -2.3678643264
H 3.7764613414 -1.5954481074 1.3594547363
H 0.2849408337 -1.7420512679 1.0589355655
H 4.4758384046 0.5678238724 1.0901243047
H -3.9549711915 0.4784660961 0.8592579544
H -2.2168420812 0.3311278512 2.3338694460
