27
CONF30
C -2.9298090125 -0.2288684472 -0.1614226317
C -3.7828868461 0.6918961420 0.7199532452
O -5.1665603902 0.5390843529 0.4191934862
C -1.4628540637 -0.1515034217 0.1949690127
C -0.5645438292 -1.0324383472 -0.7174714646
C 0.9481777844 -1.2271383947 -0.3342962109
C 1.8099691932 0.0626339681 -0.1416257548
C 3.3540814909 -0.2106172819 -0.1863455608
C 4.2160193266 0.9403331742 0.4304112682
F 5.5023471863 0.7268327903 0.1211201260
F 4.0984787595 0.9691835363 1.7617360017
F 3.8411045638 2.1261062808 -0.0704907511
F 3.7353532587 -0.3599655820 -1.4726177748
F 3.6417663752 -1.3422536453 0.4964157493
F 1.5189474508 0.9472145606 -1.1212127250
F 1.5055381197 0.6088694149 1.0585409408
F 1.0053782653 -1.9587191946 0.7979110011
F 1.4996481207 -1.9476914375 -1.3458503752
F -1.0894932547 -2.2883672849 -0.7305880036
F -0.6293044733 -0.5383326179 -1.9785687496
F -1.2615059542 -0.5426005721 1.4909709648
F -1.0165450317 1.1405016110 0.0865202038
H -3.2673200144 -1.2615819972 -0.0413636656
H -3.0371304031 0.0446165528 -1.2170988463
H -3.6712927760 0.4104083119 1.7702885486
H -3.4602765473 1.7358604230 0.6128749610
H -5.3372876954 0.9359135191 -0.4419528843
