39
CONF1
C 1.7469480701 0.1899394674 -2.6800596983
C 2.0861832480 0.0976196719 -1.2204125786
C 2.2457565073 1.1562833847 -0.4209655279
C 1.8531535597 2.5668000144 -0.7481830446
C 0.3045846317 2.6488782035 -0.7596713246
C -0.3147235587 1.8866756698 0.4027377711
C -0.2998267816 2.4350638698 1.6209899417
C -0.9197080025 0.5266586324 0.1343701509
C -2.1418532166 0.0955994996 0.9869857741
C -1.6154390926 -1.3602851993 1.0256904525
C -0.2131267669 -0.8155388763 0.5838453619
C 0.5882740288 -1.7023152867 -0.3656106066
C 2.0496559077 -1.2770601972 -0.6165406499
C -2.3057327187 -2.2163762369 -0.0345439696
C -1.6469354443 -2.0574622456 2.3767135228
H 0.7312436281 -0.1756836361 -2.8796195291
H 1.8168974839 1.2102441544 -3.0617867957
H 2.4255266443 -0.4415351863 -3.2664454880
H 2.4698762333 0.9605169969 0.6261039494
H 2.2441517455 3.2473159560 0.0145988348
H 2.2478540638 2.9062901871 -1.7128449128
H -0.0620778451 2.2300830068 -1.7030460788
H -0.0101531773 3.6984152297 -0.7275035864
H -0.6996489304 1.9339057795 2.4960755279
H 0.1354490169 3.4172664588 1.7842015346
H -1.1644719097 0.4512402456 -0.9318749049
H -2.1262393563 0.5548867044 1.9781065693
H -3.1294587884 0.2587266242 0.5429176551
H 0.3805726132 -0.5992987031 1.4828898431
H 0.5970140971 -2.7165763769 0.0589853682
H 0.0624573898 -1.7853084987 -1.3245347371
H 2.5891425472 -1.2800305326 0.3376995650
H 2.5281651895 -2.0185801950 -1.2700611518
H -2.3217008785 -1.7221014368 -1.0114097769
H -3.3456640407 -2.3956741589 0.2611988853
H -1.8195995079 -3.1904939312 -0.1542480011
H -1.1810919247 -1.4367108621 3.1492836604
H -2.6774191105 -2.2691488275 2.6861852514
H -1.1080349460 -3.0122291636 2.3397824360
