94
CONF6
C 10.1740070728 -2.1502372711 -0.9710907559
C 8.9854523220 -2.0324687344 -0.0385753010
C 8.0946831790 -3.2883402864 -0.0462751863
C 6.8683796937 -3.1179274511 0.7874075963
C 5.6653320407 -2.7980089845 0.2735314882
C 4.4793650823 -2.5543636787 1.0418070952
C 3.2869516007 -2.2056946572 0.4937131639
C 2.0861758564 -1.9849252983 1.2348013386
C 0.8976070549 -1.6454408706 0.6726111195
C -0.3146171250 -1.4303492473 1.4080924939
C -1.4753537080 -1.0456475275 0.8483319434
C -2.6962923818 -0.6697600072 1.6282199247
C -2.7808913017 0.8418323131 1.8498713734
C -2.7455784109 1.6427154417 0.5425801594
C -3.9543234926 2.5971242874 0.3826542742
C -3.7504193054 3.5206093991 -0.8221684158
C -2.3796772265 4.1936172380 -0.7527514182
C -1.2780621998 3.1402028002 -0.6364534411
O -1.5136655640 2.3669440099 0.5480247791
C 0.1214355232 3.7226897043 -0.4219038526
C 1.1965597307 2.6416220597 -0.2803621839
C 2.5252051363 3.2175128644 0.2051165287
C 3.6508152593 2.2288699764 0.0691231418
C 5.0558083162 2.6801731547 0.0187299642
O 4.3749079553 2.2730549064 -1.1763676155
C 6.1439670449 1.8184776187 0.5020790262
C 6.6329821931 0.7801750647 -0.1791603644
C 7.6729843687 -0.0771273670 0.4182564001
O 8.0449524425 -0.0298080001 1.5719772865
O 8.1622331931 -0.9353452174 -0.5155969047
O 1.3716056023 1.9109204696 -1.5176652318
O -1.3434117229 2.3466916611 -1.8025253802
O -4.8066031077 4.4786266121 -0.9255423662
C -5.1733641386 1.7023572961 0.2648986659
O -5.8913358154 1.4314427096 1.2191145232
O -5.2964894662 1.1659568698 -0.9379145223
O -3.9134870387 -1.0291907896 0.9430958319
C -4.3924053665 -2.3353760459 1.1801634106
C -5.9008021311 -2.3341612052 0.9033019987
C -6.2159286615 -2.2274121023 -0.6270671612
C -4.9528810664 -2.3629209654 -1.4637122439
C -4.1145005877 -3.5306191930 -0.9380108346
O -3.7132352653 -3.3236377667 0.4370221986
C -2.8498045639 -3.7649853251 -1.7410403566
O -5.3865487775 -2.6107555913 -2.8096558175
N -6.9019827120 -0.9632306855 -0.9525172435
O -6.5855722878 -1.3883386322 1.6910485649
H 10.7756778458 -1.2381556922 -0.9436554440
H 9.8424576096 -2.3188428742 -2.0002373724
H 10.8048124810 -2.9911050893 -0.6674985409
H 9.3059214935 -1.7999940495 0.9814134086
H 8.7032262138 -4.1261756476 0.3174507617
H 7.8188265169 -3.5028807894 -1.0857970213
H 6.9841291837 -3.1851015261 1.8687940797
H 5.5717748439 -2.7062933669 -0.8095552142
H 4.5539600596 -2.6597485017 2.1241246578
H 3.2253834470 -2.0936698408 -0.5893575839
H 2.1379578928 -2.1096341211 2.3168909289
H 0.8487561587 -1.5119783177 -0.4083108841
H -0.2688958681 -1.5727869238 2.4890149398
H -1.5294776639 -0.8986556882 -0.2287082074
H -2.6784013506 -1.1673114109 2.6106238138
H -3.7000091012 1.0490947445 2.4075673585
H -1.9298464246 1.1548616552 2.4617353219
H -2.7575170389 0.9731165732 -0.3260055062
H -4.0539662757 3.1926087187 1.3002052562
H -3.8126881959 2.9286080088 -1.7379559028
H -2.3298853525 4.8495729312 0.1264023408
H -2.2263134197 4.7997483389 -1.6506003938
H 0.3689057976 4.3846384734 -1.2612482445
H 0.1026918187 4.3297905760 0.4904032533
H 0.8491058810 1.8817215516 0.4280625972
H 2.4152327310 3.5122719446 1.2566061911
H 2.7847178225 4.1221864246 -0.3620925160
H 3.4641933442 1.2145909049 0.4289252456
H 5.2264643476 3.7572810363 0.1004173669
H 6.5572360720 2.0510950972 1.4824923969
H 6.2683311662 0.5333930569 -1.1702696447
H 1.9334219587 2.4332403386 -2.1056079607
H -0.4738758548 1.9240758024 -1.9163673092
H -4.8239200365 4.9918803839 -0.1084947190
H -5.9689077010 0.3828422757 -0.9075577764
H -4.2167368696 -2.6024782149 2.2322791745
H -6.2572954348 -3.3141259499 1.2405298776
H -6.8511084097 -3.0864817651 -0.8960458113
H -4.3695719235 -1.4336820010 -1.4083536306
H -4.7441047615 -4.4354509631 -0.9772542195
H -2.2445254890 -4.5366136919 -1.2587637009
H -3.0911031712 -4.1030751617 -2.7530944328
H -2.2520000275 -2.8488290920 -1.7940251510
H -4.6730357177 -2.3632920042 -3.4069821975
H -7.2794780996 -1.0379861603 -1.8923571488
H -7.6774888101 -0.8300202564 -0.3086460367
H -6.2160564353 -0.4974169110 1.5297942262
