47
CONF67
C -5.0357238858 -4.5985963053 0.4736940002
O -5.8010605689 -3.6041045827 -0.2632948105
P -5.0553063273 -2.3487850360 -0.9124827623
S -3.5636825411 -2.6559619151 -2.1084590621
O -6.2568964779 -1.5745828217 -1.6184356000
C -7.4752587584 -1.2601633243 -0.8753950168
O -4.7026045259 -1.5140320858 0.4466356459
C -3.8063852563 -0.4435115936 0.4304524947
C -4.1601666701 0.7598553504 -0.1635276587
C -3.2542194807 1.8162852568 -0.1402233401
C -2.0208585143 1.6677263590 0.4967214369
C -1.6915256692 0.4556831371 1.1108596604
C -2.5807509971 -0.6092435016 1.0641601761
S -0.9302446895 3.0837579832 0.5708434413
C 0.6715839590 2.3590742161 0.2410033935
C 0.8537463801 1.4131232773 -0.7719876171
C 2.1197422989 0.9050458860 -1.0268284997
C 3.2019629236 1.3717111362 -0.2894856724
C 3.0445492766 2.3292826549 0.7032112387
C 1.7676260656 2.8115589959 0.9770821745
O 4.4570203447 0.8661784605 -0.6282222449
P 5.4864008559 0.2273271367 0.4484203799
S 4.7399844854 -0.8841807894 1.8468172520
O 6.2621562490 1.5606754777 0.9007278381
C 7.2977925186 1.4661188631 1.9197654130
O 6.4803307057 -0.5802814609 -0.5043627089
C 7.1514819420 0.0938967970 -1.6130813718
H -4.2854041123 -5.0498297736 -0.1807594060
H -5.7589807631 -5.3476826776 0.7938723138
H -4.5590969384 -4.1368326138 1.3424490668
H -8.0459527691 -2.1743399926 -0.7010085052
H -7.2277684171 -0.7749216719 0.0724524415
H -8.0352799100 -0.5764228073 -1.5123648965
H -5.1217568860 0.8677632628 -0.6539452517
H -3.5089572928 2.7535950236 -0.6237748290
H -0.7385723976 0.3386406153 1.6159118223
H -2.3366555145 -1.5614510544 1.5229001797
H 0.0080589682 1.0638259455 -1.3548743785
H 2.2771786368 0.1602991077 -1.7994569745
H 3.8991221900 2.6862936708 1.2670642218
H 1.6296614218 3.5412313733 1.7682380631
H 8.0938941069 0.7929321841 1.5890567587
H 7.6858963398 2.4773755528 2.0376890040
H 6.8649420433 1.1116492996 2.8587325767
H 7.8639427206 -0.6309117030 -2.0052034980
H 6.4208048235 0.3613729061 -2.3796725288
H 7.6752290223 0.9835559661 -1.2548683746
