61
CONF11
C -2.1738091383 -1.5148521671 -3.2329501077
C -1.1686825041 -1.9431016516 -2.1523228071
C -1.6643414021 -1.5718562303 -0.7788972171
C -2.4718684751 -2.4668623656 -0.0766586855
C -3.0476073152 -2.1360788418 1.1482688650
C -2.8154832381 -0.8610734378 1.6608836342
C -2.0103667323 0.0620914772 0.9949223621
C -1.4048730249 -0.3075024506 -0.2196751245
C -0.4772876295 0.6272774619 -0.8818244539
C -0.7972371671 1.6569537231 -1.8657004438
O -1.8636926852 2.0030610500 -2.3641134573
N 0.4377738712 2.2312728610 -2.1928353596
N 1.4814404192 1.6516526312 -1.4638591115
C 0.8575030463 0.7265786265 -0.6550884521
O 1.5954163837 0.0625920454 0.2805688714
C 1.9772415445 -1.2544583825 -0.0253652864
O 1.9719696336 -1.6691278825 -1.1475728466
C 2.3287152084 -2.0112458964 1.2401454564
C 0.9929580285 -2.3252695940 1.9476176059
C 3.2238255717 -1.1646349606 2.1573397909
C 3.0369687511 -3.3099258618 0.8472382401
C 2.5090122814 2.5502391946 -0.9194568183
C 1.9516954178 3.8291603246 -0.2883151337
O 1.7316654203 4.8677761072 -1.2333771553
C 0.5648772989 4.7005581567 -2.0332394992
C 0.5986730862 3.4641645389 -2.9302824337
C -1.8035007960 1.4302578419 1.5975824796
C -0.6451962538 1.4776568730 2.6017692120
C -3.9411536630 -3.1075148558 1.8701068963
H -1.8055620497 -1.7813148849 -4.2288557211
H -3.1396087629 -2.0073027232 -3.0799734548
H -2.3387543263 -0.4337195911 -3.1998139478
H -1.0147461371 -3.0273053602 -2.1992478258
H -0.2005640845 -1.4753689048 -2.3472200712
H -2.6634926598 -3.4474932418 -0.5077778415
H -3.2796524687 -0.5723079986 2.6019715504
H 0.4693310378 -1.4096731649 2.2346456845
H 1.1980897999 -2.9118928431 2.8489129461
H 0.3286488138 -2.9034036928 1.2980633541
H 3.4906026125 -1.7558010134 3.0388524098
H 2.7124799793 -0.2599626350 2.4933626458
H 4.1508885755 -0.8767078878 1.6506976249
H 3.2673781628 -3.8842128901 1.7493855877
H 3.9716434974 -3.1052235752 0.3171564461
H 2.4060690091 -3.9181207927 0.1953261671
H 3.2130892978 2.8205345589 -1.7141603273
H 3.0561498952 1.9633466224 -0.1756332260
H 1.0312394593 3.6035123236 0.2782666955
H 2.6963351143 4.2248564796 0.4102448610
H -0.3345057590 4.6534003290 -1.3980799938
H 0.5074479997 5.5995314066 -2.6553523015
H -0.2560607896 3.5013281851 -3.6150747633
H 1.5192549222 3.4328741642 -3.5244135172
H -2.7281557418 1.7307118625 2.1032886187
H -1.6301704689 2.1588630410 0.7989067578
H -0.5399884058 2.4798293948 3.0304254451
H 0.2998982944 1.2070006661 2.1221198346
H -0.8160636649 0.7736665085 3.4232001367
H -3.6672703373 -4.1419549744 1.6453650681
H -3.8924738837 -2.9644995427 2.9531977084
H -4.9861135679 -2.9709779435 1.5673038093
