48
CONF16
C -3.4694375615 1.4388566711 -0.3853664728
C -3.8807599743 0.0401765112 0.0895217068
C -5.3943184992 -0.1408599191 -0.1205787589
C -3.6016743500 -0.1100560826 1.5935199645
C -3.1579689561 -1.0716501479 -0.7280734325
C -1.6586496059 -0.8330445405 -0.9624513728
N -1.0768001616 -1.9284481882 -1.7383164822
C -0.5951754600 -1.9066034812 -2.9982226497
N -0.2211095566 -3.1238415668 -3.3658437101
C -0.5098679278 -3.8703166926 -2.2606411525
N -1.0358913146 -3.1919158954 -1.2505427894
O -1.0194516297 -0.7356255699 0.2864250115
C 0.2513034825 -0.2092116528 0.3631900688
C 0.9472463842 0.3656648078 -0.6982821297
C 2.2182281553 0.8882935794 -0.4735477759
C 2.8184621225 0.8498697584 0.7889823302
C 2.0955382618 0.2610696796 1.8380288767
C 0.8303557531 -0.2638211526 1.6321458579
C 4.1679827679 1.4084562652 1.0107212671
C 4.5837748777 2.5706284642 0.3447337385
C 5.8551350045 3.0950192650 0.5524625493
C 6.7377027353 2.4713993844 1.4320900740
C 6.3365249189 1.3170326600 2.1014079350
C 5.0662584577 0.7901887715 1.8926475176
O -3.6645357055 -1.1752920718 -2.0632812602
H -4.0872561784 2.1946049044 0.1105747126
H -3.6080223315 1.5453779926 -1.4667046134
H -2.4235337452 1.6565118483 -0.1415603938
H -5.7103976399 -1.1609507762 0.1312815690
H -5.9358255882 0.5477821281 0.5352862293
H -5.6919781456 0.0747906897 -1.1507820365
H -3.8427023013 -1.1229308965 1.9362176305
H -2.5611759012 0.0986983113 1.8450174770
H -4.2349110371 0.5917022236 2.1467217647
H -3.2754755271 -2.0283480899 -0.1979957862
H -1.5320590381 0.0704826958 -1.5706916371
H -0.5426289101 -1.0029186451 -3.5918955606
H -0.3261599051 -4.9354737917 -2.1961596190
H 0.5345493212 0.4127396390 -1.6978179091
H 2.7589297701 1.3127245685 -1.3136043320
H 2.5203882867 0.2329475859 2.8364417017
H 0.2700497518 -0.7086540637 2.4480415953
H 3.8965486473 3.0797623260 -0.3242411157
H 6.1542344898 4.0000956099 0.0324535712
H 7.7293707368 2.8815936061 1.5948174580
H 7.0192971928 0.8182000871 2.7825892758
H 4.7748568460 -0.1238360491 2.4011033604
H -4.5089690279 -1.6387734881 -2.0298226554
