42
CONF21
C -2.7201178104 -2.3313846004 -1.1069036153
C -2.3217013607 -1.0534704806 -0.4521352173
C -3.1292910434 -0.0205284282 -0.0802358536
C -2.3100592347 1.0318754346 0.5148040762
C -0.9516407424 0.6306673908 0.4792032422
C -0.9191656076 -0.6987817864 -0.1619431800
C 0.1127305649 -1.5288619028 -0.4509423056
C 1.5469282961 -1.2713401117 -0.3834975226
C 2.4086722486 -2.2951791577 0.0429459454
C 3.7825424441 -2.0967048190 0.0991269581
C 4.3016845262 -0.8727959133 -0.3020259623
C 3.4793012810 0.1402575998 -0.7904206045
C 2.1069756706 -0.0593574222 -0.8209801184
S 6.1062538079 -0.6304037871 -0.2768748720
O 6.7289449790 -1.9756978530 0.0960586567
C 6.1511053853 0.3946784798 1.2483134391
C 0.0124810254 1.4150502565 1.0996341371
C -0.3587102303 2.6226479409 1.6999362137
C -1.6909108640 3.0009012523 1.6704826488
C -2.6963588302 2.2323027928 1.0989984612
F -2.0383801180 4.1820513619 2.2476584684
C -4.6060331448 0.0948846494 -0.2221911987
C -5.0244038543 1.0490235404 -1.3215059496
O -4.2893392994 1.5546854138 -2.1407371624
O -6.3572070178 1.2635934866 -1.2917620596
H -3.8034902386 -2.4082996898 -1.2137506925
H -2.2776020578 -2.4152066850 -2.1063576087
H -2.3751946315 -3.1966735657 -0.5290715606
H -0.1487702090 -2.5327876506 -0.7824768654
H 1.9901862540 -3.2505378823 0.3460462118
H 4.4506890713 -2.8812888233 0.4395112983
H 3.9031405997 1.0736235354 -1.1509574663
H 1.4604828758 0.7153219052 -1.2195315749
H 7.2025406872 0.6177395164 1.4450687973
H 5.5921666067 1.3168572654 1.0677824934
H 5.7089069667 -0.1846066936 2.0630046566
H 1.0522272809 1.1130053524 1.1348909726
H 0.3731256546 3.2593698433 2.1840721315
H -3.7285847645 2.5653403310 1.1351254899
H -5.0682303429 0.4412325309 0.7112945250
H -5.0719742142 -0.8709110252 -0.4457687043
H -6.5839209221 1.8597089167 -2.0258370313
