40
CONF51
C 1.5773043068 -2.1860035263 0.1206552369
C 3.0095337968 -2.2782147258 -0.3566051416
O 3.5922157574 -0.9385595592 -0.5152166791
C 3.3266172391 -0.2990446198 -1.6557197948
O 2.6819316640 -0.7418449124 -2.5812508131
C 3.9116824746 1.1101093933 -1.6210707411
C 2.7972420899 2.1571736075 -1.7013626975
C 1.9022638928 2.0398377464 -0.4947414153
C 0.7353683300 1.2812801947 -0.5712103709
C -0.0935089822 1.0929898766 0.5308016101
C 0.2467087408 1.7117168494 1.7315322921
C 1.4043684437 2.4565031935 1.8606027178
C 2.2212507914 2.6031999660 0.7470070236
Cl 3.6849950346 3.5518222428 0.9326976779
F -0.5802503008 1.6174942324 2.7867306526
N -1.2525723209 0.3034501374 0.4283625035
C -1.5831721401 -0.7585938041 1.2483409427
O -1.0413785786 -1.1658093681 2.2606066680
N -2.7175031386 -1.2836556742 0.6000547000
C -2.9510419548 -0.5513972606 -0.5577577132
N -2.0747704372 0.3990935924 -0.6855535450
C -4.0530060498 -0.8118590733 -1.5091149729
C -3.4324033978 -2.4029119071 1.1056569639
F -3.4572099426 -3.4103510523 0.1791748288
F -4.7394965401 -2.0679594820 1.3366865621
Cl 5.0319749598 1.2860502904 -3.0533560282
H 1.2098383889 -3.1940332726 0.3370548841
H 0.9303312146 -1.7403961425 -0.6398358357
H 1.5113005461 -1.5922036451 1.0364880714
H 3.0969767235 -2.8064203935 -1.3088610827
H 3.6531146450 -2.7502543238 0.3872927834
H 3.2516502240 3.1491145606 -1.7577659485
H 2.2157246888 1.9875435756 -2.6110373227
H 0.4640092574 0.8130695760 -1.5115570315
H 1.6409108002 2.9252792809 2.8084254804
H -3.9939633968 -0.0830009588 -2.3180059738
H -5.0239366085 -0.7217901513 -1.0129075430
H -3.9765502654 -1.8205713105 -1.9255251200
H -2.9689016336 -2.7582334137 2.0306395643
H 4.5299651269 1.2460830574 -0.7330314946
