48
CONF15
C -3.7534451824 0.4876334896 -1.7621552347
Si -2.4823792709 0.9138603862 -0.4863493543
O -2.8570769902 2.3018923881 0.3354896932
O -2.3636184383 -0.3518468372 0.5507351275
Si -1.3917736560 -0.8338392921 1.8011648725
C -2.3880297710 -1.9994424713 2.8529661392
C -0.7753885162 0.6475481401 2.7468204495
O -0.0908639789 -1.6477507786 1.2070496456
Si 0.6015938570 -2.2760683233 -0.1494605137
C 1.5636090533 -3.7826793695 0.3708586518
C -0.6743872267 -2.6601557074 -1.4499800659
O 1.6533286288 -1.1702420188 -0.7825315280
Si 2.4726255733 0.1630970586 -0.2549421007
C 3.0659893256 -0.0667389001 1.4949214820
C 3.8753457515 0.4478613774 -1.4460452790
O 1.4532820375 1.4639303725 -0.2590668656
Si 0.3194486108 2.1223264526 -1.2601182345
C -0.0220167159 3.8431007908 -0.6434515143
C 0.9054194012 2.0894859199 -3.0275014514
O -1.0435323560 1.1915845383 -1.2018809986
H -3.8745259281 1.3077878052 -2.4769746330
H -4.7242949662 0.2964276545 -1.2927920424
H -3.4622975269 -0.4107492886 -2.3165682324
H -3.6531893315 2.2778091191 0.8788306385
H -1.7821476845 -2.3922676490 3.6764723150
H -3.2599335330 -1.4938735935 3.2816867216
H -2.7430525484 -2.8472704492 2.2564091274
H -0.1219739636 0.3356423405 3.5690395842
H -0.2033323439 1.3161804462 2.0936295802
H -1.6122360825 1.2137713798 3.1697376825
H 0.8987098156 -4.5511743766 0.7800087994
H 2.2968040279 -3.5207302889 1.1419787796
H 2.1023804884 -4.2149395618 -0.4791354961
H -1.1607590743 -1.7459175179 -1.8048081170
H -1.4468580519 -3.3283334508 -1.0538572247
H -0.2059047059 -3.1528707590 -2.3091803907
H 3.6183508168 0.8164212078 1.8343879491
H 2.2217470379 -0.2251164834 2.1737716329
H 3.7329704259 -0.9327459715 1.5676147841
H 4.4112619345 1.3721488606 -1.2047179002
H 4.5902934176 -0.3811542226 -1.4012593719
H 3.5083248281 0.5244740707 -2.4748664233
H 0.8730231158 4.4663573746 -0.7475056970
H -0.3107640107 3.8288400942 0.4123937452
H -0.8327847070 4.3099848322 -1.2123523302
H 0.1576845961 2.5453674168 -3.6859592037
H 1.8438225722 2.6422051234 -3.1427852603
H 1.0705515682 1.0601688620 -3.3652819561
