42
CONF148
C 4.0533560973 -0.2021721137 -1.4977070085
C 3.3873701527 0.7958157205 -0.5505868016
C 4.1395382802 2.1286836493 -0.5272941291
C 1.9441582839 1.0680447040 -0.9530242074
O 1.1490429573 -0.1572191074 -0.9753599519
C 0.6531628995 -0.5751029893 0.1979550042
O 0.7610296223 0.0263255183 1.2511866494
C -0.0225574667 -1.8962797034 0.0747186469
C 0.5118044434 -2.8833354671 -0.7553748719
C -0.0258646603 -4.1667666273 -0.7543749190
C -1.0976186644 -4.4734837941 0.0790518190
C -1.6400166824 -3.4939690913 0.9064106034
C -1.1146503305 -2.2040622037 0.9017825199
C -1.7782411142 -1.1704880962 1.7500731920
O -2.0238151835 -1.3155906217 2.9323393732
O -2.1218044394 -0.1012474781 1.0243651461
C -2.7033925507 1.0220957983 1.7539788602
C -2.9537481866 2.1444249314 0.7617392088
C -3.9761162287 1.7424308538 -0.3035516861
C -1.6518992676 2.6438195468 0.1309794269
H 5.0864225869 -0.3906160733 -1.1893358138
H 4.0702165709 0.1941656906 -2.5201036562
H 3.5230157213 -1.1591092132 -1.5102979213
H 3.3817256976 0.3781025631 0.4644629176
H 5.1787824574 1.9735978901 -0.2226882807
H 4.1446901393 2.5848473402 -1.5243271154
H 3.6800285029 2.8359066875 0.1709577723
H 1.8910325513 1.4385190859 -1.9808100149
H 1.4679288927 1.7839354608 -0.2775015529
H 1.3669531282 -2.6492294215 -1.3795837283
H 0.4004948992 -4.9294862389 -1.3974974271
H -1.5163883034 -5.4744123515 0.0838105246
H -2.4879681166 -3.7199890201 1.5448196945
H -1.9942067593 1.3232461758 2.5326402636
H -3.6326152948 0.6842513329 2.2247197935
H -3.3822909884 2.9579717104 1.3637515170
H -4.9089568678 1.3949357525 0.1528935352
H -3.5832243848 0.9382927336 -0.9344289682
H -4.2081558781 2.5940195409 -0.9504758665
H -1.2028273894 1.8663828586 -0.4964587747
H -0.9220656767 2.9248947774 0.8975646144
H -1.8423290583 3.5178500988 -0.4994184826
