48
CONF17
Cl -3.8568352661 2.7449750510 3.0213764202
C -3.8639486947 1.3047065082 2.0004762957
C -4.8912379275 0.3863468154 2.1426715813
C -4.8493361494 -0.7463394790 1.3285561087
C -3.8276582034 -0.9447527632 0.4142708688
C -2.7883823979 -0.0038321244 0.2806439713
C -2.8194414736 1.1377087714 1.1006549589
N -1.7741497751 -0.2042834169 -0.6684840366
C -0.7992229333 0.8763505977 -0.8153320303
C 0.1342283459 0.6196974891 -1.9881727020
N 0.8248227891 -0.6567339242 -1.8236242453
C 1.8181429973 -0.8947694499 -2.8760695074
C 3.0989812052 -0.0756190275 -2.7110032227
C 3.9563564623 -0.4748257634 -1.5073138397
N 3.3154850194 -0.2024150313 -0.2334269180
N 3.0582008397 1.0995792746 0.1374026101
C 2.2559870170 0.9855568092 1.1746304590
C 1.6446784478 1.9760773630 1.9813528382
C 0.7901437227 1.5763939654 2.9699434369
C 0.5212809068 0.1924698126 3.2085384447
C 1.1278370056 -0.7581157927 2.4514540427
N 1.9863319721 -0.3529031845 1.4637050716
C 2.6492696930 -1.1455102605 0.5060840615
O 2.6246171992 -2.3664413268 0.4087502251
C -0.1753293525 -1.7209819819 -1.7876870378
C -1.1151697105 -1.5221884994 -0.6122144596
H -5.6934247126 0.5463464911 2.8522723927
H -5.6446949658 -1.4812778505 1.4038348294
H -3.8503576895 -1.8209656749 -0.2229228978
H -2.0348604094 1.8808271005 1.0652669504
H -1.3362900157 1.8136805947 -0.9965393126
H -0.1947755207 1.0004682335 0.1001421391
H -0.4436051447 0.6447106422 -2.9352459411
H 0.8643782730 1.4349515789 -2.0168699309
H 2.0820223774 -1.9598633161 -2.8448326165
H 1.3886014604 -0.7006998410 -3.8795091993
H 2.8817315381 0.9966110049 -2.6616164457
H 3.7126951212 -0.2259534645 -3.6071384330
H 4.9093017614 0.0648394982 -1.5289327808
H 4.1660428852 -1.5492311519 -1.5207596434
H 1.8552036054 3.0195909498 1.7792445419
H 0.2968745278 2.3198699146 3.5866554786
H -0.1649472369 -0.1059866517 3.9907650669
H 0.9957815969 -1.8288060585 2.5562277505
H 0.3337932215 -2.6829864843 -1.6590199489
H -0.7617094268 -1.7635980904 -2.7287967953
H -0.5398350688 -1.6155292909 0.3257861985
H -1.8675772970 -2.3127089072 -0.6251943164
