42
CONF166
C 2.5721426770 2.4425231860 -2.2898524997
C 2.1438830774 1.0099228659 -1.9630800289
C 3.2181541417 0.0026155273 -2.3741966580
C 1.8379025710 0.9256535026 -0.4794690928
O 1.3002503095 -0.4055988914 -0.2044682972
C 0.9473649980 -0.6495492670 1.0610326856
O 1.0634456595 0.1382150238 1.9791222493
C 0.4615824678 -2.0548010126 1.2315378817
C 1.3758638251 -3.0892027028 1.0342191608
C 1.0200540479 -4.4045848639 1.3184548919
C -0.2535996306 -4.6948584586 1.8000838954
C -1.1731675886 -3.6698898114 1.9866039253
C -0.8297026650 -2.3474329753 1.6992615386
C -1.8891846261 -1.3120588119 1.8447376564
O -2.8406870250 -1.4100296266 2.5974406787
O -1.6866018080 -0.2803735616 1.0151706429
C -2.6233867765 0.8334443499 1.0998049522
C -2.0680163947 1.9746804445 0.2661179980
C -3.0100413818 3.1742922348 0.3932859628
C -1.8806096630 1.5713681039 -1.1966724518
H 1.7938509252 3.1640947212 -2.0203576517
H 2.7758944411 2.5431738043 -3.3599254258
H 3.4872368164 2.7053881831 -1.7462964230
H 1.2159197406 0.7887196140 -2.5079904353
H 4.1532359811 0.2054444230 -1.8383980662
H 2.9130055127 -1.0242940215 -2.1534861198
H 3.4196592806 0.0748841846 -3.4474852469
H 1.0883400323 1.6651878102 -0.1789698795
H 2.7411133549 1.0669319751 0.1257699354
H 2.3745112924 -2.8584841747 0.6771102463
H 1.7411934644 -5.2009731644 1.1661367990
H -0.5337856425 -5.7193750154 2.0210357673
H -2.1770283335 -3.8848040072 2.3369355790
H -2.7318946969 1.1180037945 2.1510559987
H -3.5948917850 0.4943761987 0.7194046913
H -1.0921830638 2.2486532656 0.6900953086
H -3.9996143678 2.9303333504 -0.0104331454
H -2.6169184448 4.0259176280 -0.1695283648
H -3.1313384261 3.4808718480 1.4373534640
H -1.4664574517 2.4055683221 -1.7721852719
H -2.8442676215 1.2960325841 -1.6420638808
H -1.2012268267 0.7200142304 -1.2969130388
