20
CONF21
C -3.0672314707 0.6970664381 0.1763433981
O -1.6203551167 0.8877018790 0.0796602139
P -0.7294651883 -0.3395991527 -0.3982146115
O -0.9982534201 -0.9303285566 -1.7265430900
O -0.7399547500 -1.4301063606 0.7530535445
C -0.4290057789 -1.0658755644 2.1338579080
O 0.7363801864 0.3726962000 -0.2503213942
C 1.5804166555 0.5039060132 -1.3403738949
C 3.0154955475 0.1463383976 -0.8928174117
Cl 2.9765168482 -1.5704392047 -0.3523084134
Cl 3.5719484000 1.1794023452 0.4469116492
Br 4.2410141848 0.2873546829 -2.4220002456
Br 1.4749198717 2.3709790456 -2.0312894666
H -3.4760645241 0.4536284362 -0.8070616050
H -3.2949484524 -0.0938505145 0.8960168711
H -3.4636908638 1.6488181321 0.5264472543
H -1.0742460239 -0.2481307166 2.4639948634
H -0.6227725933 -1.9612139414 2.7226430871
H 0.6232861252 -0.7817641132 2.2091200093
H 1.2960105641 -0.1265838421 -2.1871186606
