41
CONF125
C -4.3774664779 -1.7130202151 2.6275608554
C -4.0816319365 -0.2245415385 2.4512381697
N -3.5951188990 0.1445539247 1.1196881454
C -4.5908549529 0.4829662529 0.1031530729
C -4.6110774150 -0.4831225352 -1.0847417757
O -4.9140904177 -1.8162571544 -0.6904637149
C -2.2501851707 0.2173269874 0.8545548491
C -1.2920855166 -0.3432100127 1.7336134324
C 0.0551577445 -0.2609202402 1.4520081747
C 0.5227620831 0.3709538936 0.2904119069
C -0.4197606336 0.9451260386 -0.5834937911
C -1.7654525085 0.8695667813 -0.3116161615
N 1.9004323982 0.3739916441 0.1058434571
N 2.3049594025 0.9143545055 -0.9658992425
C 3.7026826912 0.9027422496 -1.1257981546
C 4.6145597996 0.3484365412 -0.2096748347
C 5.9695954310 0.3898885393 -0.4748023350
C 6.4138229853 0.9856715027 -1.6554410367
C 5.5324701196 1.5414307758 -2.5767459081
C 4.1759854112 1.4961269276 -2.3049105284
N 7.8568787162 1.0269830163 -1.9342466708
O 8.6119574178 0.5301497085 -1.1043171089
O 8.2199444471 1.5558703161 -2.9805764247
H -5.1746995463 -2.0335256110 1.9512691721
H -4.6977678165 -1.9108995760 3.6554980217
H -3.4893857202 -2.3207932535 2.4270280152
H -3.3504452321 0.1140229242 3.1925016214
H -4.9937733252 0.3533944637 2.6389636949
H -4.4541025499 1.5136142743 -0.2601172365
H -5.5710934297 0.4417104007 0.5859853552
H -5.4095684415 -0.1716668643 -1.7668757571
H -3.6630256389 -0.4459538456 -1.6376249642
H -4.1366622889 -2.1711470506 -0.2438992231
H -1.6063476736 -0.8652333526 2.6280814124
H 0.7846393110 -0.7018438623 2.1238361164
H -0.0685957609 1.4595209584 -1.4704212222
H -2.4578242093 1.3474434590 -0.9929204839
H 4.2401502143 -0.1079497974 0.6981336840
H 6.6940003909 -0.0292275477 0.2123902695
H 5.9177530744 1.9945624116 -3.4811887462
H 3.4532649075 1.9160624375 -2.9959846033
