47
CONF248
C -5.4654229131 -2.0415979110 2.3631638147
O -5.0408705773 -2.0483053407 0.9630762549
P -5.4998584609 -0.8878658416 -0.0276551476
S -4.7839240046 -1.1169866166 -1.8149128409
O -7.0837395039 -0.8789641868 0.1744249956
C -7.9051403713 0.0664937024 -0.5690496898
O -5.1229922772 0.5238392089 0.6989956408
C -3.8695751124 1.1189358497 0.5390684353
C -2.7418890187 0.5507453807 1.1213695305
C -1.5165580368 1.1920333914 0.9912834547
C -1.4235613640 2.3816067557 0.2637432307
C -2.5663508822 2.9378600319 -0.3158739257
C -3.7983079718 2.3080727099 -0.1711035850
S 0.1149008338 3.2826375875 0.1174164789
C 1.3212520985 1.9756516912 -0.0732077712
C 2.5016035452 2.0470018309 0.6677474739
C 3.4946910275 1.0862194288 0.4975426813
C 3.2828004587 0.0538915225 -0.4061023103
C 2.1105332152 -0.0346774103 -1.1480452415
C 1.1309148470 0.9354796863 -0.9876031521
O 4.2165117662 -0.9714019213 -0.5668874232
P 5.7406836643 -0.6739553489 -1.0427322845
S 5.9891296613 0.6709178283 -2.4163951951
O 6.0843579538 -2.1986457523 -1.3881758439
C 7.4232228523 -2.5186123943 -1.8665089219
O 6.5699948125 -0.2984375659 0.2767387379
C 6.5081861098 -1.1762445651 1.4443464737
H -5.2281670860 -1.0795749652 2.8244312210
H -4.8968472914 -2.8383168077 2.8411423715
H -6.5360733004 -2.2454288015 2.4247458822
H -7.7813118291 -0.0976188490 -1.6426201856
H -8.9323233867 -0.1396491771 -0.2706952917
H -7.6312947580 1.0905509271 -0.3025206016
H -2.8222654126 -0.3738562123 1.6834800675
H -0.6359024909 0.7622389270 1.4565502067
H -2.4962589388 3.8570303882 -0.8885341922
H -4.6939125974 2.7233044939 -0.6207034813
H 2.6469808939 2.8461703823 1.3869645670
H 4.4094186698 1.1357647020 1.0782764870
H 1.9797279951 -0.8495207471 -1.8518630972
H 0.2196385530 0.8806405867 -1.5738926212
H 8.1734290145 -2.2132261684 -1.1316551381
H 7.4371434294 -3.6007933006 -1.9894017764
H 7.6038009597 -2.0246167865 -2.8246272580
H 6.8566843702 -2.1783188838 1.1830295521
H 7.1713731848 -0.7254958006 2.1815638296
H 5.4855665682 -1.2149754738 1.8287116221
