60
CONF835
C 6.7575586485 3.8791084720 -2.3434182282
C 6.7918017141 2.3558587605 -2.4307730209
N 5.9996388249 1.7162557675 -1.3751800074
C 6.6857194442 1.4318636113 -0.1109124975
C 7.3208714609 0.0422340521 -0.0720793575
C 4.6813267626 1.4644266155 -1.6203158274
O 4.1221958990 1.8049705652 -2.6714276700
N 3.9964201861 0.8010088440 -0.6042803006
C 2.6493667714 0.4081775320 -0.6740614287
C 1.6700640941 1.1813614218 -1.2948775101
C 0.3247498550 0.7865074837 -1.3028216602
C -0.0315895520 -0.4363879041 -0.6931987287
C 0.9442233232 -1.1994326280 -0.0521918813
C 2.2668127221 -0.7814614787 -0.0424080234
O -1.3120864756 -0.8637240979 -0.8253268792
C -1.9107223021 -1.6212669484 0.2473086939
C -3.3756176266 -1.2178087086 0.2371135153
C -4.1412009500 -1.8956352084 1.3597692721
N -5.5648623714 -1.5653704923 1.2559197471
C -6.4469667406 -2.1090021324 2.3204169388
C -6.0377143358 -1.6469656422 3.7298566203
C -6.4450419653 -3.6392105641 2.2571670522
C -7.8547299062 -1.5896492693 2.0105425615
O -3.4885499730 0.1995085788 0.4085610937
C -0.6882932246 1.7119787633 -1.8790870846
O -1.8654196119 1.7097250771 -1.5206002697
C -0.2272858786 2.7144359530 -2.9079116267
H 5.7358590745 4.2468824393 -2.4749581608
H 7.3867055053 4.3151206918 -3.1259357266
H 7.1305958590 4.2250363513 -1.3741317292
H 7.8202772126 1.9914607311 -2.3327096035
H 6.4140772224 2.0227039670 -3.4003975740
H 7.4629832600 2.1941377959 0.0091642911
H 5.9961732462 1.5762339561 0.7276217017
H 8.0368095429 -0.0746394447 -0.8912448322
H 6.5691601949 -0.7486804892 -0.1623649284
H 7.8538165435 -0.0987563896 0.8731798648
H 4.5423266114 0.3011150735 0.0803284764
H 1.9544486510 2.1208244674 -1.7447046746
H 0.6782045497 -2.1432525302 0.4105913691
H 3.0172615632 -1.3954581076 0.4480314440
H -1.7892583085 -2.6968861661 0.0684837800
H -1.4426439423 -1.3463595414 1.2004077603
H -3.8149950788 -1.5136908901 -0.7297679790
H -4.0086866429 -2.9786803044 1.2553108628
H -3.6823357733 -1.5948286822 2.3184401652
H -5.6421664660 -0.5515861481 1.2878286549
H -5.0523307895 -2.0319205474 4.0092626696
H -6.7578517652 -2.0069961276 4.4723050929
H -6.0109857260 -0.5522858466 3.7820323139
H -7.1969508845 -4.0381261552 2.9450011420
H -5.4762886240 -4.0565778519 2.5487829388
H -6.6828765707 -3.9827971961 1.2447820697
H -8.5678187321 -1.9478858308 2.7593479914
H -8.1821702961 -1.9313505501 1.0233289715
H -7.8732866980 -0.4934245558 2.0210370296
H -2.9046470300 0.6181829703 -0.2524732612
H 0.4522863659 2.2656541963 -3.6371773545
H 0.3139720763 3.5294681484 -2.4125321102
H -1.1003325307 3.1358563232 -3.4072390342
