46
CONF117
C 1.8328103817 2.3995917331 3.9057691359
C 1.6501480761 1.8370210037 2.5177839725
O 2.6867046723 0.8239047738 2.3344183457
C 2.7498099581 0.1870747456 1.1656311918
N 3.7789324327 -0.6351821314 1.0359487054
C 3.8405091360 -1.2600823534 -0.1653342205
N 2.9618420807 -1.0893343523 -1.1804234974
C 1.9740883145 -0.2450827217 -0.8999270186
N 1.7993591079 0.4256690181 0.2474196998
N 1.0587156420 -0.0564296468 -1.9210387670
C -0.1372800094 0.6597280050 -1.9634924127
O -0.8174622149 0.6696690048 -2.9786642022
N -0.4714646389 1.3205700960 -0.8038478235
S -2.0029421367 2.0094182734 -0.5547352456
O -2.0410406354 2.2488609496 0.8950470472
O -2.1700285008 3.1257130377 -1.4879753191
C -3.2250789627 0.7561414633 -0.9731500222
C -3.8975236456 0.9135704013 -2.1809142582
C -4.9415261964 0.0526998245 -2.4995443443
C -5.3245130803 -0.9376163526 -1.6008368751
C -4.6603630507 -1.0761472226 -0.3873680809
C -3.5886812718 -0.2429811962 -0.0617049123
C -2.9280378099 -0.5009838665 1.2557511898
O -3.5383156399 -0.5736026713 2.3006573078
O -1.6167161410 -0.7335881106 1.1202680385
C -0.9163717111 -1.0572341168 2.3510456066
N 4.8566292112 -2.1109670150 -0.3557112670
C 5.0844378669 -2.8402831529 -1.5946731554
H 1.7166910319 1.6179650374 4.6616664040
H 2.8190405525 2.8585135208 4.0161043736
H 1.0720649427 3.1656445680 4.0806855075
H 0.6695529098 1.3672659008 2.4000872706
H 1.7709544627 2.6020051047 1.7441022213
H 1.2592499913 -0.5575493012 -2.7771108471
H 0.1248228870 1.1604139980 0.0231248610
H -3.6092038532 1.7083672849 -2.8572280484
H -5.4612079224 0.1685741864 -3.4443559177
H -6.1471120730 -1.6031739413 -1.8399528583
H -4.9597113297 -1.8425287132 0.3196568263
H 0.1267754476 -1.1793797961 2.0627118374
H -1.3147751085 -1.9840830169 2.7699488694
H -1.0316948561 -0.2440412833 3.0712725215
H 5.5139508996 -2.2062461988 0.4022652019
H 4.2258243430 -3.4718047301 -1.8427198732
H 5.2660319354 -2.1571509418 -2.4312509460
H 5.9621042084 -3.4729094844 -1.4564635056
