82
CONF31
C -5.8486867326 -1.3761185646 -1.6982265020
C -4.6535216082 -0.7164204577 -2.3290862199
C -4.1167263895 -1.1825754536 -3.4631725650
C -4.0568302983 0.4752883000 -1.6249127354
C -5.0446035352 1.5443750722 -1.1252672898
C -4.2263402712 2.3005199955 -0.0776437944
C -3.4966024493 1.1913227242 0.7141208037
C -3.2468001640 0.0719376748 -0.3523961515
C -1.7562649351 -0.2042936905 -0.6283686942
C -1.0486767495 0.9523202149 -1.3849791093
C 0.3360573749 1.2932438898 -0.8401579382
C 1.1623874131 0.0201530610 -0.6662869384
C 2.7110186670 0.3329957953 -0.5058026997
C 2.9917045452 1.5928508021 0.3451847107
C 4.4906068865 1.8676914544 0.5320871273
C 5.2510683225 0.6979463284 1.1538838576
C 5.0047109412 -0.6304326178 0.3911081913
C 3.4764008364 -0.8748034830 0.1227895357
C 2.7807501573 -1.4132474853 1.4101825965
C 1.3415740713 -0.9591937266 1.6432110638
C 0.5023273313 -0.9591954281 0.3647540065
C -1.0215422769 -0.5963592440 0.6839760681
C -1.1974648280 0.5538252467 1.7379969735
C -2.1882760468 1.6705523708 1.3548555534
C -1.6977499455 -1.8548155990 1.2742633193
C 0.5756924564 -2.3751161096 -0.2529887550
C 5.8317406742 -0.5747379976 -0.9140741773
C 5.6060767057 -1.8117096060 1.1760672780
O 4.9747365875 0.6181300073 2.5715204775
C 3.1694379648 0.6044181396 -1.9595868051
C -4.4391010997 0.6260273039 1.7962377357
O -4.8079599172 1.5717869522 2.8102876545
H -6.0630852889 -2.3385547781 -2.1692778294
H -6.7381715510 -0.7426634473 -1.7971772088
H -5.6980068881 -1.5362389962 -0.6241486995
H -3.2635704999 -0.6898932331 -3.9232920385
H -4.5123906605 -2.0657500554 -3.9581043325
H -3.3747818659 0.9656828786 -2.3275949538
H -5.4071894598 2.1848736384 -1.9360940915
H -5.9192128146 1.0800801163 -0.6569914373
H -3.4868272005 2.9369100073 -0.5789138360
H -4.8327018080 2.9607946919 0.5532654999
H -3.6798350043 -0.8623173429 0.0246752015
H -1.7280885324 -1.0884755502 -1.2787599633
H -0.9351869834 0.6662909323 -2.4388452216
H -1.6669106581 1.8552026275 -1.3874073043
H 0.2613676178 1.8363269340 0.1058359048
H 0.8240092736 1.9789903530 -1.5411773422
H 1.0963066752 -0.4981093914 -1.6345583280
H 2.5061617429 1.5084714729 1.3254934155
H 2.5431712279 2.4717444956 -0.1299858255
H 4.9488670944 2.1188607243 -0.4290772845
H 4.6289239661 2.7478251428 1.1716469206
H 6.3295690783 0.9028191656 1.1062512062
H 3.4418814309 -1.6772388518 -0.6268724362
H 2.8173528032 -2.5077650626 1.3800944522
H 3.3524367174 -1.1300804775 2.2942898037
H 1.3522400445 0.0411116697 2.0814527590
H 0.8886054665 -1.6128203315 2.3992226073
H -1.5105336570 0.1055782505 2.6889109019
H -0.2454603200 1.0436231411 1.9532669834
H -2.4228537201 2.2545983804 2.2528974142
H -1.6988992115 2.3658425229 0.6673434088
H -1.0869254417 -2.2812487122 2.0756529249
H -1.8625797448 -2.6289355043 0.5192264931
H -2.6665595637 -1.6147831660 1.7134240862
H 0.3657589429 -3.1597601497 0.4793078308
H 1.5744257527 -2.5597812310 -0.6545952911
H -0.1273119675 -2.4835384280 -1.0854108425
H 5.7050017690 0.3456157001 -1.4805100801
H 5.5639803153 -1.4118278208 -1.5671739394
H 6.8964169154 -0.6638288064 -0.6722987526
H 6.6795761085 -1.6460762032 1.3206410754
H 5.4835818470 -2.7377026295 0.6014479051
H 5.1611510008 -1.9569826608 2.1597426057
H 4.0421281955 0.8235165501 2.7093936074
H 2.4004576633 1.1713262399 -2.4927923858
H 3.3208433289 -0.3365347305 -2.4990979534
H 4.0866525024 1.1863532460 -2.0321421297
H -5.3394011097 0.2044360097 1.3254630730
H -3.9391968658 -0.1854133623 2.3330453997
H -5.4243321190 2.2030804213 2.4207322117
