41
CONF122
C -3.1981505021 -1.8605366224 0.7032802927
C -3.1791420558 -0.5772387253 1.5406715973
C -4.4453101654 -0.4637047200 2.3850563058
N -3.0398904394 0.6464333617 0.7222772363
C -1.7163336665 0.8335881232 0.1153948480
C -0.8050224927 1.5644391427 1.1028074798
O -1.4335375056 2.7723666445 1.5374433170
C 0.5197688788 1.9573344210 0.4733338082
O 1.2145238807 0.7340086738 0.2062489333
C 2.4086150071 0.7917428579 -0.4498649140
C 3.0391720693 1.9843946953 -0.8098063106
C 4.2611163776 1.9416054182 -1.4816513494
C 4.8535714711 0.7232254700 -1.7917910083
C 4.2130780886 -0.4600859796 -1.4224073037
C 2.9926226823 -0.4531379217 -0.7525342982
C 2.2993156805 -1.7347386291 -0.3808924977
C 1.1798106620 -2.1492442451 -1.3009721374
C 0.7838716701 -1.5091696828 -2.3987715440
H -4.0754413430 -1.8644153295 0.0450322235
H -2.3014847364 -1.9566129036 0.0831255803
H -3.2533537162 -2.7427686458 1.3495956305
H -2.3125800306 -0.6091092234 2.2147089292
H -4.5699398148 -1.3493787327 3.0157031697
H -5.3264884192 -0.3838843499 1.7369330476
H -4.4087611899 0.4218978242 3.0265511313
H -3.7482733620 0.6309677333 -0.0046226384
H -1.2333577447 -0.1033453972 -0.2010606779
H -1.8290224582 1.4664666202 -0.7741423798
H -0.5985652171 0.9149593940 1.9695975829
H -2.3776660453 2.5363075127 1.5868807365
H 1.0963146622 2.5858501893 1.1656107047
H 0.3488098858 2.5140346242 -0.4590309238
H 2.5928096314 2.9425095912 -0.5723646795
H 4.7452121682 2.8732374320 -1.7585215223
H 5.8047497060 0.6895168324 -2.3128184930
H 4.6682977448 -1.4184744705 -1.6596512756
H 3.0374007060 -2.5469969707 -0.3532863551
H 1.8941646126 -1.6670435544 0.6373872785
H 0.6737270679 -3.0697962701 -1.0091720358
H 1.2595810536 -0.5859115666 -2.7210340923
H -0.0342123043 -1.8886521983 -3.0032433966
