38
CONF15
C 2.1726976364 3.3704817421 -3.5002906271
C 1.4752527856 2.2492858092 -2.8037644976
N 0.4283044507 2.5486203210 -2.0380047009
C -0.1357371319 1.4905478814 -1.4223280101
N 0.2718306997 0.2235896325 -1.5195767486
C 1.3319160318 0.0584340639 -2.3184864818
N 1.9740270402 1.0119128443 -2.9871301194
O 1.7395715448 -1.2072211688 -2.4110836202
C 2.8760498409 -1.4732961179 -3.2628211472
N -1.2167694810 1.7985048876 -0.6346488744
C -2.0748976917 1.0043017682 0.1567439935
O -2.9079925178 1.5445745993 0.8554302852
N -1.8922156423 -0.3529120106 0.0449735199
S -2.6764236223 -1.4434460650 1.1109847560
O -1.9916540564 -2.7122893599 0.8806872326
O -4.1166626068 -1.3112909034 0.9293293508
C -2.3108277884 -0.8110804078 2.7510307383
C -1.0855675386 -0.8022824932 3.3949150033
S -1.2723141186 -0.2246834254 5.0207814549
C -2.9639897621 0.0082470071 4.8036612658
C -3.3809211042 -0.3463723316 3.5504574852
C 0.2843636939 -1.1635961534 2.9978068914
O 1.1893243812 -1.3156183829 3.7914573485
O 0.4139946225 -1.2738997297 1.6652363944
C 1.7122649720 -1.7198555019 1.2129594763
H 2.5296712712 3.0458999010 -4.4793777154
H 1.5162274823 4.2359798352 -3.5899356980
H 3.0502364720 3.6624786144 -2.9114217086
H 3.0277339686 -2.5499950555 -3.1931225571
H 3.7563214387 -0.9323120285 -2.9078105852
H 2.6588645758 -1.1786186871 -4.2919381391
H -1.4334054618 2.7841350313 -0.5770522574
H -1.0381218332 -0.6927787602 -0.4059469767
H -3.5666125784 0.4012480067 5.6112374378
H -4.3983013922 -0.2791046681 3.1912600086
H 1.6209430189 -1.8158410906 0.1319303899
H 1.9571243149 -2.6798453942 1.6735074442
H 2.4756927626 -0.9843667945 1.4803499774
