44
CONF107
C 5.0734658370 0.0559082866 -1.9571816907
C 3.9403822462 0.0278259552 -0.9888944855
N 3.2549164741 -1.1099343987 -0.8542099739
C 2.2474809964 -1.0513087882 0.0351821231
N 1.9215354651 0.0071289889 0.7735218254
C 2.6679644438 1.0950604584 0.5340747927
N 3.6802067423 1.1699330098 -0.3245937046
O 2.3142521563 2.1493091874 1.2565963240
C 3.0277340393 3.3910913162 1.0261786238
N 1.5101102650 -2.2113509078 0.1546028992
C 0.3142927385 -2.4694333083 0.8345424169
O -0.2877929135 -3.5133037055 0.6474133987
N -0.0937082673 -1.4803518901 1.7036301908
S -1.6847639228 -1.4167336381 2.3172614714
O -1.9226161311 -2.6008745083 3.1448934254
O -1.7498299149 -0.0823441176 2.9309969162
C -2.7607599029 -1.4916744094 0.8766458571
C -3.7072262551 -2.5127709830 0.8933443090
C -4.6330088057 -2.6063376459 -0.1381692184
C -4.5927923148 -1.6803398120 -1.1724964915
C -3.6312798139 -0.6732432470 -1.1824465838
C -2.6839151833 -0.5438699251 -0.1637507039
C -1.6131098055 0.5209903499 -0.2115196200
C -1.8317988283 1.6105753210 -1.2587865920
C -0.7348174464 2.6402301644 -1.2093135871
F -0.6574423812 3.2677162901 -0.0080873703
F 0.4929081864 2.0986285759 -1.4416111468
F -0.9156884101 3.6062503906 -2.1442124973
H 5.9658992427 0.4615295949 -1.4722195994
H 5.2762625769 -0.9393589898 -2.3512207207
H 4.8230939642 0.7302050480 -2.7837430766
H 2.5637781162 4.1051676103 1.7049049611
H 4.0875826304 3.2681428984 1.2582063065
H 2.9034426714 3.7073200822 -0.0117816658
H 1.8014154096 -2.9682510459 -0.4516953359
H 0.4388441230 -0.5959675921 1.6966931527
H -3.7170675707 -3.2234342153 1.7107456868
H -5.3752097948 -3.3969266253 -0.1277674206
H -5.3105326345 -1.7378163575 -1.9843882827
H -3.6261422016 0.0272328171 -2.0088355675
H -0.6533715958 0.0341000358 -0.4217289767
H -1.5174604766 0.9842088432 0.7745963274
H -1.8279863559 1.2076491365 -2.2758818728
H -2.7772483983 2.1394217765 -1.1005509955
