44
CONF13
C 2.3380186251 -1.0407977324 -4.9106948219
C 2.1668770262 -0.9921634189 -3.4308686435
N 1.1585107639 -1.6832361598 -2.8932781279
C 1.0537000439 -1.5676192675 -1.5578231805
N 1.8661416740 -0.8681339266 -0.7691082959
C 2.8348809936 -0.2123789050 -1.4243611674
N 3.0343045512 -0.2293141381 -2.7393703793
O 3.6332651189 0.4873874102 -0.6297853329
C 4.6967197160 1.2547797157 -1.2516146807
N -0.0048883202 -2.2537057648 -0.9982064021
C -0.5190355229 -2.2434044634 0.3012399496
O -1.5393227193 -2.8604923642 0.5646210285
N 0.1881756055 -1.4918901443 1.2105449831
S -0.3521377663 -1.2325623251 2.8048857908
O -0.5142587588 -2.5275080205 3.4719552700
O 0.6237545063 -0.2703248522 3.3377405610
C -1.9681604354 -0.4630973555 2.6355613244
C -3.0295032772 -1.1567918974 3.2181086851
C -4.3030323702 -0.6062389669 3.1925873703
C -4.5030407005 0.6305202960 2.5859943912
C -3.4357742561 1.3052558999 2.0067938182
C -2.1377435771 0.7826739909 2.0106816480
C -1.0548032619 1.5794483380 1.3218887229
C -1.2018446152 1.4902501049 -0.2053898790
C -0.2314137234 2.3853859579 -0.9271434749
F 1.0595688196 2.1654877688 -0.5663467530
F -0.2946182181 2.2079897647 -2.2723673540
F -0.4756596124 3.7016712916 -0.6934182951
H 1.9508155272 -0.1092131111 -5.3409835785
H 3.3978683783 -1.1017020742 -5.1680343517
H 1.7884344716 -1.8784207553 -5.3399172274
H 5.3810347024 0.5904858295 -1.7831784068
H 4.2761982036 1.9918802798 -1.9388468159
H 5.2026826045 1.7461076896 -0.4219655124
H -0.5698900142 -2.7816011189 -1.6519375430
H 1.0185988727 -0.9754575221 0.8816717880
H -2.8530301631 -2.1176750811 3.6857517295
H -5.1303581090 -1.1412331398 3.6459940614
H -5.4932513860 1.0739465481 2.5652507971
H -3.6022784308 2.2716344764 1.5387384512
H -0.0581160585 1.2546915295 1.6185924004
H -1.1592072601 2.6252520191 1.6299987387
H -1.0330656434 0.4703136809 -0.5618139933
H -2.2051170205 1.7897998921 -0.5232035009
