41
CONF23
C -2.5317636915 -1.1732802871 1.4259598813
C -3.9416788257 -1.4808886348 0.9691238086
O -4.2711199796 -0.6808819627 -0.2127143693
C -4.7337958914 0.5531975451 -0.0012345404
O -5.0064602343 1.0306166565 1.0809518026
C -4.9580941511 1.3125719859 -1.3107060604
C -6.3640566302 1.0477380409 -1.8261872493
O -4.0524793022 0.9049984857 -2.3427136493
C -2.7120892734 1.0357416329 -2.1036103041
C -1.8729978192 0.3737352273 -3.0046006204
C -0.4969982494 0.4136328638 -2.8325148536
C 0.0197176349 1.1196221434 -1.7577626760
C -0.7886173716 1.8074325034 -0.8722279641
C -2.1699139754 1.7660738875 -1.0423185889
O 1.4265124397 1.1701948729 -1.6087807917
C 1.9694009966 0.5068841078 -0.6003591386
N 3.2118210552 0.5802404114 -0.2475803532
C 3.2955094913 -0.3152975406 0.8215710461
C 2.0362593668 -0.8820109422 1.0452138507
O 1.1674264023 -0.3475518761 0.1128525634
C 1.7472118944 -1.8012987365 2.0284186525
C 2.8411980091 -2.1504628484 2.8209838416
C 4.1195679090 -1.6167047715 2.6397626541
C 4.3631707081 -0.6857255769 1.6304213235
Cl 2.5915018398 -3.3230516384 4.1094567608
H -1.8163141012 -1.3513809727 0.6177167354
H -2.4421786820 -0.1345654565 1.7557440620
H -2.2759268923 -1.8260843795 2.2663838115
H -4.0395787411 -2.5118541068 0.6246015060
H -4.6819286259 -1.2812932587 1.7473876896
H -4.8346957650 2.3799056808 -1.0904166771
H -7.0951579979 1.3527409997 -1.0735705728
H -6.4952039094 -0.0152506321 -2.0453461007
H -6.5326592269 1.6276641767 -2.7367236776
H -2.3126141895 -0.1827317007 -3.8252307373
H 0.1672882979 -0.1082219686 -3.5126466236
H -0.3518784382 2.3618709829 -0.0480042862
H -2.7953921293 2.3029775537 -0.3397192878
H 0.7594622767 -2.2201993633 2.1751751814
H 4.9260376292 -1.9319049198 3.2914694957
H 5.3536227607 -0.2684495223 1.4876561860
