28
CONF15
O -2.0565719376 1.7386526505 1.5453920687
C -2.8239395722 1.3316072944 0.4118167915
C -2.1661290724 0.2100739792 -0.3670525389
O -0.8853523057 0.6780474666 -0.8311641694
C -0.0129067521 -0.4429359715 -1.0374494601
C -0.6668088335 -1.6515300167 -0.3469535127
C -1.8499996574 -1.0592391393 0.4311338197
O -2.9649393967 -1.9263356078 0.5791306961
N 1.3083879040 -0.0824484316 -0.5077150978
C 1.4593061075 0.1550685759 0.8347270855
C 2.6302427934 0.5300883955 1.3923509620
C 3.7949065813 0.7025068569 0.5630869355
O 4.9158348291 1.0353250305 0.9438307498
N 3.5574894494 0.4542445833 -0.7951587273
C 2.3730174288 0.0819234723 -1.3975072453
O 2.2794993977 -0.0923783799 -2.6047454462
H -1.2101604554 2.0653285331 1.2123667016
H -3.7870914619 0.9720476543 0.7885669770
H -3.0127583156 2.1807705281 -0.2600863364
H -2.8080436175 -0.0534994338 -1.2257258102
H 0.1336761792 -0.6084050121 -2.1063051780
H 0.0356344420 -2.2035677756 0.2805721666
H -1.0483924838 -2.3335898916 -1.1134214577
H -1.5585970824 -0.7835634845 1.4493867066
H -3.2536774029 -2.1997365926 -0.3028338478
H 0.5634490300 0.0271317628 1.4323775865
H 2.7105898777 0.7055538412 2.4562788911
H 4.3433349409 0.5688597212 -1.4248993207
