35
CONF7
C -5.6435826892 -0.2225339300 -0.8852281722
C -4.3029884711 -0.4116518134 -0.1875086772
C -4.5489730325 -0.6851999343 1.2943288312
O -4.7275273291 -1.7921423947 1.7429450549
O -4.6135103330 0.4472296259 2.0253141340
O -3.5439646488 0.7664299531 -0.4258366098
C -2.2362006121 0.7846688602 -0.0155671697
C -1.5527046686 1.9775064447 -0.2592924808
C -0.2224373780 2.1027985215 0.1086689690
C 0.4176891287 1.0365455408 0.7239662478
C -0.2493738520 -0.1478873923 0.9782194828
C -1.5847056094 -0.2826122903 0.6058284186
O 1.7339669205 1.2178007813 1.1689822470
C 2.7416116013 0.6214678488 0.4804700552
N 2.4730204883 -0.0651703222 -0.6168072371
C 3.5009670156 -0.6260053295 -1.2643833777
C 4.8151321538 -0.5159801637 -0.8355612191
C 5.0789647806 0.2164352030 0.3287700823
C 4.0312156808 0.7977903776 1.0060945036
C 5.9480684985 -1.1441126615 -1.5795229974
F 6.8153174663 -0.2113392798 -2.0540538986
F 6.6769627041 -1.9663453186 -0.7803345254
F 5.5318929263 -1.8755868229 -2.6352689397
H -5.4782904894 -0.0826527689 -1.9558436931
H -6.2700953880 -1.1042440223 -0.7312839980
H -6.1523748523 0.6584960635 -0.4861799213
H -3.7892903876 -1.2947793718 -0.5901220666
H -4.7981130078 0.1779866498 2.9395271705
H -2.0811565235 2.7942562024 -0.7377870452
H 0.3229308729 3.0218615247 -0.0749458381
H 0.2706793771 -0.9681397753 1.4602563800
H -2.0899246182 -1.2185063281 0.8127243512
H 3.2561377720 -1.1849018525 -2.1636540466
H 6.0967389056 0.3205090685 0.6909910372
H 4.1739176033 1.3741039173 1.9120948582
