29
CONF7
C -4.3336561596 -1.1530033276 -1.8619861738
C -4.1285593769 -1.0268850123 -0.3546096675
N -2.7609506893 -1.3212237008 0.0613754481
C -1.7373571641 -0.4498559228 -0.0350597629
N -0.5123638661 -0.9020571868 0.2865701879
C 0.4519055553 0.0175306719 0.1872210926
N 0.2889440468 1.3044498622 -0.1877064387
C -0.9683443878 1.5949555624 -0.4691846763
N -2.0275079751 0.8156918557 -0.4319968613
Cl -1.2606790859 3.2521577969 -0.9719108916
N 1.7167564811 -0.4013615992 0.4805091297
C 2.8727466804 0.4779795233 0.6879093540
C 3.3318405698 1.1448135192 -0.6185442669
C 4.0039095951 -0.3968108233 1.2550443474
C 2.5615519919 1.5146263971 1.6953222422
N 2.3764699557 2.3034847986 2.5186886076
H -3.6939217870 -0.4418940058 -2.3909845006
H -4.0972309069 -2.1636051780 -2.2091488310
H -5.3748248697 -0.9362683030 -2.1200202949
H -4.7847302408 -1.7191010757 0.1835575937
H -4.3725355724 -0.0137337514 -0.0243782508
H -2.5005729840 -2.2697534814 0.2778236510
H 1.7517766623 -1.3055714174 0.9265412677
H 2.5451531385 1.7792511997 -1.0244228202
H 3.5813603272 0.3622743532 -1.3405055560
H 4.2200153581 1.7519675061 -0.4252640747
H 3.7100359107 -0.8546148945 2.2040681698
H 4.8905507225 0.2145769737 1.4296369893
H 4.2502188744 -1.1780204143 0.5297548898
