41
CONF220
C -0.2200533806 3.3497560809 -1.4070804921
C -1.3450641223 2.7963455708 -0.5392684283
C -2.0953588936 3.9267026820 0.1612427996
N -0.7628015095 1.8739431572 0.4573443425
C -1.7232507939 0.9069802183 1.0003940348
C -1.1732406728 0.2900133058 2.2813360437
O -1.0121720182 1.2851059833 3.2955484693
C 0.1823559103 -0.3917519868 2.0913938814
O 0.1079547280 -1.2424700396 0.9408539924
C 1.2322265206 -1.9305622476 0.5799995063
C 2.4058459451 -1.9471397948 1.3365779213
C 3.5015322342 -2.6888147540 0.8972547815
C 3.4342370283 -3.4118848091 -0.2863692638
C 2.2584450057 -3.3827866066 -1.0348360554
C 1.1483298969 -2.6480755662 -0.6277548400
C -0.0907061111 -2.5728466497 -1.4880686480
C -0.1104995938 -1.3269938028 -2.3340054086
C -1.1479608581 -0.5033035447 -2.4606670655
H 0.5082047234 3.8837165577 -0.7862021764
H 0.3014820062 2.5447864659 -1.9371894953
H -0.6151931513 4.0470096795 -2.1514421456
H -2.0546839819 2.2555028989 -1.1940780001
H -2.5663749436 4.5851332323 -0.5756385875
H -1.3986475919 4.5190819621 0.7642216497
H -2.8820519019 3.5491317574 0.8208374099
H -0.0311121515 1.3425239568 -0.0082394127
H -2.6499596287 1.4282049293 1.2642056361
H -1.9809579697 0.1122023743 0.2832644151
H -1.8988270823 -0.4364552085 2.6651745964
H -0.6113346953 2.0432247531 2.8408958800
H 0.4276928709 -0.9714956987 2.9903266941
H 0.9604139790 0.3712218483 1.9434610815
H 2.4766898653 -1.3926548735 2.2639801296
H 4.4085292467 -2.6961222148 1.4936264708
H 4.2840885441 -3.9938679226 -0.6266506759
H 2.1966838236 -3.9417490978 -1.9652249898
H -0.0926061236 -3.4465391722 -2.1528011195
H -0.9984314426 -2.6196011624 -0.8782722162
H 0.8098905794 -1.1214605265 -2.8814303862
H -2.0805912917 -0.6830814870 -1.9318169736
H -1.1027225112 0.3697101648 -3.1049033450
