30
CONF4
C 2.7381965216 1.1207589384 0.9794577394
C 3.6396946041 0.4900237962 0.1291931762
C 3.2476771312 -0.5201081168 -0.7427562200
C 1.9155360238 -0.9063546948 -0.7542326565
C 0.9837286726 -0.3000410280 0.0945865626
C 1.4110584193 0.7162991732 0.9552753035
Cl 0.2591986675 1.4762511686 2.0099891056
N -0.3730981470 -0.6966732329 0.0737185520
C -1.3768624704 -0.1093639415 -0.6514137534
C -2.5271628556 -0.8424785022 -0.3363051779
C -2.0869437370 -1.8477199827 0.5636729252
N -0.7863823813 -1.7553617513 0.8252564501
C -2.8685583958 -2.8576480698 1.1727007351
N -3.5311493143 -3.6778503423 1.6496940343
S -4.1222801167 -0.6550934168 -1.0663017758
O -3.9273664376 0.0453418042 -2.4014285253
C -4.7119755963 0.7507690997 0.1118692102
F -4.7609905805 0.2932923086 1.3687288639
F -3.8919923074 1.8068753450 0.0558585071
F -5.9360012244 1.1353681061 -0.2681857879
N -1.2025765221 0.9718631570 -1.4337190038
Cl 1.3906573497 -2.1553247675 -1.8407019673
C 5.0754573595 0.9491668521 0.1100586903
F 5.4636702275 1.4495495689 1.3015255461
F 5.9209157245 -0.0558115372 -0.2034369623
F 5.2625230070 1.9268014347 -0.8125003366
H 3.0547843549 1.9075192353 1.6529886113
H 3.9588860849 -1.0004621826 -1.4034740590
H -1.9482779287 1.1563434208 -2.0927170949
H -0.2703656461 1.1840677395 -1.7617421925
