42
CONF245
C -2.8569176189 -1.5956951632 0.0713131769
C -2.6368792441 -0.2118626625 -0.5523684626
C -2.0358547458 0.8149320680 0.4063207324
C -1.8257261502 2.1785231473 -0.2514383859
C -1.3369139112 3.2690518668 0.7065973711
C -0.0477929997 2.9116974407 1.4514764990
C 1.1140077597 2.6762010566 0.5188367512
O 1.3102992918 3.2714687779 -0.5155991075
O 1.9482308984 1.7196727896 1.0067114813
C 3.1407431871 1.4702353703 0.2261596645
C 2.8826681696 0.5162503498 -0.9112757284
O 2.5727445071 -0.7755004632 -0.3406961319
C 2.3510566097 -1.7639121225 -1.2466196942
O 2.4316894554 -1.5956418023 -2.4406639524
C 1.9993883763 -3.0613086440 -0.5603036654
C 0.8196643179 -2.9221052629 0.4114777879
C -0.4252294007 -2.3440309744 -0.2579357625
C -1.6073701877 -2.2227869446 0.7010296766
H -3.2468863776 -2.2716553807 -0.7010019342
H -3.6377758852 -1.5226911470 0.8397743394
H -3.5988892734 0.1635827020 -0.9246276467
H -1.9894495612 -0.2987058435 -1.4346984883
H -2.6864204239 0.9210973027 1.2873421080
H -1.0732276310 0.4411320258 0.7772228368
H -2.7682354965 2.5119524391 -0.7043518839
H -1.1109684571 2.0752384643 -1.0784763318
H -1.1747092159 4.1952674420 0.1458514208
H -2.1126228817 3.4749223272 1.4545269135
H 0.2479001101 3.7476690049 2.0996854585
H -0.1728247085 2.0435008783 2.1030160763
H 3.5212900971 2.4145417746 -0.1750155945
H 3.8565732064 1.0444997911 0.9333150522
H 3.7747432971 0.4340485001 -1.5430609834
H 2.0514980653 0.8540748422 -1.5374194480
H 1.7756028020 -3.7827618839 -1.3501383593
H 2.8883024027 -3.4122434040 -0.0219332109
H 0.5948910060 -3.9114049016 0.8289461623
H 1.1138630319 -2.2804901403 1.2497662371
H -0.1769167601 -1.3544529882 -0.6635217554
H -0.7087142206 -2.9641935244 -1.1200594535
H -1.2993801069 -1.6383556221 1.5780487316
H -1.8654509368 -3.2197611896 1.0818391960
