38
CONF7
C -1.9295251205 0.9434239440 2.6564297500
C -2.0784494475 -0.2090804700 1.7197854737
N -0.9657810284 -0.7796671086 1.2544073682
C -1.1630672217 -1.7792617174 0.3783791521
N -2.3476171381 -2.2497784653 -0.0166142018
C -3.3807230780 -1.6164816993 0.5416843387
N -3.3213394997 -0.5907453855 1.3986071075
O -4.5702668841 -2.0875550954 0.1701750323
C -5.7370163017 -1.4544193262 0.7349046897
N -0.0695693448 -2.3915163282 -0.1908706422
C 1.3089452334 -2.1014831992 -0.1217441344
O 2.0782392074 -2.6671859199 -0.8720739520
N 1.6630192341 -1.1812000338 0.8405047617
S 3.2225238710 -0.4903010709 0.8662991921
O 3.1050466209 0.6251081947 1.8007971351
O 4.2067206965 -1.5485050482 1.0594230593
C 3.4679648931 0.1277164255 -0.8026564843
C 4.5150078844 -0.4015588659 -1.5885799380
C 4.6234311437 0.2376874240 -2.7933866639
S 3.4548889730 1.4885999950 -2.9757402593
C 2.7784465441 1.1633671589 -1.4062775392
C 1.6022701313 1.9019653159 -0.9335383524
O 0.9021299596 1.5766528809 0.0004861671
O 1.3771635335 2.9944277867 -1.7005755649
C 0.2083561174 3.7571672788 -1.3355953681
H -2.3459062906 1.8414350035 2.1887037461
H -2.5059113503 0.7600782949 3.5674043034
H -0.8805285584 1.1156265365 2.8956988178
H -5.7362027387 -1.5461439834 1.8237376478
H -5.7724207146 -0.3971347726 0.4612146811
H -6.5804446084 -1.9929584783 0.3034485352
H -0.2865343969 -3.1032640560 -0.8751626654
H 0.9058829702 -0.6020334114 1.2313300059
H 5.1382383751 -1.2225593731 -1.2623840085
H 5.3270871365 0.0314643780 -3.5886437918
H 0.1759018738 4.5893898082 -2.0378100464
H -0.6896794579 3.1398611138 -1.4237176937
H 0.2997186753 4.1188612743 -0.3083801575
