47
CONF25
C -1.2934416577 2.7231581057 -0.8170184017
C -2.6256413652 1.9790390134 -0.7628486026
C -3.0465075616 1.6621064896 0.6715220906
C -4.3588003219 0.9108229438 0.7900811135
O -4.1815427221 -0.4881069344 0.3921195453
C -4.5679859998 -0.8627474360 -0.8276389461
O -5.1025941417 -0.1553884173 -1.6571457920
C -4.3344340577 -2.3551537994 -1.0757722019
C -5.6378436708 -3.1090321348 -0.8494047774
O -3.3680079120 -2.9329560732 -0.1957299908
C -2.0801761547 -2.4706755336 -0.2498949800
C -1.2424108557 -2.9084340462 0.7802192296
C 0.0771758157 -2.4839731153 0.8322395129
C 0.5491109183 -1.6179446284 -0.1448795855
C -0.2623947041 -1.1915715807 -1.1814822715
C -1.5866384206 -1.6219548910 -1.2423317703
O 1.8953879383 -1.2217022424 -0.1218402917
C 2.2077352182 -0.0639535599 0.5184774609
N 1.2629733440 0.6010495900 1.1653836729
C 1.6108041255 1.7431169061 1.7730485350
C 2.9049886857 2.2403865095 1.7525129907
C 3.8929942006 1.5193097589 1.0687673661
C 3.5474603171 0.3436079061 0.4405247529
C 3.2518662163 3.5373206588 2.4038677965
F 3.4731412597 4.5220866223 1.4877624825
F 4.3896956494 3.4484617248 3.1410148080
F 2.2773834519 3.9841739602 3.2272906932
H -1.3426673779 3.6603158850 -0.2509196424
H -1.0149575473 2.9650388922 -1.8473876275
H -0.4926029737 2.1126710210 -0.3856599270
H -2.5426208875 1.0499036728 -1.3378477015
H -3.4116074101 2.5752904598 -1.2433545206
H -3.1615784148 2.5989858302 1.2330692316
H -2.2597062146 1.0862447387 1.1778737113
H -4.6883035463 0.8502943864 1.8295403163
H -5.1461935951 1.3582506689 0.1777439230
H -4.0198983608 -2.4637611120 -2.1213436586
H -5.9631068136 -3.0013708441 0.1890993827
H -6.4115821530 -2.7145350938 -1.5116479506
H -5.4877078446 -4.1683041511 -1.0709289814
H -1.6420766837 -3.5730882318 1.5387537078
H 0.7340731122 -2.8086245715 1.6323318603
H -2.2085382080 -1.2822022743 -2.0618979214
H 0.8169854972 2.2728405031 2.2933556246
H 4.9158403562 1.8801986319 1.0327911718
H 4.2703552727 -0.2531952748 -0.1027119986
H 0.1309076681 -0.5190029588 -1.9368118002
