22
CONF63
C 2.5292541973 0.2021752070 -0.2069201703
C 1.0960840297 -0.3166465682 -0.2472356377
C 0.1876784708 0.4897085148 0.6743472739
C -1.2273359660 -0.0804372614 0.7953357050
C -1.9488258223 -0.2197440165 -0.5343408015
O -3.2961804387 -0.6153008694 -0.2234560671
O -1.9324952304 0.8406951659 1.6464227037
O 0.1568811272 1.8246939399 0.1621340852
O 1.0540201783 -1.6772300262 0.1911457272
O 3.3929215377 -0.6547474612 -0.9697650447
H 2.8998568752 0.1693538432 0.8238071158
H 2.5718103675 1.2355111589 -0.5698939619
H 0.7223254689 -0.2368160683 -1.2826609817
H 0.6247459584 0.4844835794 1.6874566531
H -1.1720172620 -1.0656291448 1.2798868506
H -1.9406011464 0.7376668986 -1.0709542159
H -1.4540038886 -0.9834869748 -1.1490140797
H -3.8407107463 -0.4611291458 -1.0042607788
H -2.8756569030 0.6720223932 1.5066781551
H -0.5538668687 2.2769226670 0.6396429372
H 1.7990840068 -2.1187073236 -0.2423979330
H 3.2070322558 -0.5033585076 -1.9059574393
