47
CONF11
C 4.2016257719 1.7606025530 -2.4226415251
C 4.2382849662 2.0404481808 -0.9132661752
C 3.7111969320 0.8967988490 -0.1147573890
N 4.5217918488 -0.0175897447 0.4367879922
N 3.7309671596 -0.9282765243 1.0248719147
C 4.3369487378 -2.0519592870 1.7312629526
C 2.4086644042 -0.6316467881 0.8936418965
C 1.3443328810 -1.5231831175 1.4124244057
O 1.4984745776 -2.7484201259 1.4436869373
N 0.2273036857 -0.8879162052 1.8325672067
C -0.9995264933 -1.5837114222 2.2068503494
C -2.1303295976 -1.2693168791 1.2552776388
C -3.3495234721 -0.7879915123 1.7202833875
C -4.3930992347 -0.5055354424 0.8368252400
C -4.2477946093 -0.6890338164 -0.5396497800
C -3.0120250961 -1.1749278640 -0.9970083297
C -1.9746036196 -1.4595880567 -0.1211442237
C -5.3607658340 -0.3810371458 -1.5433865503
C -5.7205606346 -1.6655152257 -2.3149894809
C -4.8661727672 0.6879905836 -2.5368445118
C -6.6305407109 0.1439771333 -0.8633386893
C 2.3788678770 0.5506748585 0.1543975752
Cl 0.9840598134 1.4246169076 -0.3913254668
H 4.8130223268 0.8865445240 -2.6659889209
H 3.1787276374 1.5663548917 -2.7593775063
H 4.5879966229 2.6188334538 -2.9802036224
H 5.2659649852 2.2397332422 -0.5945098825
H 3.6462907863 2.9347939863 -0.6896920585
H 5.3854409969 -1.8009798107 1.8940685989
H 4.2576326175 -2.9654761920 1.1370711357
H 3.8366187261 -2.2044157375 2.6888990427
H 0.1934810010 0.1200180714 1.7848915104
H -1.2827601394 -1.3058559615 3.2280984002
H -3.4926163711 -0.6272899302 2.7859209646
H -5.3245299287 -0.1302109079 1.2442213359
H -2.8533722777 -1.3358458874 -2.0589531769
H -1.0292921392 -1.8302244323 -0.5099473417
H -4.8623300355 -2.0568227970 -2.8690735799
H -6.5204612145 -1.4556832364 -3.0335668659
H -6.0690731817 -2.4438316849 -1.6278270882
H -5.6567612944 0.9206245678 -3.2588138233
H -4.5972105255 1.6098359859 -2.0101471693
H -3.9899856115 0.3438151078 -3.0938688315
H -7.0480045310 -0.5887563319 -0.1647761559
H -7.3878609160 0.3487648819 -1.6266548618
H -6.4422967303 1.0755674103 -0.3193875642
H -0.7717474923 -2.6539683683 2.2001926728
