55
CONF50
C 6.7830424811 -1.1683998858 -3.2552908538
O 6.0553512557 -1.4510895494 -2.0650320333
C 4.9202646816 -0.7309676872 -1.8352981464
C 4.4250053082 0.2588952032 -2.6841154868
C 3.2524954352 0.9262343364 -2.3368415804
C 2.5603135431 0.6294349397 -1.1664031333
C 3.0779432346 -0.3611962903 -0.3221938671
C 4.2392140571 -1.0349065918 -0.6516221675
C 1.2887509099 1.3728768470 -0.8603796120
S 1.4617282577 2.1742826584 0.8116045368
C -0.2311066688 2.5869750380 1.1975856282
C -0.5846973283 3.9344975356 1.3105303139
C -1.8592042042 4.3047709680 1.7205285452
C -2.8059586173 3.3211558322 1.9929485212
C -2.4795721194 1.9780216164 1.8637674682
C -1.1917049425 1.5945367205 1.4797770925
N -0.8700250423 0.2180009987 1.4140024474
C -1.2000558163 -0.6730735233 2.5417034727
C -2.2900166595 -1.6888240436 2.1967666783
N -3.6222279714 -1.0906879301 2.1082297721
C -4.2407837102 -0.9696284690 3.4235350813
C -4.4857285415 -1.8346383083 1.1939701889
C -0.1840813650 -0.3498301539 0.3712975941
O 0.1992845919 -1.5110264620 0.3933284266
C 0.0016152230 0.5315911554 -0.8722083893
O 0.0719289866 -0.2999938326 -2.0391276862
C -1.0460381701 -1.0313839904 -2.2907192929
C -0.8070410589 -1.9793242511 -3.4270330970
O -2.0703718632 -0.9210581299 -1.6579018949
H 7.6399772051 -1.8432570137 -3.2485479664
H 7.1378205445 -0.1294455921 -3.2693104991
H 6.1758240375 -1.3599070470 -4.1498092630
H 4.9323032450 0.5218864048 -3.6037612423
H 2.8691629729 1.6937869433 -3.0035423069
H 2.5628327267 -0.6118345156 0.5972672798
H 4.6413826933 -1.8058262109 -0.0034828477
H 1.1651604241 2.1668285566 -1.6048963788
H 0.1628142918 4.6874912179 1.0846365481
H -2.1128730042 5.3553885545 1.8149925716
H -3.8117796531 3.5993024738 2.2910013797
H -3.2149401074 1.1935263647 2.0231324744
H -1.4883131782 -0.0393410422 3.3843811794
H -0.2874861845 -1.2134306486 2.8169686266
H -2.0346788421 -2.1364109296 1.2327006802
H -2.2573176082 -2.5033092580 2.9474929566
H -5.1986806119 -0.4446194289 3.3390333303
H -3.6019230482 -0.3878388836 4.0973528023
H -4.4272495194 -1.9531115923 3.8987265329
H -5.4584672246 -1.3361652041 1.1225834517
H -4.0352935951 -1.8504609006 0.1971837107
H -4.6612046735 -2.8778258453 1.5225418950
H -0.8639275494 1.1965219509 -0.9619214906
H -1.7542616351 -2.4076977169 -3.7515806072
H -0.3037015276 -1.4743590858 -4.2545849248
H -0.1435058701 -2.7751350165 -3.0739668266
