44
CONF2
C 4.7319342809 2.0553033309 -2.5464941043
C 3.8189482497 1.4597811034 -1.4797356481
C 2.8051043598 0.3878492873 -2.0290094131
N 1.6750449953 0.4159721480 -1.1335717292
C 1.2729640842 1.7071243715 -0.5676813734
S 2.7218177016 2.8238173153 -0.7974559147
C 1.0354283642 0.9778428729 0.8022065967
C 1.4625893614 -0.3000634006 0.0369306861
O 1.6335971347 -1.4639732509 0.3142216552
N -0.2320309956 1.0168770543 1.4556922287
C -1.3430740053 0.4813840836 0.8966608888
O -1.3353368311 -0.0519330235 -0.2125390784
C -2.6310103584 0.6004366881 1.7232611558
C -3.3925252530 -0.7094847503 1.7039444015
C -4.7505467049 -0.7477996180 1.3863162205
C -5.4688661260 -1.9381586885 1.4331209948
C -4.8229926938 -3.1175451015 1.8021034092
C -3.4625303313 -3.0995312807 2.1209475395
C -2.7610559225 -1.9018190025 2.0687135671
O -5.5682104399 -4.2632775788 1.8311883272
N -2.3640043124 1.1239572006 3.0763291936
C 2.3559539867 0.6849832896 -3.4513929426
O 3.1503302335 0.0742395490 -4.3480004044
O 1.4163491573 1.3892869151 -3.7431993290
C 4.6448893252 0.8305008018 -0.3577003965
H 4.1679056478 2.5369386068 -3.3495647277
H 5.3585219729 1.2663782293 -2.9748389028
H 5.3910135339 2.8015330877 -2.0941608872
H 3.2768490889 -0.5993579048 -1.9972898001
H 0.3825893047 2.1524454122 -1.0169767627
H -0.3361023337 1.4723669958 2.3533549251
H -5.2590820394 0.1673364384 1.0944144579
H -6.5244110754 -1.9641300746 1.1820809175
H -2.9577919571 -4.0207475944 2.4003466953
H -1.7004562752 -1.9017391912 2.3106385065
H -5.0081076715 -5.0060105084 2.0938286546
H -3.2326201139 1.4744238378 3.4667133624
H -2.0831193882 0.3553681588 3.6801294276
H 5.2703150433 1.5908488528 0.1171361952
H 4.0125928303 0.3807863705 0.4126463051
H 5.2945803632 0.0510997880 -0.7726720526
H 2.8553219981 0.3257586939 -5.2408293783
H -3.2290296419 1.3529633803 1.1920818638
H 1.8207369595 1.2447263161 1.5154155740
