36
CONF25
C 0.7986558436 -1.0633596148 -0.2015992629
C -0.6761222087 -1.0644503313 0.1801967348
N -1.3501170092 0.0789618100 -0.4429083914
C -0.7202445147 1.3308688954 0.0067156066
C 0.7522275231 1.3345627705 -0.3672013348
N 1.4162050751 0.1806999462 0.2505380667
C 2.8614164703 0.2471167046 0.2377751804
C 3.4265544492 0.1811769228 1.6906077196
Cl 2.6839366298 1.4741514955 2.6760153568
Cl 3.0608502386 -1.4223299102 2.4514944093
Cl 5.2120701135 0.4190661564 1.6697573170
N 3.5328615153 -0.7487738003 -0.5762099290
C 3.7342339501 -0.5346005094 -1.9075136149
O 3.3812310731 0.4670188998 -2.4999910675
C -2.7855765085 0.1414038382 -0.3073894140
C -3.5669513964 -0.7563138136 -1.3224545822
Cl -3.5950198046 -2.5113093347 -0.8389463945
Cl -2.8626130480 -0.6188724137 -2.9511565557
Cl -5.2771608250 -0.1898374044 -1.3640191519
N -3.3175215395 -0.0760395481 1.0314111607
C -3.8110450671 0.9517787470 1.7857717533
O -3.8368404806 2.1165891228 1.4409133857
H 0.8861541391 -1.1887366024 -1.2964517350
H 1.2790396052 -1.9166905177 0.2841848358
H -0.7553873579 -1.0334088004 1.2831197537
H -1.1191062469 -1.9959064843 -0.1781399209
H -0.8189708986 1.4636147145 1.0997994484
H -1.2163726954 2.1750623096 -0.4832459061
H 0.8626207545 1.3206891570 -1.4647946175
H 1.2045891351 2.2549682628 0.0164420439
H 3.1696177469 1.2292502469 -0.1448951624
H 3.8313359759 -1.6189846964 -0.1614979493
H 4.2590020990 -1.3782012692 -2.3973853285
H -3.0847774426 1.1618798757 -0.5755092215
H -3.3716642465 -1.0154872545 1.3951147500
H -4.1871112590 0.6044429431 2.7683749015
