35
CONF98
C -3.5516136288 -0.9058621890 1.1892277667
C -2.8335418514 -1.5877238947 0.0502723812
O -2.3548803003 -0.5388299962 -0.8476030201
P -1.0870434633 -0.7378012016 -1.8100329249
S -0.4690078015 -2.5173728112 -2.1699882971
O -1.4617853766 0.1363051421 -3.0839006389
C -2.0406099157 1.4746238639 -2.9493532182
C -3.4998180894 1.4329412719 -3.3403037740
O 0.0380977271 0.2969371076 -1.1478856585
C 0.6850186881 -0.0089862480 -0.0062830742
N 0.1057322544 -0.6560602672 1.0380684556
C 1.1015143227 -0.6831162332 1.9059662002
N 2.2049000361 -0.0784538617 1.4236531106
N 1.9444270984 0.3615355306 0.1595165172
C 3.5396248649 0.0988497554 2.0110221312
C 3.8832560260 1.5837705475 2.0757763760
C 4.5632007886 -0.7074998270 1.2161564138
Cl 1.0146132329 -1.3931188277 3.4689753851
H -2.8559685565 -0.2745051149 1.7476619850
H -3.9576397109 -1.6632331832 1.8670178817
H -4.3783739126 -0.2908725124 0.8226031251
H -3.4969297963 -2.2385638333 -0.5288631196
H -1.9807568222 -2.1693510235 0.4068818835
H -1.9053170871 1.8389410163 -1.9264269749
H -1.4553547852 2.1065564565 -3.6232044652
H -4.0625351492 0.7961956058 -2.6532499246
H -3.6157306599 1.0460891980 -4.3560515950
H -3.9186960182 2.4439509124 -3.3032258400
H 3.4601385011 -0.3049418468 3.0254450772
H 4.8541381582 1.7115386713 2.5620940051
H 3.9372572091 2.0042762399 1.0685618589
H 3.1319667923 2.1366344811 2.6462204950
H 4.6232396555 -0.3346787796 0.1904988071
H 4.2912930897 -1.7660997561 1.1873444410
H 5.5471836970 -0.6120746946 1.6834082175
