82
CONF71
C -2.5004155067 2.6562706270 -2.2165469524
C -1.7460347755 2.5614311597 -0.9192544090
C -0.5902797113 3.2148745944 -0.7428543438
C -2.3601330768 1.7652713276 0.2078736393
C -3.5533928892 2.4978678402 0.8528206670
C -4.1165184332 1.4385099689 1.7944889516
C -4.0261183824 0.1058837351 1.0069482421
C -2.9767805167 0.3781908595 -0.1297616746
C -2.0681056096 -0.8397962681 -0.4231767905
C -1.1282922545 -0.5855173140 -1.6054197902
C -0.0877305489 -1.6903758838 -1.7084075581
C 0.9003945213 -1.6806970348 -0.5204259633
C 2.2369788379 -0.8973176747 -0.9205558594
C 2.0234245795 0.3628363215 -1.7962831921
C 3.3411846457 1.0538105087 -2.1664841933
C 4.1578491732 1.4948269112 -0.9580759457
C 4.3421881475 0.3541168584 0.0795115501
C 3.0072588704 -0.4288309203 0.3464865584
C 2.0803001071 0.3999853883 1.2793546059
C 0.5734057349 0.1553886364 1.1492520137
C 0.2147891599 -1.2993833291 0.8478206439
C -1.3558523487 -1.5401920685 0.8017114040
C -2.0663666927 -1.0752833502 2.0970173820
C -3.5854540859 -1.0482000530 1.9227011901
C -1.6149498830 -3.0702491233 0.7041229764
C 0.8127585286 -2.1737847320 1.9716388261
C 5.4685079859 -0.5641012971 -0.4456713660
C 4.8910438980 0.9275240868 1.4007735150
O 3.4967239224 2.6704259129 -0.4376279408
C 3.0167917915 -1.9561662511 -1.7348006499
C -5.4086924020 -0.1768186620 0.4248512617
O -5.3493030030 -1.2957634815 -0.4751351265
H -2.5132211410 1.6907477426 -2.7339310455
H -2.0431877518 3.3942160460 -2.8803980660
H -3.5471202351 2.9364624449 -2.0521216624
H -0.0410785233 3.1455113953 0.1930840203
H -0.1617428924 3.8327127660 -1.5279055476
H -1.6037540052 1.6572199969 0.9913893424
H -3.2455044896 3.4174449861 1.3607296951
H -4.2916232701 2.7635467061 0.0863499200
H -3.4899656175 1.3802542993 2.6926762779
H -5.1403582930 1.6487732889 2.1262104824
H -3.5491575517 0.5262011007 -1.0562391235
H -2.7822612233 -1.5899571179 -0.7826096265
H -1.7228715832 -0.5377524234 -2.5269357257
H -0.6340037152 0.3838041116 -1.5105444116
H 0.4586581017 -1.6092643224 -2.6520473175
H -0.6089536520 -2.6525663336 -1.7610934744
H 1.2414968321 -2.7153312458 -0.3879194100
H 1.3948323137 1.0879603950 -1.2701106835
H 1.5019156195 0.1104090973 -2.7252944069
H 3.9569788909 0.4004316218 -2.7913829482
H 3.1313676115 1.9421262682 -2.7738314247
H 5.1650724253 1.7934571351 -1.2948496849
H 3.3138859185 -1.3375137384 0.8827459393
H 2.3864420147 0.2130593542 2.3143551297
H 2.2482944172 1.4634368041 1.1003606362
H 0.1655535572 0.7898663707 0.3615655721
H 0.1053046623 0.4852002109 2.0828845955
H -1.8024415202 -1.7440243457 2.9229093086
H -1.7387681188 -0.0742616767 2.3937288925
H -3.9333891077 -2.0031880519 1.5153775671
H -4.0776625391 -0.9273521782 2.8965862125
H -1.4617881381 -3.5581264423 1.6713990791
H -0.9600883489 -3.5628821088 -0.0175373127
H -2.6453726418 -3.2717316790 0.3990461396
H 0.6704058290 -3.2390487193 1.7759720985
H 0.3576646399 -1.9375827548 2.9395358473
H 1.8864527323 -2.0101346596 2.0714933032
H 5.5033080910 -1.4936789182 0.1318119934
H 6.4341484324 -0.0599065690 -0.3294776531
H 5.3671276544 -0.8246809396 -1.4982502860
H 5.1181290844 0.1100475300 2.0952385143
H 4.2032743073 1.6068054564 1.9075394920
H 5.8254284987 1.4687731528 1.2087581781
H 4.0375085866 3.0204938508 0.2805971443
H 2.3342156891 -2.4781916796 -2.4133135106
H 3.4570014086 -2.7038792793 -1.0661136733
H 3.8147413625 -1.5457269413 -2.3502106744
H -6.1092586755 -0.3901316232 1.2484446664
H -5.7679211862 0.7171648201 -0.1094922952
H -6.2368960535 -1.4339502216 -0.8260709406
