53
CONF10
C 0.6049974924 -0.6581216681 -0.1085485015
C -0.1315329564 -0.8345586264 -1.4410882043
C -1.4452575388 -0.0971725860 -1.5385990471
C -2.0390353856 0.5256011800 -0.4297133063
C -3.2648532973 1.1820463071 -0.6008746876
C -3.9024985011 1.2077479481 -1.8370642322
O -5.1064720801 1.8355955279 -2.0282397973
C -3.3219701616 0.5811041508 -2.9392074178
C -2.1032686305 -0.0589668040 -2.7730080434
C -1.3177943593 0.5851436980 0.9179850840
C -2.2787143034 0.6083162094 2.1191882995
C -3.0904959961 -0.6822795677 2.2403214696
C -2.1640466926 -1.8958169726 2.3540236064
C -1.1814180736 -1.9406471172 1.1805677040
C -0.3761251638 -0.6471351665 1.0713042152
O 0.3973403236 -0.5381167664 2.2809089614
C -0.4409473661 1.8573904606 0.9213611722
C 0.6707134789 1.7950555666 -0.1201440170
N 1.4470640264 0.5520385398 0.0134808548
C 2.6079776166 0.5760895399 -0.8837719211
C 3.4870882047 -0.6637185021 -0.8157382103
C 4.1403677670 -0.8975114318 0.5751991125
C 5.4187445493 -0.1829906930 0.0616740770
C 4.9059395835 -0.3851176164 -1.3885705714
H 1.2690396813 -1.5181224392 0.0380023448
H 0.5227243914 -0.5325270498 -2.2682252601
H -0.3149852036 -1.9068239262 -1.5915279702
H -3.7409392656 1.6833502445 0.2364176746
H -5.4010104815 2.2216781444 -1.1925922150
H -3.8230131782 0.6035183287 -3.9016999870
H -1.6405174266 -0.5454340074 -3.6285269506
H -1.6660268352 0.7307365118 3.0198704678
H -2.9336873681 1.4850339583 2.0729811184
H -3.7512509659 -0.6264109437 3.1133820284
H -3.7338420683 -0.7976749549 1.3577310420
H -2.7502960913 -2.8217617027 2.3775054936
H -1.6081853401 -1.8435720423 3.2979638693
H -1.7447090768 -2.0914450747 0.2530077285
H -0.4823728226 -2.7797908670 1.2839687817
H 1.1646608450 0.0056445426 2.0247988316
H -0.0032053276 1.9796637679 1.9191933491
H -1.0739811608 2.7320879923 0.7314292320
H 1.3579864247 2.6370208024 0.0263068169
H 0.2501900834 1.9005774136 -1.1376023142
H 2.3084547183 0.7343234971 -1.9389740402
H 3.2060242181 1.4539312651 -0.6009616084
H 2.9750358286 -1.5258783449 -1.2546615235
H 4.3157890364 -1.9603718573 0.7651839273
H 3.6260250214 -0.4602318516 1.4362826324
H 5.4398208268 0.8726805685 0.3455245660
H 6.3812677590 -0.6337825728 0.3180856348
H 4.9996645885 0.4571780179 -2.0824363264
H 5.3355369551 -1.2775730362 -1.8518735409
