49
CONF26
C -4.6513402535 3.3864257131 0.4537782303
C -4.0443700701 2.0154652183 0.5646401955
C -3.8241452924 1.2728068297 -0.5330748886
C -3.2420422013 -0.0780471664 -0.5788022617
C -2.3204161382 -0.4515068701 -1.7512155702
C -3.6769284590 -1.1373661907 -1.5544361768
C -4.7237244490 -0.8200202817 -2.6000400499
C -3.7322745494 -2.5677974678 -1.0683656129
C -1.0561118654 -1.1388397622 -1.4613939908
O -0.7859561489 -1.7912519827 -0.4726574207
O -0.1694736272 -0.9467051509 -2.4849596675
C 1.1360560492 -1.5480950697 -2.3298645967
N 1.9572093573 -0.8149780939 -1.4109995424
C 2.4174414251 -1.2761410539 -0.1635553815
O 2.2309431420 -2.3836423507 0.2943680888
C 3.1974129370 -0.1537655285 0.4294683294
C 3.2173180103 0.8697662322 -0.4400418566
C 2.4388365423 0.4824490105 -1.6477774418
O 2.2437442467 1.1217996196 -2.6625015468
C 3.9325006467 2.1539491703 -0.2297842331
C 4.9146874425 2.0042561036 0.9426422397
C 4.2697394982 1.2760140529 2.1292168147
C 3.8598171461 -0.1577203359 1.7580708339
C -3.7301566256 1.5906718344 1.9702031432
H -3.9771609753 4.1419429918 0.8773156397
H -4.8664972059 3.6547820271 -0.5837383611
H -5.5837021158 3.4436175919 1.0299783627
H -4.0967320806 1.7065131572 -1.4934726911
H -2.8871748215 -0.4873652923 0.3623479752
H -2.2794838717 0.2495341595 -2.5782558053
H -5.7251204449 -0.9151325623 -2.1647393611
H -4.6464409540 -1.5309737629 -3.4295539233
H -4.7334548857 -2.7741036520 -0.6739021885
H -3.5471705157 -3.2618234659 -1.8964137763
H -3.0024070717 -2.7632071431 -0.2817970208
H 1.0497362829 -2.5746553666 -1.9660477189
H 1.5628986687 -1.5127442609 -3.3335341431
H 3.1986520199 2.9458891149 -0.0227792601
H 4.4486831340 2.4520233736 -1.1498475672
H 5.7895251911 1.4347406033 0.6038585308
H 5.2708463893 2.9911156291 1.2528839125
H 3.3780096311 1.8300180157 2.4490670277
H 4.9587373852 1.2532317566 2.9787826514
H 4.7385056450 -0.8174233128 1.7202976339
H 3.1898837158 -0.5900966399 2.5105556580
H -4.6432895269 1.5986360757 2.5787109496
H -3.0422349646 2.3081824724 2.4350014620
H -4.6216414883 0.1877630921 -3.0070432815
H -3.2847794108 0.5975380196 2.0380297562
