42
CONF2
C -2.1047315483 -4.2420266490 -2.8046480046
C -2.9157972877 -3.1137671638 -2.7530142982
C -2.3993750483 -1.9079440923 -2.2898019690
C -1.0718014442 -1.8110498666 -1.8697447722
C -0.2632431051 -2.9482987077 -1.9290405950
C -0.7778723091 -4.1533803597 -2.3931371420
C -0.5769235127 -0.4929086145 -1.3185197898
C -0.5150219607 -0.4686580283 0.2002772580
C -1.4552071081 0.2549098460 0.9360226114
C -1.3782816702 0.3098096437 2.3235080437
C -0.3559745934 -0.3561026226 2.9925998514
C 0.5797482496 -1.0893151823 2.2680166683
C 0.4995122374 -1.1468877267 0.8817027070
C 0.7654006826 -0.0253878661 -1.8903161059
O 1.4024664297 -0.6325966659 -2.7137225830
C 1.3098419479 1.3029947563 -1.3383918518
C 2.3351948098 1.0939320268 -0.1958686550
O 3.2881006994 0.3524507704 -0.2174076856
C 1.9473050846 2.0059956434 0.9084206705
C 2.5864572699 2.1978385234 2.1275263221
C 2.0404927090 3.1285581904 3.0045986623
C 0.8834033591 3.8458142355 2.6696926176
C 0.2443905549 3.6466604309 1.4511178881
C 0.7941731615 2.7167132208 0.5766905672
C 0.3090399863 2.3093200329 -0.7625508589
O -0.6911928431 2.7144110153 -1.3182898558
H -2.5016897225 -5.1842548261 -3.1684079312
H -3.9503736791 -3.1688845293 -3.0764472756
H -3.0369276118 -1.0284630725 -2.2529592551
H 0.7777252607 -2.8920648693 -1.6345863438
H -0.1352274979 -5.0267679402 -2.4407341295
H -1.2864538306 0.2899137595 -1.6185371279
H -2.2389035962 0.7959181737 0.4133618951
H -2.1130095712 0.8816752062 2.8814246415
H -0.2888394339 -0.3049236514 4.0745044308
H 1.3812618747 -1.6103731938 2.7816596039
H 1.2445000365 -1.7060873243 0.3244493010
H 1.8444869188 1.7670125398 -2.1765883870
H 3.4806164438 1.6347369824 2.3731888038
H 2.5141973702 3.3062483165 3.9647794891
H 0.4835900780 4.5655948066 3.3768263647
H -0.6550564885 4.1896345566 1.1803982346
