36
CONF1
C 0.5553144348 0.4740748151 -2.1843200174
N 0.3996643676 -0.4835956295 -1.0645709699
C 0.3728277188 0.1249379831 0.2320554496
C 1.5232399696 0.3428306805 0.9532051927
C 2.8389318594 -0.0855098485 0.4769096258
C 4.0104691877 0.4676174558 1.0058713327
C 5.2498136864 0.0715110162 0.5204197897
C 5.3450501256 -0.8735010832 -0.4995978553
C 4.1930114921 -1.4450993804 -1.0317137890
C 2.9614598684 -1.0562088975 -0.5288822106
S 1.4562390899 -1.8263410419 -1.1205933078
O 0.9829517332 -2.7801527625 -0.1200100609
O 1.6362675145 -2.2065909896 -2.5234909306
O 1.5152031641 0.9448541579 2.1391389905
C -0.9174822665 0.5084877424 0.7950910348
O -0.9882725022 1.1582066429 1.8612272032
N -2.0085894432 0.1060680526 0.0826966535
C -3.3688285183 0.3197800940 0.3336587292
C -3.8570970898 1.0650234126 1.4137166497
C -5.2334256334 1.1944563157 1.5267201433
C -6.0685907089 0.5947210348 0.5897957579
C -5.4754804795 -0.1226744917 -0.4423641419
N -4.1567618663 -0.2623371290 -0.5781437352
H 1.5025409252 1.0276169773 -2.1219520959
H 0.4989751471 -0.0635963875 -3.1317603470
H -0.2731397510 1.1856218240 -2.1241318898
H 3.9313154113 1.2100001574 1.7911934179
H 6.1513575718 0.5086164992 0.9364215097
H 6.3170002580 -1.1689126153 -0.8800407507
H 4.2417125280 -2.1849547828 -1.8233098981
H 0.5493827753 1.1920296940 2.2987129569
H -1.8235696468 -0.4918070208 -0.7150459782
H -3.1797999103 1.5118152326 2.1264114399
H -5.6496400797 1.7637027189 2.3517708145
H -7.1473321342 0.6776849305 0.6553574413
H -6.0847192116 -0.6114519954 -1.2004454452
