28
CONF2
C -3.0640142940 -0.4383734650 -1.0894199006
C -2.4722532954 -0.1757967266 0.2934982083
C -2.9210260357 1.1494515551 0.9058708493
N -0.9790076666 -0.2983046232 0.2542712897
C -0.1955377549 0.5813947358 -0.5068075147
O -0.7174870264 1.4300277202 -1.2101480596
C 1.2749978464 0.3791184455 -0.4738590136
C 2.0766280238 1.3218427280 -1.1246848221
C 3.4501117534 1.1620258761 -1.1935217100
C 4.0431731358 0.0415299263 -0.6103993390
C 3.2702172919 -0.9025027678 0.0481548954
C 1.8864151478 -0.7367038531 0.1198155253
N 1.0855592809 -1.7126159298 0.7332403799
S -0.2661710663 -1.1119185232 1.5837310516
O 0.1349195014 -0.1428375873 2.6018069261
O -1.0864913400 -2.2623417182 1.9451777728
H -2.6951167144 -1.3843687092 -1.4948524001
H -4.1516264187 -0.5090484415 -0.9923223310
H -2.8256040211 0.3671152779 -1.7846629376
H -2.7936535428 -0.9917884512 0.9484759684
H -4.0093830007 1.1371949277 1.0187877563
H -2.6450790970 1.9889923120 0.2657517552
H -2.4766405801 1.2937336100 1.8949085942
H 1.5826063496 2.1730734752 -1.5792166738
H 4.0603058605 1.9017025194 -1.6992604375
H 5.1187223678 -0.0934498742 -0.6596493393
H 3.7340955765 -1.7692472612 0.5094650212
H 1.5813399181 -2.3979055779 1.2958483849
