44
CONF46
C -0.9980092347 1.6037575974 2.9380162305
C -1.1928404395 1.4681003544 1.4341664346
C -2.3465956876 0.5230990560 1.0883771989
O -3.2643769640 0.2853672220 1.8390156392
O -2.2322861763 0.0490686726 -0.1660480047
C -3.3156615690 -0.8141017012 -0.6521629819
C -3.2749620308 -0.6983160605 -2.1619131359
C -3.0887869894 -2.2277290847 -0.1479331479
N 0.0402263617 1.1317590885 0.7107721535
C 0.8857246940 0.1155503664 1.2226443310
C 2.2462343899 0.3672459194 1.4154151052
C 3.0805274871 -0.6270143961 1.9055520179
C 2.5519112706 -1.8627445398 2.2394639405
C 1.1924774471 -2.1170001691 2.0847230813
C 0.3609142626 -1.1312529970 1.5700050563
Cl 0.5442415078 -3.6728817465 2.5182607308
F 3.3607722696 -2.8145363307 2.7291240422
C 0.3424617680 1.8754381824 -0.4235235584
O -0.2403942334 2.9193692303 -0.6852357519
C 1.3750529752 1.3309032997 -1.3572349817
C 2.2698949679 2.2263229691 -1.9452423758
C 3.1992030355 1.7734480395 -2.8732750281
C 3.2163196678 0.4314126832 -3.2456200657
C 2.2995718930 -0.4566345695 -2.6888198267
C 1.3868243670 -0.0124747291 -1.7398265996
H -1.9317297562 1.9371205272 3.3929226945
H -0.7181749417 0.6547412123 3.4018648331
H -0.2165979498 2.3405118753 3.1411695352
H -1.4964384907 2.4406838814 1.0226542114
H -4.2536640792 -0.4160410732 -0.2512321084
H -3.4100787664 0.3394145608 -2.4765403687
H -4.0741081637 -1.3035389162 -2.5995290503
H -2.3162443107 -1.0565573800 -2.5497736151
H -2.1250869076 -2.6099357297 -0.5012794976
H -3.8764113243 -2.8858264406 -0.5271521166
H -3.1145334332 -2.2636695190 0.9441342441
H 2.6499920138 1.3426373987 1.1701348314
H 4.1404947698 -0.4533684543 2.0527404532
H -0.6891173029 -1.3544005479 1.4282062277
H 2.2210720052 3.2743621306 -1.6688366679
H 3.9048457971 2.4692816543 -3.3154940707
H 3.9370747445 0.0796889277 -3.9767509167
H 2.2973778239 -1.4983771923 -2.9928550530
H 0.6728843326 -0.7028825835 -1.3030840746
