37
CONF33
C -5.0096541285 -1.1463529321 -0.1512235192
C -4.8939044313 -1.0170703205 -1.5307848820
C -3.9478102387 -0.1516409463 -2.0704925085
C -3.1248775713 0.5969097723 -1.2313232837
C -3.2442969409 0.4802848895 0.1609560985
C -4.1843583013 -0.4045888854 0.6888408872
C -2.4439466310 1.3353600368 1.1083305973
O -2.6373884102 2.5507720293 1.1848323968
N -1.5611028350 0.6607064429 1.8714594572
C -0.6111674059 1.3506039708 2.7392747840
C 0.4980763119 2.0405398158 1.9473813848
C 1.3412170199 1.1065074774 1.1269324046
C 2.2447074942 1.5816327968 0.1615929489
C 3.0065657355 0.7071403916 -0.5900868649
C 2.8550464868 -0.6554452822 -0.3488636953
C 1.9543522883 -1.0695493994 0.6239616705
N 1.2220864278 -0.2097906569 1.3359462871
C 3.6337808574 -1.6428018126 -1.1640350062
F 3.1051650406 -1.7942250815 -2.4073665644
F 4.9190254076 -1.2496712867 -1.3375658309
F 3.6603840537 -2.8677530646 -0.5959808818
Cl 2.4280634734 3.3020847492 -0.1023756455
C -2.1078349031 1.5198734486 -1.8453280820
F -0.9385197799 1.5314193742 -1.1512082500
F -1.7984999609 1.1620581881 -3.1137641825
F -2.5398693793 2.8052203739 -1.9037507483
H -5.7411286240 -1.8252259008 0.2747491548
H -5.5320622898 -1.5941670924 -2.1912881131
H -3.8445569873 -0.0653569846 -3.1460025789
H -0.1995342637 0.6159118214 3.4340510711
H -1.1507796360 2.1061167554 3.3168615414
H 1.1507361445 2.5883174505 2.6411588393
H 3.7000234753 1.0755436781 -1.3380085507
H 1.8152383289 -2.1250904229 0.8411635599
H -4.2747020980 -0.4999261445 1.7663403586
H 0.0587510292 2.7990637320 1.2905788619
H -1.3629489939 -0.3005548554 1.6346695618
