29
CONF75
C 2.6196981250 0.8549193326 -1.4950423633
C 2.7286673794 -0.1243737984 -0.3603765282
C 1.6902389832 -0.7710142977 0.1885085121
C 0.2413543848 -0.6526837944 -0.1858852321
C -0.5149072427 0.2684692616 0.7832051373
C -2.0237767547 0.4114943022 0.4935542266
C -2.6474160022 1.3775138704 1.5029539511
C -2.7048058181 -0.9306944233 0.6031902616
C -3.5000079365 -1.4823127518 -0.3098175299
O -2.2335048259 1.0148723423 -0.7948823424
C 4.1303314633 -0.3342733137 0.1440881598
H 1.5919713655 1.0316642551 -1.8164084202
H 3.1985771418 0.5050084400 -2.3593363946
H 3.0551658674 1.8178638161 -1.2000228658
H 1.8991230809 -1.4381542608 1.0262096826
H -0.2194000478 -1.6486827530 -0.1623172357
H 0.1376514485 -0.2815457132 -1.2109812349
H -0.0703156269 1.2710155111 0.7498845266
H -0.3925171438 -0.1051843548 1.8078406767
H -2.1368757070 2.3447095939 1.4560369344
H -2.5535882793 0.9798334423 2.5168846421
H -3.7083076316 1.5213160784 1.2787268331
H -2.5074554128 -1.4585426607 1.5368339001
H -3.7255211755 -0.9843977344 -1.2489578614
H -3.9541803702 -2.4537074579 -0.1396951955
H -1.9071737937 0.4047342751 -1.4695450352
H 4.7820871725 -0.6924347408 -0.6632335696
H 4.1635306105 -1.0573911221 0.9633282196
H 4.5613552377 0.6119786610 0.4953584375
