45
CONF20
C -4.5185100074 -3.5397506172 -3.6410472812
C -4.3460455024 -2.1443521974 -3.1349970784
C -3.5775083236 -1.8020643178 -2.0975473449
C -3.4538547120 -0.4156387236 -1.6223872378
C -2.1173609654 0.1772107868 -1.1244572545
C -3.2955950864 -0.0415626349 -0.1743717136
C -3.2319614709 -1.1096543802 0.8916374716
C -3.9838174014 1.2271643412 0.2815569751
C -0.8984308403 -0.6419849252 -1.0453400537
O -0.8164477278 -1.8333803359 -0.8443362142
O 0.1965490237 0.1655196366 -1.2345255371
C 1.4915034002 -0.4612779236 -1.0894125054
C 2.2780972497 0.3200584429 -0.0812795569
C 1.8919416947 0.3321792406 1.2573009966
C 2.5808661874 1.0709684236 2.2054908347
C 3.6945248516 1.8357455141 1.8649559939
C 4.0803404484 1.8198384951 0.5301445792
C 3.3862438086 1.0852280490 -0.4238027332
F 3.8098640004 1.1207011948 -1.6987718602
F 5.1511897040 2.5328822058 0.1355243157
C 4.4671459337 2.5862802438 2.9247023146
O 5.3055898242 1.7292952695 3.6878348904
C 6.4035388459 1.2200324320 2.9397968607
F 2.1597223696 1.0479151780 3.4783159595
F 0.8205800935 -0.3831152697 1.6326942830
H -5.5697513766 -3.8496326363 -3.5974362935
H -3.9272199847 -4.2501432657 -3.0569406642
H -4.2115280550 -3.6194327084 -4.6909876577
H -4.8962671715 -1.3647698395 -3.6642248720
H -3.0130920651 -2.5686131605 -1.5754284121
H -4.0181807518 0.3002470758 -2.2174518153
H -1.9294758420 1.2078586495 -1.4046852223
H -2.6927977711 -1.9986385827 0.5686795786
H -4.2499108053 -1.3997699254 1.1739511596
H -2.7308628586 -0.7177190477 1.7834027945
H -3.4598080507 1.6642148610 1.1387909431
H -5.0121803026 1.0068715670 0.5890712869
H -4.0202899096 1.9759827450 -0.5150595585
H 1.3528588278 -1.4967701332 -0.7650669535
H 1.9852803828 -0.4434945725 -2.0625946727
H 3.7685141240 3.0308402548 3.6375166673
H 5.0528251362 3.3877684526 2.4532470325
H 6.0721313458 0.5672097805 2.1186752168
H 7.0125805770 2.0352024950 2.5211737940
H 7.0090099469 0.6345495715 3.6343556657
