82
CONF74
C -3.1224700002 2.5236842499 -1.4507724153
C -2.3313436396 2.2311338516 -0.2062693389
C -1.3521873784 3.0472669468 0.1972706959
C -2.7167429079 1.0246993705 0.6158641742
C -4.0364484123 1.2365685793 1.3831820232
C -4.3083311132 -0.1492774454 1.9583661511
C -3.9065190155 -1.1425748773 0.8381471172
C -2.9890670213 -0.3125930588 -0.1294478337
C -1.8253975166 -1.1420565567 -0.7237666917
C -1.0113047495 -0.3411783254 -1.7432484512
C 0.2557801456 -1.0923809216 -2.1219483525
C 1.2524657710 -1.1936887367 -0.9465404828
C 2.3503858191 -0.0339373765 -1.0523872809
C 1.8149384467 1.3415873483 -1.5223909500
C 2.9191132667 2.4002105900 -1.6283699501
C 3.6544855553 2.6414326423 -0.3156385096
C 4.1438615154 1.3202477262 0.3400587647
C 3.0354636359 0.2072105806 0.3211845949
C 1.9730333732 0.4934179684 1.4183621089
C 0.5621774971 -0.0502553151 1.1692682124
C 0.5430887208 -1.3972562096 0.4475680433
C -0.9297177774 -1.9721557992 0.2788084227
C -1.6852334198 -2.0657829853 1.6280020005
C -3.1693799899 -2.3621799543 1.4165069062
C -0.8344893488 -3.4292189828 -0.2541328939
C 1.3669769463 -2.3950264842 1.2894612900
C 5.4308997852 0.8878804336 -0.3947743551
C 4.5930574956 1.5892445092 1.7898823420
O 2.7515920213 3.4083369199 0.5039296559
C 3.3251649470 -0.5937264393 -2.1148777977
C -5.1802855137 -1.5918777132 0.1272318664
O -4.8335638665 -2.3502233681 -1.0382565512
H -2.9220807007 1.7812930074 -2.2309548377
H -2.8709126842 3.5097760314 -1.8478837337
H -4.2009809677 2.4954158966 -1.2581579526
H -0.7747730372 2.8423093141 1.0945544914
H -1.0911715763 3.9437604197 -0.3570840478
H -1.9400333097 0.8754986147 1.3731270873
H -3.9516192256 2.0206148504 2.1417076204
H -4.8340886786 1.5285675781 0.6886915393
H -3.6725759463 -0.3094810406 2.8373431250
H -5.3458061382 -0.2935932429 2.2835145847
H -3.6088285760 -0.0486984502 -0.9986289884
H -2.3535356263 -1.9035947373 -1.3085052706
H -1.6283782033 -0.1748199153 -2.6356744284
H -0.7564768986 0.6480928640 -1.3569636240
H 0.7355649215 -0.6161875315 -2.9816163376
H -0.0242962007 -2.0920528961 -2.4719013986
H 1.8362724894 -2.1093190635 -1.1050867348
H 1.0582537964 1.7188560029 -0.8283394912
H 1.3298392575 1.2597204258 -2.5002320657
H 3.6450675777 2.1289656178 -2.4004943225
H 2.4800027794 3.3535354989 -1.9418876885
H 4.5493136478 3.2575361378 -0.5145919278
H 3.5604796736 -0.7234585903 0.5800219490
H 2.3483830559 0.0962057681 2.3678731019
H 1.8775121814 1.5723491300 1.5514464224
H -0.0088698950 0.6737176802 0.5870076098
H 0.0672581137 -0.1213751942 2.1437573105
H -1.2382324247 -2.8474500217 2.2506396700
H -1.5968967869 -1.1323791114 2.1921021538
H -3.2902694515 -3.2212347361 0.7496668889
H -3.6426834390 -2.6366426202 2.3682205268
H -0.5389384664 -4.1220172861 0.5391632643
H -0.1111367113 -3.5358693839 -1.0652990189
H -1.8000612429 -3.7673451924 -0.6387702163
H 1.4738731891 -3.3594190560 0.7882817543
H 0.9041096306 -2.5657392942 2.2669935175
H 2.3743171824 -2.0210972146 1.4744182542
H 5.3501910117 0.9248676322 -1.4797554151
H 5.7122847763 -0.1323673005 -0.1145721005
H 6.2563530157 1.5497931619 -0.1110280602
H 5.3691637208 2.3646584481 1.8026331658
H 5.0326445973 0.6822391855 2.2206690667
H 3.7841943983 1.9030843350 2.4521849321
H 3.2254402296 3.6716523070 1.3000385371
H 3.9703458369 0.1550524174 -2.5701538821
H 2.7608260739 -1.0533071683 -2.9322600230
H 3.9638566008 -1.3700774273 -1.6804119097
H -5.7833027903 -2.2031492923 0.8198518745
H -5.7724339389 -0.7049530691 -0.1546559032
H -5.6471699122 -2.6294643334 -1.4692708060
