52
CONF11
C 1.8570248749 0.4154008145 -0.1460231449
C 3.0617017013 1.0214445766 -0.8833276074
C 4.2783127861 0.2165633654 -0.3560459144
C 3.6978165716 -0.9038567456 0.5705272527
O 4.3951550247 -2.1535872827 0.4522390890
C 3.7393312748 -0.4669069715 1.9691928251
C 3.8084383587 -0.0950935348 3.1154110256
C 2.2367335501 -1.0630637199 0.0492635719
C 2.2832327741 -1.8458283780 -1.2737236510
C 1.2332341979 -1.6996860370 1.0079940147
C -0.1985954672 -1.5437417842 0.4733699596
C -0.5692058212 -0.0772636409 0.1824153798
C 0.4644172730 0.6140346216 -0.7343634968
C 0.1296134766 2.0973140686 -0.8663984976
C -1.2740286806 2.2839809760 -1.4392694143
C -2.3245065614 1.5544835580 -0.6563162973
C -3.5227216295 2.1391839083 -0.4296829355
C -4.5451763794 1.3540868674 0.1868422200
C -4.3522604656 0.1220977596 0.7405501134
C -2.9763483130 -0.4387461879 0.8378072208
C -2.0473119565 0.0867773583 -0.3006147876
C -2.3404888268 -0.7193022355 -1.5867954529
C -5.6385789759 -0.2467590159 1.1832829765
N -6.5478720383 0.6739336211 0.9185474669
O -5.8418024215 1.7187026892 0.2712091316
H 1.8337245283 0.8597521999 0.8623519568
H 3.1645704040 2.0924761278 -0.6909369873
H 2.9513803041 0.8923181669 -1.9659312920
H 4.9888713356 0.8399930295 0.1914304161
H 4.8243344320 -0.2726566961 -1.1673804841
H 5.2827786948 -2.0277087284 0.8126830525
H 3.8630662736 0.2272698283 4.1301390550
H 1.3246198182 -1.7902538004 -1.7929208289
H 2.4996169652 -2.8990310859 -1.0774456909
H 3.0498442025 -1.4682565191 -1.9545125270
H 1.3054174958 -1.2041142940 1.9839254335
H 1.4595622339 -2.7620216950 1.1620344073
H -0.3177038079 -2.1471966657 -0.4323993925
H -0.8873328781 -1.9608327183 1.2145942164
H -0.5127639407 0.4620208453 1.1433528260
H 0.4315927831 0.1647170495 -1.7374549480
H 0.8562083297 2.5978143207 -1.5159592654
H 0.1962109625 2.5710155291 0.1234534527
H -1.5393550859 3.3438588504 -1.5091454318
H -1.2760163624 1.8910337885 -2.4673886493
H -3.7312156423 3.1530435991 -0.7576522458
H -2.9989052069 -1.5315966993 0.8090352460
H -2.5473588273 -0.1552530194 1.8106911530
H -3.3774086736 -0.5524093302 -1.8968981510
H -2.2114834268 -1.7904580804 -1.4085852407
H -1.6865224286 -0.4252939480 -2.4114695955
H -5.9518471061 -1.1523982029 1.6903153758
