18
CONF2
C 0.0281602120 -3.9738859240 -1.1370704772
C 0.1195287054 -3.2912963187 0.2345247518
C 0.0389916117 -1.7924801042 0.1187200597
C -1.1915448271 -1.1200499494 0.1421245094
C -1.2841549059 0.2706869409 0.0219536214
C -0.1175635485 1.0281590586 -0.1397626453
C 1.1253132035 0.3852287820 -0.1903008044
C 1.1858239283 -1.0071120871 -0.0674263770
Br 2.8816848517 -1.8775706753 -0.1675588221
Br 2.7084726775 1.4016542286 -0.4227912000
Br -0.2203035165 2.9148743876 -0.2914874965
Br -2.9716032169 1.1329922099 0.0769056454
Br -2.7896656858 -2.1463299529 0.3321517177
H 0.0860959295 -5.0593738399 -1.0165521578
H -0.9171292381 -3.7318899229 -1.6310015128
H 0.8484142354 -3.6554453013 -1.7866843925
H -0.6890459505 -3.6422991669 0.8777894582
H 1.0584140333 -3.5613236261 0.7205812844
