45
CONF28
C 6.5171078675 -1.6620811671 4.1780808246
C 6.2222950273 -1.4777191669 2.6911739158
C 4.8448281694 -0.8676541952 2.4336806663
C 4.5385265733 -0.6775635429 0.9494292223
C 3.1606332145 -0.0690237911 0.6905493396
C 2.8602371177 0.1139420544 -0.7977506695
C 1.5284664674 0.8099695267 -1.0857913488
C 0.2963912593 -0.0248172397 -0.6945910190
C -1.0024614919 0.6939237004 -0.9483558307
C -1.4933044683 1.5552477903 0.0303656577
N -2.6623567145 2.1863679048 -0.2494429775
C -3.3502264543 2.0040758654 -1.4511200606
N -4.4516627656 2.7654016876 -1.4162022620
C -4.3725602699 3.3643253169 -0.2110283247
N -3.3146041344 3.0655914546 0.5538341326
N -2.8886062496 1.1984510633 -2.4057929610
C -1.7396725382 0.5685010331 -2.1533108277
C -1.2816244905 -0.3677966129 -3.2423215125
C -1.8780589154 -1.7696120604 -3.0509468115
N -0.9497156684 1.7890239726 1.2548019051
H 7.5078651550 -2.0968073926 4.3404974150
H 5.7801004649 -2.3246022428 4.6446583616
H 6.4814311914 -0.7030093588 4.7060245529
H 6.2890766858 -2.4458237541 2.1777144509
H 6.9905655128 -0.8371676752 2.2385739212
H 4.7765903333 0.1018223656 2.9472845928
H 4.0747338844 -1.5083377715 2.8861752230
H 4.6067084855 -1.6468116236 0.4362040132
H 5.3084024656 -0.0370385419 0.4972693046
H 3.0963786970 0.9074598744 1.1938719996
H 2.3999793674 -0.7098934438 1.1559670919
H 2.8740173289 -0.8654627162 -1.2963266252
H 3.6704669404 0.6994582110 -1.2508487049
H 1.5017919132 1.7787712520 -0.5667460469
H 1.4560386482 1.0457664396 -2.1544354353
H 0.3164015155 -0.9674868374 -1.2496555887
H 0.3512775122 -0.3143858657 0.3621733847
H -5.1202534156 4.0618705166 0.1461595767
H -0.1893651423 -0.4230827749 -3.2800910659
H -1.5610022898 -2.4397200326 -3.8554328464
H 0.0286006637 1.5965682592 1.3826004080
H -1.3387623151 2.5646209174 1.7709269187
H -1.5676626576 -2.2086118061 -2.0970192049
H -1.6252086472 0.0458471541 -4.1941190313
H -2.9699793385 -1.7136831923 -3.0564821735
