26
CONF192
C -2.9902067931 -0.6693809202 -0.0328781768
C -1.6313283044 -1.0876115037 0.5030925437
C -0.4692280755 -0.3397348274 -0.1816778501
C 0.8860519429 -0.9607438342 0.1759871811
C 2.0703700126 -0.3539304136 -0.5911800534
C 2.1827740891 1.1605321413 -0.4584949765
O 2.2700870600 1.5881479542 0.9184087980
O 3.2849149697 -0.9914782156 -0.1703705089
O 1.1175311796 -0.8713981840 1.5983065856
O -0.5799059072 -0.4127680403 -1.6057910825
O -1.6505828025 -0.8098115598 1.9099846176
O -3.1723907651 0.7510318058 -0.0089289645
H -3.1025018374 -0.9842582630 -1.0738338465
H -3.7644530834 -1.1762712678 0.5613409670
H -1.5140679981 -2.1700318809 0.3204107906
H -0.4901494140 0.7063110221 0.1604733681
H 0.8527639576 -2.0343562499 -0.0505951555
H 1.9470283193 -0.5850212297 -1.6543679656
H 1.2944881289 1.6419730529 -0.8788973783
H 3.0592101955 1.5064047811 -1.0198205378
H 3.2229517831 -1.1135565174 0.7881239564
H 1.3636373403 0.0586488585 1.7669956458
H -1.2931795397 0.1799289714 -1.8747706992
H -0.7302561710 -0.8859649530 2.2145963704
H 3.1802027803 1.4467574650 1.2104604752
H -3.0259217035 1.0360487993 0.9030142383
