45
CONF19
C -2.4812525494 -1.0128569235 2.0264080821
O -2.2178200619 -0.1291229602 0.9109302536
C -2.9473634770 -0.3851497431 -0.1957312103
O -3.7249098408 -1.3113253810 -0.3254824946
N -2.7211100848 0.5915544409 -1.1433313331
C -1.6202104335 1.5013122830 -1.1163708846
C -1.7740703970 2.6825905316 -0.3927631620
C -0.7420773122 3.6124082849 -0.3422317902
C 0.4401064286 3.3647973633 -1.0346613388
C 0.5884152660 2.1830040591 -1.7537037431
C -0.4291873947 1.2293965963 -1.8056835609
C -0.2148663479 -0.0217820199 -2.6171761595
O -0.6298944574 -1.2364262828 -1.9494130939
C 0.1128997231 -1.6286881094 -0.8972513826
N 1.1704036863 -0.9608344043 -0.4536331816
N 1.6137047116 -1.7039636641 0.6028869834
C 0.8388328564 -2.8093835151 0.8066966221
C -0.1474184712 -2.8005934050 -0.1499621770
C 2.7178607743 -1.2619884653 1.3573218271
C 3.4266169106 -2.1603163353 2.1593593285
C 4.5042682657 -1.7165512490 2.9150009721
C 4.8766587576 -0.3793681358 2.8483123852
C 4.1902283074 0.5220566957 2.0439603359
C 3.1041058478 0.0797088882 1.2996444087
Cl 6.2494454565 0.1804861128 3.7959088240
O -3.1606088632 0.2475726995 -2.4304806403
C -4.2891916778 1.0725976231 -2.7844431089
H -3.5226262310 -0.9193672841 2.3444112325
H -2.2639345460 -2.0466873570 1.7501826610
H -1.8078539244 -0.6800776872 2.8156467044
H -2.7093807149 2.8565138568 0.1292525318
H -0.8662767257 4.5286126897 0.2256375365
H 1.2510760383 4.0854738198 -1.0076138255
H 1.5216119063 1.9806019726 -2.2718830009
H 0.8417085641 -0.1023043936 -2.8926356729
H -0.8229461206 -0.0033844085 -3.5241630513
H 1.0237176237 -3.4969516528 1.6177491355
H -0.9435823490 -3.5145237111 -0.2904315734
H 3.1598411173 -3.2101674188 2.1898554286
H 5.0560158728 -2.4132393642 3.5354979988
H 4.4900972136 1.5629248216 2.0018915373
H 2.5521898406 0.7747542448 0.6788843665
H -5.1286827306 0.8843200346 -2.1068864868
H -4.0147966732 2.1336463761 -2.7680915862
H -4.5497436889 0.7715812963 -3.8014150998
