28
CONF88
O -1.8902298766 2.0802326578 1.2742559660
C -1.9802471792 0.6524268902 1.2846598678
C -2.1643880547 0.1862603374 -0.1477667557
O -1.0878027446 0.6364882247 -1.0132217563
C -0.1153788446 -0.3735534963 -1.1448651025
C -0.6498149339 -1.6235965482 -0.4258672187
C -2.1404904865 -1.3373935123 -0.2810986020
O -2.7830114862 -1.7703793760 -1.4838836907
N 1.1825832522 0.1072743702 -0.5656357986
C 1.2675606808 1.2279656473 0.2092234662
C 2.4383903843 1.6633711734 0.7346764124
C 3.6567543221 0.9456815119 0.4800411156
O 4.7797246957 1.2375980483 0.8937852834
N 3.4797088504 -0.1868502814 -0.3283469775
C 2.3010020246 -0.6584045617 -0.8659867229
O 2.2385798875 -1.6717827252 -1.5541326129
H -1.7610129022 2.3735520984 2.1847415147
H -1.0779047349 0.2059135629 1.7293812633
H -2.8502402704 0.3132814444 1.8656755837
H -3.0822492087 0.6208374823 -0.5587414193
H 0.0804242848 -0.5477196095 -2.2072164422
H -0.1839666237 -1.7258309036 0.5576690727
H -0.4679014022 -2.5348147907 -0.9959583819
H -2.5754538747 -1.8330195546 0.5963243814
H -3.7231738015 -1.5600687805 -1.4110013067
H 0.3307674764 1.7512802541 0.3698373588
H 2.4727568594 2.5571189018 1.3424863635
H 4.3050142940 -0.7358678459 -0.5390348617
