43
CONF62
C 6.2711538654 -1.7049476867 -0.9139039273
O 4.9843440618 -1.4083289701 -1.4722898473
C 4.2711927741 -0.3786576736 -0.9285688544
C 3.0304893104 -0.1400428466 -1.5232871596
C 2.2797984680 0.8977349832 -0.9908073679
C 2.7219940522 1.6926915486 0.0969812591
C 3.9656434617 1.4371402793 0.6705270542
C 4.7339767199 0.4002696687 0.1544301891
N 1.7650825315 2.6537273983 0.4090507669
C 0.7986372644 2.4190393397 -0.4412166284
N 1.0414110270 1.4036402265 -1.3215243979
S -0.7467506525 3.3469456899 -0.5556736972
O -1.4061373935 2.8168719012 -1.8275234775
C -1.5996920769 2.5279803720 0.9236756754
C -1.7723659953 1.0604992219 0.7256239641
N -0.7471138962 0.2993476549 1.1403687289
C -0.8189731045 -1.0187613852 0.9464605852
C -1.9027263863 -1.6647275452 0.3549771912
C -1.9232611997 -3.1483889085 0.1498805938
C -2.9708651054 -0.8540876540 -0.0423877491
O -4.0523802881 -1.4513721637 -0.6459499514
C -5.1672617729 -1.6606411725 0.2493329037
C -2.9261065236 0.5368956041 0.1158771513
C -4.0641236790 1.4078706448 -0.3351240556
H 6.1873404754 -1.9948111366 0.1399359423
H 6.6553034097 -2.5443125113 -1.4941811702
H 6.9501713084 -0.8499237645 -1.0108465101
H 2.6892226248 -0.7460663858 -2.3550083472
H 4.3289908940 2.0301739367 1.5034320593
H 5.6998511817 0.1953378113 0.5980408529
H 0.3996269334 1.0781890766 -2.0311696774
H -0.9429026367 2.7546839302 1.7679601669
H -2.5371319097 3.0801973007 1.0183876489
H 0.0320119715 -1.6080141699 1.2878626129
H -2.0065901047 -3.3932567105 -0.9140163033
H -2.7802261796 -3.6084015390 0.6518389387
H -1.0086536189 -3.6002522833 0.5405014181
H -5.9550663038 -2.1242569134 -0.3461421860
H -4.8778408744 -2.3280329000 1.0691454547
H -5.5239525564 -0.7095554492 0.6598667434
H -4.6610425689 1.7463805717 0.5203426346
H -3.6933244456 2.2912920674 -0.8575110057
H -4.7217543590 0.8599311662 -1.0116409143
