44
CONF126
C 5.2226808270 -0.6665462350 0.8916823344
C 3.7946518638 -1.1061299000 0.5814115709
C 3.2531186841 -0.5651623420 -0.7946625740
N 1.8207742637 -0.4560314243 -0.6493875500
C 1.2933808903 -0.0523451200 0.6603036824
S 2.6446024150 -0.3756844805 1.8689518329
C 0.1406739190 -1.0992299724 0.4680215900
C 0.8697310292 -1.4635904023 -0.8476608558
O 0.7341206424 -2.2756086983 -1.7239272115
N -1.2088375218 -0.6469867372 0.3542053749
C -2.1209865072 -0.8448454866 1.3490415483
O -1.8472566124 -1.3970600483 2.4036522114
C -3.5637660851 -0.3919940149 1.0344090446
C -3.6530671541 0.6491657302 -0.0581696144
C -3.4145467780 1.9997115943 0.2200235316
C -3.4288103036 2.9503690546 -0.7884857119
C -3.6848896709 2.5620615857 -2.1049952061
C -3.9281879689 1.2220882468 -2.4012206008
C -3.9145823667 0.2787657780 -1.3774342969
O -3.6883900626 3.5423494272 -3.0566903869
N -4.1433688887 0.0866986644 2.2866245221
C 3.9151137256 0.7363872072 -1.2154429530
O 4.9269625089 0.7900644402 -1.8704726797
O 3.2630564789 1.8252404521 -0.7493784792
C 3.6907640686 -2.6327953675 0.5865197571
H 5.3106551687 0.4207670837 0.9523482590
H 5.9023715632 -1.0287677518 0.1134847737
H 5.5428250156 -1.0884233900 1.8484421146
H 3.4804381049 -1.2945149797 -1.5787749987
H 0.9723119696 0.9906642090 0.7279364389
H 0.1938511360 -1.9002054038 1.2116117660
H -1.4942563955 -0.1233765379 -0.4608309059
H -4.0392130351 -1.3177341500 0.6522399500
H -3.2270139509 2.2948893754 1.2470352719
H -3.2481115291 3.9986455413 -0.5762654048
H -4.1379686034 0.9153949449 -3.4229473935
H -4.1085171272 -0.7644629421 -1.6144707488
H -3.8800413068 3.1499437884 -3.9159897289
H -5.1543853078 0.0770600274 2.2229501229
H -3.8646250246 -0.5451553567 3.0311601407
H 3.7649085650 2.6013882390 -1.0466597847
H 4.4014967965 -3.0593219570 -0.1315685607
H 3.9257148942 -3.0209162976 1.5806817021
H 2.6866191891 -2.9747667168 0.3216418707
