35
CONF1
C -3.8660413762 -2.0450569249 1.1467402827
C -3.9640454893 -1.5348782115 -0.2743035581
O -3.2063112013 -0.3027834934 -0.4716096435
P -1.6108143005 -0.3123959069 -0.5443999494
S -0.7531145161 -1.8209676962 -1.3917644047
O -1.3181475327 1.1562957627 -1.0935551190
C -0.7061639878 1.3876816162 -2.3934647757
C -1.7288050469 1.2909271981 -3.5038579644
O -1.2890638227 -0.1096599474 1.0615287778
C -0.0210242367 -0.1092996316 1.5308166959
N 0.2392734437 -0.5810911092 2.7723110378
C 1.5450951220 -0.3961996276 2.8425180154
N 2.0405544994 0.1575977575 1.7159532194
N 1.0120825306 0.3531697349 0.8438020296
C 3.4196040820 0.4578473876 1.3109988801
C 3.5355855692 1.9267422744 0.9161840354
C 3.8392523591 -0.4877747836 0.1881168482
Cl 2.5199554741 -0.8018560150 4.1982193551
H -2.8506263169 -2.3735145108 1.3829516331
H -4.5388441397 -2.9006746306 1.2651987700
H -4.1566178202 -1.2699358909 1.8606508549
H -4.9876146428 -1.2499319744 -0.5293855237
H -3.6074415296 -2.2778199600 -0.9963028404
H -0.2887190713 2.3943538774 -2.3120097358
H 0.1104922181 0.6709118562 -2.5289080357
H -2.1207987607 0.2726157332 -3.5798120316
H -1.2580141039 1.5482095402 -4.4583023429
H -2.5597957863 1.9792013309 -3.3272957714
H 4.0274917359 0.2674565854 2.2013098285
H 3.2248314093 2.5801023616 1.7358515850
H 4.5744021256 2.1544497495 0.6622579454
H 2.9080739030 2.1355135241 0.0460582914
H 3.7494522066 -1.5315345153 0.5010134407
H 4.8795064732 -0.2933541014 -0.0873854869
H 3.2063497255 -0.3343476660 -0.6901243540
