56
CONF303
C -1.4028020554 -4.3390382174 -1.6114206336
C -0.7038359845 -3.7236371931 -0.3996231495
C -0.4505599642 -4.7282852778 0.7245547661
N -1.4187501834 -2.5303290592 0.0875287736
C -2.6459996424 -2.5099027539 0.7202921332
C -3.5864897872 -3.5226211037 0.9364699989
C -4.7652340768 -3.1872541058 1.5903979545
C -5.0201918201 -1.8717320794 2.0167661500
C -4.0917703859 -0.8649312980 1.8042080939
C -2.8835037017 -1.1775617556 1.1640548608
C -1.7539227872 -0.3911559845 0.7743101719
C -0.8733463908 -1.2494666075 0.1251952441
C 0.4219335160 -0.9495718219 -0.4633559060
C 1.2978745156 -0.0996340143 0.0853529207
C 2.5820520302 0.3406297415 -0.5467105730
C 2.5015935158 1.8199609765 -0.9363349102
C 3.8294319497 2.3886362478 -1.4322751599
C 3.7431222332 3.9003177831 -1.6164899699
C 5.0662112083 4.4560531542 -2.0747688857
O 6.1307075984 4.2410806811 -1.5323796980
O 4.9458715494 5.2453311462 -3.1631294648
O 4.2044784323 1.8515309451 -2.7085859684
O 2.9046533768 -0.4038305687 -1.7344712189
C -1.6223216076 1.0595240281 0.9543711483
C -1.8261621106 1.6429365267 2.2125498467
C -1.7199384029 3.0190840884 2.3977841556
C -1.4008320769 3.8040974081 1.3044118689
C -1.1960264511 3.2751968510 0.0403891435
C -1.3166414383 1.9006775903 -0.1260211455
F -1.2883605798 5.1493245525 1.4747572999
H -0.7846265550 -5.1479899967 -2.0116786490
H -2.3787045849 -4.7574863855 -1.3523922775
H -1.5438114287 -3.5890732954 -2.3951517189
H 0.2724103648 -3.3575961057 -0.7275056616
H 0.1932532775 -5.5288029244 0.3486213022
H -1.3754221996 -5.1823905419 1.0873023674
H 0.0537557691 -4.2441064115 1.5659608808
H -3.4256987442 -4.5405013554 0.6050864266
H -5.5073607600 -3.9594899332 1.7671824457
H -5.9576111226 -1.6450866274 2.5149993652
H -4.2939105507 0.1518633853 2.1271022668
H 0.6664037851 -1.4097502713 -1.4188579635
H 1.0788019033 0.3611167747 1.0471204773
H 3.3957872285 0.2256730453 0.1887485537
H 1.7300897274 1.9472284825 -1.7069450918
H 2.1817329732 2.3831034145 -0.0519703381
H 4.6139331854 2.1679753975 -0.6901147550
H 2.9527557433 4.1516365037 -2.3284123150
H 3.5103695578 4.3698564797 -0.6537719086
H 5.8304935547 5.5813849605 -3.3891237207
H 4.0335951724 0.8967626022 -2.6625126824
H 3.1483937763 -1.3010748966 -1.4716894756
H -2.0546352847 1.0097811864 3.0640990440
H -1.8721497379 3.4736549264 3.3707768189
H -0.9594068778 3.9288269686 -0.7925360792
H -1.1696782868 1.4690544419 -1.1105064632
