47
CONF130
C -3.3295062501 1.5082769249 4.3829188449
C -3.7230005470 1.5245321923 2.9215647863
C -4.2310232863 0.2462905066 2.3416735754
C -2.7964032411 0.7126256890 2.0072465520
C -2.4826884259 1.1172979164 0.6355063344
O -3.2067815429 1.6612912582 -0.1726273773
O -1.1889155889 0.7646532384 0.3311121781
C -0.7581924742 1.1047423402 -1.0099052339
C -1.4752771434 0.2703065843 -1.9832896159
N -2.0096289310 -0.3990279499 -2.7583240296
C 0.7321847272 0.8799925187 -1.0843755884
C 1.5813615533 1.9663572522 -1.2812197720
C 2.9577900279 1.7552048515 -1.3225569695
C 3.4878131197 0.4795233339 -1.1697227018
C 2.6209130632 -0.5984884235 -0.9809027562
C 1.2445174857 -0.4079921136 -0.9398416565
O 3.0667810408 -1.8827647063 -0.7599239776
C 4.2643717218 -2.2892468833 -1.3361223689
C 5.1733622274 -2.9495551108 -0.5182458943
C 6.3497774999 -3.4446125419 -1.0767210983
C 6.6123303677 -3.2728128548 -2.4339030861
C 5.6870787956 -2.6090595117 -3.2389623293
C 4.5037143633 -2.1166623306 -2.6970140371
C -5.2849599399 0.2197475418 1.3082532682
C -5.4202096612 -0.7582037080 0.4164075130
Br -6.8274194485 -0.7856988747 -0.8626553095
Br -4.1959765490 -2.2070262071 0.2990595803
C -4.2839431668 2.8462618120 2.4542279031
H -2.5677434728 2.2696596888 4.5800703139
H -2.9334481362 0.5335264754 4.6806223100
H -4.2046271651 1.7301567968 5.0031626967
H -4.2234569122 -0.6224835442 2.9981467541
H -2.0037365565 0.1641076154 2.5034252741
H -1.0015105192 2.1513330227 -1.2226959917
H 1.1728202113 2.9647809867 -1.3964093780
H 3.6285133787 2.5958910627 -1.4666279146
H 4.5603266568 0.3213604592 -1.1935819048
H 0.5907644007 -1.2619976183 -0.7911771579
H 4.9538081444 -3.0705060650 0.5373974595
H 7.0641802277 -3.9616992951 -0.4438669923
H 7.5313673085 -3.6566749990 -2.8643288191
H 5.8808982558 -2.4799683378 -4.2992097046
H 3.7744326756 -1.6072648954 -3.3186694239
H -6.0126950818 1.0264253637 1.2788139759
H -5.1832221683 3.0795652342 3.0348275653
H -4.5421897670 2.8460526455 1.3955432357
H -3.5525503780 3.6417833581 2.6299476523
