44
CONF19
C 3.6857857385 -1.5238969062 -1.2562252417
N 3.4224189632 -0.3376432575 -2.0760441555
C 3.4139988383 -0.7189323762 -3.4914471151
C 2.1325749443 0.2692748476 -1.7286820416
C 2.1151625430 0.9081733082 -0.3313534223
C 0.7841704753 1.5503148507 -0.0769229661
C -0.2967247648 0.9283351427 0.4268031783
C -1.5859719373 1.6517866592 0.5896172112
C -1.5418750171 2.9202804510 1.1969187469
C -2.6870081167 3.6747522961 1.4065376087
C -3.9218898709 3.1634530566 1.0134869116
C -3.9800508486 1.9123385780 0.4146418570
C -2.8362306377 1.1337061208 0.1902024089
C -3.0686676323 -0.1968113604 -0.5033466253
C -1.8452157312 -0.9695750797 -1.0089053318
C -0.9872552989 -1.4438253444 0.1266412816
C -0.9304514365 -2.7860109643 0.5041196274
C -0.1605280256 -3.1895063120 1.5930023536
C 0.5570368197 -2.2442423951 2.3223746519
C 0.5090026412 -0.9024312712 1.9525888730
C -0.2511938053 -0.4955267376 0.8529341517
H 2.8758661843 -2.2760214567 -1.3381656854
H 3.7958289341 -1.2535404215 -0.2024537039
H 4.6206407758 -1.9907513538 -1.5820310860
H 3.2431905717 0.1655118902 -4.1139003579
H 4.3820120975 -1.1523949109 -3.7634876408
H 2.6268937996 -1.4625730901 -3.7233203633
H 1.3149220057 -0.4788632090 -1.7846879243
H 1.9101259467 1.0437198415 -2.4734315915
H 2.3177514937 0.1463404901 0.4242149983
H 2.9129620775 1.6572830386 -0.2748071389
H 0.6680600058 2.5796766344 -0.4140652834
H -0.5796611450 3.2997128236 1.5268931369
H -2.6173670897 4.6471673375 1.8841905412
H -4.8318218443 3.7340654935 1.1717276361
H -4.9423842007 1.5182898189 0.0959415643
H -3.7372008407 -0.0105645084 -1.3526212492
H -3.6307942753 -0.8476340433 0.1809482719
H -2.1956349808 -1.8257309646 -1.5934069442
H -1.2591312388 -0.3296089302 -1.6807565847
H -1.4940126052 -3.5212152110 -0.0646228986
H -0.1240555320 -4.2379163343 1.8729400039
H 1.1523401375 -2.5489951524 3.1775962790
H 1.0643830040 -0.1599705647 2.5188420533
