110
CONF104
C -3.5621290267 -0.1795964159 1.3828147254
N -4.5757412391 0.2863101864 2.3542667414
C -4.2303228274 1.6806081494 2.7142172416
C -3.3551141764 2.1831858451 1.5498961207
C -3.3884501268 1.0557527311 0.4879372244
C -2.1585253264 1.0227615045 -0.3760106459
C -0.8368071091 0.8374711163 -0.0136427529
C 0.1806647542 0.8558959389 -0.9729439037
C -0.1923545489 1.0986580861 -2.3150665044
O 0.8383003968 1.1014076754 -3.2052445724
C 0.5575176964 1.4074724367 -4.5766392100
C -1.5187625698 1.3141109925 -2.6966966968
C -2.5014734842 1.2491385477 -1.7059359427
N -3.8695541993 1.3633821732 -1.8728840245
C -4.3802117317 2.3277612630 -2.8420894568
C -4.5469978779 1.2523262928 -0.5655939768
C -5.6234189875 0.1141039340 -0.5421681751
O -6.4895188776 0.2867777263 0.5733641630
C -4.9609186963 -1.2685878302 -0.5119111732
O -5.9614344324 -2.2863507217 -0.5858755088
C -3.9835297009 -1.4949733837 0.7035465539
C -2.7515370404 -2.2475412917 0.1198444235
C -1.6654128475 -2.6654466478 1.1076791914
C -4.6103123560 -2.3915592542 1.7490013772
C -4.9121500881 -2.0195986740 2.9925543173
C -4.7498875848 -0.6168609146 3.4840764450
C -6.4937308449 0.2043132292 -1.8168116030
N -7.6398734415 0.8936700518 -1.6578672166
O -6.1404070171 -0.2804605377 -2.8928731424
C 1.6481837479 0.5810015545 -0.6241851058
C 1.8853724525 0.6893641048 0.9203488283
C 3.3527779765 0.4227681088 1.2427736089
C 3.6035778650 -0.9801285151 1.8082332462
N 5.0047028483 -1.3403764368 1.6468651303
C 5.8681651135 -0.3556353748 2.2985887182
C 5.5915568136 1.1480072373 2.0429533293
O 5.9858167866 1.5041112300 0.6956669028
C 6.3987635070 1.9734263895 3.0563411685
C 6.2527128599 3.4860907719 2.9068311988
C 4.0839226798 1.4373625117 2.1173248441
C 5.3424013846 -1.8320168128 0.3031380781
C 4.7179455273 -1.1995720805 -0.9852070866
C 3.2633439110 -1.5240361410 -1.2255890134
C 2.0647386353 -0.8169822501 -1.0990045715
N 1.0159881015 -1.6800440710 -1.3838793118
C 1.4821218678 -2.9196107625 -1.7140566372
C 0.7942634006 -4.0734210006 -2.0893109548
C 1.5534190353 -5.1996706067 -2.3804491239
C 2.9596016663 -5.1675228755 -2.3046394596
C 3.6356644448 -4.0132276015 -1.9317932202
C 2.8957706036 -2.8587790343 -1.6254983579
C 2.5227419368 1.6768803069 -1.2695693353
O 3.5091194691 1.5136980411 -1.9532778118
O 2.0696753557 2.8931639955 -0.9141804769
C 2.8399891067 4.0136754013 -1.4114304828
H -2.6078036751 -0.3505908264 1.9096980123
H -3.6735186196 1.7103791222 3.6617318403
H -5.1487695067 2.2640703828 2.8437522604
H -2.3219165924 2.3126904562 1.8849940133
H -3.6938375276 3.1353728937 1.1351915818
H -0.5964643965 0.6804461053 1.0313073430
H 1.5227179607 1.3896079986 -5.0837220284
H -0.1055058517 0.6546417929 -5.0179961240
H 0.1067360063 2.4018221421 -4.6714802803
H -1.7801320270 1.4981419691 -3.7302973491
H -4.0475701876 3.3514726180 -2.6062265300
H -4.0403156101 2.0689458818 -3.8489165923
H -5.4704852821 2.3066546637 -2.8482970900
H -5.0923526350 2.1823225939 -0.3504723046
H -5.8729396031 0.3042775434 1.3864767479
H -4.3854785177 -1.3625907305 -1.4373481989
H -6.5499124358 -2.1447967802 0.1706673120
H -3.1497588952 -3.1415898594 -0.3779129743
H -2.3157724162 -1.6213312025 -0.6677820709
H -2.0836773903 -3.2145558702 1.9574976177
H -1.1085100820 -1.8083360368 1.4986555712
H -0.9427828501 -3.3183538220 0.6070799955
H -4.7522972617 -3.4291423868 1.4557766163
H -5.2914995947 -2.7474674228 3.7054120010
H -3.8896104400 -0.5587243878 4.1805639291
H -5.6352013712 -0.3093676822 4.0567166461
H -8.2753689200 0.9872861693 -2.4349987253
H -7.9205298060 1.1949012287 -0.7379579565
H 1.2487650410 -0.0498384564 1.4190391673
H 1.5627823176 1.6811037954 1.2524242664
H 3.8882274906 0.4644380870 0.3001692185
H 2.9794513051 -1.7271857591 1.3056246671
H 3.3418557039 -0.9921505210 2.8796801748
H 5.7680358357 -0.5074435101 3.3855984696
H 6.9148366028 -0.5668595625 2.0421640440
H 6.9095953568 1.2428302419 0.5854469141
H 6.0964467533 1.6711072710 4.0666862446
H 7.4568956458 1.6935757893 2.9504339128
H 6.5026055538 3.8066829864 1.8910975907
H 6.9230628195 4.0040432508 3.5996289502
H 5.2322445102 3.8157019465 3.1250489173
H 3.8974348278 2.4593568910 1.7653530507
H 3.7535354586 1.3764655109 3.1629967448
H 6.4324542449 -1.7758873626 0.2006338101
H 5.0757885062 -2.8995259412 0.2746235542
H 5.2811428347 -1.6639223132 -1.8076842428
H 4.9321335666 -0.1347166042 -1.0451205006
H 0.0497762893 -1.3933525430 -1.3977047117
H -0.2899739511 -4.0868215303 -2.1510877176
H 1.0553996999 -6.1184672687 -2.6744443531
H 3.5230285802 -6.0644059596 -2.5438979613
H 4.7205882968 -4.0086542684 -1.8832958763
H 2.3347286724 4.9015013141 -1.0331016978
H 3.8646474497 3.9631887719 -1.0340558182
H 2.8468246903 4.0103918700 -2.5043077961
