35
CONF10
C 4.0492681874 0.9335219411 1.5901083076
C 3.2061054926 -0.2937673831 1.6436851601
N 2.3077151632 -0.4585253824 0.6627284186
C 1.5514918694 -1.5610455090 0.7577147374
N 1.6337570697 -2.4820723153 1.7202276865
C 2.5700157878 -2.2149286569 2.6341698796
N 3.3805668242 -1.1477188069 2.6564839819
O 2.6626929960 -3.1286886057 3.5931410106
C 3.6591498836 -2.9265570636 4.6279512661
N 0.5887769730 -1.8012006712 -0.2013693846
C 0.1855367172 -1.0438829161 -1.3046243781
O -0.7823027471 -1.3842326719 -1.9648997235
N 0.9613477818 0.0646229659 -1.5703695919
S 0.4651776826 1.2633648004 -2.6669001482
O 1.4116871492 2.3601526436 -2.4383941192
O 0.3447960432 0.6739986150 -4.0010797073
C -1.1836175780 1.7329100574 -2.1262238098
C -2.2171703405 1.5907207655 -3.0506603497
C -3.5088152505 1.9683740114 -2.7087769605
C -3.7682503636 2.4776136586 -1.4400883615
C -2.7439351313 2.6138275115 -0.5091997386
C -1.4482435908 2.2447539019 -0.8521145791
Cl -0.1978076635 2.4246213889 0.3567840053
H 4.5289766852 1.0124196963 0.6100839409
H 4.8013124338 0.9228127334 2.3780848328
H 3.4093993771 1.8153237046 1.7061221682
H 3.5512549221 -3.7883277416 5.2850221977
H 4.6589989575 -2.8976608409 4.1902012040
H 3.4599037209 -2.0001818440 5.1705065554
H -1.9979187090 1.1805589065 -4.0291425811
H -4.3090587192 1.8579895992 -3.4318735601
H -4.7755567081 2.7703126539 -1.1633646598
H -2.9428649702 3.0051226011 0.4819963396
H 1.6636687306 0.3245414990 -0.8548834919
H 0.0307551870 -2.6337658942 -0.0572573009
