42
CONF67
C 3.9326305267 0.8936450620 0.2205344552
C 2.7607669226 1.7702580691 -0.2263492556
C 2.3106502251 1.4167045287 -1.6451762120
C 1.6075054835 1.7049494098 0.7623838016
O 1.1401019875 0.3312319454 0.8110225362
C 0.2277761770 0.0522468592 1.7640368924
O -0.2061120606 0.8596909964 2.5548324662
C -0.0916149080 -1.4041722820 1.7800575283
C -0.1397510576 -2.0296711486 3.0251647788
C -0.3068747802 -3.4065064088 3.1136595357
C -0.4202906160 -4.1692888629 1.9549748836
C -0.3932829396 -3.5507572469 0.7105152265
C -0.2463495715 -2.1678213681 0.6142081604
C -0.3637193664 -1.5642735526 -0.7446434372
O 0.1231042366 -2.0319415890 -1.7493677842
O -1.1669555883 -0.4816078389 -0.7173088451
C -1.4340455562 0.1428183377 -2.0005372172
C -2.4741465148 1.2299066317 -1.7817191031
C -1.9509826004 2.3353952191 -0.8626376100
C -3.7909052923 0.6494482419 -1.2614301147
H 3.6453253351 -0.1620376108 0.2173018793
H 4.2636183767 1.1538597553 1.2314047908
H 4.7835204085 1.0140973143 -0.4565897973
H 3.0871869588 2.8204201369 -0.2162367137
H 3.1366531688 1.5339984115 -2.3531436786
H 1.9693622775 0.3777016381 -1.6970751518
H 1.4915807728 2.0659869191 -1.9735913849
H 0.7721357596 2.3455054566 0.4578309162
H 1.9188400443 2.0007979116 1.7701370820
H -0.0255531765 -1.4220602482 3.9165154859
H -0.3372415685 -3.8848942637 4.0870018420
H -0.5410427667 -5.2456028069 2.0198214447
H -0.5039030961 -4.1269821789 -0.2019081689
H -1.7913707916 -0.6277839108 -2.6925015975
H -0.4948947949 0.5486515467 -2.3926896887
H -2.6524060114 1.6606207135 -2.7778100628
H -1.0274852127 2.7735653242 -1.2570019109
H -1.7462749523 1.9434811336 0.1390519800
H -2.6879584783 3.1381807492 -0.7642990021
H -3.6539460662 0.2193622418 -0.2647757962
H -4.1692667523 -0.1370054533 -1.9228541382
H -4.5543837447 1.4298830160 -1.1908091108
