31
CONF23
C -1.1990072694 -0.1167876563 0.3528231141
C -0.2648348143 0.7345396713 1.2744498410
C 1.2678900048 0.3615490941 1.2655158389
C 1.9933783528 0.3680354707 -0.1198526219
C 3.5489817930 0.3811951796 -0.0043994887
F 3.9765724234 1.6295912783 0.2862900047
F 3.9672830891 -0.4576616970 0.9660517751
S 4.4149656184 -0.1513658902 -1.6343187722
O 4.3601896237 -1.6051328321 -1.6861195823
O 3.9013056278 0.7395954354 -2.6659685272
N 6.0092515465 0.2710950621 -1.3485337761
F 1.6185355857 1.4633704502 -0.8126003237
F 1.6272536967 -0.7411310442 -0.8016009781
F 1.8705260529 1.2892412166 2.0536603287
F 1.4166302131 -0.8507612747 1.8354154090
F -0.3851071022 2.0361507091 0.9459677960
F -0.6715762756 0.5679046052 2.5578656661
C -2.7213020597 0.0276064404 0.7117687828
C -3.6701633012 -0.4274940417 -0.4495870452
C -5.1378357439 -0.7139759831 0.0103723794
F -5.2049923595 -1.8434908800 0.7219291293
F -5.9117717351 -0.8447773831 -1.0747558428
F -5.5998099767 0.3027388062 0.7523747533
F -3.7151052416 0.5452056227 -1.3834771612
F -3.1881477771 -1.5615334901 -1.0081543008
F -2.9910754405 1.3207145779 0.9976876981
F -2.9805294514 -0.7271502406 1.8031998556
F -1.0131145315 0.2846666403 -0.9261397193
F -0.8600399130 -1.4191325150 0.4650559838
H 6.1415256003 1.2695597516 -1.2227157264
H 6.4399952841 -0.2891069482 -0.6195270312
