41
CONF4
C -2.3367293515 -3.0475137657 0.3180427534
C -1.5162620865 -2.6580033926 -0.9089824401
C -0.7023753534 -1.3531866165 -0.7453357259
C 0.1996317700 -1.4705004840 0.4942401793
O 1.0943878577 -2.2783617252 0.6346687056
C -0.2421391458 -0.4623994307 1.4833466841
C 0.2915305732 -0.1776439950 2.7343912335
C -0.2810858404 0.8601918382 3.4617823683
C -1.3649662521 1.5886783597 2.9525093907
C -1.8982025663 1.3004604804 1.7010785980
C -1.3179845108 0.2690493513 0.9724664089
C -1.6365359743 -0.1874688884 -0.4012421511
O -2.4845871667 0.2797293925 -1.1350355493
C 0.1139281578 -1.1046635743 -2.0294676308
C 0.6273671384 0.3110353767 -2.2249097345
C -0.0446436675 1.1849217392 -3.1919423854
O 1.1790534950 0.5155907781 -3.5447713868
C 1.4226994905 0.9140988587 -1.1064656958
C 0.9699378839 2.0602875270 -0.4518069752
C 1.6972446082 2.5666439412 0.6169404602
C 2.8705668173 1.9635140030 1.0507063251
C 3.3196342248 0.8259119267 0.3857041743
C 2.6034475954 0.3015736751 -0.6824270420
Cl 1.1112255880 3.9996200973 1.4463266469
H -3.0708543885 -2.2752093114 0.5709750968
H -1.7003199954 -3.2125937206 1.1934136807
H -2.8843789880 -3.9742845318 0.1272258772
H -0.8033222317 -3.4538733993 -1.1550332910
H -2.1765235301 -2.5200781127 -1.7728962833
H 1.1357557536 -0.7449406409 3.1120216757
H 0.1186542958 1.1208243175 4.4365636419
H -1.7820164107 2.3979357680 3.5430817340
H -2.7281248971 1.8649803949 1.2888605173
H -0.5024001715 -1.3553406496 -2.8982612708
H 0.9627222627 -1.8006040026 -2.0174543372
H 0.0416073315 2.2666237980 -3.0987525477
H -0.9401195805 0.8200936917 -3.6930266399
H 0.0445038136 2.5373857012 -0.7530735086
H 3.4195460163 2.3761804539 1.8890084710
H 4.2350737716 0.3443792124 0.7130882365
H 2.9550536742 -0.5930450448 -1.1849178671
