47
CONF53
C -2.3649844020 -3.0112110599 -0.0833990021
O -3.7091777381 -2.6865651588 0.3667251937
P -4.8274672989 -2.0727035734 -0.6069470702
S -4.4679077168 -2.2345088016 -2.5081206868
O -6.1840859164 -2.6837374927 -0.0291942742
C -6.4980710117 -4.0762830959 -0.3094656229
O -5.0921257424 -0.5721612374 -0.0427279327
C -4.1016976718 0.4011046048 -0.2128108189
C -4.2184889597 1.2995921725 -1.2630044720
C -3.2473310023 2.2841101213 -1.4200655891
C -2.1856174754 2.3688373090 -0.5180431109
C -2.0991715041 1.4720772445 0.5508621627
C -3.0546964327 0.4759364711 0.7003338970
S -0.9960263685 3.6904385019 -0.7155400074
C 0.5639924665 2.8273136289 -0.5650852582
C 0.7611421807 1.5571275291 -1.1142723346
C 2.0009409829 0.9409509147 -1.0082379603
C 3.0414015662 1.6132060329 -0.3805571400
C 2.8718748514 2.8843340178 0.1490449081
C 1.6205070334 3.4873990823 0.0663189478
O 4.2928010186 0.9905898383 -0.3367290358
P 4.9056493527 0.4079011797 1.0472484390
S 3.6241563653 -0.3535813954 2.2921439224
O 5.7637641919 1.6617733752 1.5423162480
C 6.4171411919 1.6266552320 2.8431941764
O 6.0512545411 -0.5562727020 0.4865251302
C 5.7091269151 -1.8870472420 0.0078651185
H -1.8613827235 -3.4225522045 0.7914627958
H -1.8505812205 -2.1104825980 -0.4270496699
H -2.4063064080 -3.7517897994 -0.8845754608
H -5.7198393550 -4.7280277268 0.0974990398
H -7.4466478268 -4.2672554404 0.1908731972
H -6.5999120145 -4.2278569900 -1.3871997285
H -5.0473138542 1.2158962167 -1.9569345076
H -3.3126329017 2.9779430782 -2.2515275648
H -1.2854302933 1.5484769763 1.2644082187
H -3.0015902553 -0.2272278636 1.5243394513
H -0.0520784273 1.0442183950 -1.6165144958
H 2.1684849601 -0.0498424396 -1.4168550029
H 3.7000665312 3.3893556805 0.6343229505
H 1.4690940392 4.4711116301 0.4986716056
H 6.8940198788 2.5996326501 2.9562427888
H 5.6744595721 1.4723599941 3.6299641830
H 7.1681402013 0.8325958957 2.8641157014
H 5.0155129751 -1.8160671465 -0.8346311144
H 6.6493532805 -2.3325089953 -0.3155974226
H 5.2676793457 -2.4732546350 0.8176532090
