29
CONF8
C -0.7422052208 0.3487266911 -3.3409990736
C -0.0364543931 -0.3977811135 -2.2334167052
O -0.8592684727 -0.3601613978 -1.0258334109
P -0.5190000822 0.5653082033 0.2329242835
S 0.6602675313 2.0640738061 -0.0572586185
O -1.9602848881 0.8206578335 0.8651292797
C -2.8045626207 1.8717557799 0.3048455355
C -2.8917285466 3.0221488786 1.2807278629
O -0.0794140100 -0.4884556734 1.4366567096
C 1.0882430909 -1.1647143206 1.4110004306
N 1.7425017260 -1.3011523512 0.2712428387
C 2.8763411366 -1.9726308420 0.2280370588
C 3.4316666629 -2.5725515563 1.3590019202
C 2.7488893874 -2.4409934513 2.5655018172
C 1.5628357327 -1.7277533016 2.6042788904
Cl 0.6913928845 -1.5389290731 4.0907203555
Cl 4.9200978528 -3.4618807373 1.3056907046
Cl 3.6600648305 -2.0894805594 -1.3246887766
H -1.7412283228 -0.0602978215 -3.5157999601
H -0.8284093291 1.4101006197 -3.0908347724
H -0.1641839509 0.2605500339 -4.2665430626
H 0.9454842329 0.0295593504 -2.0163855805
H 0.0839886228 -1.4604555167 -2.4599662086
H -3.7767284592 1.3996506753 0.1369639309
H -2.4036357451 2.1986703946 -0.6618699305
H -3.2680349241 2.6773857153 2.2474184032
H -1.9075713232 3.4748068933 1.4245802674
H -3.5756091385 3.7832187685 0.8912420814
H 3.1465460375 -2.8893762190 3.4677362284
