49
CONF5
C -1.7788990685 -1.8647276174 4.7071576332
C -0.5571487757 -2.2017347849 4.1288930910
C -0.3552550774 -2.0394128046 2.7620098348
C -1.4008535863 -1.5604886311 1.9727555929
C -2.6300038717 -1.2184239186 2.5387318774
C -2.8085714178 -1.3688691335 3.9095661694
N -1.1879972748 -1.4234586954 0.5760814070
C -0.8065220519 -2.4440752233 -0.2723677158
O -0.2785996185 -3.4879107234 0.0723869435
C -1.2644370553 -2.0608015017 -1.6659084691
C -1.8769153676 -0.6889654737 -1.4909639156
O -2.2472395280 0.0771840515 -2.3619975062
N -1.8777115294 -0.4044304002 -0.1319739787
C -1.8034891173 0.9295434517 0.3707519629
C -2.8836863359 1.7811404001 0.1521116430
C -2.8106386157 3.0970136645 0.5993607045
C -1.6824374679 3.5478872985 1.2806947490
C -0.6165893200 2.6793101504 1.5086521578
C -0.6670014664 1.3668589650 1.0511749441
C -0.1995942217 -2.1300503874 -2.7703328451
C 0.8441184458 -1.0219568960 -2.7353616250
S 1.8834290760 -1.0931596032 -1.1995946715
O 2.7834049407 -2.3212201524 -1.3480904313
C 2.8893751476 0.3725148458 -1.5826684845
C 4.2009281703 0.1959084070 -2.0018398581
C 4.9790646577 1.3241103235 -2.2569259097
C 4.4439118173 2.5987899255 -2.0860823160
C 3.1262310633 2.7554099431 -1.6556460264
C 2.3398166292 1.6378488983 -1.3927368525
H -1.9266998213 -1.9819013143 5.7756742562
H 0.2528884752 -2.5785566852 4.7450163417
H 0.6003032511 -2.2731784080 2.3080656370
H -3.4350266280 -0.8424949616 1.9167814119
H -3.7625730610 -1.1027174376 4.3532804174
H -2.0643338161 -2.7717452825 -1.9177953940
H -3.7662653006 1.4126327931 -0.3578460764
H -3.6474729751 3.7659149758 0.4263349338
H -1.6356775173 4.5711805403 1.6385283274
H 0.2653858786 3.0240717945 2.0389250850
H 0.1670303474 0.6930601378 1.2168003727
H 0.2797905945 -3.1131426301 -2.7192058274
H -0.7069496241 -2.0704777957 -3.7380744478
H 1.5447626177 -1.1144512241 -3.5720303132
H 0.3895675722 -0.0253731906 -2.7553313163
H 4.6006906412 -0.8058769044 -2.1219415758
H 6.0058761105 1.2039989461 -2.5878104234
H 5.0553494262 3.4734331574 -2.2833841075
H 2.7108955497 3.7485439385 -1.5171103197
H 1.3157680724 1.7532462786 -1.0470539683
