45
CONF275
C 5.5650193604 -0.3334629549 3.8070553856
C 5.9396033295 0.5179652173 2.5943794027
C 5.6591009280 -0.1624152174 1.2513846485
C 4.1813460041 -0.4660640837 0.9996612521
C 3.9284202670 -1.0078463574 -0.4084420172
C 2.4943546993 -1.4857415936 -0.6497602755
C 1.4422193335 -0.3850576816 -0.5243830255
C 0.0305977619 -0.8779607205 -0.8817463519
C -1.0266126185 0.1824032725 -0.7194943599
C -1.6029846543 0.3733877494 0.5342463219
N -2.5447962740 1.3468788597 0.6263270463
C -2.9243590072 2.1359600611 -0.4615339373
N -3.8588862145 2.9981351382 -0.0406526853
C -3.9921728754 2.6926362259 1.2654492849
N -3.2271082734 1.7036581917 1.7448912394
N -2.3719191922 1.9815303777 -1.6631226585
C -1.4435704363 1.0302598142 -1.7775920911
C -0.8816462072 0.8634507919 -3.1665538419
C -1.7324771357 -0.1110791661 -3.9931903964
N -1.3581418466 -0.3475705415 1.6618235752
H 4.4868310473 -0.5130600498 3.8589313664
H 5.8603882920 0.1567726970 4.7395548616
H 6.0639616287 -1.3085262885 3.7691812264
H 7.0061703601 0.7681310749 2.6465691529
H 5.3983384995 1.4725676079 2.6340802984
H 6.2345277249 -1.0968155751 1.1899836146
H 6.0294270920 0.4801663254 0.4414785694
H 3.5994159151 0.4512150572 1.1616347883
H 3.8191767123 -1.1989664723 1.7333400925
H 4.6152009909 -1.8443360004 -0.5930538982
H 4.1831094657 -0.2342663573 -1.1460539813
H 2.2588461853 -2.2959945137 0.0554251228
H 2.4260360322 -1.9253418716 -1.6538950209
H 1.4379752798 0.0251494206 0.4938400717
H 1.7019718309 0.4557542067 -1.1814647665
H 0.0305756180 -1.2493409158 -1.9104922263
H -0.2204421638 -1.7519560240 -0.2647582550
H -4.6819367737 3.2110311654 1.9202645717
H 0.1578156403 0.5234235471 -3.1318091820
H -1.7590294037 -1.1056834620 -3.5360400172
H -1.7337156193 0.0338124583 2.5180800243
H -0.4826951736 -0.8366089415 1.7262960322
H -2.7601255338 0.2561354820 -4.0601908690
H -0.8928052670 1.8474048892 -3.6426877484
H -1.3331808491 -0.2109212778 -5.0067548260
