43
CONF3
C -2.7212999238 -2.1722151794 -1.2719689454
C -2.8444991456 -2.6195408127 0.1864107837
C -2.4940410723 -1.3418063995 0.9391074208
N -1.4193230594 -0.7601453868 0.1200018618
C -1.4635018829 -1.2988905246 -1.2634457980
C -0.8807779833 0.4540116969 0.4403185116
C 0.2517960424 0.9795204790 -0.2340690787
C 0.7437374495 2.2445972567 0.0800458520
C 0.1976883067 3.0202064263 1.0903238432
C -0.8604589099 2.4782441666 1.8217702698
C -1.3858268536 1.2269208884 1.5074544131
C -1.4199180471 3.2963333367 2.9269518866
O -1.0431157696 4.4182526157 3.2059737129
O -2.4021279328 2.6654984382 3.6049328485
S 2.1921847916 2.8711482020 -0.7979842734
O 2.3702187379 4.2703017551 -0.3856968898
O 3.2896983855 1.9084641037 -0.6272491162
N 1.8401767047 2.9046816398 -2.4393591267
O 0.8734283444 0.2757911676 -1.2435874779
C 1.6659223859 -0.8138326844 -0.8996283765
C 2.2065839929 -1.5176336868 -1.9717738278
C 3.0161289903 -2.6186589069 -1.7177700133
C 3.2797717290 -3.0148063606 -0.4068084026
C 2.7305708556 -2.2952089369 0.6505419583
C 1.9202126865 -1.1856047263 0.4151130768
H -2.6324297200 -3.0032629766 -1.9755320634
H -3.5954883283 -1.5737467281 -1.5510616862
H -3.8398192543 -2.9881271302 0.4441912506
H -2.1109384863 -3.4021343078 0.4101215620
H -3.3698348684 -0.6735734298 0.9819974628
H -2.1447221592 -1.5186215239 1.9626002209
H -0.5721726367 -1.9024073028 -1.4721120947
H -1.5098713574 -0.4863992443 -1.9947705010
H 0.5925861796 4.0003469199 1.3226625670
H -2.2178088447 0.8506473418 2.0854333119
H -2.7147385456 3.2673907453 4.3007061584
H 1.6278523261 1.9684431926 -2.7807572352
H 1.0662452893 3.5385487185 -2.6312717754
H 1.9883758460 -1.1964414443 -2.9851095653
H 3.4418867611 -3.1689273939 -2.5508871525
H 3.9104792436 -3.8757246869 -0.2123390345
H 2.9333382473 -2.5913822165 1.6749892328
H 1.5038306807 -0.6202581167 1.2415340385
