41
CONF12
C -5.4483128369 3.5487211149 2.6070844005
C -3.9932127196 3.1784080107 2.7906881897
O -3.7489761865 1.8076432063 2.3313243342
C -3.5572339326 1.6348360494 1.0187857073
O -3.5017223760 2.5190577326 0.1917246020
C -3.4696377388 0.1422842784 0.6978053578
C -4.8746666855 -0.4246288455 0.5493580625
O -2.8067603316 -0.0591464083 -0.5502736748
C -1.4665551630 0.2008044445 -0.6246203092
C -0.6797962937 0.6274342338 0.4478418842
C 0.6840017996 0.8454207179 0.2544408286
C 1.2282089763 0.6370564355 -0.9968047137
C 0.4627959242 0.2230118674 -2.0767544524
C -0.8922183614 0.0032318360 -1.8858661220
O 2.6017467365 0.9243540727 -1.1913349254
C 3.4173149244 -0.1158678412 -1.2036286571
N 3.1719406712 -1.3730966256 -1.0182769406
C 4.4334464944 -1.9647973722 -1.1480246523
C 4.8397087125 -3.2901081401 -1.0585678255
C 6.1952719013 -3.5658488599 -1.2379270249
C 7.1001282477 -2.5339396550 -1.4976340442
C 6.7266980101 -1.1927193797 -1.5941163189
C 5.3805487672 -0.9694466577 -1.4110339986
O 4.7140453799 0.2409315265 -1.4483302545
Cl 8.7997435435 -2.9385610433 -1.7158241048
H -5.7235348681 3.5546263332 1.5491622943
H -5.6159367924 4.5514884699 3.0121559138
H -6.0959776549 2.8483050797 3.1417840665
H -3.7111936164 3.1545880431 3.8446114081
H -3.3240450175 3.8500842434 2.2475844920
H -2.9374239829 -0.3766915375 1.5044674625
H -5.4251766352 -0.2988043311 1.4843953603
H -5.4082762802 0.0915452601 -0.2536425637
H -4.8136258276 -1.4900240251 0.3153089083
H -1.0954015188 0.7941565795 1.4341481178
H 1.3118568254 1.1748719376 1.0752233508
H 0.9208296761 0.0744042769 -3.0488564977
H -1.5214367129 -0.3216121934 -2.7075051293
H 4.1333615991 -4.0875625420 -0.8565226458
H 6.5529014127 -4.5870182374 -1.1763819132
H 7.4365722110 -0.4002328736 -1.7959677771
