33
CONF34
C -2.9936345853 -1.8102481017 -2.5794583396
C -2.2139257366 -0.5048651033 -2.7347878681
C -3.0902159397 0.5990925701 -3.3164579223
O -2.4526784524 1.7405830739 -3.6612768805
O -4.2874444528 0.5226430100 -3.4753599205
C -1.6132595399 -0.0349624579 -1.4200463603
C -2.4467136841 0.3630825807 -0.3667799643
C -1.9062252308 0.7708943660 0.8470321016
C -0.5271903806 0.7699466152 1.0354458158
C 0.3167093052 0.3828073826 -0.0101531434
C -0.2353373860 -0.0057058534 -1.2373000175
C 1.8006617313 0.4540733080 0.1095109113
O 2.4876649544 0.7108385047 -0.8774768943
C 2.4415902838 0.2169455845 1.4317358422
C 1.9091352077 -0.6898523760 2.3567971350
C 2.5785787696 -0.9433223616 3.5496248662
C 3.7670467696 -0.2762366714 3.8381508322
C 4.2995478677 0.6325195054 2.9227340692
C 3.6486623120 0.8674567239 1.7192929632
H -3.8262458629 -1.6853904060 -1.8825017379
H -2.3285387181 -2.5873921975 -2.1943031290
H -3.3952389018 -2.1339474037 -3.5431074821
H -1.3898955547 -0.6566506306 -3.4442018004
H -1.4998382007 1.6718553766 -3.4892171496
H -3.5253975911 0.3578450082 -0.4998871080
H -2.5614801662 1.0919382849 1.6502578581
H -0.1090114246 1.0989346392 1.9807420005
H 0.4293110555 -0.2973232356 -2.0451017307
H 0.9888238194 -1.2184062980 2.1308478152
H 2.1714504404 -1.6608830437 4.2547456111
H 4.2812590766 -0.4657213884 4.7752536424
H 5.2237729013 1.1543469031 3.1499520246
H 4.0580575098 1.5651041924 0.9960154475
