21
CONF1
C -0.7508981446 -0.3890914928 0.0003498417
C -1.1112673429 0.9727547961 0.0002678745
C -2.4037418061 1.4645915594 0.0003827897
C -3.4383919961 0.5336100825 0.0006069968
C -3.1398705242 -0.8417892109 0.0007239489
C -1.8168200852 -1.3099394006 0.0006054936
Cl -1.5755269049 -3.0203814718 0.0008122945
Cl -4.4556500154 -1.9701131442 0.0010270531
Cl -5.0745371377 1.0824938534 0.0007491822
Cl -2.6716444274 3.1693951222 0.0002511165
O -0.0321532100 1.7990024086 0.0000620302
C 1.0588836243 0.9885230167 -0.0000048463
C 0.7183443714 -0.3784205426 0.0001440310
C 1.7975450765 -1.2836966364 0.0000452948
C 3.1136043199 -0.7962534572 -0.0001410692
C 3.3921206541 0.5833566044 -0.0002525380
C 2.3440351138 1.4991820186 -0.0001937944
Cl 2.5869838659 3.2077331250 -0.0003411134
Cl 5.0201024226 1.1557919798 -0.0004690804
Cl 4.4458067650 -1.9052575521 -0.0002509871
Cl 1.5812235127 -2.9975384777 0.0001088451
