41
CONF14
C -5.2707219752 -2.1998876396 0.1518393447
C -3.9945328896 -1.5688036496 -0.3012148865
C -3.9738872303 -0.5188990252 -1.2207325542
C -2.7432635964 0.0139714579 -1.5843696326
N -1.6061674116 -0.4776141012 -1.0596600255
C -1.7258317729 -1.4856490790 -0.1926376104
N -2.8592738356 -2.0607790289 0.2187173678
N -0.5700596849 -2.0322817361 0.3625351895
C 0.7649221327 -1.7004554204 0.1957881244
O 1.6486529814 -2.3255223716 0.7669207511
N 0.9990566310 -0.6122464443 -0.6224364030
S 2.5540109945 -0.1138135868 -1.0581351704
O 2.3316676741 1.1005305817 -1.8540647058
O 3.2956506135 -1.2262604019 -1.6630234697
C 3.3414468991 0.2724743828 0.5166590442
C 4.6810492929 -0.0871605322 0.6293869069
C 5.3578011055 0.1597486581 1.8188674439
C 4.6853804897 0.7259667699 2.8968850344
C 3.3400994736 1.0583786771 2.7845007957
C 2.6540952187 0.8590944812 1.5850357471
C 1.2098422805 1.2541286253 1.5692993484
O 0.3923867831 0.8032443603 2.3459942316
O 0.9628731896 2.2036302276 0.6643637433
C -0.4142641578 2.6672641819 0.6019410401
C -2.6038780617 1.1424528222 -2.5510678773
H -5.3663956871 -2.1044197340 1.2383897922
H -6.1354083136 -1.7385937947 -0.3270784368
H -5.2581196030 -3.2701956015 -0.0783022900
H -4.8931734008 -0.1289239981 -1.6409428790
H -0.7227770278 -2.8044259298 0.9984533925
H 0.1745678253 -0.1692999849 -1.0755601543
H 5.1850204135 -0.5694763982 -0.1999702866
H 6.4044853682 -0.1112439102 1.9044684282
H 5.2048343190 0.9029233728 3.8325568901
H 2.8084153630 1.4894457544 3.6264178892
H -0.4340336190 3.3926054488 -0.2096172015
H -0.6896054138 3.1345232149 1.5498858364
H -1.0770328948 1.8252326299 0.3897050669
H -1.8963729456 0.8740186398 -3.3415838902
H -2.1964508211 2.0200766342 -2.0369408772
H -3.5650086161 1.4062409179 -2.9941145486
