27
CONF181
C 3.3196046676 -0.8744694125 -0.3738986487
C 4.4458832738 -0.9355209695 0.6628696908
C 4.7614846456 0.3893842091 1.3337305284
O 5.1101831989 1.3442985415 0.3162318905
C 1.9963313383 -0.4003744400 0.2352622590
C 0.8536802609 -0.5134858874 -0.7415478915
C -0.4908358387 0.0559570596 -0.1951014342
C -1.7653065669 -0.3116398436 -1.0246504214
C -3.0062206648 0.5941167154 -0.7333270734
F -4.0888809421 0.0450397278 -1.3037894025
F -2.8358235588 1.8199619801 -1.2421203768
F -3.2189898825 0.6927638443 0.5868492918
F -2.1184114209 -1.5861165467 -0.7388744687
F -1.5037134645 -0.2183378499 -2.3494855574
F -0.3850806102 1.4101833902 -0.1348213331
F -0.6800841103 -0.4099546354 1.0664487992
F 0.6239915135 -1.8247118050 -1.0878973391
F 1.1359753830 0.1581059014 -1.9038156362
H 3.6072309354 -0.2089522803 -1.1926028659
H 3.1855867081 -1.8745867316 -0.7995765763
H 4.1877178279 -1.6571260304 1.4480894144
H 5.3526339014 -1.3082834498 0.1714613725
H 5.5981261225 0.2518701293 2.0335534094
H 3.8981987649 0.7494034927 1.9125908291
H 5.2970326087 2.1835380084 0.7534009416
H 2.0577583865 0.6472489083 0.5488599461
H 1.7436077310 -0.9970754649 1.1177686080
