41
CONF2
C 2.8379441714 3.6515601055 0.0683375281
C 2.8044444844 2.2069862689 -0.3243086711
C 2.3225313698 1.8088389394 -1.5669036965
C 2.2561421166 0.4775640351 -1.9401773344
C 2.6563827751 -0.5443101476 -1.0840602588
C 3.1482051141 -0.1529103891 0.1555695723
C 3.2183592540 1.1845691936 0.5213244380
F 3.6881253664 1.4834751685 1.7488913373
F 3.5683463793 -1.0762494591 1.0368715378
C 2.4926001828 -1.9831657944 -1.4781626274
O 1.0885687494 -2.2884601271 -1.7099733998
C 0.2991552767 -2.2801793698 -0.6026642002
O 0.7414548279 -2.1545981145 0.5228416083
C -1.1163648265 -2.3845275206 -0.9907669902
C -2.1396295514 -1.5381508994 -0.1937156638
C -2.1877811361 -3.0303506874 -0.1156177253
C -3.2992272599 -3.7122412233 -0.8857484174
C -1.8094258134 -3.7448204169 1.1606103410
C -1.6929277048 -0.7004698039 0.9302940111
C -1.3011851969 0.5665293218 0.8027626643
C -0.8893717507 1.4408118023 1.9496560303
F 0.4037779387 1.8388308435 1.8433045519
F -1.0166074495 0.8028685334 3.1295188040
F -1.6352920147 2.5710899900 2.0170144364
Cl -1.1739765076 1.3609989266 -0.7475021299
F 1.7708396065 0.1686695038 -3.1573181319
F 1.8888878153 2.7465203327 -2.4325455024
H 3.2945079455 4.2528043015 -0.7221097125
H 1.8189930780 4.0233313221 0.2216121838
H 3.4001245282 3.7907669451 0.9913434874
H 2.9693157668 -2.1852613563 -2.4384207989
H -2.8597532734 -1.0543158583 -0.8508128428
H -2.9995951255 -4.7269392171 -1.1676014660
H -4.1954732803 -3.7814891565 -0.2598422890
H -3.5558707131 -3.1606182867 -1.7945170916
H -0.9881304304 -3.2644417322 1.6915316122
H -2.6820959875 -3.7887449674 1.8214408080
H -1.5093811633 -4.7720985844 0.9295769639
H -1.6989243580 -1.1161931332 1.9331982813
H -1.2869863742 -2.4211128711 -2.0609888512
H 2.8993569223 -2.6449054870 -0.7125710465
