32
CONF2
C -6.5941596495 0.0941226678 -0.4873229757
C -5.2181668061 -0.3910119336 -0.2028063863
N -4.9313634903 -1.4949206000 0.4352703647
C -3.5841320608 -1.6804240495 0.5380631694
C -2.7855872588 -0.7140862593 -0.0228232613
S -3.8023451026 0.5103706123 -0.7194872568
C -1.3072277305 -0.6890992574 -0.1472019711
O -0.6649636773 -1.6963408324 -0.4106964123
N -0.7409777394 0.5480777927 0.0160487857
C 0.6525499345 0.7287821329 -0.0881490140
C 1.4520252689 0.9135918114 1.0431302767
C 2.8261828097 1.1070608546 0.9733708336
C 3.4144309914 1.0884302911 -0.2845080785
C 2.6702149697 0.8983857630 -1.4426826661
C 1.3009619099 0.7314238045 -1.3298811937
Br 0.2840885387 0.5293339402 -2.9240719591
O 4.7749815758 1.2623045117 -0.5221325190
C 5.6513006799 1.4129117057 0.5055198329
F 6.8657799285 1.5387972027 -0.0313512989
F 5.3981550740 2.5113718480 1.2471205018
F 5.6597808020 0.3534888255 1.3396068754
Br 0.6378256364 0.8921976749 2.7642725574
C -3.0883865753 -2.8988751431 1.2703483806
F -1.9783082291 -2.6317448415 1.9937787141
F -4.0190450822 -3.3692193468 2.1255486652
F -2.7836987185 -3.9129419585 0.4231124414
H -6.7891956259 1.0350981001 0.0369190012
H -6.7324695128 0.2736323468 -1.5575470269
H -7.3110278917 -0.6565141308 -0.1515447318
H 3.3922678952 1.2510158019 1.8824367496
H 3.1627596317 0.8976374226 -2.4068952125
H -1.2807037836 1.2775036584 0.4641161635
