47
CONF6
C 0.6201774505 -1.0605920062 -0.3014407750
C 1.2697905696 -2.2075942711 0.4714272252
C 2.7700467200 -1.9530617351 0.6882535272
C 3.0750185152 -0.4640445561 0.9820836282
O 4.2202507579 -0.4458419376 1.8358404982
C 1.8164044898 0.2060283944 1.5670057645
C 0.9762251306 0.3564778605 0.2919130383
C 1.9928182479 1.0449480628 -0.6437709369
C 3.2825739244 0.3284301833 -0.3125530839
C 4.4291636043 0.3928801527 -0.9838938897
C -0.3993987699 1.0813753453 0.4733381714
C -0.3084586625 2.5614866590 0.2223166760
O 0.1732101987 3.2154136162 1.3003845853
O -0.5956825141 3.1218432882 -0.8158381778
C -1.3541094441 0.3599625895 -0.4800385205
C -2.8089914524 0.1958944836 -0.0410819114
C -3.5402747777 1.4386669334 0.4362282696
C -3.5776191707 -0.5102764501 -1.2097947842
O -3.8595017806 0.4102424857 -2.2711318627
C -2.7935134114 -1.6438057875 -1.8208257048
C -1.5409695108 -1.9297598800 -1.4617946603
C -0.8924439948 -1.0931172420 -0.3993737712
O -1.4891057722 -1.5209477912 0.9109904312
C -2.6463063507 -0.8370049273 1.0766838493
O -3.3910153454 -1.0570066878 2.0040217126
H 0.9800898549 -1.0925291907 -1.3387629888
H 0.7755311142 -2.3101412581 1.4406837425
H 1.1203360843 -3.1527755759 -0.0609383423
H 3.3539093078 -2.2710116632 -0.1813128639
H 3.1125446743 -2.5358934771 1.5501364719
H 4.5196057681 0.4717033315 1.8963292544
H 2.0673648223 1.1937934850 1.9716230112
H 1.3361962151 -0.3867228169 2.3499854125
H 1.7194508082 0.9927819998 -1.7019592624
H 2.0997063356 2.1052410387 -0.3762068253
H 5.3100355519 -0.1410379588 -0.6371578880
H 4.5212112058 0.9815032694 -1.8924492217
H -0.7093823897 0.9375708777 1.5148943656
H 0.2582324339 4.1577828466 1.0727718892
H -1.2623014369 0.7553388547 -1.4946837092
H -4.5728809187 1.1946454287 0.7061456333
H -3.0532441325 1.8647731286 1.3183648434
H -3.5497528831 2.1965600687 -0.3510553173
H -4.5234918371 -0.9029673936 -0.8058661270
H -4.6321225113 0.9325253942 -2.0188786457
H -3.3075222656 -2.2211047319 -2.5849579022
H -0.9918038500 -2.7606326361 -1.8956548234
