44
CONF46
C -4.0548703064 -2.9087615794 1.8691723431
N -3.0269244489 -1.9587032066 1.4449971961
C -2.9251579184 -1.8604633801 -0.0258262978
C -2.1715504610 -3.1476316621 -0.4705275946
C -1.3182735723 -3.5190130182 0.7694849101
C -1.6660015913 -2.4078000509 1.8016815824
C -0.7347510494 -1.1945941546 1.6731684453
C -0.7185224712 -0.7081325776 0.2312107939
C -2.1244649127 -0.5933440528 -0.3504208430
O -0.0652153174 0.5979808783 0.2279752209
C 0.4861316673 0.9867462976 -0.9385764610
O 0.5044189055 0.3201973656 -1.9483722010
C 1.0857917960 2.3795100732 -0.8206220904
C 0.4783758143 3.2646836486 -1.9227466353
O -0.9422399817 3.3274855265 -1.8383623608
C 2.5967499074 2.3518186563 -0.9210569511
C 3.2398362895 1.7714406994 -2.0183930040
C 4.6273008405 1.7949690509 -2.1114078932
C 5.3906297543 2.3979136554 -1.1155421025
C 4.7575099475 2.9769511998 -0.0205683297
C 3.3695940796 2.9527023266 0.0745348179
H -3.9304423389 -3.9323489847 1.4715960178
H -4.0593506240 -2.9702978391 2.9624676661
H -5.0365619294 -2.5417753781 1.5520793981
H -3.9246853716 -1.7872602594 -0.4668966278
H -2.8801191801 -3.9443582486 -0.7128592039
H -1.5665418282 -2.9728681798 -1.3651495798
H -0.2463205042 -3.5509980974 0.5518566092
H -1.5945122781 -4.5033154764 1.1574171356
H -1.6504374831 -2.7746437735 2.8333406593
H 0.2823021647 -1.4506835954 1.9911343765
H -1.1086052010 -0.3963175636 2.3228553981
H -0.1132591573 -1.3731229409 -0.3928874433
H -2.6290335472 0.2683425338 0.0997024991
H -2.0636882914 -0.4354788960 -1.4317327323
H 0.8083114893 2.7896604658 0.1564685218
H 0.9371951599 4.2629821126 -1.8704661226
H 0.7044300966 2.8290667977 -2.8997079587
H -1.1766792792 3.7743338475 -1.0172546745
H 2.6492813706 1.2846217750 -2.7868981099
H 5.1146339089 1.3372847200 -2.9665282102
H 6.4730359443 2.4146338325 -1.1918278506
H 5.3434624420 3.4463412897 0.7633430995
H 2.8792176835 3.4022454744 0.9336209905
