59
CONF3
C -2.3793108820 0.2613051678 4.5585767552
O -2.4506930096 0.2513170678 3.1285002164
C -1.2926011939 0.2101203802 2.4141017744
C -1.3717168572 0.1884235764 0.9998111090
C -0.1522429122 0.1539068911 0.3172742706
C 1.1030010666 0.1304132129 0.9351021373
C 1.1351321277 0.1513283326 2.3318143476
C -0.0446414084 0.1933602072 3.0557036813
C 2.3402956511 0.0816420479 0.1358057371
C 3.4603413869 -0.5977632367 0.5890044957
C 4.6505314010 -0.6462896831 -0.1658993028
C 4.7023075773 0.0168186684 -1.4328222031
C 3.5495541133 0.7069925776 -1.8840521563
C 2.4082577471 0.7385108592 -1.1254232283
C 5.8890061922 -0.0325880789 -2.1923058558
C 6.9958159347 -0.7189470572 -1.7256556625
C 6.9427688700 -1.3804377272 -0.4713055559
C 5.8014465659 -1.3445555691 0.2852990813
C 8.2541932305 -0.7917765378 -2.4968443171
O 8.1981247674 -0.1294887237 -3.6738445231
O 9.2542274779 -1.3832191361 -2.1273422946
C -2.6442163895 0.1910990475 0.1297205575
C -2.6057415103 1.4301991544 -0.8051996937
C -3.7871052950 1.4229067643 -1.7852301208
C -5.1041450867 1.4648652194 -1.0013770648
C -5.1786493552 0.2354249149 -0.0882387050
C -5.1540634993 -1.0384051405 -0.9407940521
C -3.8371406723 -1.0858051931 -1.7242544293
C -3.7362968522 0.1457186510 -2.6369192202
C -2.6553208965 -1.0923315431 -0.7444114457
C -3.9907355090 0.2351081196 0.8889390952
H -1.8534233234 1.1509550067 4.9245856613
H -1.8875244303 -0.6418657164 4.9386055422
H -3.4152796175 0.2840889106 4.8989252547
H -0.1781689625 0.1153515169 -0.7657362910
H 2.0821751137 0.1629626146 2.8620479794
H 0.0109504716 0.2262235370 4.1361811428
H 3.4287364999 -1.1302409718 1.5351445081
H 3.5885111270 1.2228686956 -2.8393738302
H 1.5468417881 1.2953520215 -1.4797501597
H 5.9184174603 0.4762738343 -3.1497125947
H 7.8212091178 -1.9129327688 -0.1241909015
H 5.7628550793 -1.8509480792 1.2454489501
H 9.0602424691 -0.2287971663 -4.1109286840
H -2.6297378392 2.3385783906 -0.1879569654
H -1.6685616470 1.4496353532 -1.3725972605
H -3.7131858130 2.3033900786 -2.4365653463
H -5.9562937800 1.4727202586 -1.6939744749
H -5.1561929330 2.3837674317 -0.4024272717
H -6.1061854193 0.2683344433 0.4980417719
H -6.0064082931 -1.0462789160 -1.6331469281
H -5.2414929521 -1.9246850409 -0.2983615793
H -3.7980951423 -1.9989285300 -2.3322635202
H -2.7996258509 0.1126266913 -3.2092003018
H -4.5642738982 0.1448303073 -3.3579158498
H -2.7137970908 -1.9684009233 -0.0843888467
H -1.7214449887 -1.1748265082 -1.3111894093
H -4.0720733346 -0.6308122372 1.5532551870
H -4.0385575810 1.1329044320 1.5130717966
