53
CONF118
C -1.4813586368 4.2106673950 -1.5592229692
C -1.0057118508 4.2207368842 -0.1203874134
O -0.8506263493 2.8629784388 0.3701034131
C 0.3114829416 2.2301666799 0.0805375788
O 1.2565590066 2.7913766048 -0.4642140055
C 0.2658151346 0.8333397399 0.4932513524
C 1.3785154489 0.0565892674 0.3728622511
N 1.3452904113 -1.2525750212 0.7697780951
C 0.3026343564 -1.8221398788 1.4620766837
C -0.8508957920 -1.1128952354 1.6317896400
C -1.0607996635 0.2386308114 0.9535501652
C -2.0089598290 0.1056382234 -0.2397214805
C -1.6239550977 -0.7287857155 -1.2966810813
C -2.4078645721 -0.9020291234 -2.4290605287
C -3.6224473970 -0.2285722187 -2.5336450385
C -4.0378593809 0.6065193687 -1.5037669229
C -3.2340576347 0.7634705784 -0.3762029834
Cl -3.8505071246 1.8443199206 0.8765158039
C -1.9345604753 -1.6685221821 2.4365608355
O -1.9374187845 -2.7349044217 3.0388789097
O -3.0032524871 -0.8309636448 2.4561667361
C -4.1333514245 -1.2752379995 3.2326212543
C 0.5929893994 -3.1987281728 1.9764939086
C 2.7140100116 0.5111102467 -0.1680465596
O 3.6480832979 -0.5525301399 -0.0469814353
C 4.9288742396 -0.2140746416 -0.5902324420
C 5.8182704200 -1.4420503448 -0.4966734315
N 5.3697278547 -2.6023403350 -1.2793384357
H -0.7334843905 3.7557601320 -2.2144826332
H -1.6563233331 5.2378587279 -1.8942638114
H -2.4179431961 3.6519655617 -1.6480482549
H -1.7534823973 4.6615652188 0.5428896220
H -0.0591671166 4.7559298405 -0.0080905212
H 2.2089537083 -1.7701254818 0.6758880665
H -1.5206708160 0.9208723131 1.6694110766
H -0.6761417910 -1.2538615799 -1.2159563627
H -2.0733055274 -1.5581987267 -3.2259302564
H -4.2496888128 -0.3494037549 -3.4108786698
H -4.9812061208 1.1371705070 -1.5695887534
H -3.8506510096 -1.4078426979 4.2804029787
H -4.8779662285 -0.4852160125 3.1352401627
H -4.5225035034 -2.2177902859 2.8382298279
H -0.2058979602 -3.8918503233 1.7099505211
H 1.5398417294 -3.5648614373 1.5713633663
H 0.6561255798 -3.1953536543 3.0681427318
H 2.6016761889 0.8118452894 -1.2200453839
H 3.0557051595 1.3968697065 0.3846241539
H 4.8127528227 0.1002906082 -1.6400923330
H 5.3635893470 0.6240458714 -0.0224345902
H 6.8238283340 -1.1551083204 -0.8271397225
H 5.9004556279 -1.7399682244 0.5561823788
H 5.3046520703 -2.3361217945 -2.2580027565
H 4.4222255439 -2.8376649475 -0.9991946641
