47
CONF136
C -3.3269434940 1.5396712648 4.3676814434
C -3.7196818619 1.5478953000 2.9061648386
C -4.2310200706 0.2675847923 2.3337627425
C -2.7950957732 0.7271030556 1.9970657264
C -2.4792613580 1.1234565101 0.6233933021
O -3.2021967335 1.6611319852 -0.1899940713
O -1.1841179737 0.7708518997 0.3245200141
C -0.7511673165 1.1005935713 -1.0181668487
C -1.4643852769 0.2563917511 -1.9860811867
N -1.9940924974 -0.4212214619 -2.7571233431
C 0.7397357104 0.8774446322 -1.0878552766
C 1.5872556860 1.9608695826 -1.3059445539
C 2.9642507192 1.7514864876 -1.3431004426
C 3.4960823400 0.4800050918 -1.1645569599
C 2.6307544679 -0.5953734811 -0.9549988309
C 1.2542783001 -0.4068641197 -0.9183923061
O 3.0812311225 -1.8733259286 -0.7053806929
C 4.2640310109 -2.2986984276 -1.2974570563
C 5.1756719579 -2.9660824424 -0.4880065558
C 6.3378643618 -3.4798956526 -1.0589780703
C 6.5845150803 -3.3198399867 -2.4206872865
C 5.6569979390 -2.6490262412 -3.2172032397
C 4.4873720682 -2.1378719085 -2.6625977275
C -5.2847744827 0.2376754908 1.3001889257
C -5.4230789706 -0.7460654246 0.4151561647
Br -6.8303073274 -0.7780494280 -0.8638407258
Br -4.2028971283 -2.1991079256 0.3075996409
C -4.2762211715 2.8681329208 2.4296229870
H -2.9344558597 0.5654710752 4.6718431477
H -4.2016459141 1.7685455032 4.9859996740
H -2.5626805940 2.2996484819 4.5604751431
H -4.2266449177 -0.5968902266 2.9959263306
H -2.0040725116 0.1798783679 2.4972190407
H -0.9957118434 2.1449515402 -1.2404134569
H 1.1771219892 2.9562565625 -1.4403322601
H 3.6334847228 2.5904375482 -1.5031717532
H 4.5688461378 0.3226256225 -1.1844764573
H 0.6018609533 -1.2588217660 -0.7531719421
H 4.9688394519 -3.0776754510 0.5712325590
H 7.0539386966 -4.0022963131 -0.4324204422
H 7.4926899607 -3.7181270468 -2.8609427838
H 5.8378943227 -2.5288120359 -4.2807698764
H 3.7569883621 -1.6230817148 -3.2784071206
H -6.0096361724 1.0466961429 1.2646405106
H -4.5318360017 2.8620507441 1.3702756837
H -3.5433566912 3.6629688784 2.6023281286
H -5.1764224931 3.1073028782 3.0064219641
