44
CONF22
C 1.1742742388 1.2151242197 3.4255651982
C 1.1640038408 0.3751810338 2.1514368286
C 0.3241600296 1.0511014848 1.0485326537
C 0.3316189905 0.2278781565 -0.2161127219
C -0.7306340641 -0.5967429472 -0.6425898196
C -0.4977637575 -1.6434605395 -1.5785788995
C 0.7269199159 -1.7353445496 -2.2242135410
C 1.7431928868 -0.8298388871 -1.9542195370
C 1.5234993000 0.1153098954 -0.9350706717
O 2.5166773358 0.9763084534 -0.5536065618
C 3.7129909430 0.9293042210 -1.1721525451
C 4.0150949715 0.0757046115 -2.1733761199
C 3.0363630690 -0.8858470167 -2.6492725830
O 3.2771206227 -1.6868676871 -3.5580821497
C 4.6418348747 1.9459182102 -0.5881735471
O 4.3382707980 2.6712086432 0.3323426462
O 5.8264028601 1.9407672983 -1.2094511503
C -1.5267960885 -2.6687940739 -1.8268702868
O -1.3796411328 -3.5719229815 -2.6648342220
C -2.6953057641 -2.5629054342 -0.9910744080
C -2.9133722268 -1.4543330916 -0.2314922969
N -2.0138366164 -0.4203194991 -0.1217103151
C -2.5690543103 0.9768335039 -0.0519561099
C -3.6327312358 1.2062724204 -1.1168566672
C -4.1330706362 -1.3747400080 0.6405125049
O -4.1562288138 -0.8074151262 1.7116360354
O -5.1669281991 -2.0468541858 0.1162018167
H 1.7569035195 0.7257983867 4.2118367944
H 1.6169319511 2.1994665403 3.2380519408
H 0.1574394172 1.3688527580 3.8029705223
H 2.1892816490 0.2176431259 1.8017799032
H 0.7386459298 -0.6151440409 2.3538909611
H -0.6854477653 1.1654210743 1.4392172697
H 0.7143906349 2.0564778508 0.8538107096
H 0.8884496155 -2.5278366727 -2.9463716894
H 4.9988656785 0.0966515821 -2.6239033017
H 6.3956522869 2.6125341349 -0.7953019649
H -3.4208980343 -3.3658593619 -1.0004863434
H -2.9510770304 1.1701681262 0.9518607941
H -1.7367544112 1.6509008480 -0.2439855283
H -3.9191716971 2.2617584815 -1.0961548347
H -3.2412776399 0.9720141403 -2.1115179986
H -4.5371336175 0.6152328785 -0.9481390932
H -5.9018626095 -2.0256070720 0.7543864349
