35
CONF27
C 0.6623918197 0.4740830188 3.1897892088
C 0.0649554309 -0.6446208371 2.3952515854
C -0.2374951656 -1.8791896026 2.8906483700
S -1.0016110290 -2.8864181863 1.6964394271
C -0.9261158907 -1.6379496918 0.4859594114
C -0.3244052856 -0.5227810419 1.0161979610
N -0.0887430528 0.6749294747 0.2784265705
C 1.1962512911 0.8816946035 -0.4620189364
C 2.2483195325 -0.1536578787 -0.0898255759
C 0.9689416819 0.9364241116 -1.9712184407
O 0.8284460376 -0.3806171313 -2.4888036331
C 0.4588320737 -0.3666166507 -3.8631249198
C -0.9203477129 1.7494115000 0.3822100386
O -0.6760012512 2.8405387277 -0.1366903780
C -2.2112165883 1.5598515547 1.1641138384
Cl -3.5313379701 1.0914468852 -0.0121360864
C -1.4790163844 -1.8585119767 -0.8792536752
H 0.9511471255 0.1280501269 4.1844637646
H -0.0555351014 1.2943917131 3.3134969190
H 1.5455706650 0.8955221030 2.6992975707
H -0.0695965135 -2.2554105004 3.8912917800
H 1.5508002745 1.8768281822 -0.1694814083
H 2.5028916476 -0.1059805623 0.9707797447
H 1.9212154038 -1.1673713365 -0.3288682965
H 3.1528298015 0.0584023519 -0.6673315261
H 0.0745679512 1.5340108939 -2.1982105330
H 1.8379374969 1.4340116018 -2.4344951117
H 1.2162156308 0.1471020607 -4.4740489697
H -0.5102959323 0.1339493750 -4.0082305790
H 0.3798368253 -1.4067231974 -4.1883304165
H -2.5015075305 2.5159660329 1.5982357057
H -2.1738350423 0.7755480993 1.9185954842
H -1.4418800026 -0.9252342445 -1.4420964257
H -0.8965021242 -2.6049437146 -1.4298093970
H -2.5157081333 -2.2061355418 -0.8312225733
