65
CONF4
C 5.7914738122 1.5835673710 6.5498265718
O 4.3895863595 1.2875564362 6.5523866499
C 3.8118914070 0.9723143371 5.3544127880
C 4.4910359897 0.9286178463 4.1347336200
C 3.7912570819 0.5962101181 2.9739709314
C 2.4263700671 0.3076902765 2.9927216643
C 1.7673571450 0.3567668982 4.2284342193
C 2.4427687789 0.6844714567 5.3951437702
C 1.7012562637 -0.1092704589 1.7454619909
C 1.7594727805 -1.6442374770 1.5617514544
N 1.1245068811 -2.1853383917 0.3604155134
C 1.7990874091 -1.7987613526 -0.8802936721
C 1.2412143520 -2.6050564343 -2.0530132443
C -0.2761241696 -2.4556822840 -2.1893141184
C -0.9522716532 -2.7150952920 -0.8344825472
C -0.3099541133 -1.8936435366 0.2798550611
N -0.5910944269 -1.1199342323 -2.7244448481
C -1.8387403842 -0.8553416689 -3.1973172383
N -2.7506324337 -1.7582767951 -3.5314572793
C -3.8205722298 -1.0158958882 -4.0086769087
C -5.0568982583 -1.4402470340 -4.4925693255
C -5.9738313428 -0.4697235720 -4.8989613486
C -5.6715481298 0.8961593763 -4.8259991723
C -4.4368142778 1.3413727305 -4.3459317425
C -3.5304928825 0.3687552874 -3.9497362852
N -2.2429802182 0.4466531455 -3.4378607566
C -1.4917958061 1.6452962690 -3.1062992685
C -1.3412222939 1.8512303424 -1.6123771071
C -2.3687544271 1.5035627200 -0.7333154655
C -2.2364350325 1.7161651764 0.6356134242
C -1.0626804662 2.2867170905 1.0983610355
C -0.0216052047 2.6451318769 0.2606470683
C -0.1694055491 2.4150768104 -1.1042268505
F -0.9188880425 2.4864724758 2.4354873030
H 6.0086474554 2.4587579059 5.9259002334
H 6.3749497687 0.7253180883 6.1957229358
H 6.0507924350 1.7998412125 7.5866768950
H 5.5492477094 1.1516311185 4.0712880168
H 4.3287074067 0.5659861942 2.0291250889
H 0.7031095855 0.1381799208 4.2748071072
H 1.9240023633 0.7264580797 6.3480290109
H 0.6553156570 0.2069111058 1.8053979870
H 2.1460277320 0.3829679240 0.8737438048
H 1.2870768327 -2.1130707281 2.4362119111
H 2.8127491087 -1.9557437195 1.5563085886
H 2.8718066162 -2.0001016908 -0.7751217851
H 1.7015029486 -0.7125307768 -1.0852796578
H 1.7327178201 -2.3034603878 -2.9842175114
H 1.4602685008 -3.6651481581 -1.8839587018
H -0.6453636275 -3.1781820669 -2.9231586858
H -2.0206821479 -2.4841286897 -0.9041322577
H -0.8544020667 -3.7817509639 -0.5988600208
H -0.5020750970 -0.8158810827 0.1011563525
H -0.7732636275 -2.1436717334 1.2419779628
H -0.1324951141 -0.3471528488 -2.2606903030
H -5.2960073055 -2.4980807065 -4.5468970215
H -6.9431212565 -0.7790434947 -5.2778117130
H -6.4085003145 1.6256241626 -5.1463620686
H -4.2090120798 2.4009800915 -4.2881579862
H -0.5038249833 1.6033053820 -3.5807463107
H -2.0180012403 2.4951575582 -3.5532219890
H -3.2805768579 1.0529153629 -1.1142411172
H -3.0226803166 1.4437737105 1.3312763791
H 0.8869225251 3.0725042839 0.6708233681
H 0.6416242033 2.6743525187 -1.7789914936
