47
CONF17
C 2.9968355707 -0.3985035063 -4.9040296367
C 3.2307088737 0.0749756459 -3.5247539204
C 2.3989574530 0.3894210380 -2.4822409467
C 3.2994649060 0.7786142087 -1.4389744342
N 4.5516888172 0.7046345053 -1.8143786362
O 4.5071641732 0.2685948672 -3.1488654995
C 2.9525608822 1.1940893436 -0.0666681283
C 2.9485417866 2.5418461519 0.3191705592
C 2.5022677609 2.9436457460 1.5735181147
C 2.0380924097 1.9858934522 2.4654391984
C 2.0297650433 0.6376224021 2.1276015688
C 2.4907367042 0.2620543918 0.8746805389
Cl 2.4530770592 -1.4320976861 0.4403868737
Cl 3.4605960804 3.7621038736 -0.8189909993
C 0.9303932793 0.2499506186 -2.4621214820
O 0.3149945198 -0.4786194838 -3.2338810790
N 0.2897096031 0.9836263726 -1.4992165264
C -1.0760891803 0.6974113291 -1.1580042154
C -1.3205095048 -0.6342349906 -0.3794876146
N -1.5500869648 0.1680233833 0.8364527510
C -1.5305461196 1.3817929600 0.1540753249
O -1.8041000260 2.4990213537 0.5035182688
C -2.5815385798 -0.2607265192 1.7557505847
C -3.1573960992 -1.6205131655 1.2006901303
S -2.9182255413 -1.4849649344 -0.6510956965
C -4.6459114154 -1.7617939684 1.4978101145
C -2.3746243220 -2.8237115520 1.7315548946
C -2.0465734569 -0.4184635420 3.1713543986
O -0.8892502892 -0.5157527109 3.4913534823
O -3.0739562222 -0.4539494416 4.0572675987
H 3.4618061074 -1.3790836855 -5.0490283395
H 1.9244149921 -0.4856949899 -5.0759691379
H 3.4425893376 0.2938705794 -5.6250621833
H 2.5025783999 3.9954610461 1.8314846519
H 1.6651900456 2.2928451857 3.4363987565
H 1.6406120139 -0.1064382909 2.8105487259
H 0.8362700344 1.5182513437 -0.8404023473
H -1.7568110617 0.8430964981 -2.0006674833
H -0.4703121658 -1.3193933410 -0.3335782867
H -3.3821800037 0.4899368908 1.7774860444
H -5.2133803144 -0.9222059062 1.0876285895
H -4.8067238232 -1.8022283262 2.5792127891
H -5.0313551207 -2.6888076848 1.0637051548
H -2.7200247220 -3.7336678427 1.2362957494
H -1.2997107810 -2.7217247087 1.5586646735
H -2.5358459841 -2.9394698391 2.8102162776
H -2.6838640704 -0.5747361510 4.9379489589
