34
CONF2
C -3.0896867366 0.8965040269 -1.6648113973
N -2.2188046208 0.8028006511 -0.4813269959
C -1.7365336932 -0.4645136416 -0.0814298033
C -0.4203063155 -0.6426969364 0.3921735475
C 0.5204389935 0.4900376925 0.5392788284
C 1.9210402090 0.3038131495 0.0927230651
C 2.9607769079 0.9728297740 0.7512404467
C 4.2723596397 0.8286961719 0.3172521887
C 4.5620360266 0.0238742921 -0.7845794697
C 3.5331269862 -0.6402206533 -1.4479551954
C 2.2198745953 -0.5085962653 -1.0083857381
N 0.1834549691 1.6279516054 1.0389126835
C -1.1793376050 1.7775571016 1.5214762843
O -1.3071541668 2.9117115005 2.3348139030
C -2.0646829098 1.9269210779 0.2766515602
O -2.5524091887 3.0139531438 -0.0187199031
C 0.0141985166 -1.9320715219 0.7305127356
C -0.8429275519 -3.0076974820 0.5979640646
Cl -0.2869180089 -4.6117175482 1.0490200457
C -2.1360368112 -2.8476380007 0.1082036760
C -2.5724808101 -1.5776763096 -0.2296626472
H -4.1470361763 0.8277850864 -1.3880769262
H -2.9131259525 1.8580960465 -2.1483521025
H -2.8345762588 0.0900350182 -2.3528694024
H 2.7305618053 1.5925028891 1.6111692617
H 5.0732922873 1.3397575213 0.8422708325
H 5.5876602943 -0.0864196608 -1.1225405270
H 3.7521486532 -1.2617813086 -2.3103054070
H 1.4206858885 -1.0218960905 -1.5336236048
H -1.4971183503 0.9034722338 2.1120508195
H -1.5951955054 3.6377736472 1.7555893487
H 1.0235154908 -2.0751776500 1.0986072234
H -2.7980014596 -3.6993839611 0.0029152367
H -3.5828391472 -1.4485855998 -0.6001862349
