71
CONF389
C 5.3111617495 -2.8318517787 3.3935132828
C 6.1551523484 -2.9087533616 2.1522609708
C 5.9311964800 -2.0282631686 1.0795474737
C 6.6889200523 -2.0916234647 -0.1008702842
C 7.7124597194 -3.0417168546 -0.1711299583
C 7.9599412838 -3.9113093140 0.8848785660
C 7.1784452536 -3.8498135064 2.0349957136
C 6.4014587394 -1.1972863655 -1.2720511770
N 4.8793307902 -1.0832643350 1.2042401914
C 5.0293218531 0.2628894010 1.2113898997
O 6.1013199174 0.8511744954 1.0610256644
C 3.7426366117 1.0374482265 1.4866888502
N 2.5330071240 0.2400260385 1.3390493013
C 2.1177367726 0.1465380305 -0.0671876545
C 0.9161667823 -0.7748324514 -0.1951538669
N -0.2018639034 -0.2738646204 0.6082197945
C 0.2150623702 -0.1700055432 2.0094595669
C 1.4183290398 0.7499288248 2.1454138464
C -1.3727737959 -1.1427720858 0.4550880197
C -2.6476959371 -0.5719372152 1.0805217981
C -2.9467478909 0.8816820344 0.7055881477
C -3.0666407997 1.1141833432 -0.8086662988
C -4.2131422066 0.3168306038 -1.4101243902
C -5.5339942875 0.5646890762 -1.0218464195
C -6.5917759293 -0.1615788652 -1.5591449544
C -6.3040485842 -1.1404002438 -2.4968233547
C -5.0156583602 -1.4179184167 -2.9146870848
C -3.9721777608 -0.6772085297 -2.3602312232
F -7.3332975999 -1.8529378684 -3.0312026843
C -3.1903083680 2.5803477674 -1.1949559932
C -2.7933803760 2.9701131002 -2.4797313491
C -2.9136551105 4.2867270287 -2.9111587601
C -3.4434141650 5.2141945502 -2.0292737205
C -3.8474383135 4.8791729255 -0.7503759303
C -3.7163399911 3.5521205265 -0.3405393297
F -3.5644347249 6.5071221537 -2.4372852999
H 4.2658615217 -3.0884333881 3.1830509086
H 5.6819476171 -3.5238868545 4.1524071563
H 5.3126603598 -1.8190125233 3.8109101016
H 8.3080133981 -3.1055054998 -1.0776218784
H 7.3656714415 -4.5328198200 2.8587237825
H 5.3234063588 -1.0869434435 -1.4280631950
H 6.8498643873 -1.6048420897 -2.1809643546
H 6.8032248849 -0.1924429383 -1.1061700644
H 3.8222032873 1.3854023226 2.5250954429
H 3.7561838413 1.9378139428 0.8478960464
H 1.8613847593 1.1462647307 -0.4669474798
H 2.9486650304 -0.2513265616 -0.6616212643
H 1.2113504409 -1.7986122785 0.1135626853
H 0.6051284612 -0.8187892259 -1.2457381310
H -0.6071480102 0.2386897968 2.6058997416
H 0.4702282280 -1.1667677064 2.4238734126
H 1.7287607448 0.7873863140 3.1955730643
H 1.1325889068 1.7734126675 1.8353830122
H -1.1834763741 -2.1467895234 0.8851589812
H -1.5283624128 -1.2916715193 -0.6204895803
H -3.4802928038 -1.2139880865 0.7653360393
H -2.6027957212 -0.6494956794 2.1727093899
H -3.8766391645 1.1809061253 1.2028891646
H -2.1538930577 1.5331394612 1.0914511444
H -2.1439882187 0.7506192066 -1.2754498133
H -5.7465762564 1.3410616814 -0.2923304958
H -7.6187523625 0.0257182042 -1.2640364300
H -4.8344793370 -2.1910265117 -3.6537427436
H -2.9534630255 -0.8789982914 -2.6792392360
H -2.3816345460 2.2262157999 -3.1568726648
H -2.6017521864 4.5917118851 -3.9043523215
H -4.2525225845 5.6380148671 -0.0894821920
H -4.0299568649 3.2890817551 0.6637022469
H 8.7561868548 -4.6454436752 0.8083546031
H 3.9461547248 -1.3981313723 1.4589436530
