55
CONF12
C 6.6558125805 -2.5089862799 -2.6917016801
O 5.3907102906 -2.0007486880 -3.1380105473
C 4.4334921182 -1.7798046375 -2.1946826065
C 3.2114240184 -1.2868347384 -2.6729638300
C 2.1727281597 -1.0307792010 -1.7951858055
C 2.3204423850 -1.2583714887 -0.4209282688
C 3.5378423210 -1.7561825891 0.0399661249
C 4.5973289946 -2.0180287785 -0.8288007871
C 1.2307543906 -0.9514149151 0.5710840397
S -0.4458437693 -1.6235505554 0.0917944611
C -1.2894574413 -0.2321117492 -0.6369472645
C -1.7115942256 -0.3350704408 -1.9639826265
C -2.4523210473 0.6817614384 -2.5575862138
C -2.7511865296 1.8297266858 -1.8297210710
C -2.3275547395 1.9493977213 -0.5113267550
C -1.6165983347 0.9182543241 0.1057860731
N -1.2403514262 1.0572343411 1.4685294761
C -2.2773779241 1.3972797376 2.4630994547
C -2.9573792942 0.1662526042 3.0539178748
N -3.7200969922 -0.6108495012 2.0753807579
C -4.9335950565 0.0891798999 1.6509199715
C -4.0746553222 -1.9138376040 2.6427687943
C 0.0048956253 0.7692454920 1.9416318183
O 0.2618033715 0.6933689744 3.1430389713
C 1.1489087139 0.5315830504 0.9489035726
O 1.0860047043 1.3103141882 -0.2609734957
C 1.1244635100 2.6566730179 -0.1065716180
C 1.0938590746 3.3445696936 -1.4338194823
O 1.1840848527 3.1914690213 0.9810293263
H 6.5388143786 -3.4886079106 -2.2140354491
H 7.1347207195 -1.8116926379 -1.9945187754
H 7.2668590797 -2.6087733828 -3.5890230690
H 3.0954325837 -1.1137378663 -3.7382203039
H 1.2303929946 -0.6584231036 -2.1831726934
H 3.6715867146 -1.9471337055 1.1016506940
H 5.5255190836 -2.4089673234 -0.4306576952
H 1.4506390771 -1.4746178938 1.5078388286
H -1.4543321511 -1.2250050101 -2.5292447770
H -2.7772484023 0.5822286316 -3.5879318507
H -3.3030509533 2.6431747806 -2.2893281267
H -2.5413256211 2.8571088198 0.0434759133
H -3.0027853671 2.0576446042 1.9863676423
H -1.7975435897 1.9561594739 3.2699671390
H -2.1852173590 -0.4828230981 3.4811464605
H -3.5982304372 0.5094457757 3.8923583138
H -4.6873655112 1.0330172325 1.1550634288
H -5.6099424388 0.3096917196 2.4993996023
H -5.4769760250 -0.5313339567 0.9311902967
H -3.1658810396 -2.4573299684 2.9214952568
H -4.7147625378 -1.8234614923 3.5415418995
H -4.6165369530 -2.5049731149 1.8973122139
H 2.0642079081 0.7978740352 1.4876731752
H 0.3197915031 2.9061109292 -2.0688906549
H 0.9192989861 4.4105334913 -1.2935067053
H 2.0573905872 3.1941532596 -1.9325998200
