57
CONF283
C -0.4611471521 -1.1730569885 -4.4447508855
C -1.1037288420 0.1296190275 -3.9560368287
C -0.2028002897 0.8198191326 -2.9401255575
O 0.8518838678 1.3127282203 -3.3303288594
N -0.6020897658 0.8629270042 -1.6160519371
C -1.8666442024 0.2891707572 -1.2517794015
C -1.9824941601 -1.0952599031 -1.1204983258
C -3.2117693456 -1.6712906729 -0.8204692308
C -4.3310147275 -0.8658457497 -0.6295775757
C -4.2150447167 0.5158171278 -0.7528286637
C -2.9901447811 1.0950921544 -1.0698642602
C 0.1957936191 1.6732626224 -0.6232488571
C -0.4121877743 1.6166718345 0.7908626305
C -0.2318662484 0.2877689946 1.5181120646
N 1.1758937381 -0.1234382726 1.5565186204
C 1.6956564668 -0.2162295387 0.1898765265
C 1.6359640202 1.1331023218 -0.5084819157
C 1.3054824955 -1.3866976937 2.2777437380
C 2.7544727061 -1.6973359727 2.6842639716
C 2.8467283282 -2.9011968040 3.5643378781
C 3.1519378101 -2.9617037895 4.8983055492
C 3.1169511260 -4.2774164116 5.4347774229
C 2.7820604576 -5.2210786242 4.5062459561
S 2.5030996854 -4.5004765106 2.9546543364
C 0.2559730502 3.1364795433 -1.0814550576
O -1.0620981184 3.6652314585 -1.1637065252
C -1.0637576952 4.9903885945 -1.6683332852
H -1.0457460924 -1.6052089171 -5.2616526425
H -0.4068859120 -1.9140839708 -3.6410819372
H 0.5529293317 -0.9816474573 -4.8047139414
H -1.1719020342 0.8311927597 -4.7940109284
H -2.1134881127 -0.0529811585 -3.5865191513
H -1.1026147726 -1.7145641350 -1.2615360648
H -3.2924314427 -2.7495512198 -0.7277268288
H -5.2896780808 -1.3135575619 -0.3888867784
H -5.0860163537 1.1484466737 -0.6134278481
H -2.8864002028 2.1678099044 -1.1892566805
H -1.4677254497 1.8941889368 0.7810963053
H 0.1120768279 2.3883006086 1.3666006196
H -0.8628797119 -0.4945376607 1.0576563480
H -0.5823207410 0.4101443755 2.5505260518
H 1.1401965184 -0.9736873486 -0.4036001673
H 2.7393520457 -0.5441063331 0.2233338818
H 2.2101986759 1.8521050203 0.0889496626
H 2.0916497678 1.0707704919 -1.4968253332
H 0.7075426772 -1.3192341759 3.1949128922
H 0.8946268717 -2.2377757361 1.6952094647
H 3.3801250980 -1.8342973810 1.7951739489
H 3.1555066704 -0.8364014711 3.2294997379
H 3.4005570665 -2.0791627182 5.4767215593
H 3.3341340937 -4.5148523554 6.4691381776
H 2.6820570136 -6.2893469576 4.6370845080
H 0.8437043285 3.7037060172 -0.3397247372
H 0.7599958699 3.2066784314 -2.0532317324
H -0.5040928568 5.6722076947 -1.0089553115
H -0.6226650815 5.0345783561 -2.6757578980
H -2.1049163738 5.3186934180 -1.7171572702
