74
CONF63
C -0.5346715939 -0.8863239237 -0.4780011740
C 0.3525800577 -1.9547463529 -1.1058225655
O -0.5083240321 -3.1318300575 -1.1779475874
C -1.5199722675 -3.0420237344 -0.2663061648
O -2.3019581818 -3.9388087340 -0.0895751012
C -1.3972385148 -1.7160872654 0.4559394758
C -2.6510778585 -0.9423683812 0.8691388231
C -3.6319762215 -0.7208855522 -0.2787204499
C -3.6948902426 0.4974645890 -0.9569399127
C -4.5831341158 0.6441485939 -2.0190191738
O -4.7488424159 1.7924689246 -2.7587155655
C -3.9663537403 2.9229458635 -2.3911592327
C -5.4062456254 -0.4074238612 -2.4276054074
O -6.2750664328 -0.2682220736 -3.4671229483
C -5.3380227961 -1.6283581805 -1.7444613187
O -6.1658691839 -2.6026243100 -2.2067162292
C -6.0600666149 -3.8846585457 -1.5891436394
C -4.4620287178 -1.7729955979 -0.6685076292
C -2.1823124699 0.3692377057 1.4804284434
C -3.0795717546 1.0331373982 2.3413845848
C -2.6871672095 2.2320455908 2.8783131318
C -1.4509875686 2.7982954303 2.5820051651
O -1.3344000317 4.0139226718 3.2125025695
C -2.4413858697 4.0603965590 4.1272856164
O -3.3932175439 3.0682905863 3.7061402327
C -0.5665904987 2.1856927893 1.7349050648
C -0.9410642248 0.9450344938 1.1737400788
C 0.0887126217 0.2701374062 0.2829998176
O 1.1699101632 -0.2105163280 1.1282760948
C 2.4199023615 0.2913747499 0.8246341993
O 2.8702399879 -0.3203373930 -0.4001166319
C 4.1678077437 0.1342235980 -0.7626809837
C 4.5806360929 -0.4605754157 -2.0983460468
O 5.9300933272 -0.0682081212 -2.3618959199
C 6.8228400964 -0.4969378953 -1.3474622134
C 8.2083030992 -0.0398827241 -1.7166572386
O 6.4866002251 0.0726309261 -0.0817965902
C 5.1678306136 -0.3199489123 0.2962477103
C 4.8046696957 0.3167164279 1.6181705266
O 5.6191333064 -0.1363147381 2.6978766799
C 3.3643640171 -0.0439365936 1.9796043027
O 2.9302287534 0.6945396996 3.1100730716
H -1.1880993151 -0.4641091929 -1.2539485743
H 0.6839012631 -1.7310723056 -2.1215721055
H 1.2152926306 -2.1938257923 -0.4792312671
H -0.8169238474 -1.9363280370 1.3674580286
H -3.1719900602 -1.5165554904 1.6449837180
H -3.0712553529 1.3228490399 -0.6378342230
H -4.2481541931 3.7208724291 -3.0795824213
H -4.1793788757 3.2341949068 -1.3604658378
H -2.8938664624 2.7125428649 -2.4941995657
H -6.1785658414 0.6368725681 -3.7935069403
H -6.7449556156 -4.5320956973 -2.1381738823
H -5.0383525834 -4.2780651954 -1.6596622713
H -6.3629051006 -3.8442372853 -0.5347061375
H -4.3969611719 -2.7143663256 -0.1401497667
H -4.0523797966 0.6062100006 2.5600601216
H -2.0863776132 3.8140324220 5.1398486036
H -2.9061722217 5.0487726709 4.0856111880
H 0.3978857836 2.6302598959 1.5163002882
H 0.5053869940 1.0072304871 -0.4174720598
H 2.3946549526 1.3896943456 0.6757950513
H 4.1944832491 1.2352736371 -0.8363466119
H 3.9705561139 -0.0812376126 -2.9219410421
H 4.4886704255 -1.5588970617 -2.0588799894
H 6.7534607590 -1.5989971779 -1.2561568048
H 8.2233216022 1.0500002690 -1.7928817420
H 8.4948047408 -0.4703309479 -2.6781965814
H 8.9203802571 -0.3579329887 -0.9523495043
H 5.1145806825 -1.4198413549 0.3883891612
H 4.8799772242 1.4131191652 1.5162101888
H 6.5333510607 0.0820813786 2.4806386258
H 3.3020864946 -1.1295865405 2.1613168114
H 3.6021266733 0.5747847185 3.7931724892
