28
CONF3
C 1.1442497277 0.9023886088 -0.9690874011
N 0.1680504905 1.8946519630 -0.5629495930
C -1.0585897651 1.5257220188 0.1771100066
N -1.3954151616 0.1397607824 -0.0253676065
C -1.1442832177 -0.9021849443 0.9691759364
N -0.1680147770 -1.8945191393 0.5633129771
C 1.0582504505 -1.5256442125 -0.1773986864
N 1.3954353898 -0.1397852019 0.0252003117
N 2.0732015057 0.2143503423 1.1957180977
O 2.3890992958 1.3901298253 1.2933367441
O 2.2570554811 -0.6747530185 2.0112409375
N -0.6231299625 -3.1958437380 0.3009296478
O -1.6688694162 -3.5447372331 0.8152421654
O 0.1254024051 -3.8790961379 -0.3854412276
N -2.0726778847 -0.2147405644 -1.1960486572
O -2.3884662936 -1.3905688328 -1.2934659219
O -2.2562758191 0.6741230943 -2.0118983439
N 0.6230631664 3.1959194668 -0.3003210357
O -0.1256881556 3.8790788938 0.3859241735
O 1.6689807833 3.5448820028 -0.8142267595
H 2.0604595168 1.4467358444 -1.2121636971
H 0.7905968548 0.3806811312 -1.8643295578
H -1.8741762970 2.1669519605 -0.1639967519
H -0.9171419569 1.6837953970 1.2526950615
H -2.0604894937 -1.4464948983 1.2123537267
H -0.7906795156 -0.3802488223 1.8643024830
H 1.8738908416 -2.1671209769 0.1631007350
H 0.9161613944 -1.6834335213 -1.2529477643
