61
CONF125
C -4.5631805062 1.1705238013 -3.7948058314
C -4.6990659688 -0.0003069976 -2.8226695861
C -4.2756276166 0.3747184978 -1.4030648296
C -4.3719865925 -0.7845131701 -0.4033827963
C -3.2720814434 -1.8539070779 -0.6113142247
C -2.1822203793 -1.5240459038 0.4526654286
N -2.6432392963 -0.2963768996 1.1084821139
C -4.1083863022 -0.3343181581 1.0338093050
C -2.1252269129 -0.1431830590 2.4651312078
C -0.8130001615 -1.3648084103 -0.1870915511
O -0.1109531552 -2.3627604493 -0.4400929517
N -0.4672362589 -0.1135056300 -0.5035986634
C 0.8165818169 0.2544332799 -1.0666823431
C 1.9505257180 0.3021276418 0.0003734409
C 3.0282578142 -0.7608596865 -0.1852826988
C 4.1285576182 -0.5489869913 0.8710695989
C 3.5156757195 -0.4728734875 2.2761622481
C 2.2984223420 0.4660765391 2.3443678194
O 1.3684311355 0.1990868958 1.3063279110
S 2.7690538816 2.2627213515 2.4330333459
C 1.1432066797 2.8876721272 3.0056834682
O 3.1109818102 -1.7750354996 2.6993900231
O 4.8330005421 0.6703341169 0.6443174045
O 2.5492933153 -2.0956669448 -0.0191131265
C 0.6377212206 1.6058361331 -1.7842680109
C 1.8634055593 2.0336121862 -2.5752236261
O 0.2114762094 2.6149976606 -0.8551392379
H -3.5228536758 1.5107321052 -3.8501449881
H -4.8810545887 0.8931014513 -4.8047460631
H -5.1740854508 2.0202357513 -3.4701702798
H -5.7400949765 -0.3496430646 -2.8045326720
H -4.0964064757 -0.8436558354 -3.1831777984
H -4.9128361659 1.1974225718 -1.0509998209
H -3.2467703656 0.7598428679 -1.4180680057
H -5.3672857813 -1.2365917857 -0.4845022514
H -3.6575390161 -2.8613083927 -0.4387076995
H -2.8641967048 -1.8285580742 -1.6255814227
H -2.0930518380 -2.3623261560 1.1651452103
H -4.5270323938 -1.0668946668 1.7511243119
H -4.5299934076 0.6506253848 1.2652484550
H -1.0302774783 -0.1107470452 2.4444360524
H -2.4386763807 -0.9714525346 3.1270175782
H -2.4863771727 0.7981534598 2.8921205312
H -1.0625550664 0.6191892898 -0.1284001515
H 1.0792062433 -0.4932413724 -1.8258769751
H 2.4661413459 1.2706318491 -0.0660894055
H 3.4684595628 -0.6278227193 -1.1894335929
H 4.8119593043 -1.4102170895 0.8483145800
H 4.2767112935 -0.1233693216 2.9820321375
H 1.7600106566 0.2497392374 3.2726933429
H 1.2209793175 3.9749644684 3.0761541797
H 0.3661823601 2.6280103299 2.2818625615
H 0.8968782367 2.4752337558 3.9878248021
H 2.6795897555 -2.1842644261 1.9266861227
H 5.2739359122 0.6076623049 -0.2129259480
H 1.5978843748 -2.1525015879 -0.2829381998
H -0.2089384714 1.4884063670 -2.4713636577
H 2.7263750113 2.2139377185 -1.9248963763
H 2.1365538004 1.2608129512 -3.3007252624
H 1.6458828307 2.9583204654 -3.1159517723
H 0.9713095642 2.8724809010 -0.3137787988
