52
CONF128
C -2.3609883306 4.5615523261 0.0030398616
C -1.5608943008 3.6192453182 0.9044725186
C -0.7699093533 4.4096164483 1.9473466543
C -0.5945158488 2.7664147687 0.0548234829
C 0.2293194787 1.7607187053 0.8456306102
C -0.3743064148 0.8560601043 1.7239791867
C 0.3823246611 -0.0805662082 2.4185029354
C 1.7576635263 -0.1089277295 2.2235809018
C 2.3883411990 0.7705542364 1.3533728950
C 1.6127562339 1.7000924038 0.6658524211
Cl 2.7213164435 -1.2929405097 3.1007551120
C -1.2727453940 1.9658393670 -1.0394567498
O -0.8603828809 1.8382573419 -2.1691060737
O -2.3765867820 1.3232615385 -0.5655132028
C -2.8628496793 0.2242247133 -1.3964121581
C -4.2986735097 0.1405951653 -1.1501673350
N -5.4350994003 0.0531937306 -0.9673270293
C -2.1181861690 -1.0331552708 -1.0144509158
C -1.0238418700 -1.4156432396 -1.7867549349
C -0.2432920371 -2.4897859282 -1.3710450122
C -0.5471372083 -3.1881539530 -0.2036565050
C -1.6484410190 -2.7971543472 0.5511941295
C -2.4363222100 -1.7212904359 0.1567730950
O 0.7854379071 -2.8610227628 -2.2093684093
C 1.9611075083 -3.3496447737 -1.6559954013
C 2.5487921408 -4.4423992779 -2.2830889887
C 3.7717203270 -4.9152392186 -1.8137531299
C 4.3938887465 -4.3046263561 -0.7272077995
C 3.7898141240 -3.2091863973 -0.1118152007
C 2.5708412424 -2.7212574654 -0.5729635233
H -1.6867365619 5.2353680167 -0.5384851867
H -3.0416623519 5.1743023990 0.6016082059
H -2.9613914454 4.0150076729 -0.7320689615
H -2.2577510603 2.9488700374 1.4207233829
H -0.2165265696 3.7489108332 2.6213445539
H -1.4465111412 5.0236012017 2.5493039596
H -0.0517683385 5.0768934017 1.4560764525
H 0.0953488581 3.4401602844 -0.4643583609
H -1.4481604227 0.8702094876 1.8726402979
H -0.0929387029 -0.7790847747 3.0978317179
H 3.4625347758 0.7328312690 1.2112216517
H 2.0978842280 2.3895909969 -0.0186954449
H -2.7038980626 0.4707441700 -2.4520243531
H -0.7641064855 -0.8838612904 -2.6954973673
H 0.0639554767 -4.0296641978 0.1042537002
H -1.8932572409 -3.3422987957 1.4568827112
H -3.2855557027 -1.4152466081 0.7597144360
H 2.0488022822 -4.9068184190 -3.1265545160
H 4.2350760286 -5.7682647117 -2.2994175562
H 5.3452633027 -4.6776522212 -0.3627048605
H 4.2715979209 -2.7217531709 0.7296884156
H 2.1006502465 -1.8632153630 -0.1027247098
