46
CONF10
C 0.0225533870 2.7667359753 -0.7143284900
C -0.9735784279 1.8038719827 -1.3554123399
C -2.3764269916 1.9574833520 -0.7677598947
C -3.4223197610 1.1114556746 -1.4648127677
O -3.1076862525 -0.3145715134 -1.3407107580
C -3.5759737069 -0.9457437776 -0.2632017013
O -4.2610997945 -0.4472631721 0.6072922324
C -3.2265518522 -2.4335198422 -0.2745981774
C -4.3229021383 -3.1991145471 -1.0012575525
O -2.0016667429 -2.7128209337 -0.9583218455
C -0.8295729093 -2.3289198932 -0.3665550406
C -0.7402409907 -1.6468649920 0.8504635669
C 0.5140433640 -1.3463583656 1.3788914240
C 1.6548346267 -1.7159895772 0.6852556814
C 1.5786104936 -2.3720595463 -0.5364053467
C 0.3321639734 -2.6799584914 -1.0614804530
O 2.9209924062 -1.5201031399 1.2534485977
C 3.3953905339 -0.2545280339 1.3684194126
C 4.5482884883 -0.0938132685 2.1499916486
C 5.1436265183 1.1302094473 2.3361325424
C 4.5689708703 2.2535355356 1.7182973750
C 3.4202960670 2.1153672982 0.9283933715
C 2.8400148999 0.8683476853 0.7555692564
C 5.1611247004 3.5311964796 1.8950007802
N 5.6430006984 4.5763315081 2.0362066381
F 5.0804310886 -1.1872050750 2.7315529717
H -0.2994756533 3.8057514648 -0.8449681886
H 0.1135958650 2.5779789455 0.3616734174
H 1.0159892884 2.6651598678 -1.1625920615
H -1.0178305966 1.9831125802 -2.4375955098
H -0.6306050335 0.7699578575 -1.2205912280
H -2.3680478916 1.7234506560 0.3044528434
H -2.7006483315 3.0027538208 -0.8605651291
H -4.4236253569 1.2843505730 -1.0637785344
H -3.4198084701 1.2872968989 -2.5433602394
H -3.1641189818 -2.7637234368 0.7693259224
H -4.1066787035 -4.2692919259 -0.9601794016
H -5.2849253682 -3.0142111395 -0.5172468661
H -4.3798640412 -2.8813896588 -2.0458781010
H -1.6206601616 -1.3574762899 1.4113903460
H 0.5967738294 -0.8331850939 2.3316037604
H 2.4873015111 -2.6481126389 -1.0606637647
H 0.2436169451 -3.2036121601 -2.0073903872
H 6.0327418745 1.2121891251 2.9507872555
H 2.9869464322 2.9856779966 0.4493636506
H 1.9530005924 0.7576216983 0.1431637920
