44
CONF38
C 4.0940117821 3.6480491464 -1.2159963642
C 3.0545592510 2.6112561325 -1.4802376551
N 1.8284282270 2.8378831210 -0.9822161683
C 0.9348699006 1.8678973686 -1.2012811748
N 1.1984772521 0.7329202217 -1.8730285672
C 2.4422721054 0.6287738460 -2.3363529827
N 3.4195184538 1.5266501563 -2.1718756821
O 2.7908455539 -0.4440380981 -3.0380701684
C 1.7672891110 -1.4312355790 -3.3223880692
N -0.3428170801 2.0871326909 -0.7042255526
C -0.6045883802 3.4053346235 -0.0921637894
C -1.4085341841 1.1548600652 -0.6493872448
O -2.4749234563 1.4407719906 -0.1274908370
N -1.1652869880 -0.0791309030 -1.2010641512
S -2.2129745567 -1.3952993321 -0.9705334522
O -3.4717455723 -1.1260466551 -1.6695502700
O -1.3924598735 -2.5533150567 -1.3560038465
C -2.5707270670 -1.4977071107 0.7901246181
C -3.8370358695 -1.0918709696 1.1995186349
C -4.2192701715 -1.2759773160 2.5232898250
C -3.3478995994 -1.8861364790 3.4197629396
C -2.0916525736 -2.3065693753 2.9982999885
C -1.6770292195 -2.1044942980 1.6807106028
C -0.2970112729 -2.5753273576 1.3444483352
O 0.0931430146 -3.7000357927 1.5728599958
O 0.4650106524 -1.5870650742 0.8595458573
C 1.8430013067 -1.9514599517 0.5789290263
H 3.6531966826 4.6464728227 -1.2395541949
H 4.4996301309 3.4899920099 -0.2091255147
H 4.9121897614 3.5682242579 -1.9320699150
H 1.4060103728 -1.8857402140 -2.3968151856
H 2.2649215607 -2.1778769110 -3.9392136153
H 0.9384925630 -0.9720191906 -3.8669322908
H -0.2983257289 4.1924134201 -0.7814801194
H -0.0455715826 3.5075268967 0.8411109936
H -1.6704903401 3.4749555204 0.1066503181
H -0.2140283804 -0.2738819181 -1.5521162449
H -4.5159517712 -0.6462186279 0.4833847279
H -5.2031836935 -0.9532495682 2.8457492402
H -3.6468681624 -2.0423816762 4.4507891362
H -1.4114682321 -2.7897042395 3.6917105868
H 2.3066715107 -1.0443748301 0.1941697127
H 2.3339130700 -2.2768275124 1.4987829186
H 1.8733914135 -2.7531296823 -0.1621872056
