40
CONF2
C -4.1211841894 -3.1247725273 -1.4731278958
C -3.3595386825 -1.9179661188 -1.0030425309
C -2.3700555793 -2.0379628941 -0.0213050622
C -1.6777471375 -0.9297850298 0.4410852155
C -1.9494722004 0.3432880640 -0.0767844498
C -2.9396794519 0.4709204216 -1.0554153223
C -3.6323541618 -0.6454214060 -1.5080747588
C -1.2579915304 1.5337920287 0.4157387994
C -1.7876526893 2.7527839158 0.8015903767
C -0.6919970086 3.4823933391 1.2896425716
N 0.4452882236 2.8000879718 1.2195345581
N 0.0929344207 1.6153107439 0.6787801139
C 1.1199607423 0.6844155774 0.3729585214
C 2.1516390741 0.5003273589 1.2926931557
C 3.1666016299 -0.4009132756 1.0072823221
C 3.1328279674 -1.1028253666 -0.1930978585
C 2.1093300782 -0.9207757619 -1.1155088562
C 1.0989029121 -0.0115799618 -0.8347581179
S 4.4347312667 -2.2871004566 -0.5524912347
O 4.9868154804 -2.7370038455 0.7304192992
O 3.9185774251 -3.2120856436 -1.5683475133
N 5.6256596366 -1.3227538780 -1.3018362632
C -0.7024903615 4.8499114462 1.8904166733
F -0.6805763530 4.8051662768 3.2460603895
F 0.3510115562 5.5928125019 1.5024303506
F -1.8308594016 5.5092762723 1.5343441325
H -4.8691754359 -3.4233976867 -0.7295029188
H -4.6453617307 -2.9256306636 -2.4107708865
H -3.4549904483 -3.9791181528 -1.6246561117
H -2.1452279895 -3.0168363839 0.3930432421
H -0.9262672196 -1.0482831187 1.2150549622
H -3.1525795566 1.4502254849 -1.4728803463
H -4.3937308273 -0.5260993684 -2.2735549579
H -2.8258542658 3.0424149251 0.7783588633
H 2.1469016094 1.0619955517 2.2189635271
H 3.9667598066 -0.5756482385 1.7174521380
H 2.1042398118 -1.4850677529 -2.0409199329
H 0.2991165774 0.1552560738 -1.5461027193
H 5.7810056733 -1.6547210996 -2.2491796188
H 6.4824825249 -1.3646298314 -0.7577866617
