46
CONF10
C -3.5035264143 -0.7881293051 -2.0859346814
C -3.2179357642 -0.7707702382 -0.6031167647
C -1.9329719273 -1.3661743493 -0.0759361837
C -2.1607889801 0.1572461140 -0.0165649302
C -1.3584484959 1.0794880958 -0.8390437317
O -0.9560958324 0.8993384704 -1.9736373386
O -1.0951002219 2.2094561199 -0.1298237844
C -0.2398409152 3.1900367578 -0.7584176322
C 1.2173939103 2.9482415815 -0.4526146169
C 1.6754124235 1.7008521402 -0.0375701715
C 3.0311725451 1.5193805366 0.2277447648
C 3.9418333827 2.5589067524 0.0635866801
C 3.4755421671 3.7976139477 -0.3660828685
C 2.1216148112 4.0013050920 -0.6151640560
O 3.5533907005 0.2967470101 0.6022189590
C 2.7403709714 -0.6240600784 1.2481874442
C 1.9625824631 -0.2662231369 2.3474837637
C 1.2161877082 -1.2475739093 2.9929118723
C 1.2585017507 -2.5714412676 2.5572549306
C 2.0552178984 -2.9135601876 1.4676284844
C 2.7965710580 -1.9398940227 0.8026756464
C -0.9231653229 -1.9474791962 -0.9672473416
C -0.5136846598 -3.2138404505 -0.9064173521
Cl 0.7076239123 -3.8529457962 -1.9762982814
Cl -1.1378877945 -4.3856551209 0.2227977376
C -4.4482608528 -0.9569276464 0.2582402582
H -2.6077107641 -0.6624195132 -2.6923853256
H -3.9715438444 -1.7438136819 -2.3460671425
H -4.2070873700 0.0123294248 -2.3386443066
H -2.0133064409 -1.8413649584 0.8977856586
H -2.3725205941 0.5361381095 0.9771766565
H -0.5575865202 4.1518768708 -0.3491977570
H -0.4159817147 3.1883665311 -1.8390013572
H 0.9911940224 0.8716007229 0.0944246245
H 4.9925835017 2.3907219777 0.2741437301
H 4.1767771411 4.6167743557 -0.4908897742
H 1.7648086639 4.9775950704 -0.9299801842
H 1.9403071512 0.7637158947 2.6881409060
H 0.6056871103 -0.9744844581 3.8480508456
H 0.6742196565 -3.3313076686 3.0654991990
H 2.0932417607 -3.9414918983 1.1211712032
H 3.4142639262 -2.1881531087 -0.0541982934
H -0.4768576626 -1.3226632316 -1.7341718515
H -4.1979772250 -0.9548653753 1.3226123553
H -4.9311588457 -1.9101925011 0.0173601034
H -5.1670591825 -0.1523004651 0.0683335165
