63
CONF121
C 6.2293390780 -2.3539483857 -4.5654133816
C 6.8632039577 -2.1257837592 -3.1958424760
N 5.8679517056 -1.7538499361 -2.1841954326
C 5.3249616891 -0.3950795908 -2.1938053464
C 4.9661617718 0.0222048197 -0.7893380736
N 3.9877249020 -0.9253619272 -0.2198838996
C 4.1043408798 -2.2609723710 -0.5175305858
O 3.3541189368 -3.1374533932 -0.1051061403
C 5.2849564855 -2.7032452855 -1.4279777485
O 5.6002600929 -3.8902491648 -1.4174203390
C 3.0552103816 -0.3660977018 0.7190989339
O 3.1147388070 0.8282083120 0.9944483244
N 2.1563728223 -1.2101830447 1.2586565475
C 1.1413450701 -0.6812806577 2.1474579847
C 0.2364673841 -1.7901245027 2.6419693593
C -0.4258454520 -2.6203346614 1.7328366894
C -1.2755719163 -3.6211460925 2.1932129634
C -1.4779536220 -3.7943365963 3.5613824875
C -0.8254485444 -2.9637358488 4.4687053031
C 0.0303827937 -1.9650682417 4.0105247823
C 0.2751954554 0.3625029776 1.4053839602
O 0.0253914299 0.2822969053 0.2079470317
N -0.2360883881 1.3332717323 2.2001891612
C -1.1199664928 2.3318917485 1.6854992831
C -2.4954415084 1.9381201903 1.0596482229
N -2.1011647345 2.6658823887 -0.1592930687
C -0.8335609538 2.9865526387 0.3116236064
O 0.0848923717 3.5909240564 -0.1878338686
C -3.0858765099 3.5007943367 -0.8207088846
C -4.4635920632 3.1241887565 -0.1613863941
S -4.0332439162 2.7534577283 1.6264107797
C -5.0115436666 1.8705260192 -0.8460897567
C -5.4909669080 4.2483331481 -0.2034047269
C -2.7634240080 4.9801586290 -0.6318139653
O -3.1267853309 5.6863896733 -1.7166908857
O -2.2790785934 5.4642820846 0.3649741078
H 5.7324285921 -1.4495112866 -4.9287217357
H 5.4942401268 -3.1627673733 -4.5182966587
H 7.0035830009 -2.6304961339 -5.2868091196
H 7.3629100633 -3.0317652778 -2.8469445623
H 7.6024572059 -1.3190628396 -3.2394703573
H 4.4507564923 -0.3248063970 -2.8558798577
H 6.0963633850 0.2793972115 -2.5749644590
H 5.8580845906 0.0605567027 -0.1520015202
H 4.5054671608 1.0094675917 -0.8017057666
H 2.1506407113 -2.1802263632 0.9612236803
H 1.6195051021 -0.1944269043 3.0058707262
H -0.2818684664 -2.4793985393 0.6654467920
H -1.7837092440 -4.2646174862 1.4819133500
H -2.1419056925 -4.5752202974 3.9184611592
H -0.9769184425 -3.0955780997 5.5354244471
H 0.5443918270 -1.3212132762 4.7185752142
H -1.2481405854 3.1256251615 2.4268114737
H -2.6314215234 0.8635991813 0.9079809319
H -3.1560896625 3.2894365099 -1.8933584392
H -5.9187902420 1.5364021658 -0.3371141869
H -4.2863630505 1.0522446993 -0.8434644561
H -5.2601269235 2.1055201237 -1.8872450817
H -6.4233085931 3.9092623726 0.2561547976
H -5.7032569711 4.5130476997 -1.2441178192
H -5.1483812799 5.1411362492 0.3270126243
H 0.0196775942 1.3674564958 3.1756811995
H -2.9605251020 6.6287735977 -1.5393971436
