34
CONF3
C -1.5819397065 -0.6834862859 2.5935451977
C -1.4334263565 -0.1126854696 1.3377139578
C -0.2164992312 -0.1166294592 0.6466100649
C 0.8623723900 -0.7361990865 1.2833087212
C 0.7560824612 -1.3199652489 2.5429891267
C -0.4742383954 -1.2808704274 3.1813404605
Cl -0.6264493035 -2.0085002496 4.7715342174
Cl 2.4432321984 -0.8215537328 0.5126620002
C -0.1173881512 0.5412387410 -0.7106976792
C -0.4870142365 2.0361806961 -0.6484875389
N 0.3377638666 2.7332567987 0.3247470845
C 0.0044151381 3.1644083920 1.5568832602
N 1.0715639529 3.6593810220 2.1744647027
C 2.0569147982 3.4886649459 1.2491670923
N 1.6621600414 2.9265576912 0.1128947790
C -1.0188035520 -0.1364854057 -1.7404573780
O -0.6916225618 -1.5578088185 -1.8230771423
C 0.0599416426 -1.9458908383 -2.8609922289
C 0.4200842988 -3.4375465439 -2.7416027148
F 1.0796583368 -3.6394857436 -1.5646565234
F -0.7304265876 -4.1693969092 -2.7103893832
F -0.5759628817 -1.7623088327 -4.0702129725
F 1.2355236130 -1.2348314509 -2.9664209050
H -2.5380465722 -0.6618787750 3.1028512039
H -2.2996406900 0.3566772744 0.8810656689
H 1.6128952312 -1.7914752431 3.0080872932
H 0.9112858006 0.4767060757 -1.0697739422
H -1.5303246241 2.1794582102 -0.3529968825
H -0.3382936793 2.4978182368 -1.6292990139
H -1.0045030986 3.1049572203 1.9443240101
H 3.0854838274 3.7874259879 1.4086152729
H -2.0698320155 -0.1021555756 -1.4443679055
H -0.9112203008 0.3340786325 -2.7220285996
H 1.0462546438 -3.7676559240 -3.5773429074
