35
CONF234
C -0.3681970487 3.0997427465 1.1092982332
C 0.5713388123 2.2512714400 1.9477245296
O -0.1592863996 1.1549770746 2.5088521153
C 0.6625886216 0.1386145423 3.0659567916
C 0.8821150411 -1.0098091327 2.1012095922
O 1.6801003087 -0.5549538926 1.0167540648
C 2.1158913287 -1.5832162915 0.1393358329
C 1.0072186791 -2.3158311020 -0.5922945942
O 0.2965051894 -1.4019135335 -1.4079373200
C -0.8596928361 -1.9907269322 -1.9888375495
C -1.5643268910 -0.9739177371 -2.8632105990
O -2.1781466309 0.0738588934 -2.1330156013
C -1.3716301545 1.2294370804 -1.8844496811
C -1.1933930230 1.4234908128 -0.3887709339
O -0.5087457110 2.6663204386 -0.2342955939
H -1.3496649618 3.1516342304 1.6105283170
H 0.0395822247 4.1144898407 1.0431404945
H 1.3952346628 1.8929206888 1.3165325219
H 0.9891656362 2.8655740968 2.7643691963
H 0.1414322481 -0.2529343936 3.9495745118
H 1.6310845663 0.5467848718 3.3925075623
H -0.0996489849 -1.3637105151 1.7499045384
H 1.3836192973 -1.8411802128 2.6304018386
H 2.7147175312 -2.3304961886 0.6899735232
H 2.7647346821 -1.0886789502 -0.5905069594
H 0.3237032105 -2.8115918424 0.1175134911
H 1.4678160462 -3.1115398678 -1.2057100598
H -1.5475149736 -2.3383084021 -1.1996686547
H -0.5787218232 -2.8617552559 -2.6092961065
H -0.8594108318 -0.5767467269 -3.6094510367
H -2.3678981352 -1.4939271040 -3.4008630526
H -1.8823958992 2.1047369768 -2.3085660751
H -0.3871545079 1.1383848665 -2.3595048561
H -2.1759346860 1.4580720710 0.1090761967
H -0.6150840799 0.5909268065 0.0298198264
