43
CONF43
C 4.4829130467 -2.3673372503 -0.4222909163
C 3.0821732857 -2.7484033100 -0.0037988042
O 2.2855367759 -1.5389810564 -0.0761565727
N 0.9861399316 -1.8270847283 0.3124201717
C 0.2168596951 -0.8036877644 0.2781726879
C -1.2017793284 -0.9374140937 0.6530235280
C -1.5793897408 -1.5184560964 1.8847012550
C -2.9317041715 -1.6256305167 2.2173570001
C -3.9068268911 -1.1484055469 1.3504953673
C -3.5424252205 -0.5608403546 0.1497002640
C -2.1966470345 -0.4425051942 -0.2056142165
O -1.8605769581 0.2134126528 -1.3554541517
C -1.4713821502 -0.6461243779 -2.4512072212
Cl -4.7754766299 0.0421411736 -0.9404471948
O -0.5768440204 -1.9114859517 2.7027610490
C -0.9279920121 -2.4506198636 3.9860592462
O 0.6828123680 0.3872663983 -0.2450239843
C 0.2334562778 1.5818792908 0.2743517434
O -0.2851556249 1.6655011795 1.3634250112
C 0.5037831847 2.7043615791 -0.6435077626
C 0.9780095104 2.5041794793 -1.9456579690
C 1.1958278733 3.5976668049 -2.7748349083
C 0.9472322622 4.8884367906 -2.3112108681
C 0.4761325576 5.0892528243 -1.0139894449
C 0.2523531577 4.0016410373 -0.1811914914
H 5.1230960410 -3.2532279051 -0.3835891369
H 4.4933621976 -1.9783821903 -1.4445032583
H 4.8994516733 -1.6109823740 0.2490553622
H 2.6488848689 -3.4996199940 -0.6747423660
H 3.0551018831 -3.1290969935 1.0240683961
H -3.2400800438 -2.0675662293 3.1553568482
H -4.9547064852 -1.2348676388 1.6151463356
H -1.2331747340 0.0177780433 -3.2829459605
H -2.3020677451 -1.3069824046 -2.7220098448
H -0.5905987111 -1.2430889510 -2.1895310668
H 0.0204362433 -2.6767860045 4.4730609251
H -1.4844178577 -1.7172376442 4.5804758675
H -1.5155591655 -3.3688420498 3.8767861680
H 1.1659611224 1.4999935347 -2.3062033481
H 1.5595571285 3.4433950353 -3.7854292950
H 1.1201780945 5.7397842176 -2.9620296800
H 0.2832058626 6.0945649491 -0.6542087576
H -0.1156606175 4.1424020862 0.8291610676
