44
CONF39
C -3.7979207245 -2.7798634333 -1.0473586514
S -2.7486825190 -2.2248471206 -2.4022923291
O -3.4910932280 -1.2558549858 -3.2383067938
O -2.1806514867 -3.4198051595 -3.0596270047
C -1.3635073910 -1.3634309431 -1.5774617637
C -1.5441263408 -0.1764618788 -0.8523405073
C -0.4027949273 0.3695710563 -0.2465390815
C 0.8644195108 -0.2037343451 -0.4009579605
C 0.9958324016 -1.3558927088 -1.1759028189
C -0.1178669314 -1.9552671583 -1.7413470430
C 2.0834633795 0.3156234974 0.2984668393
O 2.0857221427 0.5483937096 1.4897049557
C 3.3238547891 0.4943386825 -0.5844430717
C 4.4498226280 -0.4367275453 -0.0947978033
O 4.7068390709 -1.4400372182 -0.7273712346
C 5.1755375830 0.0071047973 1.1390754632
C 5.6449772980 1.4634715389 0.9953081348
C 4.4736786860 2.4132380567 0.7004311400
C 3.7368046121 1.9814286067 -0.5312770050
O 3.4781087484 2.7006416479 -1.4727012550
Cl -0.5606196893 1.8560804590 0.6613638231
C -2.8777045134 0.4983524806 -0.6802804190
O -3.3273558157 0.1998639243 0.6587148922
C -4.2942681826 1.0956614860 1.1662477874
C -5.7032577276 0.7095486075 0.7459193021
F -6.0154899127 -0.5534054274 1.1186153312
F -5.8824085313 0.7762673578 -0.5972072950
F -6.6086734180 1.5392042619 1.3155284063
H -3.2135940721 -3.4653603498 -0.4295493644
H -4.1381526354 -1.9190925412 -0.4684583426
H -4.6411001390 -3.2944259797 -1.5173572385
H 1.9745716216 -1.8057198054 -1.3112211569
H -0.0197587655 -2.8696157738 -2.3132461507
H 3.0848560132 0.2468721704 -1.6189441577
H 4.4738030797 -0.0583019859 1.9818856432
H 6.0103382178 -0.6731029046 1.3204166880
H 6.3889938706 1.5340193528 0.1940593788
H 6.1301602026 1.7745398229 1.9235404806
H 4.8096515459 3.4434654924 0.5653659164
H 3.7677252404 2.3773358362 1.5411311507
H -2.7607299898 1.5820222653 -0.8033179599
H -3.5982858278 0.1518063125 -1.4219530259
H -4.2561996686 1.0404078273 2.2585105023
H -4.1149170985 2.1316885118 0.8484509006
