45
CONF77
C 7.0082705788 -1.9673444307 -2.3233131872
C 7.2502514758 -0.7155809490 -2.7135052092
C 7.0804443974 0.4742339842 -1.8589498753
O 7.2509699906 1.6146851991 -2.2517765220
O 6.7144014561 0.1738486510 -0.5946164393
C 6.4906704127 1.3079159102 0.2752729881
C 6.0474416754 0.7895325322 1.6301921255
C 4.7565029009 -0.0044910694 1.6796975941
C 3.5232010296 0.6901470746 1.0213693857
C 2.1301533897 0.1138920555 1.4534370554
C 0.9702959109 0.4937843934 0.4643596865
C -0.4581268765 0.3326976621 1.0995547999
C -1.5989801796 0.2470740984 0.0228358230
C -3.0235862230 0.5505725207 0.6112292046
C -4.1873693915 0.0416954866 -0.3124597485
C -5.5633574017 0.7242210069 -0.0021008437
C -6.7952231469 -0.0412817814 -0.5903055555
F -7.0314988179 -1.1657210646 0.0929476348
F -6.5822776777 -0.3449985119 -1.8784713232
F -7.8744883110 0.7470843441 -0.5038876898
F -5.7330230740 0.8091670414 1.3375264330
F -5.5626654447 1.9669499648 -0.5287913165
F -3.8693482583 0.2979796092 -1.6017981398
F -4.3185997865 -1.2936434653 -0.1481964054
F -3.1383880315 -0.0511926769 1.8160516297
F -3.1486509083 1.8873045981 0.7692216177
F -1.3424292334 1.1421118857 -0.9570811284
F -1.6034331061 -0.9988882889 -0.5017418268
F -0.4839457287 -0.7967306269 1.8416104891
F -0.6970212530 1.3955477629 1.9003971697
F 1.0518904962 -0.3053222895 -0.6240338661
F 1.1227378009 1.7814892144 0.0812933727
F 2.2061630312 -1.2341537412 1.5183022632
F 1.8237275025 0.5983888045 2.6801653664
F 3.6363258394 0.5777244012 -0.3284471839
F 3.5497986864 2.0069667854 1.3489888333
F 4.4360608906 -0.2317791458 2.9975610192
F 4.9013462264 -1.2292149395 1.0929240221
H 7.1459086196 -2.7963676014 -3.0100033407
H 7.5861284987 -0.4871998550 -3.7204427053
H 5.7579345526 1.9778469094 -0.1822753349
H 7.4270231245 1.8609316913 0.3959520595
H 5.9320564428 1.6476305891 2.2985449943
H 6.8131653370 0.1337782640 2.0585483353
H 6.6672045806 -2.1956272822 -1.3188219856
