82
CONF235
C -3.6352935954 2.1924369846 -2.3107809890
C -2.4804852968 2.2252105882 -1.3462120136
C -1.4797458553 3.1002292745 -1.5012247649
C -2.5123950030 1.2938939394 -0.1545152522
C -3.5118883102 1.7803734852 0.9223041685
C -3.7510711570 0.5412087297 1.7811921252
C -3.8547968426 -0.6195015001 0.7693919270
C -2.9497415510 -0.1735939195 -0.4314258918
C -1.9236622564 -1.2646060558 -0.8301004197
C -1.0600586792 -0.8695368930 -2.0286829536
C 0.2430687114 -0.1831349737 -1.6479431113
C 1.1207091292 -1.0910173768 -0.7694625044
C 2.6141662718 -0.5756866813 -0.5755368005
C 3.0563765672 0.2711617427 -1.7852600348
C 4.5152238635 0.7554324955 -1.6852742698
C 4.9982852477 0.9794665467 -0.2479498176
C 3.8606294231 1.4376754635 0.6817604665
C 2.7664016213 0.2984699814 0.7226627882
C 1.4150233757 0.8755565794 1.1502755017
C 0.3498056755 -0.1757742675 1.4702109440
C 0.3766801921 -1.4377518551 0.5599623813
C -1.0905270349 -2.0137887240 0.2741812055
C -1.9176723786 -2.0686096844 1.5877900291
C -3.4239578778 -1.9696411791 1.3604965239
C -0.9853723744 -3.4704143846 -0.2446281631
C 1.1432611415 -2.5143321330 1.3615312983
C 4.4191687514 1.6037438061 2.1037300798
C 3.3329561240 2.8115719233 0.2270168986
O 6.1445214300 1.8533433699 -0.2300753078
C 3.5431983476 -1.8145959340 -0.5432324001
C -5.2909360423 -0.7393945552 0.2338062801
O -6.2451281872 -1.2213042580 1.1905299950
H -3.5782228050 1.3149575340 -2.9658848490
H -3.6388987844 3.0828401014 -2.9444446732
H -4.5963234520 2.1300134598 -1.7878722227
H -0.6385175304 3.1219672016 -0.8119967628
H -1.4736065434 3.8174927655 -2.3178944523
H -1.5184251171 1.3163297599 0.2953254352
H -3.1143966956 2.6324381434 1.4826497989
H -4.4477174795 2.1034839589 0.4511324078
H -2.8926553152 0.3833956275 2.4442635145
H -4.6363096697 0.6266332152 2.4230278414
H -3.6051176665 -0.1213882942 -1.3114285485
H -2.5965643775 -2.0485265945 -1.2032114785
H -0.8143341706 -1.7683875766 -2.6102594765
H -1.6416406806 -0.2224056561 -2.6978399259
H 0.0288511010 0.7694983023 -1.1580773644
H 0.7653580471 0.0600954193 -2.5764127764
H 1.2184052333 -2.0291483065 -1.3341077626
H 2.4003906681 1.1404341161 -1.8729662846
H 2.9283901829 -0.3071488124 -2.7087884790
H 5.1986052434 0.0578788547 -2.1818875970
H 4.6031064197 1.7060786747 -2.2275885764
H 5.3925752919 0.0475275892 0.1712247407
H 3.1030629472 -0.3781045985 1.5194156985
H 1.5472533450 1.5089126820 2.0347516302
H 1.0561440343 1.5431813233 0.3598268684
H -0.6249769692 0.3120905010 1.4411519718
H 0.4774810799 -0.4989492770 2.5105961006
H -1.7025038610 -3.0047810700 2.1162697324
H -1.6220070107 -1.2686607599 2.2701178814
H -3.7594751347 -2.7786540673 0.6965681819
H -3.9460602232 -2.1234167536 2.3122265314
H -1.9910115455 -3.8673537429 -0.4188102155
H -0.5010865585 -4.1293199315 0.4780463543
H -0.4347672869 -3.5364062758 -1.1880683998
H 0.5118015599 -2.8942957485 2.1714920338
H 2.0307723579 -2.0901739779 1.8332054270
H 1.4586880634 -3.3600977009 0.7462508390
H 5.1372114954 2.4279154624 2.1469725715
H 4.9279803983 0.6896030496 2.4306109083
H 3.6144328690 1.8191354226 2.8148251856
H 4.1615915365 3.5273976291 0.1846219012
H 2.6121155930 3.2121714125 0.9444863823
H 2.8536136736 2.7932191929 -0.7547965005
H 5.9133098443 2.6556743520 -0.7150828060
H 4.5967054185 -1.5446691523 -0.6291901029
H 3.3110848586 -2.4700344508 -1.3904621728
H 3.4340179775 -2.3952431178 0.3715499197
H -5.6201060750 0.2260710866 -0.1805250782
H -5.2991302001 -1.4725313624 -0.5821461347
H -6.3758393335 -0.5338298650 1.8545957052
