21
CONF2
C 1.0821042367 -1.1761764956 0.1562894461
C 0.0143225490 -0.0795578717 0.2009506177
C 0.6212603425 1.2810560116 -0.1881042665
O 0.8113647111 1.4426859658 -1.5987751297
C -1.1312959394 -0.4766705500 -0.7461492734
O -2.1587869541 0.5297186788 -0.8407491451
C -0.4891940582 -0.0087152430 1.6539697801
O -1.5140901484 0.9687886104 1.8620598638
O 1.6968919547 -1.1786174336 -1.1463247804
H 0.6256145000 -2.1562670041 0.3613795789
H 1.8373021794 -0.9762514485 0.9293119577
H -0.0500287536 2.0874542621 0.1211700927
H 1.5709113011 1.4103968371 0.3546418406
H 1.3449114404 0.6834989205 -1.8799487198
H -0.7408302231 -0.7077188329 -1.7428467439
H -1.6225315933 -1.3738199156 -0.3528981101
H -1.8020409427 1.2529372258 -1.3743760746
H -0.8466312875 -1.0084061800 1.9495111910
H 0.3404371907 0.2607306975 2.3196461542
H -2.0735218616 0.9595727175 1.0668312115
H 2.4838316632 -1.7346386451 -1.1055894961
