39
CONF6
C -1.7462325767 -1.4148569792 1.3729426691
C -2.7071899399 -0.4970580653 0.6170093168
C -4.0985320345 -0.5382092798 1.2498870931
C -2.1533874864 0.9634260534 0.5250826718
C -3.0957247968 1.9059708047 -0.2483247871
C -1.9871366440 1.4964860427 1.8868543559
N -1.8774082857 1.9068414842 2.9611633838
N -0.8066760012 0.9742245411 -0.0746767737
C -0.5396587245 0.5688418977 -1.3372818626
O -1.3690268317 0.2648100103 -2.1849303049
C 0.9532245831 0.5138978840 -1.7032989072
C 1.2721326723 1.5202239505 -2.7952482234
O 1.7579297811 0.7816107239 -0.5319035627
C 2.6767450994 -0.1436042113 -0.1416765660
C 2.8608465793 -0.3528514485 1.2318303643
C 3.8152812105 -1.2436104700 1.7035125983
C 4.5873554577 -1.9459174692 0.7862407407
C 4.4254809994 -1.7626124043 -0.5807705952
C 3.4753661887 -0.8568200916 -1.0360138774
Cl 5.7843992663 -3.0793481524 1.3736028916
Cl 1.8667832349 0.5155565758 2.3759302759
H -2.1235793786 -2.4410399402 1.3536723023
H -1.6539800553 -1.1103711068 2.4217608304
H -0.7459042507 -1.4196628401 0.9307208459
H -2.7773865718 -0.8290247382 -0.4250318642
H -4.0852518992 -0.1118203304 2.2596178888
H -4.4304600011 -1.5769012424 1.3335910560
H -4.8426164212 -0.0028296575 0.6557328130
H -2.6123109753 2.8760583694 -0.3834470733
H -4.0222220818 2.0554623718 0.3074920547
H -3.3134246925 1.4734449356 -1.2259061647
H -0.0117578881 1.1054439056 0.5370205291
H 1.1332216218 -0.5120804007 -2.0463204953
H 1.1250394346 2.5369057163 -2.4198607718
H 2.3096016470 1.4172334347 -3.1236292366
H 0.6053021428 1.3557115846 -3.6444127895
H 3.9415600790 -1.3933994660 2.7683882207
H 5.0421283561 -2.3102290653 -1.2830753264
H 3.3674688866 -0.6899030222 -2.1019822257
