50
CONF57
C 4.0417092406 -2.0206530142 3.1244027909
C 3.7958562369 -2.0197374740 1.6109912747
C 3.0632463089 -3.3235980006 1.2395988649
C 5.1620282213 -1.9773596494 0.9016105839
C 2.9464052451 -0.8291556417 1.1608115567
C 2.6651444021 -0.6527501948 -0.2000693849
C 1.8799758657 0.3956680158 -0.6607272983
C 1.3466033626 1.2845112527 0.2636956386
C 1.6094955013 1.1541180407 1.6159460783
C 2.4114040207 0.1027391522 2.0539524202
O 0.5239509963 2.3460836516 -0.1397291319
P -0.8281065660 1.9731574174 -0.9302263142
O -0.7042924683 1.5120888788 -2.3245667306
O -1.5928045055 3.3592755153 -0.6628494963
C -2.8861361447 3.5025386959 -1.1905900511
C -3.9535363738 3.4750334286 -0.3045372255
C -5.2397937718 3.6630260845 -0.8008462205
C -5.4437473923 3.8680255394 -2.1626788413
C -4.3572278492 3.8864034233 -3.0330875472
C -3.0640061385 3.7040640468 -2.5523414092
O -1.5915859725 0.9515360692 0.0637934429
C -1.8041397339 -0.3899083882 -0.2833487939
C -2.7594816627 -0.7132684322 -1.2352712592
C -2.9872864672 -2.0554462847 -1.5214007713
C -2.2696915565 -3.0489637166 -0.8604467755
C -1.3172285248 -2.6993317184 0.0926886843
C -1.0759358077 -1.3611579091 0.3881114517
H 4.5705305673 -1.1185401961 3.4489377575
H 4.6603160886 -2.8829625792 3.3912912212
H 3.1060332182 -2.0985589052 3.6875141120
H 2.8878729320 -3.3957912525 0.1623587057
H 3.6560390169 -4.1924410681 1.5460291075
H 2.0923946901 -3.3739338147 1.7435635182
H 5.0580165238 -2.0360339599 -0.1852310268
H 5.7802028239 -2.8222249850 1.2241302271
H 5.6934627310 -1.0505099626 1.1396922324
H 3.0612286022 -1.3510369110 -0.9298642444
H 1.6598557439 0.5133196858 -1.7159289850
H 1.1785893873 1.8628997477 2.3144008557
H 2.6036739330 0.0165825931 3.1164477129
H -3.7664877546 3.3079592992 0.7501506835
H -6.0836068092 3.6464564308 -0.1188908114
H -6.4484070608 4.0132553586 -2.5452949654
H -4.5126557470 4.0445042556 -4.0952369597
H -2.2044294837 3.7038982412 -3.2121574333
H -3.2997724927 0.0769692914 -1.7452509938
H -3.7284315054 -2.3230712605 -2.2673687665
H -2.4519232955 -4.0936637201 -1.0890166269
H -0.7530531699 -3.4696662640 0.6084431781
H -0.3302689984 -1.0643491149 1.1183946789
