38
CONF6
C 1.7727398457 -3.1688110319 1.0458255771
C 1.8103200417 -2.0819067316 -0.0385005076
C 1.6166229515 -0.6995907280 0.5352315523
C 0.4546931684 0.0627605061 0.3267441114
C 0.2590039008 1.3026209407 0.9617370438
C 1.2891412335 1.7989353255 1.7618387562
C 2.4681440948 1.0840050401 1.9410227917
C 2.6214266308 -0.1579332087 1.3425558006
C -1.0117215075 2.1045643897 0.8126522305
C -1.0757973949 2.9664002239 -0.4551202760
N -0.5658951686 -0.4459939947 -0.5535317519
C -1.5228610619 -1.4254425372 -0.0142772056
O -2.6647895190 -0.8530601350 0.5807051001
C -3.6006541926 -0.3308953797 -0.3685675119
C -0.5536667665 -0.2126524367 -1.9076833641
O -1.3864419238 -0.6794255081 -2.6745322540
C 0.5646223708 0.6730765609 -2.4471556231
Cl 1.8645811135 -0.3902054981 -3.1525559141
H 0.8161661574 -3.1676122070 1.5775133882
H 1.9139434747 -4.1578069330 0.5996823443
H 2.5627368372 -3.0137624869 1.7866267968
H 1.0562777432 -2.2940944172 -0.8001782127
H 2.7800858551 -2.1174643769 -0.5473331627
H 1.1563826142 2.7580309464 2.2546522105
H 3.2617630305 1.4914760621 2.5595451596
H 3.5356785527 -0.7248084774 1.4950199311
H -1.8725191311 1.4319222152 0.8448354279
H -1.0899279192 2.7609979668 1.6856343601
H -1.9418811590 3.6339548185 -0.4136620092
H -0.1756335977 3.5805495575 -0.5611271162
H -1.1820634137 2.3563597206 -1.3569309439
H -1.0167532973 -1.9718025615 0.7847784543
H -1.8019500903 -2.0990205264 -0.8346650427
H -3.1765614021 0.5111807220 -0.9306239413
H -3.9108630582 -1.1072624359 -1.0794505633
H -4.4635021699 0.0129650102 0.2055312207
H 0.1655542360 1.2686256988 -3.2683923128
H 1.0435997145 1.3011255946 -1.6978443274
