32
CONF19
C 2.4942276188 -2.7770335060 2.2343883957
O 1.9401110441 -1.5813664508 1.6128543611
C 2.3468625065 -1.3191169495 0.3871626286
N 3.1877279969 -2.0385196264 -0.2962194160
C 3.5296690515 -1.6588426121 -1.5594317568
C 3.0218527975 -0.5390822528 -2.1536585379
C 2.1073076210 0.2531346721 -1.4384108344
N 1.7967827455 -0.1781440857 -0.1564368589
N 0.9101506431 0.6758357371 0.4193336420
C 0.7506809992 1.5614002612 -0.5588799820
N 1.4358050447 1.3734532207 -1.7068835039
S -0.4649227243 2.8792623077 -0.3819856390
O -0.0798907972 3.9697490369 -1.2758762674
O -0.6870561926 3.0768731644 1.0490026372
N -1.8963062372 2.2173344586 -1.0252011655
C -2.4500355616 1.1105946993 -0.3291198429
C -3.3424291686 1.3007643433 0.7289403758
C -3.8962682945 0.2467251044 1.4331577538
C -3.5596418645 -1.0527228886 1.0645643962
C -2.6853799746 -1.2978696260 0.0086886262
C -2.1462609346 -0.2139640336 -0.6562629081
F -1.2863633733 -0.4227009200 -1.6771380019
F -3.6821097466 2.5595710011 1.0583792722
F 3.3621708874 -0.1732605212 -3.3964031111
H 2.2215682280 -3.6569483987 1.6488830591
H 3.5795316169 -2.6853313660 2.3067051624
H 2.0376034750 -2.8068917998 3.2215672457
H 4.2352113316 -2.2896927703 -2.0925993376
H -1.7926797095 2.0742489707 -2.0296479705
H -4.5839356297 0.4494812438 2.2460641397
H -3.9890495809 -1.8884557400 1.6058045356
H -2.4149338547 -2.3036413641 -0.2913404784
