47
CONF136
C -2.7210359780 1.7320942670 2.2792103322
C -2.3009681672 0.5011669835 1.5083569101
C -3.3073211157 -0.5863793918 1.2109043885
C -2.8810114588 0.3693904489 0.0967750539
C -2.0505345489 -0.1565817995 -0.9952576146
O -1.4479231894 -1.2079822251 -1.0180702880
O -2.0095237452 0.7443992431 -2.0274391433
C -1.0642995149 0.4066260645 -3.0825437544
C -1.5220050769 1.1334748757 -4.2647239930
N -1.8581484963 1.6961667867 -5.2150159152
C 0.3381750521 0.7972363935 -2.6782799092
C 1.2714947162 -0.1988471285 -2.3981642026
C 2.5317419824 0.1500628974 -1.9357346715
C 2.8431090187 1.4977548311 -1.7642677329
C 1.9289392420 2.4985251141 -2.0421247960
C 0.6671120221 2.1419313302 -2.5025797925
F 4.0694278778 1.8206060925 -1.3103413051
O 3.4758905374 -0.8223146019 -1.6970018036
C 3.7945475502 -1.0974349500 -0.3731624364
C 3.0129421254 -0.6703954857 0.6963471047
C 3.3938181154 -1.0227324243 1.9900751406
C 4.5328382284 -1.7910869136 2.2125487678
C 5.2993405982 -2.2120030540 1.1257911825
C 4.9370070044 -1.8674551924 -0.1712945995
C -4.6893476721 -0.5283800136 1.6918371661
C -5.3993746324 -1.5726105514 2.1199247415
Cl -4.7970870781 -3.2060524334 2.1810331074
Cl -7.0437022337 -1.4112688528 2.6813257474
C -0.8768946993 0.0739530027 1.7815666844
H -2.0128076537 2.5446366460 2.0873504764
H -2.7092532460 1.5183959727 3.3537087962
H -3.7183435466 2.0831020632 2.0071793585
H -2.8744326987 -1.5777228333 1.1188463811
H -3.5775769399 1.1505166186 -0.1880706541
H -1.1174011230 -0.6671629153 -3.2943916840
H 1.0266241731 -1.2492946329 -2.5130273729
H 2.2112277495 3.5359575906 -1.9006169320
H -0.0616919396 2.9169118015 -2.7187673202
H 2.1191194216 -0.0792172286 0.5293710959
H 2.7858162737 -0.6919233644 2.8265400965
H 4.8217873869 -2.0610580619 3.2226606840
H 6.1901245214 -2.8111330900 1.2865024225
H 5.5243106921 -2.1850830858 -1.0264064645
H -5.1921772988 0.4338184062 1.7048065124
H -0.7546913133 -0.1024869214 2.8554818503
H -0.1815294163 0.8693499503 1.4890633427
H -0.6063111996 -0.8394701277 1.2497051337
