31
CONF10
C 3.8488235691 2.1955356471 0.5529550242
O 3.0221507232 1.2566292401 -0.1728256751
C 2.2744915777 0.4554067829 0.6035001569
O 2.1378522827 0.5646898055 1.7974257438
C 1.5211290508 -0.5400329921 -0.2275299257
C 2.1286401345 -1.4913038695 -1.0467926395
C 1.3749945528 -2.3518956732 -1.8396237199
C -0.0044057727 -2.2803735327 -1.8051875190
C -0.6199453041 -1.3441653309 -0.9731086960
C 0.1332067693 -0.4759076535 -0.1866273964
O -1.9902922969 -1.3564790448 -0.9748564349
C -2.6607226854 -0.3594813770 -0.2933295745
C -2.8257234676 0.9084932606 -0.8548116527
C -3.5607284609 1.8823467230 -0.1887665195
C -4.1290965246 1.5666218459 1.0399282347
C -3.9800689477 0.3079384201 1.6112253481
C -3.2390976255 -0.6521456293 0.9341941757
Cl -5.0548414827 2.7884245438 1.8789945837
Cl -2.1083677584 1.2740022626 -2.3965367448
N 3.5849970306 -1.6637734473 -1.0282978052
O 4.1025951237 -2.2192654179 -1.9900774297
O 4.1864964903 -1.2681883684 -0.0346604364
H 4.5454558310 1.6503049367 1.1947715117
H 3.2281125506 2.8563648660 1.1627512058
H 4.3843690639 2.7580676203 -0.2106183007
H 1.8839880495 -3.0788181339 -2.4604915636
H -0.6189813681 -2.9425923389 -2.4035341146
H -0.3444973613 0.2548987077 0.4556452443
H -3.6883163347 2.8645766347 -0.6259424596
H -4.4323814612 0.0840295885 2.5694162572
H -3.0998365511 -1.6439080603 1.3503111406
