50
CONF179
C 0.5187428180 -0.3064877107 -2.3388831357
C -0.9663344722 -0.1334718087 -2.1292923182
C -1.8958808839 -1.3191518018 -2.1530339552
C -1.6208688189 -0.5835061681 -0.8238517366
C -0.8521734448 -1.2435280209 0.2379230142
O -0.0375914875 -2.1346407338 0.1288470263
O -1.1861006983 -0.6942048060 1.4498344209
C -0.4526060201 -1.2304895875 2.5738952556
C -1.2559521592 -0.9031906524 3.7532215804
N -1.8530917281 -0.6517206039 4.7089885488
C 0.9390377101 -0.6395342393 2.6951060048
C 1.1304529840 0.7181813399 2.4516164665
C 2.4082046930 1.2507972239 2.5972196182
C 3.4776289391 0.4538134357 3.0001877100
C 3.2639515533 -0.8973529003 3.2463095382
C 1.9978887892 -1.4548213476 3.0874340800
O 2.6613851120 2.5953516338 2.4268557355
C 1.9757325681 3.2788662009 1.4309578382
C 1.4229186061 4.5102141584 1.7614600092
C 0.8022024115 5.2616058931 0.7659269811
C 0.7340291117 4.7827762582 -0.5402951581
C 1.2971941480 3.5460816745 -0.8532131969
C 1.9226513738 2.7853908330 0.1296184829
C -1.3930213325 -2.6772741557 -2.3897475493
C -2.1438019696 -3.7514978353 -2.6513714375
C -3.6527099971 -3.7658619809 -2.6763599227
F -4.1690951110 -4.9943844199 -2.4885734968
F -4.1376362280 -3.3103440310 -3.8630185802
F -4.1684282050 -2.9681406686 -1.7117268282
Cl -1.4002471636 -5.2785188044 -3.0776842509
C -1.5167723135 1.1559828323 -2.6979685986
H 0.7289155807 -0.3803856778 -3.4111952766
H 1.0416531323 0.5740403415 -1.9528210726
H 0.9289268655 -1.1841054028 -1.8394653991
H -2.8940498273 -1.1105882547 -2.5223651809
H -2.4332291445 0.0392064960 -0.4657885397
H -0.3876174001 -2.3218011914 2.4913370472
H 0.3010353623 1.3511922231 2.1542982838
H 4.4605914676 0.8991166300 3.1100873653
H 4.0960912050 -1.5240345244 3.5497370325
H 1.8348457864 -2.5131998416 3.2636930604
H 1.4845737811 4.8669082676 2.7842002220
H 0.3678797503 6.2240969853 1.0172567249
H 0.2496557402 5.3711859116 -1.3125225793
H 1.2615239366 3.1741586185 -1.8724874967
H 2.3728741108 1.8263449756 -0.1065036704
H -0.3186470371 -2.8209507508 -2.4004086199
H -2.5976786781 1.2308479346 -2.5518827479
H -1.0401208735 2.0147359728 -2.2137958594
H -1.3069326273 1.2072924905 -3.7717554447
