37
CONF17
C -2.0063987277 -0.7089396305 -1.4635923922
Si -0.4299578409 -0.5175552117 -0.4779926251
C -0.4499454604 -1.6887547756 1.0427155294
N -1.3743838896 -1.2521605590 2.0814792749
C -1.1016378027 -0.6001009396 3.2264974880
N -2.2300766959 -0.2857233239 3.8605411132
C -3.1845542113 -0.7774222115 3.0270598103
N -2.7161187047 -1.3680626542 1.9306182329
C 1.0771815349 -0.9969408427 -1.4874481436
C 2.3422061921 -1.1119039580 -0.8871427224
C 3.4712005211 -1.4578356533 -1.6234265262
C 3.3156509890 -1.6915058143 -2.9796903614
F 4.4094575879 -2.0306910661 -3.7086869868
C 2.0944232856 -1.5955775569 -3.6235643622
C 0.9798640295 -1.2465076115 -2.8645751899
C -0.2678517579 1.2357428962 0.1823827303
C 0.9068589824 1.9875963647 0.0377079296
C 1.0204062883 3.2731008377 0.5623350978
C -0.0656938446 3.7969030009 1.2415200948
F 0.0347992798 5.0478259200 1.7608787003
C -1.2521453162 3.1030632436 1.4110972660
C -1.3414611253 1.8219304777 0.8743870355
H -2.1463019894 -1.7480773408 -1.7804156918
H -1.9897955771 -0.0719509166 -2.3543721705
H -2.8693350022 -0.4204674631 -0.8555823766
H -0.7168958298 -2.7074280328 0.7396470791
H 0.5468515390 -1.7259784443 1.4936780800
H -0.0917402555 -0.3864642761 3.5516890226
H -4.2469926709 -0.7086988133 3.2252683269
H 2.4636067257 -0.9252492724 0.1769615081
H 4.4491057086 -1.5461931141 -1.1624404692
H 2.0217436365 -1.7899695667 -4.6883217140
H 0.0198020713 -1.1715203695 -3.3667245970
H 1.7555354824 1.5724596041 -0.4983923867
H 1.9271631093 3.8578186125 0.4491796950
H -2.0793092842 3.5564139469 1.9469390849
H -2.2752597810 1.2788236940 0.9997854577
