46
CONF19
C 5.5364276583 0.7459093686 -0.0034793885
C 4.0994525478 0.7731648013 0.5041372588
C 3.6252650402 -0.6378364382 0.9898616955
N 2.1732720619 -0.6299113357 0.8619163209
C 1.6497754072 -0.0228091609 -0.3747079536
S 2.9606013850 1.1302782719 -0.9524710054
C 0.4379099763 0.5173124118 0.4692624692
C 1.1771412484 -0.0991163635 1.6616491990
O 1.0112135035 -0.1424985223 2.8670939724
N -0.8782122950 0.0338642851 0.2082045127
C -1.7387781529 0.7415868917 -0.5966601295
O -1.4709200537 1.8495097504 -1.0247529906
C -3.0314046362 0.0344904000 -0.8868553552
C -4.2302622930 0.5353893669 -0.3629212211
C -5.4501079484 -0.0608379691 -0.6947356757
C -5.4512459504 -1.1526357987 -1.5540677656
C -4.2770244296 -1.6727313252 -2.0852685692
C -3.0631321493 -1.0722849794 -1.7418227448
O -1.8453885498 -1.4891890091 -2.2008063014
C -1.8245007963 -2.5619119207 -3.1407444631
O -4.0953962451 1.5907810050 0.4775369910
C -5.2809597450 2.1723165105 1.0148703683
C 4.2328607132 -1.0050639696 2.3544907970
O 5.4071024012 -1.2862346477 2.3938174000
O 3.4827359236 -0.9876763013 3.4541879899
C 3.9209467480 1.8319826335 1.5908071096
H 5.6688352904 -0.0126672852 -0.7788460371
H 5.8082012359 1.7199395352 -0.4207267371
H 6.2124290739 0.5212292372 0.8259794310
H 4.0166801633 -1.3849203712 0.2902858560
H 1.3814740530 -0.7341192710 -1.1614253583
H -6.3838117108 0.3110710519 -0.2947442813
H -6.3972407600 -1.6152272049 -1.8165848181
H -4.3176956214 -2.5232069323 -2.7523499057
H -2.2256626304 -3.4845177725 -2.7027464890
H -0.7749118970 -2.7090389229 -3.3981539593
H -2.3890680391 -2.3058823603 -4.0455519546
H -5.8266270626 1.4561027782 1.6422805988
H -5.9365565701 2.5419980679 0.2168612769
H -4.9451040030 3.0098152303 1.6267881954
H 4.6064375566 1.6366718741 2.4242397656
H 2.8995826873 1.8599088973 1.9809412576
H 4.1458472208 2.8217168857 1.1862304564
H 2.5393619284 -0.7140418351 3.3077242707
H 0.4292211726 1.6114636108 0.4995888395
H -1.1132609405 -0.9195380871 0.4377085406
