45
CONF19
C -0.5617501895 -2.7018169409 0.8830124035
C -0.1048343522 -1.5264968563 1.7468344259
C 1.3571005561 -1.6420641032 2.1766368837
C 1.8781972495 -0.4216376089 2.9442194791
C 1.8715501400 0.8918404938 2.1513873031
C 2.7134287846 0.8352715811 0.8760153783
C 2.8555929939 2.1842150531 0.1645671764
C 1.5597363169 2.7372607106 -0.3947591351
O 1.0685311220 1.7858534810 -1.3774308745
C -0.0842023636 2.1302159643 -1.9990018986
O -0.7022837242 3.1400002879 -1.7500788567
C -0.4733215336 1.1094945812 -3.0425774319
C -1.9866526717 0.8751841311 -3.0858435275
C -2.5726762562 0.3735358390 -1.7633351163
C -1.9712719154 -0.9375003940 -1.2569792297
C -2.6343943395 -1.4110092209 0.0360666240
C -2.0690943493 -2.7189668178 0.5991960893
H -0.2873912316 -3.6433098143 1.3771550762
H -0.0023711960 -2.6858732631 -0.0619654999
H -0.2509498304 -0.5939766999 1.1878640513
H -0.7422375471 -1.4501222749 2.6398592106
H 1.4732142336 -2.5327023707 2.8078592303
H 1.9823598203 -1.8192355680 1.2917699752
H 1.2783146358 -0.2902420494 3.8544718152
H 2.9050177063 -0.6243841721 3.2768145473
H 0.8395126021 1.1715434516 1.9077039851
H 2.2559393565 1.6922018095 2.7982999677
H 3.7159889658 0.4658139535 1.1294627618
H 2.2858046229 0.1119151494 0.1728106771
H 3.5784896678 2.0948793017 -0.6551378881
H 3.2573169705 2.9320114577 0.8612274995
H 0.7927230399 2.8757184151 0.3744592907
H 1.7129122585 3.7030075942 -0.8881162601
H -0.1360327606 1.5114698651 -4.0070560071
H 0.0834209817 0.1841829211 -2.8756951074
H -2.1982228864 0.1515081056 -3.8827903214
H -2.4778582541 1.8140133954 -3.3616124710
H -2.4431483292 1.1498520681 -0.9975254540
H -3.6560639925 0.2477495111 -1.8870994888
H -2.0650146566 -1.7156540557 -2.0287964537
H -0.8961796408 -0.8039031549 -1.0838091355
H -2.5472070143 -0.6179673655 0.7906831106
H -3.7105375549 -1.5388655841 -0.1401869964
H -2.6013864960 -2.9548834108 1.5302128875
H -2.2900691347 -3.5381273967 -0.0979318916
