35
CONF588
C -0.4744558264 2.9561556417 1.2257440333
C 0.2083413630 2.3137303658 2.4157516755
O 1.2668602953 1.4456562993 2.0405327616
C 0.8792919028 0.0777153417 1.8897051200
C 2.1333771626 -0.6983452044 1.5212573163
O 1.9120146436 -2.0943895950 1.7488408845
C 1.9069838090 -2.9338848187 0.6073726867
C 0.5951509697 -2.9478173614 -0.1540402933
O 0.5031946214 -1.7904970884 -0.9748405348
C -0.7289805471 -1.7330643751 -1.6745632736
C -0.6920571071 -0.5676615847 -2.6442231800
O -0.6459048087 0.7006694544 -2.0094681686
C -1.9176616299 1.1887137696 -1.6084529618
C -1.6926219730 2.4006910159 -0.7376927132
O -1.1835955514 1.9581326052 0.5091320025
H -1.1579314117 3.7504894797 1.5799558305
H 0.2879115259 3.4192195279 0.5786861130
H 0.6508906712 3.1122459104 3.0257039429
H -0.5336625421 1.7835131664 3.0333091317
H 0.1129075307 -0.0352471985 1.1129178794
H 0.4897373685 -0.3115365029 2.8446486643
H 2.9551369409 -0.3750881782 2.1741351124
H 2.4125155087 -0.5028690147 0.4792854948
H 2.0899930705 -3.9467304846 0.9860966227
H 2.7249298755 -2.6742424086 -0.0829563588
H -0.2418501937 -2.9848725513 0.5637418755
H 0.5501154202 -3.8569997467 -0.7816034595
H -1.5692786268 -1.6372783220 -0.9654992163
H -0.8870479377 -2.6624109315 -2.2519952136
H 0.2200981669 -0.6414592309 -3.2462933580
H -1.5597796938 -0.6369591805 -3.3223702639
H -2.4810462386 0.4355625451 -1.0351594277
H -2.5178083790 1.4695510742 -2.4917671424
H -0.9746682059 3.0705183581 -1.2367055360
H -2.6410996657 2.9487886296 -0.6030915421
