34
CONF44
C -1.1521340076 -0.9001913595 2.3600630920
C -1.1083921308 -0.2073623674 1.1589814773
C 0.0811618244 0.0015796408 0.4522447719
C 1.2445145731 -0.5308876168 1.0137494365
C 1.2444105270 -1.2323070355 2.2166449478
C 0.0357263892 -1.4043239121 2.8737923235
Cl 0.0156530802 -2.2860409368 4.3917019794
Cl 2.8025053865 -0.3490355627 0.2146227646
C 0.0571933212 0.7549179001 -0.8583747488
C -0.5740807782 2.1519660268 -0.7185608351
N 0.1064962365 2.9238571671 0.3083954473
C -0.3270698460 3.2519258583 1.5406930027
N 0.6330091618 3.8763090639 2.2141781108
C 1.6618954855 3.8904328850 1.3215038940
N 1.3924257150 3.3213142143 0.1525381135
C -0.6889156030 -0.0275534378 -1.9329484692
O 0.0712035124 -1.2557151110 -2.1580519026
C -0.6241511996 -2.3967411662 -2.2496308618
C 0.3634344799 -3.5596136952 -2.4581702811
F 1.1819203029 -3.6345519189 -1.3682940194
F -0.3424772154 -4.7237222565 -2.5328507690
F -1.3917508817 -2.6443957551 -1.1347508634
F -1.5119069998 -2.3885803552 -3.3031671135
H -2.0900359746 -1.0447410143 2.8828666115
H -2.0392147935 0.1801706607 0.7554571789
H 2.1646149321 -1.6325949491 2.6238265229
H 1.0808887987 0.8970965258 -1.2132217393
H -1.6283364652 2.0952702156 -0.4339874384
H -0.5011552632 2.6878369372 -1.6697198944
H -1.3273520842 3.0277582980 1.8885909716
H 2.6280628795 4.3329046581 1.5296749615
H -1.7105844145 -0.2671407848 -1.6250842886
H -0.7113486457 0.5224777881 -2.8780137813
H 0.9637900093 -3.4303187266 -3.3646981997
