37
CONF213
C -2.9307269042 -2.0103881422 -2.2009020357
C -2.4189977600 -0.5971185806 -2.3689113697
O -1.0428944467 -0.4561600775 -1.8869035649
P -0.7671291730 -0.3824929140 -0.3232332305
O -1.7965579577 0.2533194446 0.5316500835
O -0.3637506373 -1.8758358727 0.0535809288
C -0.4553771109 -2.3384359135 1.4463787352
C -1.7497040474 -3.0887766941 1.6520815823
O 0.6362577463 0.4375391138 -0.4062391406
P 1.6343778009 0.8304295623 0.8279300109
O 2.0733083587 -0.3246154679 1.6361784438
O 2.7538453771 1.6533670264 0.0512767107
C 3.9447399678 0.9679863079 -0.4619244721
C 3.6295207295 0.1069042654 -1.6645673146
O 0.8567149441 1.9268311557 1.6620737692
C 0.2368658706 3.0972290504 1.0335093344
C -0.7966013182 3.6285016770 1.9951039845
H -3.9192491352 -2.0890479613 -2.6647216724
H -3.0281475121 -2.2750499294 -1.1443042236
H -2.2603253606 -2.7265118472 -2.6838437388
H -2.3557354751 -0.3161389759 -3.4222584235
H -3.0473560007 0.1283870424 -1.8424498389
H -0.3674615688 -1.4842427353 2.1225850936
H 0.4203546367 -2.9763067155 1.5819101350
H -2.6074037060 -2.4228399385 1.5225320702
H -1.8328112228 -3.9228384369 0.9492112940
H -1.7753159058 -3.4903708638 2.6703687676
H 4.3805257167 0.3830548183 0.3540422058
H 4.6228527821 1.7842475667 -0.7192816663
H 2.9885898214 -0.7374967630 -1.3958313157
H 3.1347797824 0.6922945066 -2.4444228064
H 4.5654678285 -0.2920751433 -2.0687583755
H 1.0301369466 3.8249396710 0.8340904950
H -0.2214848739 2.7918793239 0.0876392623
H -0.3358936763 3.9049564453 2.9472459821
H -1.2661632259 4.5180393185 1.5641594732
H -1.5692504865 2.8768363590 2.1750052028
