48
CONF10
C -2.8671102672 -2.4525257265 3.9546961074
O -4.0178819692 -2.4588280304 3.1051699739
C -3.8436976081 -2.0724635403 1.8121961137
C -5.0225433295 -2.1032667279 1.0259667109
C -4.9753578570 -1.7493363706 -0.2933156982
C -3.7574854635 -1.3437015391 -0.8967692102
N -3.7808329351 -1.0158183090 -2.2162127715
C -2.6437262277 -0.6379343648 -2.7665977328
C -1.4249424390 -0.5448008840 -2.0681862993
C -1.3659875352 -0.8683939261 -0.7300899142
C -0.0772631339 -0.8365107198 0.0643371667
O 0.3307727994 -2.1836331983 0.3811808435
C 1.0933940289 -0.0921152408 -0.5839993449
C 2.3815290618 -0.1966588725 0.2772101916
C 3.1175634079 1.1493110666 0.1933441806
C 2.2782504974 2.1930521404 0.9412422620
C 0.8314949002 2.1254058667 0.3796934533
N 0.7692317446 1.3242403131 -0.8605108684
C 1.7818048265 1.8459222641 -1.7919104062
C 3.2358970993 1.5358013708 -1.3026906867
C 4.1565881257 2.6821661102 -1.5600570625
C 5.2283081935 2.6378363937 -2.3510553144
C -2.5710182339 -1.3009217077 -0.0993437382
C -2.6398860982 -1.6816701509 1.2637934110
H -3.2186019781 -2.7837709087 4.9321648983
H -2.1005493543 -3.1437131519 3.5838385377
H -2.4450452876 -1.4433221924 4.0364794890
H -5.9490453783 -2.4160753357 1.4962867157
H -5.8662492381 -1.7712723821 -0.9122774632
H -2.6744901400 -0.3787619615 -3.8243597468
H -0.5480561556 -0.1926341808 -2.5972091664
H -0.2776071833 -0.3766929353 1.0396380808
H 0.3237521644 -2.6850333093 -0.4448528595
H 1.2841482107 -0.5625636892 -1.5593769714
H 3.0173990971 -1.0148803759 -0.0745833452
H 2.1277303061 -0.4126935193 1.3227237004
H 4.1163559721 1.0679262333 0.6340693849
H 2.7028068843 3.1947069462 0.8162520123
H 2.2887823222 1.9730955010 2.0144162767
H 0.4507169372 3.1260290760 0.1474932210
H 0.1448669841 1.6892573699 1.1116422715
H 1.6327496083 2.9295570265 -1.8771946809
H 1.6187916887 1.4137949117 -2.7869760527
H 3.6229907250 0.6617332185 -1.8431207068
H 3.9023997636 3.6235205073 -1.0700289553
H 5.8533340898 3.5110580669 -2.5105332822
H 5.5125185746 1.7223923123 -2.8651351524
H -1.7368016933 -1.6868139628 1.8569923189
