36
CONF1
C 5.0757268375 -0.8845067223 -0.1880917100
C 5.1212304965 0.5282724261 -0.2688817765
C 3.9631181308 1.2621600933 -0.2553101049
C 2.7016995584 0.6194832570 -0.1604102618
C 1.4937699509 1.3307071567 -0.1445042440
C 0.2554078878 0.7081347562 -0.0519927995
C -0.9901466782 1.4759689669 -0.0413464647
C -0.9858640562 2.8812401068 -0.1251067216
C -2.1537378932 3.6164841179 -0.1191101526
C -3.3814072042 2.9591612440 -0.0283538404
C -3.4127672423 1.5817628531 0.0554779308
C -2.2362778633 0.8085713414 0.0521899301
C -2.2831287279 -0.6510905823 0.1445116528
C -3.5063759633 -1.3405278147 0.2454871237
C -3.5633919106 -2.7167339951 0.3350163428
C -2.3808779062 -3.4577504869 0.3267529833
C -1.1685378939 -2.8055686136 0.2288524393
C -1.0828413121 -1.4036252488 0.1355122483
C 0.2092737681 -0.7245049135 0.0325900338
C 1.4046861300 -1.4320888464 0.0154181232
C 2.6557148649 -0.8066451111 -0.0787150323
C 3.8727405287 -1.5358850499 -0.0952636607
H 6.0018696837 -1.4499716753 -0.2001751455
H 6.0817275814 1.0280131756 -0.3419496351
H 3.9952928720 2.3462935148 -0.3173124903
H 1.5624324252 2.4098136321 -0.2086275060
H -0.0479986382 3.4164019022 -0.1968608708
H -2.1126347819 4.6986963544 -0.1854531145
H -4.3083149939 3.5231436742 -0.0232207263
H -4.3786526808 1.0992460559 0.1249950009
H -4.4387835160 -0.7918639495 0.2552512119
H -4.5241310939 -3.2150079603 0.4120922312
H -2.4093150270 -4.5400947356 0.3975154276
H -0.2671852876 -3.4043830082 0.2258744820
H 1.4032617290 -2.5135333537 0.0760324539
H 3.8344179257 -2.6197727613 -0.0328833583
