44
CONF62
C -3.4318025338 0.4033337644 2.3772330234
N -3.9655167277 0.2923753904 1.0259878098
C -3.3961474018 1.1993684732 0.0142412468
C -4.1883733650 0.7753678093 -1.2392279808
C -4.4957646015 -0.7309907361 -0.9948435207
C -3.8482306777 -1.0241548065 0.3741780402
C -2.3765940282 -1.4681104141 0.2250916104
C -1.6122270380 -0.4562650299 -0.6149067902
C -1.8793599864 0.9789803862 -0.1745637194
O -0.1836810857 -0.7683280567 -0.4567996042
C 0.6508073643 -0.3513173856 -1.4205998534
O 0.3010950778 0.1929033814 -2.4501555006
C 2.0934033549 -0.6356926180 -1.0407935156
C 3.0223294759 -0.4044212527 -2.2410021558
O 4.3664477008 -0.7777892705 -1.9357129320
C 2.4952352904 0.2192003499 0.1455808812
C 2.3171580755 1.6064911863 0.1083328020
C 2.7098541170 2.3971984009 1.1837961192
C 3.2922225994 1.8118552547 2.3075122084
C 3.4781219515 0.4324382005 2.3488498244
C 3.0794353484 -0.3597116348 1.2735453945
H -2.3518455552 0.2045311188 2.4746219853
H -3.6184148459 1.4157460764 2.7528119627
H -3.9594500917 -0.3023342793 3.0287628597
H -3.5788367306 2.2424311721 0.2966769992
H -5.1143852855 1.3516333159 -1.3084519525
H -3.6180154671 0.9471131543 -2.1567205998
H -4.0949018561 -1.3773397717 -1.7809961588
H -5.5740926079 -0.9002367189 -0.9405243603
H -4.3976718632 -1.7790977188 0.9478701181
H -2.3294991761 -2.4574167406 -0.2434464506
H -1.9119802501 -1.5483509236 1.2143983415
H -1.8529078564 -0.5795034495 -1.6746777389
H -1.3537807668 1.1708212275 0.7685680576
H -1.4896667702 1.6818150565 -0.9184316744
H 2.7075370276 -1.0354923127 -3.0766949399
H 2.9642455080 0.6447266880 -2.5597034274
H 1.8651306393 2.0708628276 -0.7647250527
H 2.5606712083 3.4719030031 1.1453001344
H 3.5993057597 2.4290709576 3.1460098719
H 3.9327416387 -0.0304088821 3.2193912549
H 3.2207702330 -1.4363108505 1.3086160394
H 2.1570894672 -1.6894723734 -0.7454418019
H 4.6918450965 -0.1770802184 -1.2516541971
