51
CONF11
C 3.0470113900 -2.9514666420 0.9663615270
C 3.1299278306 -2.0139231193 2.1806371469
C 2.6967961670 -0.6214601973 1.8119986129
N 3.5234697389 0.3775959772 1.7542213198
O 4.8432090990 0.0916078760 2.0987931783
C 5.6644962452 1.2563183322 1.8474225501
C 5.9411094354 1.4533733145 0.3703612502
C 1.3213380081 -0.3225371560 1.3626263210
C 1.0548801924 0.8274947016 0.6254457482
C -0.2616857111 1.1255904563 -0.0135608571
C -1.1030415059 -0.1409671764 -0.1803885136
C -1.1789122056 -0.8456607717 1.1724016728
C 0.1938169045 -1.1812494529 1.7318190548
O 0.2879234682 -2.1204000559 2.5268304911
C -2.4115823907 0.1061142499 -0.9130536375
C -3.5342257272 0.7266557627 -0.3230871736
C -4.6876398438 0.9313575277 -1.0874006516
C -4.7763942668 0.5503538285 -2.4231340313
C -3.6599940830 -0.0518852385 -2.9973873125
C -2.4870788601 -0.2740892141 -2.2730705917
C -1.3296086742 -0.9239703379 -2.9940050187
C -6.0195355404 0.8172128250 -3.2268061772
C -3.5906776979 1.1790591935 1.1168173487
O 1.9618261865 1.7616400792 0.4090323262
H 3.6875806559 -2.5927844136 0.1545957404
H 3.3791737324 -3.9546042153 1.2482660922
H 2.0226464075 -3.0239491502 0.5915620469
H 2.4815019604 -2.3879498462 2.9733024962
H 4.1533934752 -1.9807484626 2.5530777618
H 5.1829756868 2.1352017759 2.2931003503
H 6.5855158505 1.0426855882 2.3971457771
H 6.6097085018 2.3096189332 0.2354739982
H 6.4232283754 0.5673360913 -0.0530855914
H 5.0193255956 1.6521173384 -0.1842105014
H -0.7805384689 1.8736423112 0.6004854709
H -0.0616820710 1.6027424140 -0.9795283371
H -0.5083408715 -0.8069226367 -0.8117132509
H -1.7461546924 -1.7793474311 1.1136252052
H -1.6624832186 -0.2209643252 1.9308250767
H -5.5443146328 1.4091207819 -0.6168932569
H -3.6985516291 -0.3563048323 -4.0407665842
H -0.4229880703 -0.3103373798 -2.9549680080
H -1.0793567100 -1.9015600364 -2.5662440351
H -1.5830697760 -1.0775218592 -4.0453263847
H -5.9868430692 1.8204967118 -3.6685489354
H -6.1228382556 0.1008983507 -4.0464877351
H -6.9147994567 0.7649874175 -2.6008445858
H -4.4241882260 1.8722639444 1.2537342232
H -2.6812199956 1.6858030325 1.4447802266
H -3.7565525498 0.3326813900 1.7925682593
H 2.8034414091 1.4666332477 0.9255490125
