55
CONF207
C 5.4532282598 -3.5598555025 -2.4104006669
O 4.3427908345 -2.7109043224 -2.7293067237
C 3.4266822946 -2.4784302914 -1.7493330655
C 3.4916088642 -3.0146557524 -0.4613550446
C 2.4891921225 -2.7051634165 0.4555957659
C 1.4246735668 -1.8683357046 0.1237724320
C 1.3711738776 -1.3481141876 -1.1763469886
C 2.3568924215 -1.6454333121 -2.1014722505
C 0.3968909900 -1.5461351568 1.1758809496
S -1.2978551911 -1.8572870355 0.4646765768
C -2.3529712409 -0.8930863963 1.5316550465
C -3.3131809966 -1.5473094505 2.3089285819
C -4.2166707214 -0.8220238914 3.0765657706
C -4.1464239203 0.5689623018 3.0977631821
C -3.1842077310 1.2302337311 2.3451094085
C -2.2904706777 0.5128342560 1.5467426511
N -1.3481252821 1.2277444346 0.7563978771
C -1.8565802254 2.2128149914 -0.2129372264
C -2.2193013295 1.5136762917 -1.5249182455
N -2.7723979576 2.4450850115 -2.5094761056
C -1.7270331457 3.3155898290 -3.0582609374
C -3.4040104801 1.6951148071 -3.5991027264
C -0.0099052228 0.9553060922 0.7527471911
O 0.7882406189 1.5400628951 0.0261796653
C 0.4559503671 -0.1159089554 1.7436951702
O 1.8303981576 0.1101899727 2.0944743973
C 2.0695782899 1.2413248598 2.8074611285
C 3.5341690589 1.4249113440 3.0483266888
O 1.1870822266 1.9911285032 3.1673940595
H 5.1134299738 -4.5660653016 -2.1385335216
H 6.0492237998 -3.1363978121 -1.5935455324
H 6.0566503563 -3.6094065519 -3.3170679813
H 4.3010263983 -3.6683150907 -0.1612611839
H 2.5464468443 -3.1248695096 1.4561933715
H 0.5484081256 -0.7056987729 -1.4710598920
H 2.3144117568 -1.2422310301 -3.1081629502
H 0.5384288587 -2.2257707266 2.0219464905
H -3.3485296326 -2.6315535318 2.2980021952
H -4.9633712801 -1.3430127250 3.6666119884
H -4.8325836058 1.1426766126 3.7119768581
H -3.1144792037 2.3125083561 2.3787992544
H -1.0816215590 2.9675062840 -0.3545035046
H -2.7429686836 2.6940138259 0.2062965409
H -1.3265814551 0.9854720221 -1.9151525206
H -2.9777604647 0.7518610059 -1.3051237655
H -1.2837868570 3.9335813844 -2.2728287416
H -2.1666325777 3.9856841281 -3.8036261025
H -0.9173839123 2.7376179982 -3.5439548138
H -3.8337314655 2.3932013576 -4.3248096509
H -2.6869248484 1.0419247431 -4.1325141944
H -4.2095804929 1.0692923684 -3.2017616491
H -0.1502294980 -0.0678215648 2.6531581880
H 4.0193574543 0.4710481525 3.2642665441
H 3.9824436776 1.8294843251 2.1339672007
H 3.6869186686 2.1329354038 3.8622303926
