24
CONF71
O 3.3525171179 -1.0800167695 -1.5627051682
S 3.4581262293 -0.3262614360 -0.1391045576
O 3.1623093130 -1.2361423798 0.9613209878
O 4.6712694973 0.4750086723 -0.1987960376
C 2.0315569931 0.9554391982 -0.2800065031
F 2.3150115835 1.9135258360 0.6145644234
F 2.0719730217 1.4693826536 -1.5191292430
C 0.6264619862 0.3446339508 0.0211279633
F 0.5220680410 -0.8362867250 -0.6363228280
F 0.5436622049 0.1261006782 1.3493130426
C -0.5587276040 1.2611321135 -0.4321043650
F -0.6497542961 1.2212566280 -1.7767057619
F -0.2759309642 2.5313553540 -0.0522846426
C -1.9801747281 0.9428283419 0.1732939539
F -2.8333006217 1.8039600036 -0.4327312345
F -1.9529838126 1.2201458625 1.4934888067
C -2.5210956572 -0.5077082932 -0.0253169662
F -2.3261130792 -0.8914425488 -1.3069196045
F -1.8355266930 -1.3357643917 0.7952368096
C -4.0443682672 -0.6810655142 0.2903050532
F -4.3328531714 -1.9893182463 0.2787297570
F -4.7948342879 -0.0694124890 -0.6313401888
F -4.3363742044 -0.1830040401 1.4983458496
H 2.8221660566 -1.8975090534 -1.4821367229
