39
CONF1284
C 2.7599966831 -0.1814910889 -1.2214793728
C 2.3213797030 -1.5190957709 -1.7644999264
O 1.7495305739 -2.2858532740 -0.6978465589
C 0.7005786506 -3.1649408363 -1.0983486525
C -0.6097900172 -2.4421390699 -1.3359035713
O -0.9947018540 -1.8345750320 -0.0918736082
C -1.8877196052 -0.8063505992 -0.1431510560
C -2.7335366161 -0.5480240881 -1.2186414901
C -3.6032398878 0.5448080120 -1.1832152868
C -3.6303357014 1.3757485676 -0.0723914335
C -2.7945748411 1.1177631076 1.0171948939
C -1.9270872886 0.0299944135 0.9960486255
O -1.0971838957 -0.3338940457 2.0196594071
C -0.6815780987 0.6752194567 2.9593176171
C 0.2576685809 1.6792140437 2.3312390135
O 1.4469749353 0.9908566127 1.9484725915
C 2.3195283708 1.7621410922 1.1220388076
C 1.8591078302 1.8527687515 -0.3301567132
O 1.5915182313 0.5876230214 -0.9323280092
H 3.3700155978 -0.3385450120 -0.3203361085
H 3.3797622935 0.3351446294 -1.9719156031
H 1.5967467548 -1.3633895420 -2.5744383097
H 3.1914716997 -2.0492670269 -2.1803411315
H 0.9672952849 -3.7198895994 -2.0105250670
H 0.5802741907 -3.8847563058 -0.2819992452
H -0.5014999172 -1.6672329862 -2.1050526995
H -1.3728944698 -3.1600500221 -1.6678206080
H -2.7190956078 -1.1950908908 -2.0881417120
H -4.2527143097 0.7364172658 -2.0311570943
H -4.2983428663 2.2302774310 -0.0392498188
H -2.8239368065 1.7767416916 1.8770776230
H -0.1634344636 0.1176292743 3.7439364713
H -1.5406931845 1.1848464665 3.4099442377
H -0.2216647134 2.1578392343 1.4660999369
H 0.4871612021 2.4639218307 3.0703386145
H 2.4317113882 2.7859971556 1.5137977274
H 3.2959502035 1.2727385098 1.1886179842
H 0.9212022482 2.4128158523 -0.4039240372
H 2.6261494208 2.4040789975 -0.8990462048
