47
CONF41
C -5.2514958676 -2.5919200147 3.1420606630
O -5.8294538216 -2.4657642301 1.8128916572
P -4.8954458922 -2.1159502923 0.5633136612
S -3.2151101707 -3.0768615833 0.4045667583
O -5.9306736374 -2.2338626357 -0.6485899275
C -6.2372244165 -3.5374073720 -1.2199554012
O -4.7843727203 -0.5045749093 0.7090013920
C -3.8182222757 0.2256032535 0.0074006644
C -3.9891201033 0.4870432343 -1.3446772652
C -3.0294937958 1.2415310233 -2.0120230055
C -1.9256093918 1.7453925658 -1.3191153328
C -1.7823513999 1.4892876742 0.0472517245
C -2.7255840985 0.7146611965 0.7104694876
S -0.7784500294 2.7779738447 -2.2234692853
C 0.7795020310 2.4325484418 -1.4156126816
C 1.2435506784 1.1216805968 -1.2767192370
C 2.4730830394 0.8745287512 -0.6809166995
C 3.2468902664 1.9522302373 -0.2591028676
C 2.8103449739 3.2608198106 -0.4072630332
C 1.5629436802 3.5000400609 -0.9752655606
O 4.4718344871 1.7693071841 0.3795445387
P 5.6559992384 0.8190634987 -0.1912173105
S 6.0144395801 0.8864200630 -2.0920192339
O 5.1865577321 -0.5902821081 0.4220742447
C 5.9587421490 -1.7881111152 0.1239955194
O 6.8988859217 1.3100896256 0.6809040970
C 6.8227703767 1.3168302584 2.1397497199
H -4.5032846438 -3.3883370758 3.1499172257
H -6.0827396717 -2.8440667422 3.7997143687
H -4.8023165759 -1.6429553404 3.4480738046
H -5.3241175216 -4.0036267599 -1.5983836826
H -6.7096774617 -4.1751569228 -0.4681484641
H -6.9305451187 -3.3415515986 -2.0372482429
H -4.8514479437 0.0939967877 -1.8720930847
H -3.1416895621 1.4336111606 -3.0742791058
H -0.9341149120 1.8859438634 0.5945552181
H -2.6236049800 0.4964168218 1.7681404023
H 0.6397139482 0.2894129467 -1.6230319042
H 2.8272927777 -0.1423435254 -0.5548179143
H 3.4354702466 4.0785647152 -0.0659324906
H 1.2023755112 4.5183343229 -1.0746037270
H 6.9838360521 -1.6777345460 0.4891895986
H 5.4570678923 -2.5987072919 0.6515806036
H 5.9562076600 -1.9745671252 -0.9529416209
H 7.8247395914 1.5743459132 2.4810914962
H 6.1039499343 2.0700758660 2.4698319239
H 6.5399471641 0.3280276662 2.5091543055
