49
CONF7
C -1.5853058386 2.7560187246 3.1543879561
C -0.3618957529 2.2318356228 3.5647969561
C 0.1674808112 1.1079503552 2.9380609539
C -0.5241497944 0.5297397718 1.8746489697
C -1.7482557066 1.0468085735 1.4517128588
C -2.2757935364 2.1566859294 2.1026572772
N 0.0533086655 -0.6066121538 1.2376356368
C 1.2440669447 -0.5300243170 0.5228919735
O 2.1212335956 0.2898788764 0.7131574862
C 1.2476947633 -1.6814683633 -0.4577578655
C -0.1698517732 -2.2025857786 -0.4160128186
O -0.6510384813 -3.1079295268 -1.0769308180
N -0.8161810085 -1.5366279728 0.6111033190
C -1.8933036371 -2.0797655664 1.3598581537
C -1.7952807266 -2.2151581513 2.7460666397
C -2.8639489226 -2.7554966240 3.4527110134
C -4.0162971913 -3.1685088999 2.7870523316
C -4.1015441411 -3.0283408118 1.4039008084
C -3.0490189449 -2.4718684509 0.6840352358
C 1.8931442480 -1.4185955523 -1.8278345566
C 0.9607119783 -1.0355818426 -2.9691753251
S 0.1750940592 0.6320692506 -2.8296296700
O -0.3261799345 0.7476158783 -1.3846580779
C 1.6861758458 1.6417671712 -2.9460340367
C 2.0982029493 2.3598666084 -1.8322476353
C 3.2254091639 3.1733225076 -1.9374225646
C 3.9139710477 3.2656809135 -3.1441575917
C 3.4758564838 2.5491999332 -4.2581135938
C 2.3498773314 1.7368905564 -4.1675972890
H -2.0019502231 3.6239472606 3.6550291742
H 0.1789896879 2.6869551274 4.3883113645
H 1.1058309608 0.6769070622 3.2669191663
H -2.2748979308 0.5931879719 0.6209053854
H -3.2293957901 2.5601195970 1.7770658930
H 1.8330373939 -2.4718667026 0.0410887224
H -0.8956830150 -1.9022243828 3.2641418472
H -2.7894896486 -2.8590411113 4.5305077447
H -4.8457409848 -3.5908625026 3.3446572921
H -4.9993377098 -3.3377531523 0.8784368250
H -3.1199001058 -2.3344938209 -0.3879232539
H 2.6744048133 -0.6613728291 -1.6940908868
H 2.3979736410 -2.3350459718 -2.1472744622
H 1.5017451842 -1.0263580037 -3.9213719698
H 0.1192751528 -1.7293705169 -3.0612204490
H 1.5519758735 2.2675665350 -0.9001976796
H 3.5637949511 3.7344776554 -1.0720473828
H 4.7902374493 3.9013693817 -3.2212753287
H 4.0069079645 2.6277056154 -5.2013822626
H 1.9980388378 1.1893872268 -5.0377243538
