44
CONF39
C -4.7583642137 0.5125248182 -0.6441866355
C -4.3643372594 -0.7811080133 -1.3665711909
C -2.8636814352 -0.5968243164 -1.6452898692
C -2.3341284126 0.3451749103 -0.5178287615
C -3.5847932217 0.7257292654 0.3141679576
N -1.2540726960 -0.2420673737 0.2907895292
C -1.3699541039 -1.6369951891 0.6951696341
C -0.5462686710 -2.6152005560 -0.1196325372
C -0.7115751406 -3.9833621630 0.1100495227
C 0.0224142550 -4.9266797429 -0.6004216405
C 0.9325136227 -4.4823123233 -1.5526184080
C 1.1191720766 -3.1301853185 -1.8046109448
C 0.3734454348 -2.2025699343 -1.0806299477
Cl 1.8702454076 -5.6663720741 -2.4631436709
C -0.2210651360 0.4692166204 0.8501466729
O 0.6883757850 -0.0883896023 1.4724392227
N -0.2652182467 1.8459755340 0.6660660183
C 0.7283604376 2.7558860830 1.0598527859
C 0.3293394437 4.0634733898 1.3703925875
C 1.2722775099 5.0241101559 1.7155399907
C 2.6260282561 4.6980888355 1.7665632916
C 3.0213922483 3.3996366250 1.4521564463
C 2.0901315034 2.4296721060 1.0937006350
H -5.7206997461 0.4453196135 -0.1283322582
H -4.8161402040 1.3403858832 -1.3622737328
H -4.5247977377 -1.6338202127 -0.6949420004
H -4.9403280896 -0.9629989127 -2.2782568718
H -2.7196340633 -0.1015328421 -2.6102227510
H -2.3192820485 -1.5421180134 -1.6902797745
H -1.9236997215 1.2329873362 -1.0047444057
H -3.6724112180 0.0319155748 1.1594540776
H -3.5255877702 1.7400282883 0.7213686105
H -1.0768541370 -1.7280973970 1.7471966112
H -2.4259466032 -1.9238492349 0.6357895530
H -1.4266767737 -4.3227983867 0.8550002049
H -0.1128496271 -5.9868528710 -0.4183322274
H 1.8336041722 -2.8021049025 -2.5512257241
H 0.5125537054 -1.1441488158 -1.2754963485
H -1.1652022978 2.2619653115 0.4834767370
H 0.9426356725 6.0311547883 1.9521782841
H 4.0737396260 3.1326670711 1.4762317638
H 2.4135978872 1.4293619655 0.8405449408
H 3.3620209665 5.4459089090 2.0426500008
H -0.7258821476 4.3223153562 1.3394465503
