12
CONF33
C -0.7595035279 -1.2388564414 -0.6123077504
O -2.1632499120 -1.2595423043 -0.5832910300
O -0.1793601597 -0.7859536649 0.6010742345
O -0.3800671816 0.6772350173 0.6580940822
C 0.9143600246 1.2539506853 0.7211292956
O 1.6096317831 1.2104736825 -0.4970931414
H -0.4115639117 -2.2765394361 -0.6715956489
H -0.3802664647 -0.6406132256 -1.4491541517
H -2.4860090309 -0.3795848162 -0.8174143491
H 1.4861103041 0.7820605183 1.5304660270
H 0.6988324584 2.3035108271 0.9509823565
H 2.0510856131 0.3538592639 -0.5661129257
