53
CONF35
C -1.1789971069 5.1130198756 0.4083893030
C -1.3575478738 4.1407812529 -0.7402008371
O -1.0935245610 2.7776238436 -0.3152095751
C 0.2051255117 2.3760851929 -0.3118318471
O 1.1192881487 3.1085443990 -0.6779004454
C 0.3392825582 1.0136471543 0.1832359075
C 1.5792573563 0.4575762468 0.3094305864
N 1.7298661013 -0.7568128385 0.9145802209
C 0.7091158954 -1.4422902532 1.5261006702
C -0.5693190960 -0.9713475799 1.4366527439
C -0.9116902845 0.2444004971 0.5849915434
C -1.8005830779 -0.1106060314 -0.6127210489
C -3.0861708217 0.4445051849 -0.6767176404
C -3.9606395380 0.1793971346 -1.7206007179
C -3.5661828450 -0.6676393894 -2.7541927857
C -2.3008278683 -1.2385241690 -2.7269365568
C -1.4432387554 -0.9551342596 -1.6654268018
Cl 0.1440011381 -1.7299116715 -1.7185770167
C -1.6452212112 -1.6345776486 2.1650079860
O -1.5845233897 -2.6967439246 2.7721246020
O -2.7995305924 -0.9142139814 2.1043058347
C -3.9348689210 -1.5042376154 2.7680344187
C 1.1548555694 -2.6621237186 2.2735529925
C 2.8869081935 1.1007288164 -0.1309906743
O 3.9840971747 0.2096509206 -0.0028900498
C 4.1636960929 -0.6458147053 -1.1453854255
C 4.9286928468 -1.8719548921 -0.6943623271
N 4.1043792423 -2.6709234927 0.2303529561
H -0.1410093581 5.1283861067 0.7504589479
H -1.8264390544 4.8414187583 1.2473027184
H -1.4487722115 6.1208142074 0.0769970087
H -0.7052799749 4.3861697261 -1.5825164421
H -2.3954268133 4.1165371553 -1.0818997827
H 2.6648167250 -1.1724475580 0.9230307226
H -1.5285473671 0.9141113096 1.1910361768
H -3.3922347021 1.1052693792 0.1282839141
H -4.9470288572 0.6318712895 -1.7290332892
H -4.2359909344 -0.8865717158 -3.5794662985
H -1.9736358629 -1.9010451352 -3.5205441874
H -4.1585076203 -2.4865208972 2.3433337442
H -3.7445627635 -1.6063525271 3.8398593661
H -4.7621091892 -0.8161694711 2.5927854144
H 0.6739303171 -3.5573949734 1.8723238320
H 2.2388269083 -2.7729753719 2.2045430056
H 0.8641308190 -2.5970664847 3.3244552447
H 2.7936868608 1.4744239074 -1.1559932643
H 3.0921109048 1.9642060686 0.5102372874
H 3.1860751701 -0.9404507497 -1.5579619040
H 4.7164462330 -0.1047506763 -1.9268537759
H 5.2529902529 -2.4261519531 -1.5890727125
H 5.8324570275 -1.5467537765 -0.1663702595
H 3.4421112259 -3.2274630073 -0.3026668993
H 4.6862622774 -3.3341963548 0.7301035057
