26
CONF18
C 0.4825314623 -1.6409196269 2.1241633456
C 0.5605217476 -1.9394224608 0.6278066672
N 1.1363543697 -0.8465083461 -0.1696794520
C 2.6032021600 -0.8251361438 -0.3158611741
C 3.3010020974 0.1208312070 0.6576587046
C 0.3911697628 0.1414769193 -0.7158509757
S 1.0074900602 1.3829950249 -1.6502229125
S -1.3644046244 0.0047595134 -0.3342954905
C -2.0436997607 1.4369087993 -1.2686446225
C -3.5262572958 1.4593923295 -1.1136936905
C -4.2109353335 2.3715945916 -0.4329614711
Cl -4.3727425491 0.1594458037 -1.9505151352
H 1.4780584577 -1.5364552600 2.5620543737
H -0.0283663333 -2.4625455280 2.6356422959
H -0.0782664249 -0.7211521242 2.3085448195
H -0.4333764838 -2.1757030874 0.2340431062
H 1.1789339131 -2.8259179896 0.4518612297
H 2.9485689274 -1.8527989235 -0.1637402706
H 2.8322379147 -0.5326596991 -1.3448617047
H 4.3774423145 0.1146869503 0.4600823593
H 2.9357938963 1.1411215438 0.5226103122
H 3.1429854808 -0.1787638749 1.6966118522
H -1.6069741994 2.3549208636 -0.8688856891
H -1.7445587381 1.3315340684 -2.3150905314
H -3.6748204756 3.1617430210 0.0815316554
H -5.2918902404 2.3565726294 -0.3760212913
