47
CONF42
C -6.5293001547 -0.9360153757 3.0568431387
O -6.0680860825 -0.0936133778 1.9610623951
P -5.3308267401 -0.7438008482 0.7024482935
S -3.9415789331 -2.0562367783 1.0553051540
O -6.5702842206 -1.2042677410 -0.1936291583
C -6.3486407403 -1.9670499827 -1.4142352140
O -4.8603930856 0.5885399362 -0.0946842622
C -3.6363132986 1.2062703613 0.1823110948
C -3.4894231861 1.9753249866 1.3275594299
C -2.2693108829 2.6019748290 1.5652274540
C -1.2258569330 2.4739066200 0.6468386553
C -1.4020508007 1.7155890675 -0.5146266155
C -2.6075130150 1.0652604490 -0.7411074461
S 0.2897102608 3.3726116578 0.9546695688
C 1.5517630917 2.1601137710 0.5845532998
C 2.7259725580 2.6041374024 -0.0273926251
C 3.7681541903 1.7138911893 -0.2680991724
C 3.6094995671 0.3807167130 0.0839864262
C 2.4453147509 -0.0784947588 0.6875378180
C 1.4187673807 0.8181006610 0.9530701321
O 4.6463777600 -0.5330225898 -0.1175469129
P 5.0738449804 -1.0239867214 -1.6137567850
S 3.6048888456 -1.2811092216 -2.8530591554
O 5.9908439910 -2.2744825435 -1.2334178226
C 5.3848858665 -3.4805509432 -0.6862053439
O 6.1433844284 0.0276176806 -2.1513400970
C 7.3244509056 0.3604926932 -1.3548774828
H -6.9595013338 -0.2522553158 3.7876629894
H -5.6852489943 -1.4768696821 3.4915192306
H -7.2896228814 -1.6347582823 2.6985005158
H -5.8494783864 -2.9101519894 -1.1789565049
H -7.3400536158 -2.1535851300 -1.8255110952
H -5.7508574501 -1.3826814712 -2.1189404337
H -4.3095175967 2.0706004126 2.0305350260
H -2.1323630102 3.1872267420 2.4684864908
H -0.5974307581 1.6247931477 -1.2367398872
H -2.7598891097 0.4623407549 -1.6298440118
H 2.8301780886 3.6440061791 -0.3196717760
H 4.6855469975 2.0527888444 -0.7377593798
H 2.3547039857 -1.1258767029 0.9552966837
H 0.5138309844 0.4691266882 1.4390282805
H 4.8901741596 -3.2539809096 0.2617763288
H 4.6712329445 -3.8956654143 -1.4025632408
H 6.2083084092 -4.1754778532 -0.5260295952
H 8.0083714486 -0.4901536338 -1.3383699433
H 7.7832620566 1.2100312454 -1.8591462802
H 7.0300724519 0.6386254250 -0.3396621631
