33
CONF5
C -5.0643610549 0.0462460832 1.1047297208
C -3.7731911721 0.7622042292 1.4882986983
C -3.5249831892 2.0562963115 0.7232199554
S -3.3401459179 1.8386983417 -1.1075448622
C -1.9560916840 0.7048381117 -1.1847649414
C -2.1382143162 -0.5394974415 -1.8160264174
C -1.0956172156 -1.4537698390 -1.9394925421
C 0.1421491975 -1.1137597505 -1.3971619461
C 0.3035006365 0.1390997256 -0.7574570469
C -0.7165539650 1.0704504665 -0.6499889024
N 1.6230292991 0.1619198060 -0.3429118540
C 2.1695852912 -1.0278075176 -0.7341939996
N 1.3316135877 -1.8269346551 -1.3667969042
N 3.4816555227 -1.3730072001 -0.4952314477
C 4.4029326578 -0.5931988627 0.1634976532
O 4.1808523643 0.5154218404 0.6213705620
O 5.5784070419 -1.2382060202 0.2255225569
C 6.6387496157 -0.5162679862 0.9033570390
H -5.2169554277 -0.8388329660 1.7295119511
H -5.0396711356 -0.2766666460 0.0594649545
H -5.9294005441 0.7065187038 1.2328395521
H -2.9148428736 0.0927273459 1.3522125273
H -3.7960172808 1.0224598688 2.5548758453
H -2.6349451288 2.5701147364 1.0987793150
H -4.3753829101 2.7411096906 0.8226259395
H -3.1181024496 -0.7882123671 -2.2101204518
H -1.2467623665 -2.4090789235 -2.4318023352
H -0.5632990312 2.0339300856 -0.1759266587
H 2.1189303477 0.8906285479 0.1507991573
H 3.7694568991 -2.2811664220 -0.8342031956
H 7.5024317671 -1.1776822487 0.8586665555
H 6.3562233050 -0.3209035782 1.9400602973
H 6.8450216482 0.4223288417 0.3845124368
