48
CONF93
C -2.8793592347 1.7016514526 -2.8569622817
C -1.3601538700 1.7364964424 -2.9985538810
C -0.6514213584 1.6787359377 -1.6442623600
C 0.8639988148 1.8533061217 -1.7772947903
O 1.4127653048 2.2865381261 -2.7687944286
O 1.4904330215 1.5477519944 -0.6369683418
C 2.9479686869 1.6126078453 -0.6587203874
C 3.4430497966 1.0278040454 0.6449880772
C 3.0613566631 -0.4491877688 0.8150334136
C 3.5150882123 -1.0009133188 2.1288042285
C 4.3357593047 -2.0391425092 2.2824489459
N -1.0054568963 0.4655132714 -0.8871798860
C -1.7178909304 0.6444518474 0.4025672346
C -0.8308278949 1.1183972880 1.4933539864
C -0.1540949337 0.4710889903 2.4822096514
C 0.5726564343 1.4693412717 3.2016984302
C 0.2876893162 2.6564747795 2.6035686009
O -0.5729963767 2.4645641195 1.5591730771
C -0.4275537013 -0.6854570646 -1.2954410513
O 0.4363951817 -0.7570587403 -2.1616534944
N -0.8872454546 -1.8907478476 -0.6629916771
C -2.1876870978 -2.3507013583 -0.5148667966
C -2.0693693366 -3.5925925130 0.0430438527
N -0.7381467547 -3.9116371986 0.2474304199
C -0.0562712796 -2.8812130698 -0.1995735714
H -3.3540997927 1.7619405257 -3.8401998789
H -3.2146714600 0.7749142679 -2.3800890613
H -3.2384985090 2.5434954020 -2.2548798476
H -1.0108103989 0.9079143851 -3.6230773342
H -1.0465381578 2.6614956590 -3.4909335079
H -0.9905413892 2.5276845580 -1.0370220114
H 3.2484014084 2.6583192799 -0.7784389987
H 3.3035787302 1.0389084507 -1.5215177678
H 4.5342239308 1.1349230616 0.6616482931
H 3.0462844779 1.6141358428 1.4827814849
H 3.4779695970 -1.0410979977 -0.0094338861
H 1.9672024438 -0.5260024390 0.7566824974
H 3.1332420644 -0.4871064619 3.0128218984
H 4.6283822624 -2.3903770833 3.2676372728
H 4.7378705454 -2.5717281387 1.4230982466
H -2.5352036341 1.3517706864 0.2312384889
H -2.1584679222 -0.3014793076 0.7125313421
H -0.1715309458 -0.5933352309 2.6685823769
H 1.2186376126 1.3227608745 4.0547302028
H 0.5861873754 3.6771024407 2.7871862706
H -3.0397318570 -1.7771509585 -0.8468238088
H -2.8650754405 -4.2780412229 0.2996552301
H 1.0200261871 -2.7689551963 -0.2080672855
