44
CONF78
C -4.3827919336 -2.4476357971 -0.4522838008
C -2.9622975134 -2.2211382500 0.0249125705
C -1.8936173864 -2.6252193975 -0.9983663428
O -1.6875668292 -1.4163085558 -1.7322802200
C -1.7296839990 -0.3994438110 -0.7582684367
O -2.7207061317 -0.7986259140 0.1847992661
C -2.1845279168 0.9212948237 -1.3995330370
N -3.4757610910 0.8108827772 -2.0399099725
C -4.7061715603 0.8650594638 -1.4784063371
N -5.6389739652 0.6539112498 -2.3907953476
C -4.9023606235 0.4638656611 -3.5230454155
N -3.5885968431 0.5473668080 -3.3643196558
C -0.3782511440 -0.2203540074 -0.0541576990
C -0.3271548648 -0.2141100563 1.3432971071
C 0.8583714205 -0.0529008906 2.0428483567
C 2.0445718315 0.1050502192 1.3346147185
C 2.0423937653 0.1035938620 -0.0569116580
C 0.8358224165 -0.0502482374 -0.7307817152
Cl 0.9265092466 -0.0295768236 -2.4842544366
O 3.2004369117 0.1942475302 2.0731497288
C 4.2917489901 0.8645576711 1.5477513401
C 5.5289086269 0.2393456573 1.6360891620
C 6.6692265182 0.9053816382 1.2007785924
C 6.5486624168 2.1861189762 0.6751660210
C 5.3112765590 2.8158150436 0.5858658645
C 4.1751421028 2.1516903814 1.0304169158
Cl 7.9815277344 3.0267012756 0.1176722744
H -4.6035754858 -3.5200544209 -0.4761818080
H -4.5204317818 -2.0346684428 -1.4562735934
H -5.0967490318 -1.9653830002 0.2205988750
H -2.7893694650 -2.7005903796 0.9966245981
H -0.9612839837 -2.9438207138 -0.5097970317
H -2.2290068789 -3.3909705553 -1.7005030342
H -2.2385332987 1.6727664636 -0.6059600563
H -1.4570978360 1.2404658436 -2.1469846142
H -4.8586343499 1.0521581652 -0.4244850093
H -5.3425957353 0.2673081145 -4.4916788933
H -1.2580334680 -0.3389211282 1.8834216160
H 0.8800108995 -0.0515586993 3.1264851806
H 2.9644899778 0.2140984031 -0.6140439602
H 5.5911162288 -0.7609823534 2.0494643970
H 7.6415436789 0.4314443523 1.2642147450
H 5.2385402506 3.8187027115 0.1820121466
H 3.2034725354 2.6306845218 0.9775161864
