63
CONF27
C 0.8206812629 -4.0397610091 3.2573713823
O 0.6042496008 -3.7726500153 1.8475391283
C 1.6603755622 -4.0003893855 1.0682090274
O 2.7373977287 -4.4248732400 1.4154265024
O 1.2853034422 -3.7129504887 -0.2009224609
C 2.3456773212 -3.6558497556 -1.1664349619
O 3.0089140542 -2.4066273039 -1.0884070195
C 2.2617425718 -1.3653211675 -1.5685296925
C 1.6898558667 -0.4456610934 -0.7223538649
C 1.9193390638 -0.4100801827 0.7665640202
O 2.5245305927 -1.3062155563 1.3510413568
N 1.4565810104 0.7006674528 1.4093275664
C 2.0507029659 1.1170121035 2.6831813771
C 3.0678868418 2.2154756251 2.3791602060
O 2.4566441074 3.3048276663 1.6723070917
C 1.8935147817 2.8919663931 0.4253828786
C 0.8300953627 1.8252261238 0.6975937569
N 0.1245909851 1.3813938765 -0.4836825685
N 0.9946831152 0.6125613535 -1.2862485835
C 0.8955302592 0.7809361336 -2.6295669619
C 1.4738801029 -0.0914291128 -3.4975707289
C 2.1719848176 -1.2533094189 -3.0306673983
O 2.6911052982 -2.1079885108 -3.7768051209
C -1.1218937445 0.5805787263 -0.1352170821
C -2.1235890961 1.4422596662 0.5969548526
C -2.6314625215 2.6316873038 0.0455224796
C -2.1871123401 3.1349899995 -1.2874577826
S -2.8758984049 2.1328653876 -2.6650402904
C -2.3762368263 0.4381163553 -2.4217640134
C -2.7931328401 -0.3784776052 -3.4870139134
C -2.5133358844 -1.7349415490 -3.5112972347
C -1.8165472996 -2.3183171985 -2.4554952929
C -1.4129570809 -1.5201385798 -1.3971506806
C -1.6675312125 -0.1399184321 -1.3502932862
C -3.5898228765 3.3267614948 0.7733255910
C -4.0340083844 2.8778450997 2.0102549630
C -3.5335458499 1.7145582655 2.5586788505
C -2.5746671563 1.0046903998 1.8427752097
F -4.9603856071 3.6035165035 2.6657556864
F -4.1131410950 4.4696363733 0.2854328174
H 1.0661835907 -5.0935272901 3.4064441488
H -0.1229883050 -3.7927461471 3.7411383167
H 1.6259292170 -3.4062125811 3.6357305023
H 1.8538799383 -3.7892155513 -2.1311827787
H 3.0972308207 -4.4188610487 -0.9643729849
H 2.5293268558 0.2601631471 3.1600680678
H 1.2548858651 1.4991854895 3.3323829964
H 3.4659080283 2.6353073600 3.3064751194
H 3.8938172628 1.7987756280 1.7817684471
H 2.6745382244 2.4949537647 -0.2421619511
H 1.4330309396 3.7744730847 -0.0262865900
H 0.0819891346 2.2598821507 1.3721536121
H 0.3260246050 1.6488607428 -2.9414590925
H 1.3969735254 0.0869107053 -4.5639151309
H -0.8333502570 -0.2097938569 0.5688667370
H -1.1006058166 3.1606264533 -1.3644691042
H -2.5803399067 4.1337414592 -1.4879943533
H -3.3402966494 0.0681381438 -4.3129547581
H -2.8437315802 -2.3329860095 -4.3545355685
H -1.5922742235 -3.3797332091 -2.4546932937
H -0.8681721208 -1.9709892556 -0.5725189385
H -3.8872026026 1.3798729014 3.5275770263
H -2.1707577082 0.0905005221 2.2658962534
