53
CONF59
C -0.5395418937 -3.1172060738 -2.0005534631
N 0.5079352978 -2.1874400111 -1.5675219790
C 1.8206827857 -2.8115162693 -1.8109248181
C 2.9682870086 -1.9360777396 -1.3275646976
C 2.9103925575 -0.5732249816 -2.0111008760
C 1.5325367164 0.0419785360 -1.7889179510
C 0.4132077815 -0.8886186001 -2.2683460190
C -0.9728411604 -0.2414699251 -2.1130089701
C -1.4598189799 -0.0991058801 -0.6656107851
N -0.9160659163 1.0907648263 0.0056639207
C -1.2278054827 2.3640441013 -0.5100715934
C -2.3305943453 2.5755157556 -1.3472367003
C -2.5954063317 3.8412299105 -1.8637629452
C -1.7900894940 4.9262935985 -1.5332440173
C -0.7077541558 4.7377082076 -0.6769776455
C -0.4193935970 3.4664158797 -0.1910373063
S 1.0405041701 3.2105270458 0.7959404707
C 0.4209015297 1.9329496858 1.8585338291
C -0.4880342623 0.9904490063 1.3344436023
C -0.9229394227 -0.0385177563 2.1786597450
C -0.4038251720 -0.1349531326 3.4658852727
C 0.5044181784 0.7802857831 3.9802855756
C 0.8921228842 1.8387028147 3.1646806796
S -0.9311917926 -1.5133004664 4.4901088791
O -0.6833747672 -1.1598387341 5.9072928361
O -2.3039973100 -1.8979659582 4.0846797684
C 0.1872597464 -2.8513769615 4.0328587158
H -0.5541934550 -3.2570720336 -3.0986272020
H -1.5294617336 -2.7741713378 -1.6868166118
H -0.3642187469 -4.0930997862 -1.5369105108
H 1.8354311067 -3.7768203957 -1.2911913901
H 1.9554349609 -3.0206630894 -2.8929546739
H 3.9180235442 -2.4426293428 -1.5342923712
H 2.8926336481 -1.8076095575 -0.2395348023
H 3.6938093095 0.0906978614 -1.6282452840
H 3.0875824903 -0.6990088796 -3.0884462285
H 1.4415734220 0.9993108823 -2.3160792910
H 1.3959303787 0.2468348204 -0.7205526198
H 0.5579691324 -1.0534528996 -3.3585624058
H -1.7191125041 -0.8255005766 -2.6604429670
H -0.9387319871 0.7347777496 -2.6069046175
H -1.1045744851 -0.9692855839 -0.1115786783
H -2.5576035835 -0.1106027526 -0.6193725503
H -2.9809457842 1.7499323235 -1.6100272646
H -3.4466060139 3.9737782200 -2.5238001140
H -1.9992273410 5.9131729513 -1.9317761445
H -0.0699720819 5.5720422385 -0.4019037738
H -1.6628286615 -0.7565244910 1.8479617911
H 0.8892431180 0.6838569879 4.9883721494
H 1.5865340800 2.5848583142 3.5371143913
H 0.0617195407 -3.0536390321 2.9668034063
H 1.2083634725 -2.5377747898 4.2603306550
H -0.1023462505 -3.7176606368 4.6342838871
