29
CONF1
C -0.6824091519 0.0110821612 -3.8430250671
C -0.0522989971 -0.6391900966 -2.6339267806
O -0.9301016902 -0.4806186033 -1.4747623521
P -0.7049638079 0.6506707838 -0.3808000626
S 0.5221884846 2.0971123852 -0.7272992441
O -2.2238503491 0.9940921502 -0.0439957250
C -2.5894737443 2.2037730222 0.6866109914
C -2.2854901612 2.0905898713 2.1644119448
O -0.3642595422 -0.2180719532 1.0081323343
C 0.8173181061 -0.8423735309 1.1947832555
N 1.5644255974 -1.1575888885 0.1507740567
C 2.7132341258 -1.7820116493 0.3159748112
C 3.1910701944 -2.1476839565 1.5755480801
C 2.4118607807 -1.8263644767 2.6837245944
C 1.2109080481 -1.1623575507 2.5017551345
Cl 0.2208997495 -0.7352481027 3.8624686815
Cl 4.7005133893 -2.9734572264 1.7962526601
Cl 3.6232242252 -2.1449225629 -1.1260500382
H -1.6767242788 -0.4008511125 -4.0351052717
H -0.7664040019 1.0915126503 -3.6968185440
H -0.0543786820 -0.1701295890 -4.7213884402
H 0.9283222699 -0.2148144101 -2.4036810431
H 0.0519581907 -1.7207096176 -2.7511808242
H -3.6620987378 2.2989348819 0.5025192977
H -2.0696283471 3.0531428917 0.2303734332
H -2.7451077279 1.1943288703 2.5894012761
H -1.2084803164 2.0504701776 2.3462312496
H -2.6874122510 2.9691632397 2.6794280495
H 2.7471589161 -2.0884800443 3.6797460411
