73
CONF199
C 0.4320732450 2.4763252782 -2.2030649511
C -0.6986682074 2.5771369886 -1.2038447461
O -1.9323105242 2.5155716010 -1.9645188369
C -3.1089334900 2.5252855044 -1.1719690103
O -3.1732501603 1.4331622063 -0.2730293749
C -3.5276996503 0.1805313657 -0.8689738607
C -5.0024018784 -0.1111612166 -0.6199657114
O -5.7647547124 0.8426582630 -1.3555803391
C -5.3569758767 -1.5367400557 -1.0225665230
O -6.7209629091 -1.7400779085 -0.6400504751
C -4.4263446432 -2.5183613951 -0.3066659505
C -4.6354434728 -3.9674994412 -0.7064369904
O -4.5302570262 -4.1728376271 -2.1153184200
O -3.0682290561 -2.1889065207 -0.6609204095
C -2.6823294983 -0.9051861913 -0.2077129276
O -1.3450802356 -0.7073469914 -0.6082911125
C -0.3479953248 -1.2843696563 0.1254351339
C -0.5795943997 -2.2183865833 1.1354581007
C 0.5151280273 -2.7250346248 1.8274781442
O 0.3031908972 -3.6454455929 2.7797092496
C 1.8397161241 -2.3082724468 1.5233309839
C 2.9752081319 -2.9248985887 2.1545829524
O 2.8630139134 -3.8025556065 3.0338370996
C 4.3275367783 -2.4851485128 1.6595240028
C 4.2795982030 -1.0436138438 1.1710109749
O 3.2474911731 -0.9069047692 0.1414015246
C 2.0168291364 -1.3543714729 0.4899762435
C 0.9379549221 -0.8488885628 -0.2114540122
C 5.5707835186 -0.5586179380 0.5850988058
C 6.0903840412 -1.1292148996 -0.5798072151
C 7.2971940588 -0.6917073607 -1.1092919544
C 8.0082146001 0.3244713155 -0.4643131578
O 9.2014513705 0.7929879981 -0.9317668094
C 7.5028489130 0.9020309106 0.7005266886
C 6.2878292390 0.4620406701 1.2110218564
C -3.1846749603 3.8010539761 -0.3326186001
O -3.3896649159 4.9370854815 -1.1801041240
C -1.9086309586 3.9613010440 0.4954074650
O -1.9151567037 5.1865780583 1.2325977856
C -0.6743907387 3.8752183680 -0.3991386527
O 0.5197404211 3.8838039004 0.3841842474
H 1.3932114737 2.4897022534 -1.6831946641
H 0.3990855119 3.3174982007 -2.9033382667
H -0.6694009780 1.7314258438 -0.5042140885
H -3.9352175690 2.4930203982 -1.8904271659
H -3.3118740227 0.1851627699 -1.9460725797
H -5.1973077571 -0.0006123723 0.4609603538
H -5.2338588027 -1.6494112974 -2.1079758028
H -7.1121976580 -2.3876602325 -1.2386629490
H -4.5644721525 -2.4293628146 0.7842791279
H -5.6440624998 -4.2756934380 -0.4156398576
H -3.9142064681 -4.5907636549 -0.1590635542
H -3.6302823467 -3.9375948767 -2.3759886376
H -2.7687751349 -0.8348024076 0.8902590265
H -1.5673908278 -2.5904581301 1.3720194303
H 1.2072539941 -3.9101836696 3.1120052824
H 4.6257527065 -3.1539329832 0.8399107390
H 3.9848969066 -0.3905020627 2.0042139698
H 5.5445363791 -1.9185086363 -1.0883905314
H 7.6924883260 -1.1357263916 -2.0193030974
H 9.4409792991 0.3210457033 -1.7407403465
H 8.0611594097 1.6938728993 1.1889583692
H 5.8924026646 0.9215641488 2.1127154195
H -4.0557604569 3.7535579800 0.3282288494
H -2.7820073630 4.8639782127 -1.9302767205
H -1.8577265432 3.1546986276 1.2364747938
H -2.1767254665 5.8798337447 0.6078178791
H -0.6692925619 4.7277493025 -1.1012320457
H 0.4359823001 4.6203305395 1.0057340441
H 0.3529233272 1.5433113242 -2.7686048788
H 5.0643476660 -2.5896239555 2.4607218803
H -6.6954639486 0.6184505753 -1.2180316065
H 1.0823492753 -0.1086086660 -0.9881038411
