65
CONF694
C -0.1692183389 4.1530250781 0.0086242666
C 0.3917705786 2.7757876873 0.3524783499
C 0.5921178546 2.5564783770 1.8710353539
C 1.5915697733 3.5323613348 2.4856551649
C 1.0490528573 1.1262699683 2.0563138602
O 2.2101405797 0.7676087786 2.1190856513
O -0.0002395783 0.2832149127 2.0798592436
C 0.2865901304 -1.1540534215 2.0956065309
C 0.4365290379 -1.6477378890 3.5252512590
C -0.8329398408 -1.4819577642 4.3767438603
C -2.0698244478 -1.7324788567 3.5703998856
C -2.1102978835 -1.8923019413 2.2340879983
C -0.8654853263 -1.8427693880 1.3706404877
C -1.1906805549 -1.2259012043 -0.0083587521
C -2.2958516080 -2.0429123628 -0.7144866905
C -3.4592538457 -2.2551302858 0.2114552345
C -3.3634719371 -2.1581397868 1.5472791600
C -1.8214890965 -3.3880245846 -1.2923157353
C 0.0560881253 -1.0244972904 -0.8745745608
C -0.2473940688 -0.3431307878 -2.2101368613
C 0.9919255872 0.1758806941 -2.9138474656
C 0.6887989409 0.9569086683 -4.1733705512
C 1.9721023572 1.3036551323 -4.9183477745
C 2.6948413228 0.0102354520 -5.2750073315
C 2.7222616687 -1.0544710074 -4.2015477709
O 3.4765230379 -2.0060576331 -4.2569680748
O 1.8401664437 -1.0017898457 -3.1860892176
O 2.8046514631 2.2050749992 -4.1724616811
C -0.9131658477 -0.1229230735 5.0972502959
H -1.1097696175 4.3355271459 0.5399277048
H 0.5292918221 4.9529885248 0.2694065971
H -0.3683164481 4.2232456241 -1.0651880158
H -0.2888726356 2.0027161193 -0.0232020628
H 1.3561642268 2.6267894715 -0.1512732850
H -0.3849529153 2.6593958584 2.3589508928
H 1.2040759818 4.5529884520 2.4433580420
H 1.7824810297 3.2859065103 3.5341978211
H 2.5440662132 3.5001464575 1.9480620298
H 1.2245948444 -1.3102528318 1.5576706609
H 0.6905534714 -2.7126213759 3.4554520640
H 1.2854585813 -1.1459060398 4.0011905599
H -0.7963763619 -2.2464085078 5.1671634548
H -3.0077438230 -1.7767948928 4.1250672326
H -0.5267277022 -2.8773069071 1.2043449081
H -1.6204350921 -0.2320367140 0.1826521931
H -2.6612102019 -1.4420675278 -1.5591306819
H -4.4160339978 -2.5041799444 -0.2440224495
H -4.2467881710 -2.2990684612 2.1680513176
H -2.6673922306 -3.9236570396 -1.7348964424
H -1.0671822395 -3.2487449584 -2.0729189443
H -1.3976842711 -4.0267029159 -0.5109676477
H 0.7676876220 -0.3873438888 -0.3363744565
H 0.5635119715 -1.9821208131 -1.0406109761
H -0.7833026976 -1.0112522362 -2.8948151389
H -0.8980807795 0.5244389423 -2.0350758626
H 1.5691951052 0.7945761561 -2.2125173751
H 0.0343730515 0.3692970365 -4.8298029416
H 0.1573040036 1.8716859341 -3.8926652594
H 1.7331721740 1.8459053132 -5.8380538295
H 2.1853665271 -0.4611833509 -6.1262340257
H 3.7244170877 0.1979762470 -5.5917946462
H 3.2245009245 1.7277199834 -3.4455701273
H -0.0319270224 0.0242203134 5.7306920874
H -1.8025044049 -0.0802073508 5.7347484626
H -0.9667307221 0.7001084319 4.3799243269
