38
CONF9
C -7.1090959895 -1.5077946294 1.3387939062
C -6.5699617248 -0.8039283442 0.1168030397
O -5.1166748950 -0.8819735487 0.1867584092
C -4.4549862353 -0.2901770073 -0.8365979252
O -4.9941478477 0.2806609695 -1.7686260088
N -3.1076293880 -0.4446318524 -0.6423308505
C -2.0575274082 0.0106556513 -1.4498968244
C -0.7616695367 -0.3347146449 -1.0433817969
C 0.3192622776 0.0960327743 -1.7920453630
C 0.1688287240 0.8533404504 -2.9442324402
C -1.1244598292 1.1804881529 -3.3406117787
C -2.2373709691 0.7742419251 -2.6112679284
O 1.6097073373 -0.3004355015 -1.4304321983
C 2.1296114256 0.2400183861 -0.2702098106
O 1.5609435150 1.0727423597 0.4043402725
N 3.3514911042 -0.3164788843 -0.0553031494
C 4.2532489868 -0.0502046559 0.9903277185
C 4.0095796382 0.8776329489 2.0093615633
C 4.9687410106 1.0690744240 3.0008490806
C 6.1638668080 0.3561386500 2.9980298896
C 6.3999033665 -0.5665963625 1.9804269193
C 5.4556453941 -0.7709897478 0.9837003158
H -8.2020508098 -1.4703946556 1.3196266016
H -6.7997707342 -2.5565500598 1.3549657243
H -6.7631185334 -1.0213812245 2.2550850440
H -6.9006262794 -1.2827135582 -0.8102320777
H -6.8618578004 0.2505197913 0.0905068866
H -2.8446714810 -0.9613198349 0.1849102938
H -0.5992680925 -0.9304237239 -0.1505728807
H 1.0395275282 1.1703080659 -3.5067931910
H -1.2735077423 1.7702859209 -4.2393600977
H -3.2314932642 1.0435569365 -2.9354463892
H 3.6470864534 -0.9985273102 -0.7399744119
H 3.0871019979 1.4397100286 2.0263264464
H 4.7698284592 1.7916295928 3.7864644057
H 6.9017990129 0.5160971268 3.7770374727
H 7.3253566482 -1.1335274297 1.9589895679
H 5.6452283866 -1.4921759144 0.1933706189
