39
CONF343
C 7.5350326187 2.9268635446 0.3027490715
C 6.6836718041 1.6993115030 0.6199024278
C 6.9223341782 0.5606009899 -0.3721379878
C 6.1880787480 -0.7410265896 -0.0264150831
C 4.6658909796 -0.6312701957 0.1627852939
C 4.0474218089 -1.9827040550 0.5541512419
C 4.4138363265 -2.4494474252 1.9616894130
C 4.0241211666 -0.0909340811 -1.1090670275
O 2.5907807118 0.1187478277 -0.9373430482
C 2.2383981810 1.2859141791 -0.3641250767
O 3.0043552114 2.1620043740 -0.0414750564
C 0.7594848275 1.3205984352 -0.1254462737
C 0.1748455308 0.1801049590 0.4165257226
C -1.1620070061 0.1693193390 0.7780950775
C -1.9564632504 1.3029145200 0.5833102576
C -1.3815105514 2.4502801009 0.0071477750
C -0.0235915080 2.4598367494 -0.3422585980
Br 0.7388353780 3.9768825871 -1.1827516371
Br -2.4507636148 3.9819467164 -0.2945599717
Br -3.7770199392 1.2789754975 1.0851453887
Br -1.8476643248 -1.4299242147 1.5380153774
H 8.6034745338 2.6868631031 0.3353292687
H 7.3096595655 3.3072332001 -0.6994985171
H 7.3493964311 3.7364243899 1.0146188013
H 6.9069498713 1.3438261966 1.6354226341
H 5.6251632632 1.9845190567 0.6143939027
H 6.6554265119 0.8996130628 -1.3821126509
H 7.9976159349 0.3415656285 -0.4126985643
H 6.6163093544 -1.1397810031 0.9005986212
H 6.3913082663 -1.4914860089 -0.8040999111
H 4.4633373623 0.0897928655 0.9664977088
H 4.3514033639 -2.7394710806 -0.1827059622
H 2.9562641578 -1.9068202741 0.4808872987
H 4.1297786822 -1.6987247256 2.7072012671
H 3.8940682771 -3.3793596202 2.2103421443
H 5.4859510077 -2.6371478882 2.0677591020
H 4.0945219924 -0.8173903887 -1.9245845966
H 4.4715502424 0.8566423063 -1.4162339601
H 0.7804020427 -0.7034995777 0.5694651234
