47
CONF181
C -3.3083972453 -4.1564339952 -0.2196546079
C -3.3500809451 -2.6245219057 -0.3072207582
C -4.1845037928 -2.2310182266 -1.5294014521
C -1.9080666611 -2.0746541993 -0.3080636635
C -1.1471283417 -2.4138103307 1.0080132157
C -0.6009475340 -1.0902489403 1.5514563482
C -0.4749452585 -0.1830885464 0.3260999109
C -0.3004547547 1.2971482898 0.7127503821
C 1.0418271163 1.5419249281 1.3527908007
C 2.1950768892 1.6015707703 0.5639466116
C 3.4502946379 1.7960902399 1.1308732417
C 3.5437144223 1.9306152484 2.5111334643
Cl 5.1296623303 2.1796004117 3.2445450090
C 2.4214069940 1.8780893167 3.3265182748
C 1.1750407616 1.6838202774 2.7354705609
C -1.7350758462 -0.5362440767 -0.5088267621
O -2.8964311483 0.1214626860 0.0173816797
C -1.5812406883 -0.2515806496 -2.0185314224
N -1.3895038623 1.1530933295 -2.3599261273
C -2.3109110873 2.1340808078 -2.4321497540
N -1.7299931705 3.2922239485 -2.7338721285
C -0.4173331589 2.9474084013 -2.8402797464
N -0.1600579621 1.6620576805 -2.6251353186
H -4.3234241327 -4.5634263239 -0.1638655003
H -2.8286066817 -4.5712068459 -1.1148698030
H -4.3447758619 -1.1526853334 -1.5910089613
H -3.7011131291 -2.5695647311 -2.4545067075
H -5.1663798793 -2.7140964548 -1.4781877837
H -1.3860815291 -2.5552323047 -1.1471683497
H -1.8072926043 -2.8935224578 1.7361100887
H -0.3319425236 -3.1150599237 0.8038697072
H 0.3478491332 -1.2046199163 2.0835232457
H -1.3166701726 -0.6388582152 2.2497967557
H 0.3963531311 -0.4984904138 -0.2658871940
H -0.3903347260 1.9457734246 -0.1635416966
H 2.1121852014 1.4966689519 -0.5145376041
H 4.3378975764 1.8454931102 0.5099873540
H 2.5135964381 1.9883596422 4.4012356826
H 0.2921067797 1.6413845978 3.3669760860
H -2.4721902910 -0.5964820875 -2.5453907980
H -0.7153038493 -0.7928033474 -2.4057802189
H -3.3676316954 1.9583469326 -2.2768289300
H 0.3680240268 3.6505718946 -3.0883940477
H -2.7554051717 -4.5120126582 0.6539154851
H -3.8498397131 -2.2381526042 0.5913736987
H -1.0866057182 1.5796731259 1.4227068331
H -2.7009321955 1.0621731410 0.1194993720
