63
CONF62
C 1.0955415746 -0.3515780601 1.7038317071
C -0.0783131807 -1.3118487603 1.5413056304
N -0.1064386419 -1.8821775400 0.1890337867
C 1.1169145562 -2.6572887187 -0.0452169248
C 2.3499548473 -1.7619580469 0.0420307246
C 2.4031112355 -1.0871275553 1.4127232785
N 3.5728331454 -0.2152251480 1.5554071600
C 4.6130632709 -0.3981906090 2.4606232900
C 4.8447270206 -1.3723492977 3.4212779055
C 6.0125750676 -1.2635583729 4.1827551762
C 6.9150516991 -0.2157659240 3.9870147350
C 6.6836126070 0.7662238630 3.0195233742
C 5.5264817045 0.6572263925 2.2658611929
N 5.0099983973 1.4409233834 1.2513790033
C 3.8070139475 0.9264395768 0.7930034863
O 3.1018784251 1.3899901366 -0.1016397447
C -1.3059637550 -2.7061554056 -0.0186110518
C -2.5599618632 -1.8624362221 -0.2465557405
C -2.5133774165 -1.0914224053 -1.5679916980
C -3.4989851080 0.0878261867 -1.6197997299
C -3.2203464314 1.1669072913 -0.5845212158
C -1.9360707176 1.4398134724 -0.1053179583
C -1.7086102626 2.4626247192 0.8136241889
C -2.7904339890 3.2087327708 1.2444940364
C -4.0810458471 2.9754174035 0.8002447864
C -4.2823683127 1.9474676788 -0.1159806485
F -2.5811404887 4.2057542634 2.1470533568
C -3.5420116126 0.6811309338 -3.0186860728
C -4.6528326642 0.4788336866 -3.8402851912
C -4.6938715904 0.9833966913 -5.1393478879
C -3.5984872390 1.6922443795 -5.5975156448
C -2.4751282040 1.9178041614 -4.8189059755
C -2.4586885243 1.4067552875 -3.5248292210
F -3.6252678189 2.1914828530 -6.8636998534
H 1.1101797684 0.0460354902 2.7248686293
H 0.9841042628 0.4880787168 1.0104940348
H -1.0109867624 -0.7700991145 1.7258157128
H -0.0092291983 -2.1160762541 2.3037837837
H 1.2119631034 -3.4881383716 0.6852545816
H 1.0610927086 -3.1060809190 -1.0432943224
H 2.3046738970 -0.9981443780 -0.7408240398
H 3.2546059955 -2.3605000093 -0.1130705917
H 2.5243597966 -1.8705378292 2.1699882650
H 4.1530117410 -2.1913308790 3.5836003313
H 6.2177255599 -2.0122149939 4.9409565653
H 7.8123554242 -0.1597673719 4.5945157489
H 7.3799895343 1.5828751935 2.8614527050
H 5.4253382059 2.2750844226 0.8679280649
H -1.4651431711 -3.3979303351 0.8312750141
H -1.1350917823 -3.3278922683 -0.9071341447
H -3.4344427849 -2.5246006700 -0.2381161616
H -2.6991206308 -1.1672183618 0.5892549273
H -1.4955107525 -0.7283613637 -1.7505382834
H -2.7493985055 -1.7695913653 -2.3970542642
H -4.5020506490 -0.3049537891 -1.4092540315
H -1.0914849071 0.8429779109 -0.4339631134
H -0.7133449006 2.6713516949 1.1920508926
H -4.9034969609 3.5795899348 1.1680122152
H -5.2887813274 1.7487803042 -0.4750709621
H -5.5031973992 -0.0824828151 -3.4633389948
H -5.5551344826 0.8319266518 -5.7812061668
H -1.6389496083 2.4819581631 -5.2180555017
H -1.5874465707 1.5823870235 -2.9006122655
