76
CONF1953
C 2.6860529893 -2.1453467522 -0.6198811196
C 2.9761770973 -0.6725673578 -0.3151144053
C 4.0861031265 -0.5738157908 0.7485640823
C 5.4829382224 -0.9271951249 0.1975456771
C 6.4819989149 -0.9739320843 1.3097386013
O 7.0143221327 0.2390342640 1.5792277097
N 6.8218708329 -1.9812217785 2.0158198075
C 6.2439033475 -3.2850158777 1.7411079460
C 6.7600203787 -4.2980646886 2.7504505780
O 7.6185108735 -3.8103689886 3.6534221870
O 6.4263934453 -5.4652508210 2.7509206608
C 1.7374407255 0.1059877793 0.1638791761
C 2.0403101022 1.6225247811 0.3849547036
C 0.7447711364 2.3997898109 0.0459958310
C -0.3080555810 1.3015468586 -0.0886817136
C -1.6247386138 1.6426539206 -0.7796630318
C -2.2989311043 2.8667419300 -0.1539658030
O -2.3404222022 2.6798431218 1.2776020733
C -3.6872599949 3.1101600651 -0.7465815334
C -4.5946193746 1.8725118817 -0.7799011589
C -5.1284640293 1.5109337033 0.6187989864
C -6.0538876357 0.3030429720 0.5969651996
O -6.5604777992 0.0074244017 1.9148863408
C -5.3441020815 -0.8936307897 -0.0210094455
C -4.8567094386 -0.5372025664 -1.4245093795
C -3.9015597720 0.6756669008 -1.4879870330
C -3.7121881020 0.9960776550 -2.9819642239
C -2.5409497815 0.3973859092 -0.7827429237
C -1.7999231536 -0.8176980083 -1.3627574476
C -0.4529246275 -1.1142385699 -0.7007888389
O -0.7470370795 -1.5561741450 0.6403021088
C 0.4639136622 0.1278820413 -0.7361668261
C 0.8662227570 0.4172988380 -2.1920390324
H 3.6078265765 -2.7011295997 -0.8182560561
H 2.0462815157 -2.2658729914 -1.4961280515
H 2.1938082473 -2.6255794088 0.2350648268
H 3.3480330523 -0.1884839662 -1.2304116304
H 4.1375887754 0.4393062497 1.1570849681
H 3.8339658793 -1.2418018091 1.5835858915
H 5.7881803467 -0.1664443245 -0.5273524290
H 5.4704447869 -1.8941643243 -0.3107484761
H 7.6103958657 0.1503086065 2.3417672746
H 6.5076136126 -3.6707870746 0.7454278541
H 5.1463604083 -3.3016196063 1.8073722148
H 7.7120674844 -2.8506223890 3.4317251563
H 1.4433426365 -0.3186153698 1.1357685390
H 2.3515555377 1.8099490685 1.4163978367
H 2.8712085124 1.9381286629 -0.2572300525
H 0.8490454907 2.9473886588 -0.8985156790
H 0.4836345201 3.1301993007 0.8170548104
H -0.5569807223 0.9614461988 0.9252863610
H -1.4087473577 1.9293067056 -1.8173613918
H -1.6731662650 3.7483607647 -0.3690621991
H -2.8734703389 3.3964262097 1.6438185462
H -3.5433756410 3.4842490804 -1.7677237613
H -4.1803991695 3.9206610957 -0.1919267398
H -5.4732479056 2.1301993888 -1.3922942750
H -4.2982213872 1.2965595519 1.3007165134
H -5.6638549732 2.3763857058 1.0302146211
H -6.9487965392 0.5332926594 0.0020453604
H -5.7960313788 -0.1752047732 2.4775375668
H -4.5032493071 -1.1846741436 0.6249405933
H -6.0292537957 -1.7485343775 -0.0654824371
H -5.7356156805 -0.2919563334 -2.0386709331
H -4.3930923351 -1.4074272628 -1.9004354181
H -3.3784663125 0.1098778051 -3.5311642919
H -4.6694077264 1.3089125888 -3.4142885767
H -2.9879854656 1.7930973145 -3.1669414071
H -2.7576943039 0.1702304093 0.2681235539
H -2.4138222846 -1.7184278666 -1.2604494163
H -1.6285367628 -0.6768339778 -2.4348438270
H 0.0129066613 -1.9425918800 -1.2517493536
H 0.0690675318 -1.8930041352 1.0286003271
H 1.2955270197 -0.4753109211 -2.6589121804
H 0.0179948079 0.7302213915 -2.8050920364
H 1.6178652164 1.2097956116 -2.2443036128
