39
CONF34
C -3.5531490848 2.9823795190 -3.4686361781
N -3.0118833989 2.0158572526 -2.5210988870
C -1.8480173057 1.3463391262 -2.6095050522
C -1.7588903760 0.5227570188 -1.4942770497
C -2.9559499460 0.7948348307 -0.7797834642
N -3.7014120020 1.7045449415 -1.4122436290
C -3.4699018904 0.3056121063 0.5247348910
F -3.6676718275 -1.0708022895 0.4979077192
F -2.5523605045 0.5263746878 1.5312847442
C -0.5921165716 -0.3448868663 -1.2498728406
O 0.4777271275 -0.1459746747 -1.8288055209
N -0.7731636781 -1.3649781871 -0.3564926057
C 0.2465070768 -2.2912302958 -0.0236920227
C 1.4739871748 -1.8626957537 0.5157571910
C 2.4653530011 -2.8183012845 0.7626119144
C 2.2011620153 -4.1523869933 0.5164918781
C 0.9851811089 -4.5987109247 0.0303567727
C 0.0119677711 -3.6476380140 -0.2506659113
F 3.1732536846 -5.0625096608 0.7782205641
C 1.7333300910 -0.4502457561 0.8689101485
C 2.9107746313 0.1710546915 0.4496023855
C 3.1686478784 1.4924236554 0.7933151073
C 2.2519316306 2.2095560333 1.5636445599
C 1.0827761567 1.5903169564 1.9966368629
C 0.8274322662 0.2711581367 1.6528651792
Cl 2.5467051517 3.8728411127 2.0045802578
Cl 4.6493185541 2.2331731499 0.2339447401
H -2.8229065255 3.1275130186 -4.2650847226
H -3.7370988237 3.9302380544 -2.9577909241
H -4.4879257863 2.6029407742 -3.8886036154
H -1.1678927347 1.4797855419 -3.4378519865
H -4.4165496689 0.7776348302 0.8011739726
H 0.8127501908 -5.6552789108 -0.1408741441
H 3.6229633028 -0.3650406314 -0.1680110713
H 0.3810134469 2.1445878561 2.6099023848
H 3.4217186916 -2.5261394931 1.1831416932
H -0.9401648549 -3.9568839558 -0.6702456273
H -0.0801027276 -0.2031718872 2.0063931667
H -1.7203407004 -1.6227458326 -0.1148122777
