34
CONF27
C -4.7507569846 -0.4225261756 1.3916752472
C -3.8338511215 -1.5406502904 0.9558211334
O -2.4238380800 -1.1186450271 0.9388986286
P -1.8534555220 -0.1420674713 -0.1771794759
S -2.4300013380 -0.3510778691 -2.0120312199
O -2.0184689474 1.2885554807 0.5083388476
C -1.7586527658 2.5364266135 -0.2258259689
C -0.2791868296 2.7738502696 -0.4256214601
O -0.2315023436 -0.4917999612 -0.1037680901
N 0.3241038574 -0.2991309298 1.1698085761
C 1.6132906514 -0.4210404153 1.1497506632
C 2.1749135088 -0.1854307932 2.4519233752
N 2.6571010914 -0.0096065949 3.4885353006
C 2.5487879609 -0.7164950966 0.0517918649
C 3.8181899326 -0.1194729628 0.0871953718
C 4.7332517759 -0.3623147971 -0.9279575671
C 4.4033470979 -1.2234807471 -1.9719669750
C 3.1538053812 -1.8401835794 -1.9969847005
C 2.2227042352 -1.5886851878 -0.9978469080
H -4.4448036338 -0.0225443505 2.3622130101
H -4.7678916664 0.3903358302 0.6598569355
H -5.7665286817 -0.8201695560 1.4831745503
H -3.8397398763 -2.3700779226 1.6649460387
H -4.0863762501 -1.9167216498 -0.0405347409
H -2.2078408241 3.3021945682 0.4090377606
H -2.3006988791 2.4928998258 -1.1758112640
H 0.1598881550 2.0345649339 -1.1019164651
H 0.2525340353 2.7441823883 0.5296733527
H -0.1412329677 3.7649190942 -0.8691841628
H 4.0825858953 0.5468818674 0.9024648551
H 5.7066649726 0.1157948851 -0.8994687988
H 5.1216107673 -1.4203304087 -2.7613853688
H 2.9004513016 -2.5242406749 -2.8001761050
H 1.2615958907 -2.0839125971 -1.0215346130
