42
CONF120
C -6.6386578870 1.6839289248 0.9566419663
C -5.2459862488 2.3042666998 1.0281895826
C -4.1220873034 1.2952258056 1.0990107702
O -4.2766765219 0.4278738811 2.2120927418
C -3.4554750779 -0.7016522968 1.8962472187
C -3.5786931979 -0.8275679824 0.3622368693
O -4.1296767184 0.4373503964 -0.0481050357
C -2.2760125446 -1.1232282923 -0.3505971039
O -1.3406061665 -0.0904263578 -0.0185667039
C -0.0855976470 -0.1695537805 -0.5484939095
C 0.7863046293 0.8672793462 -0.1906488955
C 2.0839545734 0.8855181312 -0.6758785302
C 2.5157528416 -0.1385746774 -1.5166202493
C 1.6623716026 -1.1683061331 -1.8761098273
C 0.3513435187 -1.1887085960 -1.3971342652
O 3.7927030780 -0.1007016096 -2.0726096444
C 4.8757752849 -0.2867779893 -1.2390264525
C 6.1199196587 0.0530864088 -1.7725419708
C 7.2659256926 -0.1382303822 -1.0098774264
C 7.1799137248 -0.6612518416 0.2807506012
C 5.9319584317 -0.9967166100 0.7988843890
C 4.7720576831 -0.8151900882 0.0470493216
H -6.8469396020 1.0784224894 1.8426626493
H -6.7398010378 1.0449587964 0.0750716134
H -7.3981294954 2.4686641384 0.8959680206
H -5.1543148038 2.9534950582 1.9066540134
H -5.0571270879 2.9353326486 0.1523138387
H -3.1396903516 1.7974044917 1.1616415665
H -2.4151065248 -0.5175930756 2.1958876744
H -3.8462846148 -1.5735139798 2.4239925657
H -4.2925817451 -1.6131207362 0.0847185961
H -2.4412079114 -1.1471738493 -1.4355851623
H -1.8990946492 -2.1044003730 -0.0260736363
H 0.4275356648 1.6552610249 0.4636156584
H 2.7633138934 1.6880165098 -0.4060738480
H 2.0178148987 -1.9551907367 -2.5334498525
H -0.3037726688 -1.9988832955 -1.6919201780
H 6.1723613086 0.4607512786 -2.7769343615
H 8.2324554545 0.1274606680 -1.4271116079
H 8.0765304237 -0.8059441834 0.8741299497
H 5.8510766846 -1.4095224543 1.7999116817
H 3.8044519383 -1.0840154621 0.4556874679
