33
CONF24
C 5.0994499864 1.1162627363 0.9352621580
C 5.4267003711 1.7703525727 -0.3986004072
O 5.8153937863 0.7617529152 -1.3361700461
C 3.9316721493 0.1533566825 0.9679730673
C 2.5816041299 0.7233580622 0.4296548386
C 1.3031491966 -0.0721286104 0.8691170228
C 0.0464589968 0.2344571582 -0.0227767561
C -1.3087454299 -0.1738982979 0.6583525183
C -2.4951330725 -0.3003300720 -0.3630943884
C -3.9042350984 -0.2430379886 0.3196713525
C -5.0674656523 -0.7811358803 -0.5779616004
F -5.0015841431 -2.1107096940 -0.7006540783
F -6.2355332509 -0.4621189594 -0.0050729493
F -5.0136256060 -0.2232380964 -1.7953858896
F -4.1867205258 1.0394986160 0.6316938332
F -3.8862685063 -0.9831588490 1.4523851034
F -2.4168444027 0.7108732451 -1.2579481572
F -2.3776845736 -1.4772729461 -1.0179468053
F -1.6286559941 0.7624628987 1.5798756221
F -1.1487171319 -1.3666665070 1.2743092544
F 0.0070923572 1.5605265454 -0.2849828437
F 0.1650939889 -0.4445796592 -1.1868437740
F 1.0063050937 0.2536797800 2.1497830334
F 1.5572068986 -1.3982798858 0.8002847323
F 2.4497924626 1.9991349859 0.8737947392
F 2.6270888928 0.7394475742 -0.9284959030
F 4.2019316747 -0.9915274670 0.2732786016
F 3.7090864381 -0.2233325060 2.2751693375
H 5.9612262969 0.5408572995 1.2924528421
H 4.8964582478 1.9016242477 1.6690132091
H 6.2505219110 2.4740238306 -0.2185930849
H 4.5723014012 2.3482485039 -0.7745933486
H 6.0390805080 1.2057490473 -2.1632637954
