65
CONF521
C 0.9685248884 3.0599060301 -0.3664876593
C -0.2559142581 3.0370717096 0.5462487895
C 0.0671593169 2.8261077511 2.0467244951
C 0.9480259364 3.9275829337 2.6279171272
C 0.7004266484 1.4623494074 2.2291506196
O 1.8864340037 1.2530367254 2.4013073477
O -0.2258919157 0.4901375206 2.1325597058
C 0.2376311968 -0.8990366144 2.1823025836
C 0.3938553368 -1.3605858291 3.6227910603
C -0.9149225571 -1.3360919403 4.4285475550
C -2.0844906518 -1.7362317950 3.5839351784
C -2.0586072678 -1.9108284558 2.2491266686
C -0.7965303518 -1.7303031279 1.4275751495
C -1.1331316993 -1.1797479691 0.0232210212
C -2.1258343938 -2.1185178767 -0.7004024492
C -3.2891081748 -2.4448358272 0.1903621723
C -3.2504499686 -2.3219612597 1.5264141029
C -1.4957635796 -3.4119230913 -1.2485839882
C 0.1225291778 -0.8889755523 -0.8044977053
C -0.1797029274 -0.2629139311 -2.1660430231
C 1.0678018041 0.1459524250 -2.9262572301
C 0.7719572052 0.9329781558 -4.1856499071
C 2.0394263626 1.1309188946 -4.9960016262
C 2.5848797326 -0.2354391311 -5.3877389428
C 2.6065929613 -1.2597238543 -4.2779958621
O 3.2795869591 -2.2709153558 -4.3445762589
O 1.8034203842 -1.1018435515 -3.2120166776
O 2.9668777149 1.8444625504 -4.1618270111
C -1.1803382795 0.0113877055 5.1262994297
H 1.5576341836 2.1417845529 -0.2681860541
H 0.6605901586 3.1467622218 -1.4132744167
H 1.6257882982 3.9048007837 -0.1414557249
H -0.8003415517 3.9849103990 0.4601414761
H -0.9429631513 2.2458725477 0.2248814661
H -0.8915820641 2.8035988348 2.5789444435
H 0.4836057232 4.9030747690 2.4542330721
H 1.0778464452 3.7938200387 3.7057516397
H 1.9394233242 3.9283318543 2.1692353179
H 1.2076679759 -0.9427380375 1.6809706001
H 0.7701569594 -2.3897980224 3.5728604288
H 1.1624162488 -0.7617202530 4.1214148039
H -0.8171511952 -2.0823654776 5.2311483943
H -3.0306827790 -1.8817913968 4.1061997511
H -0.3350414150 -2.7212335937 1.2939085487
H -1.6630170199 -0.2283080565 0.1715149410
H -2.5285402516 -1.5693674048 -1.5628638741
H -4.1966035382 -2.8029840642 -0.2924761059
H -4.1333142841 -2.5520717265 2.1205643498
H -1.0207240424 -3.9912858600 -0.4502970771
H -2.2697950027 -4.0416994637 -1.6988447495
H -0.7459003673 -3.2018121943 -2.0175258535
H 0.7611298631 -0.1843634124 -0.2591671671
H 0.7098680813 -1.8065830835 -0.9294710851
H -0.7646285697 -0.9369172432 -2.8031309467
H -0.7832372060 0.6432529650 -2.0197996080
H 1.7315166824 0.7251882917 -2.2750997058
H 0.0283965901 0.4089858280 -4.7976868895
H 0.3507266147 1.9001601786 -3.8929116242
H 1.8259491635 1.7128720773 -5.9028137735
H 1.9524749092 -0.6649970760 -6.1766691874
H 3.5957597076 -0.1684393672 -5.8006366789
H 3.7725395417 1.9946180495 -4.6721086880
H -2.0892634280 -0.0466934239 5.7343006406
H -1.3099933343 0.8145122480 4.3961676312
H -0.3451541860 0.2706075746 5.7857773043
