53
CONF135
C -3.7434719434 -3.2242290936 -1.6581025910
O -3.3342338013 -2.0075295470 -0.9714737998
C -3.4161452629 -0.8839647037 -1.6862108845
O -3.7681248612 -0.8085656344 -2.8402348238
C -3.0563737890 0.3382831607 -0.8188975217
C -4.2701165526 0.6724705652 0.0842148678
C -3.8786906612 0.0898264731 1.4203796479
C -2.5101969471 -0.2181575101 1.4627317177
C -1.9396958176 0.0790027054 0.1654453124
N -0.6978442709 0.2933102103 -0.0873313907
N -0.4132985207 0.7255693352 -1.3510881303
C -1.4642611623 1.1689716362 -2.3123500027
O -2.6756383365 1.4364451605 -1.6392292149
C 0.8777300735 0.7132858232 -1.8059240674
O 1.1973265224 1.2379799130 -2.8624650986
N 1.8275458824 0.0814796697 -0.9494496140
C 3.0353752135 0.7856479512 -0.6745870423
C 4.2663471774 0.1382542132 -0.7727614609
C 5.4362445057 0.8381170954 -0.5062900307
C 5.3488317854 2.1788316043 -0.1629815101
C 4.1365565510 2.8451660064 -0.0819732921
C 2.9684835216 2.1349179572 -0.3296933713
O 6.5409278405 2.9133442002 0.0365251338
C 7.0275641389 2.9235507733 1.2971661332
F 6.1543743022 3.4371911765 2.1940163696
F 8.1307413102 3.6804992013 1.3037115426
F 7.3582796712 1.6897498270 1.7442768439
C 1.6118135248 -1.1806850653 -0.3920869521
O 2.1965068370 -1.6051482634 0.5817856278
O 0.7165842565 -1.8677204201 -1.1204586259
C 0.2480902151 -3.0959736254 -0.5113246231
C -1.9150577858 -0.7087455787 2.6227850346
C -2.7085318237 -0.9079057531 3.7456588647
C -4.0701770584 -0.6063688728 3.6815483772
C -4.6801252811 -0.1036809968 2.5339418218
Cl -5.0570223834 -0.8740667518 5.1094841083
H -3.1154141006 -3.3795441056 -2.5375035625
H -3.6008564642 -4.0220828017 -0.9314849022
H -4.7922496271 -3.1467826142 -1.9522029864
H -4.3548163402 1.7637141121 0.1474838671
H -5.2144473540 0.2811346848 -0.3030046205
H -1.1393535662 2.1046119798 -2.7687366649
H -1.5892806070 0.3947905183 -3.0821393801
H 4.3118994397 -0.9056327747 -1.0613319147
H 6.4043039138 0.3562115400 -0.5822943786
H 4.1074391081 3.8964943531 0.1806194146
H 2.0060500289 2.6307806524 -0.2542005259
H -0.2080223895 -2.8792186084 0.4583520382
H 1.0762715403 -3.7973437440 -0.3908661160
H -0.4944391173 -3.4906820317 -1.2034668186
H -0.8561569908 -0.9444879984 2.6490111574
H -2.2822722788 -1.3006171770 4.6614566227
H -5.7389736834 0.1295013687 2.5215511030
