24
CONF28
O 4.5949886696 0.6303672101 -0.7647659723
S 3.1982846828 -0.0573611992 -1.2770643236
O 2.7833070787 0.6731063900 -2.4576596809
O 3.3365604438 -1.5050477367 -1.2008616613
C 2.0908366772 0.5237987711 0.1760564640
F 2.4968214733 -0.1505909789 1.2698897082
F 2.3014011975 1.8339168733 0.3532937635
C 0.5794093478 0.2533151257 -0.1140860657
F 0.1502461309 1.1884489468 -0.9849049153
F 0.4675989496 -0.9714255868 -0.6787615748
C -0.3110243700 0.2907239361 1.1704993049
F 0.0466987557 1.3826424183 1.8926146729
F -0.0659680193 -0.8132236728 1.9044066770
C -1.8686076305 0.4134846494 0.9588309952
F -2.1355967632 1.6323788317 0.4475704701
F -2.4091286398 0.3352689319 2.2000803188
C -2.5439260964 -0.6696678144 0.0616237474
F -2.2250275515 -0.4192815081 -1.2277615944
F -2.0837774457 -1.8934146952 0.4065382937
C -4.1046625188 -0.7117159463 0.1630705377
F -4.4954960977 -1.1759246435 1.3542187846
F -4.5687547004 -1.5319381172 -0.7887849145
F -4.6228714613 0.5090108474 -0.0247026307
H 5.0929018402 -0.0378362329 -0.2624690671
