47
CONF101
C -7.4826464545 0.4787685541 -0.3019582356
O -6.4051563351 1.3774508583 -0.6629228339
P -5.0229083127 1.3484243389 0.1465054776
S -3.7093265702 2.5750228526 -0.5301851715
O -5.4252287183 1.4889975004 1.7089524399
C -5.5553712458 2.8063391024 2.2885811063
O -4.7022234878 -0.2446335235 0.1113176020
C -3.5116060229 -0.7417076118 0.6493268532
C -2.4131087059 -0.9046911852 -0.1851199326
C -1.2472033423 -1.4553296886 0.3278227815
C -1.1761879277 -1.8115720259 1.6775048438
C -2.2881117106 -1.6333282830 2.5033034225
C -3.4667872737 -1.1069347968 1.9863119131
S 0.2743854029 -2.5760259354 2.3866406153
C 1.6101370119 -1.7092165396 1.5771227628
C 2.7093297375 -2.4498528862 1.1398709396
C 3.8013145728 -1.8091590995 0.5638685839
C 3.7662975424 -0.4319106190 0.4049475332
C 2.6777252793 0.3196552154 0.8281152488
C 1.6048298090 -0.3189944048 1.4320197944
O 4.8591275339 0.2356584412 -0.1515158881
P 5.1148319767 0.2076930468 -1.7552817910
S 3.5619229911 0.3917734096 -2.8864293834
O 5.9831083616 -1.1362501640 -1.8860153297
C 6.3062196465 -1.6446123069 -3.2009379287
O 6.2642525847 1.3212322179 -1.8795173146
C 5.8958807038 2.7171499658 -1.9466840210
H -8.3509931546 0.8147113411 -0.8697336922
H -7.6914882849 0.5357625574 0.7707402233
H -7.2250097757 -0.5466601923 -0.5792512232
H -6.3776681736 3.3547527292 1.8173235457
H -5.7721108030 2.6464643257 3.3456855167
H -4.6230865745 3.3652040116 2.1695995424
H -2.4819511123 -0.6050168911 -1.2244824564
H -0.3887517355 -1.5980324598 -0.3194785967
H -2.2294720897 -1.8994706992 3.5535556023
H -4.3381776005 -0.9586454931 2.6133182327
H 2.7078610037 -3.5298085139 1.2430213746
H 4.6632285463 -2.3686552463 0.2186467570
H 2.6819513584 1.3941582113 0.6845218570
H 0.7541305278 0.2595574762 1.7755017030
H 6.8083783522 -2.5981828797 -3.0349370313
H 5.3933709360 -1.7899328145 -3.7857731594
H 6.9788383837 -0.9537165974 -3.7184943690
H 5.2031303008 2.8876517202 -2.7759733650
H 5.4381773212 3.0334235626 -1.0039071396
H 6.8261444269 3.2624896249 -2.1084814185
