82
CONF26
C -5.5671789810 -0.8830284595 -2.7320352838
C -4.4571137729 0.1289322434 -2.8047580063
C -3.8223083300 0.3866735190 -3.9547388207
C -4.0577280156 0.8270364493 -1.5292115157
C -5.2014124178 1.3565767319 -0.6464766134
C -4.5314710526 1.5317860907 0.7182236541
C -3.6590575596 0.2671845451 0.8814282054
C -3.2297920426 -0.0950316947 -0.5804571304
C -1.7092504082 -0.0279065942 -0.8230139395
C -1.1500038695 1.4208230083 -0.8188885200
C 0.1618096253 1.5793818958 -0.0539147008
C 1.1558933426 0.4970846085 -0.4712004005
C 2.6382976138 0.8443464723 -0.0178676906
C 2.6994230626 1.5089714800 1.3771573921
C 4.1329510112 1.7953040486 1.8440304058
C 5.0254983941 0.5562857109 1.8640747275
C 5.0166084231 -0.1924863558 0.5059386736
C 3.5530787115 -0.4248288542 -0.0175275136
C 2.8994083580 -1.6378433753 0.7131984413
C 1.4092052562 -1.5176761713 1.0172067793
C 0.6108607136 -0.9378562694 -0.1515834652
C -0.9554185862 -0.9600894551 0.1666625339
C -1.3134505032 -0.5490816229 1.6393370438
C -2.4411578573 0.4903133463 1.7863076249
C -1.4613675063 -2.4067441246 -0.0348816294
C 0.8958626632 -1.8061947051 -1.3992810950
C 5.8767554605 0.6252971594 -0.4840032225
C 5.7595192280 -1.5356641937 0.6389977492
O 4.6941977303 -0.2824671081 2.9944025605
C 3.1036948534 1.8721273124 -1.0779580857
C -4.5374264165 -0.8794691445 1.4227514888
O -5.1252967435 -0.6168193298 2.7053818404
H -5.4321028349 -1.5698764758 -1.8880596833
H -5.6289395095 -1.4687421318 -3.6525349964
H -6.5329815483 -0.3869706069 -2.5784449064
H -3.0330836286 1.1329366102 -4.0036894901
H -4.0723105807 -0.1394991802 -4.8724170413
H -3.4363051921 1.6851241002 -1.8067268780
H -5.6323667968 2.2836410028 -1.0391582115
H -6.0115719246 0.6228171299 -0.5758579085
H -3.8894970113 2.4216394947 0.7012378546
H -5.2430395091 1.6515012938 1.5413536075
H -3.5413935483 -1.1272891958 -0.7795968638
H -1.5449322991 -0.4405089899 -1.8269234666
H -0.9767409343 1.7337121374 -1.8568846603
H -1.8865808147 2.1234748106 -0.4171499213
H -0.0090705829 1.5447804482 1.0254351023
H 0.5638608806 2.5766972033 -0.2622616229
H 1.1937959334 0.5507282446 -1.5694311589
H 2.1852153180 0.8868627926 2.1199622401
H 2.1522368861 2.4575648481 1.3616448644
H 4.5906127167 2.5538335272 1.2015594907
H 4.1152491725 2.2236648026 2.8532962090
H 6.0622608755 0.8621770986 2.0605517309
H 3.6690631573 -0.7098388531 -1.0723859952
H 3.0746973395 -2.5320785554 0.1051068635
H 3.4032840418 -1.8350284438 1.6595564666
H 1.2794789580 -0.8957274834 1.9055881334
H 1.0263580969 -2.5101770035 1.2842902633
H -1.5833538896 -1.4561383783 2.1943979643
H -0.4449939691 -0.1426240761 2.1616320532
H -2.7560318331 0.5218857116 2.8381123077
H -2.0418822672 1.4877858815 1.5840478772
H -0.8181508123 -3.1215390594 0.4879579676
H -1.4965414084 -2.6874659863 -1.0914195369
H -2.4650310572 -2.5370972075 0.3711572107
H 0.2319481245 -1.5397286579 -2.2278131307
H 0.7842811433 -2.8753137692 -1.1980379324
H 1.9185701155 -1.6413352872 -1.7455316692
H 5.6292037305 1.6842655838 -0.5220388952
H 5.7772440120 0.2198671851 -1.4964230749
H 6.9307106918 0.5497704948 -0.1947803785
H 5.3078501311 -2.2160068713 1.3596146620
H 6.7905659759 -1.3518009580 0.9612759977
H 5.7965507466 -2.0375548412 -0.3353433455
H 3.7330867748 -0.3339416556 3.0603898555
H 2.2796578207 2.5433344253 -1.3382808445
H 3.4178467074 1.3632990487 -1.9953734190
H 3.9238681444 2.5080314970 -0.7477154776
H -5.3785498611 -1.0445474419 0.7405574985
H -3.9584258730 -1.8110766135 1.4640833299
H -4.4372519559 -0.7124245325 3.3741702695
