41
CONF374
C 0.2226442864 4.5825784024 -0.0848781114
C -1.0259932030 3.7074550527 -0.0744816928
C -2.1792519469 4.4224862056 0.6258663326
N -0.7121320548 2.4426560942 0.6229986014
C -1.6198830288 1.3330663777 0.3029073585
C -1.6055280191 0.3140624260 1.4421307770
O -1.9294451547 0.9544047609 2.6754379274
C -0.2574756789 -0.3824832449 1.6124533434
O 0.0482470348 -1.0434231533 0.3800722205
C 1.2159952185 -1.7487628007 0.2926346708
C 2.1205583352 -1.8896709647 1.3459394366
C 3.2848745992 -2.6338043093 1.1578077502
C 3.5491412731 -3.2323805530 -0.0673784287
C 2.6378714151 -3.0803355284 -1.1118015146
C 1.4691198798 -2.3417578735 -0.9575817418
C 0.4762464132 -2.1982359983 -2.0876260188
C -0.6979886553 -3.1233590307 -1.9199427835
C -1.0550994282 -4.0534547808 -2.8020371019
H 1.0443946609 4.0978480701 -0.6236649960
H 0.0157479694 5.5391060568 -0.5729799003
H 0.5514535824 4.7840520736 0.9409189615
H -1.3193328766 3.5072141727 -1.1218725790
H -2.4444958469 5.3365780505 0.0852450711
H -1.8856123429 4.6922857762 1.6461591774
H -3.0752928906 3.7978350487 0.6836711273
H 0.2323265119 2.1686726896 0.3707085927
H -2.6402776868 1.7230078985 0.2272588096
H -1.3829711853 0.8378507803 -0.6518269230
H -2.3749835950 -0.4446143787 1.2537836391
H -1.4757497227 1.8139080056 2.6267270144
H -0.3258054774 -1.1074800354 2.4339225738
H 0.5228449617 0.3528194633 1.8587668534
H 1.9292355965 -1.4307573680 2.3082520556
H 3.9831249540 -2.7405869903 1.9820711465
H 4.4551853801 -3.8106609514 -0.2137687916
H 2.8353811839 -3.5444041826 -2.0745911684
H 0.1146651071 -1.1623283695 -2.1190456442
H 0.9758474152 -2.4076178751 -3.0386479763
H -1.2646588738 -3.0044622787 -0.9974001671
H -0.5035398810 -4.1963015057 -3.7284657455
H -1.9093877478 -4.7003648676 -2.6277421509
