41
CONF118
O 8.8636790613 -0.1172216607 0.1842896604
N 8.0873239565 -0.4837061845 -0.7024563747
O 8.4629190562 -0.9912144882 -1.7630228707
C 6.6623260536 -0.3066895131 -0.4888186072
C 6.2182246788 0.2631124449 0.7053471334
C 4.8600589882 0.4256977286 0.8977932378
C 3.9380767271 0.0297486297 -0.0892547615
C 4.4134775323 -0.5458848322 -1.2868192527
C 5.7682528520 -0.7130134296 -1.4850250375
N 2.5931733960 0.2450724897 0.2248914883
N 1.7779826253 -0.0781846205 -0.7065349741
C 0.4419338777 0.1056427845 -0.4365917468
C -0.4544705800 -0.2352781068 -1.4709020682
C -1.8131920226 -0.0974615101 -1.3227908594
C -2.3652723260 0.4068923826 -0.1114063063
C -1.4514236370 0.7362998110 0.9372236884
C -0.0977872955 0.5944916972 0.7768618979
N -3.7041817496 0.5832872091 0.0385039034
C -4.2707286439 1.0942831846 1.2864155135
C -4.4380747568 0.0046187919 2.3555087092
O -4.9030981146 0.5684141311 3.5819715653
C -4.6491895398 0.1614159239 -1.0072834638
C -4.9005044580 -1.3456354311 -1.0343342574
H 6.9292940817 0.5689910164 1.4620587111
H 4.4830455244 0.8648416320 1.8155172595
H 3.7107691328 -0.8582032736 -2.0490362803
H 6.1442037761 -1.1549671200 -2.3994207012
H -0.0464245283 -0.6159434509 -2.4024744436
H -2.4550450374 -0.3786203913 -2.1464215152
H -1.8193124189 1.1007654340 1.8873565929
H 0.5679638432 0.8537356942 1.5918277661
H -3.6419613636 1.9004142961 1.6802365447
H -5.2467933187 1.5325061135 1.0627081700
H -3.4912550194 -0.5361476157 2.4958764581
H -5.1976958089 -0.7165023330 2.0414196450
H -4.1908419131 1.1075142050 3.9496788937
H -5.5871087218 0.6892307018 -0.8200152851
H -4.2832601275 0.5092241341 -1.9790140332
H -5.5826564952 -1.5833205098 -1.8562260144
H -5.3588153617 -1.6827470448 -0.1010426004
H -3.9736116233 -1.9054597296 -1.1859553901
