51
CONF21
C -0.2978639681 1.2641677099 2.4741906722
C -0.6763012609 1.9850299324 1.2148938613
C -1.9566781748 2.2225153848 0.9029485498
C -2.4058373190 2.9465458589 -0.3095966295
C -2.5027606759 2.2333569847 -1.6856397338
C -3.7414440362 2.7164795936 -0.9451044969
C -4.7137540153 1.7307977425 -0.3383996064
C -4.4172600570 3.9191332220 -1.5711983851
C -2.0793784611 0.8241781450 -1.7584726359
O -2.4002052645 -0.0818264951 -1.0183859183
O -1.2002690566 0.6654587987 -2.7884646206
C -0.5910361691 -0.6561568797 -2.8900469889
C 0.5032933372 -0.8443848070 -1.8991755615
C 0.4041367503 -1.3064939155 -0.5441454963
C 1.6641492515 -1.3016677306 -0.0328149080
O 2.5494056126 -0.8615405402 -0.9874726193
C 1.8245693724 -0.5907693845 -2.1085681592
C 2.2457301112 -1.6906523741 1.2764621062
C 3.2157399445 -2.8541241696 1.1880840366
C 2.8743961464 -4.0061198807 0.4768049965
C 3.7495040145 -5.0839829676 0.4149711436
C 4.9818753313 -5.0238232199 1.0616702949
C 5.3311588491 -3.8783247195 1.7683741449
C 4.4522477346 -2.7998615920 1.8287431919
C 0.4725910981 2.3735984201 0.3325196922
H 0.2569419157 0.3486819200 2.2315674049
H -1.1746498393 0.9911836590 3.0664140020
H 0.3650808266 1.8790381128 3.0961394082
H -2.7295202833 1.8700385920 1.5825825085
H -2.0144257436 3.9578865895 -0.4138234038
H -2.1865653552 2.8284577960 -2.5361364405
H -5.4107347570 1.3741615049 -1.1042711529
H -4.2152013070 0.8624808275 0.0889424507
H -5.2992850883 2.2322209701 0.4409772670
H -5.0980430745 3.6074464305 -2.3709120711
H -5.0032978690 4.4577940516 -0.8180812775
H -3.6883100345 4.6162833477 -1.9952396551
H -0.2011576459 -0.6865008497 -3.9094159905
H -1.3687041761 -1.4151658013 -2.7688835135
H -0.5034396899 -1.5796120063 -0.0281513127
H 2.3829260038 -0.2340969888 -2.9604255210
H 1.4116087923 -1.9538473681 1.9378701049
H 2.7530868757 -0.8312438399 1.7328874158
H 1.9183567711 -4.0489103363 -0.0382628166
H 3.4711948254 -5.9731762362 -0.1420361026
H 5.6666214553 -5.8641504698 1.0106312461
H 6.2917075721 -3.8198260657 2.2705832269
H 4.7317477052 -1.9046818508 2.3776467651
H 1.0376464514 1.4779551430 0.0426232888
H 1.1700364480 3.0302488841 0.8678001711
H 0.1503701255 2.8758005816 -0.5814977277
