27
CONF295
C 3.2191659529 0.6236164002 0.3815922439
C 3.8562709793 -0.7649547127 0.4442236164
C 5.3726877179 -0.7239646151 0.2975681932
O 6.0321030042 -0.0759956788 1.3996965158
C 1.7188499654 0.6640841433 0.6943190836
C 0.8608024950 -0.1007305858 -0.2878057596
C -0.6538965109 0.2528925511 -0.1741095164
C -1.6304721725 -0.7163157544 -0.9176363581
C -3.0625618661 -0.1337604056 -1.1525196860
F -3.5595652432 0.3675211173 -0.0124622302
F -3.8678588787 -1.1190732189 -1.5766397713
F -3.0450564893 0.8279561024 -2.0825042062
F -1.7699879106 -1.8448799340 -0.1843749684
F -1.1273140921 -1.0433313324 -2.1312838053
F -0.8362818804 1.5091150435 -0.6613303244
F -1.0002617662 0.2534622274 1.1392597753
F 0.9652050707 -1.4605295112 -0.1041685293
F 1.2408864032 0.1537572363 -1.5796634371
H 3.6929138317 1.2786462664 1.1220614371
H 3.4046145246 1.0743243246 -0.6000806309
H 3.5987400914 -1.2548910031 1.3921714977
H 3.4657882339 -1.3986896052 -0.3609694573
H 5.6490238460 -0.2371866218 -0.6495541943
H 5.7666381831 -1.7448969331 0.2776428436
H 5.8981965833 0.8748992137 1.3125138212
H 1.3739704447 1.7038632668 0.6895794178
H 1.5190797072 0.2562985806 1.6900823738
