28
CONF8
F 1.1842816526 -1.1361276835 -0.3925096276
C 1.2708181879 0.1955771867 -0.1959255891
F 0.9373816932 0.4777501285 1.0811575900
C 0.3117864024 0.9450847285 -1.1621695613
F 0.2168419641 2.2330088203 -0.7747026985
F 0.8591111249 0.9018762977 -2.4039794074
C -1.1457856053 0.3644185408 -1.3262617972
F -1.8029492047 1.2279794358 -2.1392547907
F -1.0552036426 -0.8314165181 -1.9443062339
C -1.9787695255 0.1954382878 -0.0139350813
F -1.8198655595 1.2932968696 0.7581047147
F -1.5018185087 -0.8831314615 0.6525210867
C -3.5139126784 -0.0017640805 -0.2681453333
F -3.7010406791 -0.8349915675 -1.3165407035
F -4.0630940339 1.1978880979 -0.5529043091
C -4.2846246298 -0.5995123823 0.9556817323
F -3.9809912773 -1.8900674782 1.1280932994
F -5.6002524575 -0.4962123055 0.7275605456
F -3.9828326704 0.0777192748 2.0722044852
S 3.1201542371 0.6877225994 -0.4332938624
O 3.1432455016 2.1521353261 -0.4503387093
O 3.5916796564 -0.1195579494 -1.5592909966
N 3.8755158371 0.1805101535 0.9367747004
C 4.0227260664 -1.2607504704 1.2210147143
H 3.6508915106 0.7672114324 1.7373749754
H 4.2920874131 -1.7824478077 0.3016108667
H 4.8421994340 -1.3653514551 1.9352535903
H 3.1124197808 -1.6962868191 1.6451074951
