41
CONF82
C 2.2836971738 -4.6789012089 5.5528496191
C 1.1646380377 -3.9847050273 4.8039309522
O 1.4591539564 -3.8941451395 3.3868099718
C 2.2790581499 -2.8686766817 3.0300488560
O 2.7100196190 -2.0219782868 3.7907569761
N 2.5689979834 -2.9427375106 1.6962665993
C 3.2044849457 -1.8130864971 1.0404752456
C 2.2326255035 -0.6932982866 0.7143388229
O 1.2960862526 -1.2219938290 -0.2282534018
C 0.2664415062 -0.4172222608 -0.6296097167
C -0.6459077720 -0.9947601967 -1.5162338451
C -1.7192176858 -0.2577199554 -1.9919779245
C -1.8925081098 1.0581242790 -1.5746669112
C -0.9967634322 1.6371234354 -0.6862430872
C 0.0907624407 0.9051610211 -0.2156788940
O -3.0245408880 1.7325135801 -2.0056455580
C -2.8774170229 2.9729283776 -2.5894687844
C -1.7208612418 3.3624617071 -3.2628573510
C -1.6801910437 4.6145943293 -3.8686535095
C -2.7763942938 5.4701772656 -3.8117419266
C -3.9274650272 5.0626065327 -3.1415249578
C -3.9831324536 3.8181928264 -2.5261727777
H 2.4729055085 -5.6711530673 5.1334991476
H 2.0053275943 -4.7961774726 6.6051776916
H 3.2014680162 -4.0880576171 5.5041544814
H 0.9868295271 -2.9786305903 5.1946971368
H 0.2365110518 -4.5604195669 4.8454775101
H 1.9753138698 -3.5361212644 1.1379509143
H 3.6798101936 -2.1674634047 0.1197293729
H 3.9819853905 -1.4238455825 1.7038500889
H 1.7169940433 -0.3659121593 1.6278049609
H 2.7708247842 0.1619597932 0.2786289634
H -0.4945371796 -2.0228561139 -1.8265247407
H -2.4334179203 -0.6931778071 -2.6822486070
H -1.1454028476 2.6621739513 -0.3631290701
H 0.7786893057 1.3742549134 0.4764353805
H -0.8691520083 2.6935428395 -3.3135308195
H -0.7812282552 4.9178590315 -4.3961257721
H -2.7353946194 6.4442316077 -4.2867743940
H -4.7893608959 5.7203337842 -3.0906718712
H -4.8697311514 3.4848003466 -1.9979902622
