52
CONF49
C -1.8181802082 -1.5462935233 0.0325702366
C -2.0626303769 -0.2520622677 0.8118870707
C -3.4450927157 -0.2583254758 1.4603697794
C -1.9078975934 0.9822687736 -0.1212810969
C -2.1467774369 2.2981575397 0.5880961509
C -1.3335211019 2.7155026789 1.6448922034
C -1.5879380353 3.9070855522 2.3127183541
C -2.6680490473 4.6881246057 1.9177237313
C -3.4895008144 4.3009780107 0.8675476913
C -3.2186189223 3.1061209295 0.2089194156
Cl -2.9969299302 6.1904789953 2.7599776734
C -0.5179125585 0.9483644422 -0.7233583197
O 0.5153059888 0.9807647602 -0.0972772322
O -0.5750280155 0.8356992425 -2.0782501294
C 0.7178633468 0.6060821550 -2.7276279321
C 0.5718709436 1.0998416230 -4.0922377887
N 0.4814308901 1.4738516020 -5.1805847475
C 1.0563203758 -0.8653225119 -2.6637010620
C 1.9399088671 -1.3050222596 -1.6810109124
C 2.1576044887 -2.6725393789 -1.5292479592
C 1.5254906069 -3.5897774745 -2.3655479647
C 0.6661981540 -3.1323877489 -3.3575104861
C 0.4190869671 -1.7729599861 -3.5092321230
O 3.0349540515 -3.1860370195 -0.6048226436
C 3.2599127310 -2.5008589917 0.5799373712
C 2.2165462420 -1.9651293530 1.3304442652
C 2.5058071178 -1.3491962457 2.5425662327
C 3.8163046971 -1.2821067256 3.0085503041
C 4.8452885346 -1.8351555193 2.2519714719
C 4.5731425035 -2.4431136218 1.0306891827
H -1.9166113560 -2.4143471790 0.6915106051
H -0.8201800165 -1.5793986805 -0.4180392855
H -2.5494464730 -1.6549333521 -0.7768612523
H -1.2973968929 -0.1585439361 1.5938887111
H -4.2296626814 -0.3069242729 0.6959576375
H -3.6138086538 0.6384158192 2.0623712233
H -3.5553751326 -1.1325450559 2.1090479185
H -2.6329028157 0.8849239105 -0.9360130587
H -0.4829533560 2.1120165711 1.9421206803
H -0.9538303373 4.2295345353 3.1303537521
H -4.3248559810 4.9231593499 0.5686131420
H -3.8586343689 2.7997798432 -0.6134405722
H 1.4794022851 1.1989418485 -2.2089160884
H 2.4257730797 -0.5950829072 -1.0221358433
H 1.7209873524 -4.6475043579 -2.2284182195
H 0.1790784923 -3.8465194293 -4.0130077647
H -0.2610202773 -1.4172891493 -4.2762847185
H 1.1967744328 -2.0218862201 0.9659236309
H 1.6970123530 -0.9240733422 3.1279603442
H 4.0335217168 -0.8019258517 3.9564397726
H 5.8691774185 -1.7888734645 2.6083646110
H 5.3599916526 -2.8766950276 0.4233936038
