57
CONF7
C -2.4327502251 4.6887460082 0.5159228570
C -2.2227809834 3.2392733037 0.1754381899
C -2.0068160317 2.8398313707 -1.1446135660
C -1.7578260170 1.5082528699 -1.4773131573
C -1.7146620767 0.5517809433 -0.4474519022
C -1.9727692426 0.9211198496 0.8850454659
C -2.2170594851 2.2642279522 1.1738333261
C -2.0422286449 -0.1127181678 1.9772687986
C -1.4003190748 -0.8514422616 -0.7552811570
C -0.2763630476 -1.5384893380 -0.5072296256
C -0.3654002806 -2.9626902676 -0.9331888939
C -0.1880370703 -4.0162036808 0.1895385609
C 0.6541186975 -5.1566307176 -0.4307423014
C 0.6096359361 -4.9054077536 -1.9445385580
C 0.6218883270 -3.3777025110 -2.0322907567
O -1.7239150449 -3.0340894455 -1.4672521599
C -2.3302909239 -1.8118347200 -1.3697358876
O -3.4704555855 -1.6400190866 -1.7483778287
O 0.8589624736 -1.1039210731 0.1140662720
C 1.6573725983 -0.1689834700 -0.5506660862
O 1.4216364024 0.1713674042 -1.6805984941
C 2.7914956312 0.2927787221 0.3050773046
C 2.4579566506 1.5267299553 1.2014580353
C 1.7913291239 2.6313146281 0.3744380033
C 3.7926311362 2.0331305051 1.7626974762
C 1.5413874637 1.1216141495 2.3590659241
C -1.5536824298 1.1064450182 -2.9113192434
H -3.0344170975 4.8003834779 1.4219182178
H -2.9245277586 5.2215484683 -0.3025249247
H -1.4700951535 5.1823266307 0.6972082669
H -2.0291015371 3.5842037355 -1.9371495606
H -2.4116301345 2.5539965544 2.2037496531
H -2.8791497852 -0.7995505193 1.8030457492
H -2.1877002522 0.3637407260 2.9493912233
H -1.1366222300 -0.7250465674 2.0277728802
H 0.3057603439 -3.5676310402 1.0552482101
H -1.1787388313 -4.3488826321 0.5081874492
H 1.6889739438 -5.0837547088 -0.0801999889
H 0.2762899861 -6.1437468790 -0.1527251052
H 1.4469129886 -5.3633265656 -2.4780756870
H -0.3209657057 -5.2943282859 -2.3735279007
H 0.3389485911 -2.9593383409 -3.0015371344
H 1.6146792615 -2.9966948908 -1.7616288277
H 3.1323859402 -0.5286136170 0.9422529130
H 3.5945384989 0.5711040258 -0.3831362696
H 1.6522111268 3.5234338730 0.9943889144
H 0.8055014026 2.3196148182 0.0102871136
H 2.4062038489 2.9068000577 -0.4895462359
H 3.6177102836 2.8869441545 2.4257404486
H 4.2978218565 1.2498661916 2.3384263800
H 4.4603933529 2.3548974362 0.9564006663
H 1.3732014319 1.9817594700 3.0161398218
H 0.5683848424 0.7843210167 1.9949768894
H 1.9894230240 0.3170195511 2.9521032718
H -0.6644306705 0.4797163412 -3.0201324582
H -1.4454492386 1.9864647907 -3.5494863327
H -2.4095703938 0.5262921437 -3.2757223489
