27
CONF3
C -4.0314676076 1.4992735632 -1.1675422977
C -3.3082194494 0.4451173952 -0.3976293553
N -3.9832031322 -0.4435720306 0.2291023243
N -3.2817084326 -1.3904778823 0.9240269295
C -1.9160181229 -1.5381114762 1.0367017783
O -1.4201004612 -2.4415235959 1.6859044041
N -1.1830104464 -0.5661376681 0.3470090031
C -1.8108039578 0.5119182695 -0.4174219999
N 0.1549431992 -0.6779950036 0.4372360439
C 0.9156773012 0.1767055613 -0.1560497477
C 2.3628901348 0.0446945723 -0.0513677178
C 3.1820788346 0.9788057592 -0.6990651386
N 4.5160499769 0.9541924820 -0.6695901027
C 5.0957272292 -0.0302653124 0.0260412641
C 4.3755994198 -1.0118246648 0.7075577191
C 2.9926114273 -0.9777743692 0.6711254859
H -3.7698272784 2.4968624585 -0.7946074018
H -3.7473658977 1.4671391055 -2.2262481674
H -5.1093029358 1.3569651677 -1.0819286000
H -3.8404952046 -2.0787954692 1.4036728975
H -1.4865632166 1.4881239701 -0.0169535090
H -1.4620048796 0.4738700249 -1.4636374589
H 0.5518478744 1.0197971689 -0.7491854125
H 2.7265702328 1.7881398019 -1.2707229370
H 6.1839497700 -0.0363616051 0.0403556885
H 4.8987284014 -1.7879452904 1.2561796634
H 2.3934171260 -1.7208211442 1.1864131480
