65
CONF185
C 2.0216169991 -0.1353059113 6.9093893565
O 2.5579681755 -1.3474509327 6.3648166260
C 3.0255878776 -1.3058006764 5.0816663804
C 3.0256592963 -0.1666482231 4.2746298576
C 3.5314106358 -0.2487114678 2.9755171815
C 4.0329065947 -1.4398238579 2.4542788880
C 4.0346654634 -2.5664721560 3.2881794451
C 3.5405780511 -2.5087356633 4.5820023057
C 4.4950207062 -1.5393410341 1.0263260851
C 3.4755523404 -2.1945711707 0.0775115673
N 2.2151563544 -1.4409440534 -0.0246054706
C 1.6837191060 -1.4519924587 -1.3946531144
C 0.4504834173 -0.5606191538 -1.4978278040
C -0.6312613913 -1.0165800061 -0.5158075955
C -0.0511339228 -1.0858199180 0.8922902380
C 1.1987311247 -1.9585678781 0.9031771255
N -1.7971281279 -0.1225076376 -0.5268211595
C -2.6569212086 -0.1466350675 -1.5847375961
N -2.8479854551 -1.1706418349 -2.4047499648
C -3.8478054731 -0.7468649764 -3.2673415363
C -4.4459304753 -1.4116631944 -4.3366251937
C -5.4334803925 -0.7413252520 -5.0596833275
C -5.8209259609 0.5638223284 -4.7294991914
C -5.2357988961 1.2456593200 -3.6589898538
C -4.2575657644 0.5695671376 -2.9446881105
N -3.4847062530 0.9307446387 -1.8494987252
C -3.4073905195 2.2392836505 -1.2126949959
C -2.0677034826 2.9054957255 -1.4480030542
C -1.3903155610 3.5185058442 -0.3937540865
C -0.1496774216 4.1203603022 -0.5950651773
C 0.3906796351 4.0872843619 -1.8679085213
C -0.2500604998 3.4880521397 -2.9411284519
C -1.4877950271 2.8953640402 -2.7193283675
F 1.6038312160 4.6614781483 -2.0751562207
H 1.1580425720 0.2093657391 6.3282143898
H 2.7827878028 0.6532401325 6.9407244786
H 1.7060915353 -0.3801023843 7.9240271522
H 2.6426113707 0.7795766134 4.6371020672
H 3.5203046394 0.6421280036 2.3529489588
H 4.4241489887 -3.5091452963 2.9112760702
H 3.5458490466 -3.3854002371 5.2225069859
H 4.7260215805 -0.5391086498 0.6439989251
H 5.4169054697 -2.1328959382 0.9767638806
H 3.2924136211 -3.2381233562 0.3906329724
H 3.9354034235 -2.2407284811 -0.9163196989
H 1.4213078532 -2.4808659949 -1.7173636098
H 2.4602912632 -1.0847812303 -2.0748038921
H 0.7286396636 0.4758286687 -1.2600091660
H 0.0621151061 -0.5791326660 -2.5223897398
H -0.9826190275 -2.0140837810 -0.8046108219
H 0.2080109835 -0.0729181512 1.2316619727
H -0.7931504459 -1.4939173848 1.5873338437
H 1.6196293258 -1.9854669689 1.9116541699
H 0.9204004067 -2.9988728821 0.6343564117
H -1.5898232915 0.8029338794 -0.1708416523
H -4.1458438882 -2.4221346881 -4.5972924494
H -5.9109436572 -1.2406476324 -5.8971602490
H -6.5901455337 1.0581492962 -5.3141735401
H -5.5396517827 2.2569162017 -3.4084423768
H -4.2169776640 2.8487775035 -1.6256173957
H -3.5969975739 2.1409339060 -0.1373467404
H -1.8277753970 3.5204556944 0.6008134745
H 0.3904816998 4.5940883682 0.2172289656
H 0.2138627796 3.4861509423 -3.9214475342
H -2.0013724490 2.4111868305 -3.5451005271
