49
CONF21
C -4.8282404759 -0.2132992888 0.7060949621
C -3.7720820607 -1.2654020153 0.4419912726
C -2.2751585221 -0.9011405096 0.5441153551
C -2.9486532465 -1.2181826303 -0.8106396803
C -2.4916251179 -2.5037982809 -1.4732930216
C -3.1568027113 -0.1141332096 -1.8253786639
C -1.8041702945 0.4378824134 0.8902559080
O -2.2910431951 1.5175870883 0.6246087317
O -0.6317998973 0.3344376498 1.6170979235
C -0.0200916082 1.6028617355 1.9496144666
C 0.8313838459 1.3320930034 3.1087193726
N 1.5225678992 1.1488828008 4.0155610115
C 0.7930059940 2.1570796208 0.7979230845
C 1.7896896202 1.3625127523 0.2324280105
C 2.5312551490 1.8682789064 -0.8301787546
C 2.2813612680 3.1460506238 -1.3317174115
C 1.2809663332 3.9205533849 -0.7588124884
C 0.5329081878 3.4349499776 0.3118994802
O 3.4999564869 1.1346913613 -1.4779476884
C 4.1631136982 0.1315655642 -0.7807688772
C 4.7857708562 0.3943857239 0.4367763650
C 5.4981989271 -0.6243570774 1.0615097638
C 5.5952943606 -1.8843985407 0.4720041251
C 4.9746189353 -2.1247982938 -0.7513458768
C 4.2498869671 -1.1169262809 -1.3839648600
C -4.1507197928 -2.6003525546 1.0546012319
H -4.5672970848 0.7721284948 0.3263698903
H -5.0020675988 -0.1248610047 1.7840845239
H -5.7694087924 -0.5289900720 0.2411916397
H -1.6398336631 -1.6918726885 0.9290527408
H -2.2308024078 -3.2854073917 -0.7590850246
H -3.2849537581 -2.8860103844 -2.1263132809
H -1.6112032632 -2.3069563614 -2.0942468910
H -3.9456661669 -0.4163462121 -2.5237362477
H -2.2382271242 0.0356382575 -2.4032833534
H -3.4329839732 0.8395608278 -1.3810839216
H -0.7904281665 2.3240225759 2.2454729383
H 1.9798897045 0.3645678127 0.6134190126
H 2.8729792392 3.5140898465 -2.1632041969
H 1.0844296412 4.9137028216 -1.1492384138
H -0.2507491533 4.0383413111 0.7576689618
H 4.7113823739 1.3800104258 0.8849972852
H 5.9868167464 -0.4274223135 2.0105471531
H 6.1549029751 -2.6732679855 0.9636407507
H 5.0474578646 -3.1023986836 -1.2173495490
H 3.7559796452 -1.2868120329 -2.3349243305
H -3.3539603809 -3.3422468228 0.9911495401
H -4.3985650236 -2.4635378710 2.1125255373
H -5.0372822287 -3.0029554738 0.5508610037
