35
CONF2
C -6.1592508220 0.1934634655 -1.4350850102
N -5.8981694112 0.1761670681 -0.0049298488
C -6.9705656985 -0.3208691189 0.8467572715
C -4.6308540474 0.2729525594 0.5412476657
O -4.4213467732 0.1903193535 1.7451643108
N -3.6204506123 0.4943349194 -0.3895047825
C -2.2535700912 0.6802295033 -0.1295830874
C -1.7340098793 0.9878257888 1.1328595427
C -0.3644068050 1.1749640095 1.2872118444
C 0.4875537195 1.0734715190 0.1982174130
C -0.0160650711 0.7839079269 -1.0650607353
C -1.3780694327 0.5816494672 -1.2215167466
O 1.8384114323 1.3430329158 0.3807951786
C 2.7462067018 0.3468752478 0.1093356764
C 2.4097565889 -1.0048079757 0.0570564152
C 3.4009064824 -1.9506885457 -0.1842649415
C 4.7143662196 -1.5388580834 -0.3661390866
C 5.0569322732 -0.1922574912 -0.3074688602
C 4.0678454104 0.7521770963 -0.0719233904
Cl 5.9624649545 -2.7355538757 -0.6727730340
H -5.7119212216 1.0717305684 -1.9151843467
H -7.2383602010 0.2675098262 -1.5895730612
H -5.8148786898 -0.7191476680 -1.9491037608
H -7.2161357891 -1.3669665072 0.6126522042
H -6.6496784306 -0.2574975403 1.8859745564
H -7.8700825015 0.2895501338 0.7090602571
H -2.3968612450 1.0633604253 1.9819567091
H 0.0494408028 1.4091160356 2.2620895852
H 0.6560107030 0.7119084114 -1.9136534222
H 1.3837547815 -1.3199281211 0.2080728497
H 3.1502604815 -3.0044275600 -0.2232703677
H 6.0864563351 0.1149208142 -0.4497824653
H 4.3074204074 1.8085307747 -0.0225907346
H -1.7700620964 0.3508112767 -2.2089976657
H -3.8438562806 0.3733132299 -1.3623923593
