47
CONF58
C -3.5194376960 1.8538583125 1.2273776765
C -2.0577414774 1.4989953171 1.3820898755
C -1.1314764771 2.4217209303 2.1385775712
C -1.0758672315 2.3835881535 0.6097563606
C 0.1138756258 1.8024000009 -0.0271751134
O 0.9562370314 1.1013811384 0.4924250127
O 0.1485233108 2.1489603910 -1.3523805487
C 1.2252936275 1.5333642812 -2.1168947558
C 1.5027451645 2.4556967126 -3.2157972983
N 1.7403393013 3.1639913436 -4.0959245754
C 0.8164451395 0.1618701773 -2.6051579043
C -0.1174484495 0.0236977369 -3.6334002358
C -0.5196038518 -1.2495713471 -4.0221811957
C -0.0122716705 -2.3782189454 -3.3851084745
C 0.9131317234 -2.2224681474 -2.3571428839
C 1.3454264756 -0.9570245586 -1.9678171809
O 1.4253583382 -3.3720851161 -1.7932691278
C 1.7514741454 -3.3611377737 -0.4428809853
C 0.8828580472 -2.8298242375 0.5077318236
C 1.2313456553 -2.9014993194 1.8529453908
C 2.4252018477 -3.5068348373 2.2439447260
C 3.2745200586 -4.0445475575 1.2793575130
C 2.9442750577 -3.9708869796 -0.0720140568
C -1.6007515256 3.6464172058 2.7892002093
C -1.1467459697 4.1223394863 3.9490286099
Cl -1.7655565872 5.5921935861 4.6583958649
Cl 0.0993904383 3.3594252219 4.8992318747
C -1.8020662024 0.0139107084 1.4959567012
H -4.0703635274 1.5546398364 2.1258694330
H -3.9402925263 1.3111722057 0.3748447049
H -3.6796201181 2.9207589024 1.0613795794
H -0.2945827608 1.9191426073 2.6133808694
H -1.5273276600 3.2111573394 0.0732064496
H 2.1219279830 1.4651806669 -1.4904866487
H -0.5267995740 0.9014817697 -4.1238146685
H -1.2418666578 -1.3678486839 -4.8231792757
H -0.3254653960 -3.3760200090 -3.6735468564
H 2.0722182498 -0.8438174025 -1.1715260228
H -0.0487724603 -2.3678567582 0.1978016394
H 0.5588745376 -2.4885216505 2.5985860263
H 2.6895961864 -3.5610667940 3.2948269819
H 4.2047804597 -4.5192443549 1.5753308676
H 3.5973756691 -4.3781721222 -0.8367238030
H -2.3784148885 4.2260843154 2.3008340688
H -2.3746692960 -0.3857704632 2.3394900596
H -0.7471592997 -0.2138997430 1.6558628756
H -2.1369121668 -0.4971112335 0.5860346466
