51
CONF41
C -1.0323976512 -0.7527840291 1.2652787873
C 0.1616942975 -0.1937124973 2.0316365290
N 0.7894313734 0.9074659168 1.2948726182
C -0.1725730207 1.9998562866 1.1039852901
C -1.3729372543 1.5274758063 0.2926142342
C -2.0647482197 0.3625897769 0.9954552870
C -3.2204379112 -0.1987095513 0.1912782579
O -3.3294050318 0.0384162336 -1.0066049236
C -4.2076159786 -1.0936296734 0.8658475900
C -5.1135222315 -1.8027704857 0.0633240924
C -6.0599175784 -2.6454193371 0.6243522184
C -6.0895970194 -2.7635541462 2.0063813890
C -5.2183165537 -2.0812248500 2.8395690905
C -4.2727364907 -1.2457123053 2.2577591113
F -7.0092714040 -3.5827827191 2.5638912174
C 2.0031063440 1.3659285354 1.9677634562
C 2.9437892926 2.1380988561 1.0406029576
N 3.3462858696 1.3271293165 -0.1200265331
C 2.6938720751 1.5361171960 -1.3432903047
O 1.8794445609 2.4427522614 -1.4828306633
C 3.0613150179 0.6169303034 -2.4224414441
C 2.4507014095 0.7171784058 -3.6781558388
C 2.8001635800 -0.1520176037 -4.6965406309
C 3.7711383433 -1.1349869011 -4.4659192138
C 4.3872654843 -1.2519066414 -3.2312643652
C 4.0297211498 -0.3717367985 -2.2034718282
N 4.6211281648 -0.4533292822 -0.9600547615
C 4.3190471485 0.3517413804 0.1089857049
O 4.8761272939 0.2216659223 1.1940618637
H -0.6926864220 -1.1621429176 0.3053153689
H -1.4786769474 -1.5720635300 1.8383672039
H 0.9057571905 -0.9858505011 2.1756332755
H -0.1744453747 0.1335022393 3.0377307036
H 0.3226183685 2.8168813103 0.5716706703
H -0.5133281470 2.3938590838 2.0842106444
H -1.0373995764 1.2116552335 -0.7011925735
H -2.0739225636 2.3578823239 0.1541917037
H -5.0611398660 -1.6850482560 -1.0133150655
H -6.7622501617 -3.2037258131 0.0151695838
H -5.2846233447 -2.2040419383 3.9148097399
H -3.5923503208 -0.7080642320 2.9077496962
H 1.7817017503 2.0154352966 2.8372239349
H 2.5380810520 0.4896874735 2.3483555718
H 3.8424282288 2.4187700931 1.5942622092
H 2.4757552296 3.0409495605 0.6490318504
H 2.3259266906 -0.0738063477 -5.6685245570
H 4.0485478595 -1.8175648397 -5.2628532742
H 5.1402734987 -2.0128690415 -3.0515357326
H 5.3282205856 -1.1548748647 -0.7871915974
H -2.4424501970 0.7122840111 1.9659608118
H 1.7025463402 1.4877358264 -3.8278309588
