39
CONF53
C 5.5384689890 -0.6574566115 1.1541721988
C 4.3033785295 0.1844177621 1.4681427647
C 3.3802996613 -0.4994200766 2.4756823310
C 2.1543414965 0.3341382081 2.8474728650
N 1.2758444705 0.6057239563 1.7064095631
C 0.3708816998 -0.2949740555 1.2957537350
O 0.1777414585 -1.3906961040 1.8224383028
N -0.4019539226 0.1092122521 0.1654686389
C -0.7035177746 1.4059543469 -0.2823935470
C -0.5497782521 2.6652586510 0.2848824783
C -1.0229142282 3.7511581725 -0.4532755462
C -1.6405696029 3.5792956418 -1.6976502907
C -1.8216789733 2.3113932213 -2.2428857920
C -1.3517568057 1.2178136923 -1.5206352908
N -1.4619677926 -0.1324466792 -1.8261388497
C -0.9056070527 -0.7577540877 -0.8242488931
N -0.7676146574 -2.1126244695 -0.6389338976
C -0.9709376417 -3.1621389078 -1.5186403323
O -0.8339457043 -4.3187808054 -1.1612586112
O -1.3103951364 -2.7663186775 -2.7473895448
C -1.5205018287 -3.8446288587 -3.6949598997
H 6.1238174605 -0.8448982627 2.0610392835
H 6.1887755187 -0.1568974027 0.4302745314
H 5.2516886041 -1.6281759375 0.7350648443
H 3.7529321476 0.3821479435 0.5393852217
H 4.6099945039 1.1614365023 1.8652355679
H 3.0509383319 -1.4698252680 2.0835204661
H 3.9345435962 -0.7023225489 3.4012532402
H 2.4622165425 1.3048555630 3.2503151200
H 1.5606865256 -0.1769114320 3.6101427042
H -0.1068811237 2.8206224302 1.2616408585
H -0.9139459844 4.7496530233 -0.0431299738
H -1.9954049107 4.4499215172 -2.2396726907
H -2.3214773547 2.1679916009 -3.1952142634
H -1.7884636809 -3.3498694944 -4.6273196521
H -2.3312165017 -4.4923356389 -3.3545727434
H -0.6027547615 -4.4243676387 -3.8150292149
H 1.5090961434 1.3761344075 1.0978293148
H -0.4696161239 -2.3885111776 0.2935411689
