47
CONF25
C 0.6038134256 -1.0127366408 -0.2821360486
C 1.2604444936 -2.1581750212 0.4877017725
C 2.7569645496 -1.8886817965 0.7269114051
C 3.0444021810 -0.3897234311 1.0126220113
O 4.1400457603 -0.2395084865 1.9192990641
C 1.7838786319 0.2617044038 1.5941752051
C 0.9396907093 0.4053675017 0.3206451481
C 1.9464062764 1.1109392935 -0.6112449539
C 3.2353731294 0.3850407172 -0.3002054045
C 4.3549960091 0.4110727548 -1.0171697280
C -0.4443319883 1.1100009107 0.5079128531
C -0.3715581006 2.5939147820 0.2720974127
O 0.0973340343 3.2428566296 1.3579550320
O -0.6614283547 3.1597919926 -0.7624109080
C -1.3859512412 0.3863102937 -0.4575679040
C -2.8424957819 0.2041795143 -0.0269266483
C -3.5898283918 1.4369857879 0.4495166266
C -3.6069123937 -0.5176370216 -1.1896595238
O -4.0208097411 0.4042188054 -2.2044287365
C -2.8066125644 -1.6404723301 -1.8033030142
C -1.5431098336 -1.8988106094 -1.4581426214
C -0.9082675147 -1.0624076745 -0.3867484360
O -1.5048192299 -1.5042430376 0.9180698449
C -2.6675258271 -0.8308926122 1.0878454346
O -3.4104962686 -1.0625888735 2.0134799585
H 0.9692483390 -1.0340992876 -1.3176652531
H 0.7574845492 -2.2741175021 1.4508951503
H 1.1267911678 -3.1004669817 -0.0540189907
H 3.3563086018 -2.2113023881 -0.1309952576
H 3.0846230424 -2.4633789454 1.6006597011
H 4.8682156488 -0.7908840796 1.6039339336
H 2.0249149860 1.2502148450 2.0008691893
H 1.3105976828 -0.3388245745 2.3755597933
H 1.6663262461 1.0788706745 -1.6684954087
H 2.0552753335 2.1658811525 -0.3227013282
H 5.2443074521 -0.1293492873 -0.7010221003
H 4.4222448451 0.9784947016 -1.9414241516
H -0.7564157278 0.9503516508 1.5464758645
H 0.1715633291 4.1886337579 1.1411555863
H -1.2790405533 0.7950170111 -1.4662583433
H -3.1025084315 1.8744482646 1.3262093939
H -3.6224959428 2.1840952766 -0.3457308401
H -4.6158848621 1.1756703456 0.7258748090
H -4.5443721617 -0.9126665509 -0.7776719383
H -3.2477577529 0.6383727809 -2.7365348527
H -3.3131435572 -2.2232144041 -2.5687522454
H -0.9754836424 -2.7082525235 -1.9086505632
