38
CONF16
O -0.1161774113 0.6481610645 2.4699399140
P -0.1556748802 0.4427728167 1.0149800573
O -0.0994316940 -1.1338753081 0.6665980213
C 0.2145514928 -1.6748318473 -0.5795647882
C -0.2316958287 -1.1276401495 -1.7775463083
C 0.1269056660 -1.7494783704 -2.9713770972
C 0.9089597275 -2.8997188853 -2.9678334141
C 1.3360660308 -3.4370632817 -1.7558281492
C 0.9918038401 -2.8266621010 -0.5564216491
O 0.9683565034 1.1278847882 0.0908589209
C 2.3151742596 0.7533502825 0.2352488752
C 2.9752971808 0.3280922276 -0.9093097366
C 4.3213937669 -0.0087459613 -0.8189430213
C 4.9868812549 0.0748739986 0.4012056285
C 4.3035168905 0.5042393993 1.5347756497
C 2.9576837644 0.8533854273 1.4622476208
O -1.4241428709 1.0492642897 0.2266858183
C -2.7113020305 0.8506748439 0.7560954454
C -3.1200286247 1.5659006662 1.8725814987
C -4.4197976252 1.3883885182 2.3354832564
C -5.2877009518 0.5132963643 1.6875615385
C -4.8541207277 -0.1937548784 0.5701728792
C -3.5558449797 -0.0301154867 0.0965241229
H -0.8314421366 -0.2258762373 -1.7833557498
H -0.2135188685 -1.3251102007 -3.9105308354
H 1.1821294491 -3.3762841334 -3.9030880393
H 1.9467969001 -4.3338450682 -1.7414331616
H 1.3235896562 -3.2180974214 0.3985253964
H 4.8475399560 -0.3432155046 -1.7069648098
H 6.0362151009 -0.1919448084 0.4677149113
H 4.8181441901 0.5749170735 2.4874120698
H 2.4099407478 1.1891102198 2.3352185042
H -2.4238573164 2.2315760303 2.3685706932
H -4.7528734466 1.9387160058 3.2091853041
H -6.2999813134 0.3814415757 2.0543636915
H -5.5251422792 -0.8794369619 0.0633753272
H -3.1964601164 -0.5756871404 -0.7691633559
H 2.4317599754 0.2573210820 -1.8447642050
