58
CONF10
C 4.6239909219 -1.8426910412 -1.0186258896
C 4.1471265682 -1.6343491145 0.4202840521
C 4.8451938482 -2.6205848920 1.3588670994
C 4.3617903504 -0.1919556722 0.8974130936
C 3.5480394878 0.8529217240 0.1349693591
C 3.6871232420 2.2573512201 0.7238418374
C 2.9949298676 3.3455021398 -0.1068779847
C 1.5043295762 3.1017633019 -0.3656428482
C 0.6602596410 3.0725473658 0.9078293466
C -0.7947125432 2.7402471216 0.6627184457
O -0.9311049992 1.3098791663 0.3354058099
P -1.1639488258 0.7548987817 -1.1312280898
O -1.3304571488 1.7593150591 -2.2040221188
O -2.3540758445 -0.3177141134 -0.9403807501
C -3.4870100280 -0.0523030666 -0.1644794777
C -4.1471599474 1.1688379024 -0.2325272967
C -5.2850952507 1.3561323709 0.5496219850
C -5.7546136870 0.3343221326 1.3715620013
C -5.0800707671 -0.8845406752 1.4156151262
C -3.9356056491 -1.0844515154 0.6487064007
O 0.0549413183 -0.2342087248 -1.4731997313
C 0.3491954032 -1.4469448345 -0.8388775954
C 0.9509524477 -2.4086506540 -1.6412841121
C 1.3042994883 -3.6321061441 -1.0808001032
C 1.0530536031 -3.8893343492 0.2651750731
C 0.4520077397 -2.9105750203 1.0522688872
C 0.0986052362 -1.6763115883 0.5096722425
H 5.6921911108 -1.6055504199 -1.1054019987
H 4.4820861680 -2.8845387534 -1.3259910321
H 4.0771413539 -1.2124904694 -1.7265156971
H 3.0676442644 -1.8389430371 0.4530566930
H 4.4872951977 -2.5094853971 2.3884141134
H 5.9292500199 -2.4508856624 1.3574690774
H 4.6667903838 -3.6556197513 1.0465705468
H 4.0960019633 -0.1321965180 1.9626344075
H 5.4328033165 0.0525692386 0.8307038331
H 2.4924153546 0.5474326333 0.1450151647
H 3.8532931559 0.8780135393 -0.9196845550
H 3.2992439953 2.2581862203 1.7510376277
H 4.7536556260 2.5069544704 0.8033881733
H 3.1183498034 4.3152714561 0.3935737312
H 3.5057859027 3.4253184574 -1.0752851608
H 1.3855245323 2.1595254565 -0.9145103105
H 1.1191935074 3.8903256015 -1.0247309901
H 1.0591425368 2.3506153783 1.6303374398
H 0.6938123395 4.0569656600 1.3936509289
H -1.2222841951 3.3309031146 -0.1533439654
H -1.4001608932 2.8699780858 1.5623949762
H -3.7855093163 1.9562409855 -0.8863978119
H -5.8073382262 2.3065594820 0.5068406073
H -6.6438055733 0.4864324211 1.9742407546
H -5.4403730397 -1.6853745530 2.0533969632
H -3.3909070173 -2.0224070674 0.6741920741
H 1.1372197003 -2.1913038178 -2.6875301597
H 1.7771493548 -4.3852655849 -1.7029415425
H 1.3282935076 -4.8448307299 0.6992801810
H 0.2584582842 -3.0981215275 2.1036711009
H -0.3580029072 -0.9156220311 1.1314036548
