22
CONF49
C 2.1754745516 -0.9047576189 -0.6586638235
C 0.8362608868 -0.1676683343 -0.6623762872
C 0.3926976417 0.2470357122 0.7458994834
C -0.7998230381 1.2251486502 0.8381780195
C -2.1499795897 0.7376747226 0.3100420278
O -2.2201299474 0.7755586129 -1.1178485620
O -0.4528649690 2.4622777444 0.2099817199
O 0.1717068454 -0.8955360778 1.5905844106
O -0.1486457534 -0.9888051270 -1.3175024313
O 2.0445114072 -2.2390441028 -0.1490262442
H 2.9144698808 -0.3260877519 -0.0875468024
H 2.5337736348 -1.0092767737 -1.6871331580
H 0.9487182651 0.7422948798 -1.2650201118
H 1.2426678393 0.7772641872 1.1934355561
H -0.9280586131 1.4288594981 1.9098596050
H -2.3838112017 -0.2633634273 0.7001763162
H -2.9223066986 1.4233604016 0.6731367793
H -1.6575659766 0.0445970770 -1.4330474169
H -0.7814690406 2.4002928952 -0.7005784923
H -0.5678619996 -1.4018045268 1.2258204477
H 0.0424182654 -1.9087988774 -1.0760938582
H 1.7098184036 -2.1592215568 0.7577228277
