55
CONF74
C -7.4504996545 -2.1816149643 1.4042960156
C -6.7397353882 -3.0027387570 0.3496425744
O -6.0725701217 -2.1443762199 -0.6208108111
C -4.8483648565 -1.6848767000 -0.2623827973
O -4.2654061951 -1.9843704728 0.7652591736
N -4.3875847114 -0.8465558610 -1.2425897570
C -3.1531310600 -0.1886192776 -1.3078629635
C -2.1683776664 -0.2953644645 -0.3226157436
C -0.9596218485 0.3695929646 -0.4953193161
C -0.7338057527 1.1858990426 -1.6029835470
C -1.7294402403 1.3098591690 -2.5720751858
C -2.9193883856 0.6151952542 -2.4349032665
S 0.8128381311 2.0524455145 -1.7615516320
C 1.0891006961 2.3918128167 -0.0375210081
C 1.7128670437 3.5739355828 0.3617270525
C 1.8954245424 3.8328053479 1.7157157146
C 1.4088139400 2.9427660287 2.6722740425
C 0.7705565321 1.7727371564 2.2753343807
C 0.6610256881 1.4653720355 0.9201069703
N 0.0822636047 0.2378927951 0.4763726573
C 0.6477815153 -1.0164276274 0.6817221017
O 0.1770656421 -2.0101223759 0.1392531919
C 1.8695724036 -1.1392560895 1.5676574168
C 3.0621636220 -1.6238204932 0.7376932930
N 3.4935663507 -0.6244527997 -0.2458730270
C 4.2267620570 0.4777828524 0.3940659754
C 4.6999681336 1.4755375159 -0.6493755257
O 5.5379801157 0.8521711985 -1.6274087809
C 4.8183645067 -0.2090520497 -2.2652668689
C 4.3629609593 -1.2464652200 -1.2540895481
H -7.9905845326 -2.8528321941 2.0795386413
H -8.1727825882 -1.5016828761 0.9436622886
H -6.7377970863 -1.5999349973 1.9948026441
H -7.4456689222 -3.5785374715 -0.2525082221
H -6.0023503925 -3.6796518643 0.7884579130
H -5.0090521721 -0.7095312890 -2.0271357487
H -2.3222982498 -0.9056969877 0.5538220883
H -1.5729564284 1.9493746497 -3.4345283027
H -3.6860253406 0.7080748510 -3.1981600778
H 2.0460437713 4.2863372962 -0.3862846781
H 2.3906926984 4.7478386617 2.0233213889
H 1.5156784364 3.1636230836 3.7289217994
H 0.3781442124 1.0766022331 3.0097143641
H 2.1179690007 -0.2242419634 2.1009026616
H 1.6348177195 -1.9041867101 2.3156592657
H 3.8858814810 -1.8989243987 1.4230064717
H 2.7668539608 -2.5297428399 0.1973995647
H 3.5731464354 1.0025096449 1.1004454003
H 5.1017815997 0.0949042463 0.9561642257
H 3.8315042226 1.9350380970 -1.1485154621
H 5.2956784878 2.2624492593 -0.1776087809
H 3.9446520641 0.2052211006 -2.7949931697
H 5.4993079229 -0.6584974174 -2.9935817413
H 5.2536549933 -1.7129068858 -0.7876283930
H 3.8025597327 -2.0332980569 -1.7733634304
