47
CONF100
C -1.0956112710 -3.1198839454 0.4698475656
C -1.5722076079 -1.8126082485 1.0623087205
C -3.0460082012 -1.4940309456 1.1010648488
C -2.1472539836 -0.8085662506 0.0623172308
C -1.9218135473 0.6362872323 0.1979084921
O -2.0464892721 1.3158699090 1.1939596741
O -1.5328726752 1.1597769266 -1.0087216250
C -1.2649443709 2.5808015500 -0.9893542498
C -1.3506808043 3.0094004795 -2.3866480266
N -1.3939056005 3.3833346536 -3.4782937017
C 0.0984404542 2.9110019154 -0.4134736141
C 1.1954268721 2.1250783230 -0.7582304360
C 2.4448243872 2.4562288562 -0.2416858342
C 2.6095113104 3.5644485057 0.5868389864
C 1.5037398997 4.3418138059 0.9108887178
C 0.2410928789 4.0168255489 0.4212621662
O 3.5833891002 1.7561432523 -0.5809579173
C 3.4859512552 0.3826912759 -0.7672391825
C 2.8682377610 -0.4268576969 0.1827934770
C 2.8631585648 -1.8049917536 -0.0083967196
C 3.4705775548 -2.3660972288 -1.1314332295
C 4.0902740010 -1.5400706123 -2.0664299968
C 4.0994965952 -0.1577926765 -1.8907954236
C -4.0704966465 -2.4255246136 0.6272239123
C -5.2891106303 -2.5598662242 1.1518230651
Cl -6.4497809904 -3.7036580621 0.5266163921
Cl -5.8798123832 -1.6356599688 2.5060247422
C -0.7304770566 -1.3308663042 2.2207360362
H -1.6597511299 -3.4148516137 -0.4170543291
H -1.1772806854 -3.9173965494 1.2164939120
H -0.0427562364 -3.0292257466 0.1838941329
H -3.3368501935 -0.8368671451 1.9147868729
H -2.2162640099 -1.1660660438 -0.9592210183
H -2.0456232382 3.1006695371 -0.4215554896
H 1.0807947623 1.2694393287 -1.4155276802
H 3.5965420049 3.8000241409 0.9703136546
H 1.6256249681 5.1996576736 1.5640164140
H -0.6250346134 4.6136412007 0.6883563195
H 2.4067323973 0.0180429784 1.0585922377
H 2.3911792326 -2.4429877847 0.7323864044
H 3.4642696535 -3.4417764542 -1.2732444402
H 4.5671205437 -1.9692866574 -2.9420232261
H 4.5751310743 0.5004779130 -2.6103171112
H -3.8375715156 -3.0641847986 -0.2192361489
H 0.3021102524 -1.1681599933 1.8934007235
H -0.7209819929 -2.1002286626 2.9999356070
H -1.1100453857 -0.4041483172 2.6530958054
