43
CONF40
C 1.9530841417 1.0645355588 4.0074554492
C 1.8001644348 -0.3387757288 3.4616534910
O 1.4462270425 -0.3361802733 2.0536952678
N 0.1161354666 0.0162388491 1.9131923338
C -0.2488146907 0.1343670332 0.6940215113
C -1.5910175516 0.6144832258 0.3354646301
C -2.3403996170 -0.0824626417 -0.6406057685
C -3.5800780367 0.3990965820 -1.0582239219
C -4.0749199631 1.5811909063 -0.5212627925
C -3.3468819929 2.2759314743 0.4314334118
C -2.1066586365 1.8041271503 0.8814855645
O -1.3647893059 2.5354572343 1.7595631407
C -1.7579298613 2.3845530628 3.1463843003
Cl -3.9619091905 3.8072912771 1.0296535538
O -1.7824858247 -1.2269025070 -1.0958000787
C -2.4757332062 -1.9610178404 -2.1183903846
O 0.6148174002 -0.0247181970 -0.3855991891
C 1.1363138310 -1.2736617886 -0.6457413008
O 0.8547731895 -2.2564287905 -0.0032231443
C 2.0459444608 -1.2402043454 -1.8106593974
C 2.3454074280 -0.0571893465 -2.4971902416
C 3.2075668695 -0.0913470681 -3.5869364271
C 3.7719206098 -1.2980848438 -3.9965917733
C 3.4746908683 -2.4774885717 -3.3142338936
C 2.6152703425 -2.4507153944 -2.2243558791
H 1.0056723487 1.6074789252 3.9552366615
H 2.2641092377 1.0164581180 5.0559445640
H 2.7116838974 1.6181174584 3.4461891878
H 2.7485114851 -0.8828747726 3.4829864695
H 1.0471206861 -0.9136338483 4.0118394964
H -4.1672613463 -0.1303175006 -1.7968606802
H -5.0319544487 1.9665121431 -0.8551150199
H -1.5430824667 1.3654870040 3.4815134789
H -2.8200647676 2.6124555093 3.2773991385
H -1.1555796746 3.1005233175 3.7070958035
H -1.8331881278 -2.8109238487 -2.3482086511
H -3.4452983806 -2.3164373398 -1.7530437642
H -2.6132643540 -1.3452132066 -3.0137159432
H 1.9077921992 0.8820082755 -2.1811350651
H 3.4397851486 0.8257702978 -4.1183772214
H 4.4442044217 -1.3199053338 -4.8485606425
H 3.9140179700 -3.4169619963 -3.6333344764
H 2.3760978736 -3.3606376157 -1.6850416817
