71
CONF9
C 2.7093247921 1.0433661553 -3.5382361273
O 3.0585938942 0.6700628932 -2.2024224681
C 2.5782074971 -0.5240615034 -1.7477433993
C 2.8056135579 -0.7931104254 -0.3777714061
O 3.4847044770 0.1705031230 0.3045496302
C 3.6625547452 -0.0261510842 1.7101663103
C 2.3520970389 -1.9862653373 0.1718778425
C 1.6877604702 -2.9434877230 -0.6116771791
C 1.1654795179 -4.1962187909 0.0403199708
C -0.2166745253 -3.9811041856 0.6801877226
N -1.2856578382 -3.8797049301 -0.3219439993
C -1.8224918620 -5.2048612843 -0.6314566614
C -2.3482196462 -2.9590541169 0.0959352534
C -1.9624249257 -1.5004440436 -0.1400833635
C -3.0261626453 -0.5531464644 0.4055648070
C -2.8440141758 0.9255018613 -0.0443782449
C -3.1278164678 0.9669695546 -1.4799846475
N -3.3975455999 0.9774836409 -2.6047508557
C -3.8807044630 1.8666609377 0.6783951286
C -5.3306724505 1.4212681512 0.4850511902
C -3.7077320265 3.3239672318 0.2516942626
C -1.4195118999 1.4179057099 0.2255607970
C -0.9448798484 1.3761453324 1.5454375905
C 0.3094498790 1.8765098376 1.8677698702
O 0.8424835933 1.8813057856 3.1211002964
C 0.0682839165 1.2814754908 4.1656945075
C 1.1260411356 2.4404150165 0.8571083849
O 2.3210459721 2.9354548462 1.2724671155
C 3.1890356166 3.4709221528 0.2643978314
C 0.6617629577 2.4542758073 -0.4504656693
C -0.6031508546 1.9455400551 -0.7626831083
C 1.4805141721 -2.6713589367 -1.9575992799
C 1.9155706798 -1.4673874799 -2.5232420428
H 3.1521617347 0.3590601532 -4.2722183267
H 3.1168105625 2.0450053895 -3.6819995948
H 1.6198267792 1.0651585738 -3.6665094948
H 4.2621438857 -0.9225394272 1.9106407184
H 4.1892584221 0.8588272667 2.0673601003
H 2.6945112269 -0.1036655142 2.2201880481
H 2.5156142394 -2.1937643101 1.2237518777
H 1.8596291237 -4.5208677417 0.8247694967
H 1.1045664610 -5.0077419410 -0.6931415079
H -0.4281497887 -4.7996891775 1.3934070106
H -0.1803703546 -3.0553241786 1.2657245389
H -1.0127265321 -5.8733006082 -0.9421545083
H -2.3328761333 -5.6700725221 0.2341018788
H -2.5375674478 -5.1352449641 -1.4578785463
H -2.6284174653 -3.1128307371 1.1580400920
H -3.2441986374 -3.1813537505 -0.4967254019
H -1.8357139493 -1.3466548099 -1.2197298765
H -0.9927344072 -1.2798903093 0.3209188412
H -4.0149763949 -0.8937225890 0.0815491652
H -3.0288796013 -0.5705807156 1.5018395252
H -3.6301241257 1.7816711124 1.7431029338
H -5.6015913134 1.4128861136 -0.5771800160
H -5.9952630848 2.1281283907 0.9908617485
H -5.5238314471 0.4293209237 0.8997828946
H -2.6887324225 3.6783984502 0.4279294344
H -4.3960315161 3.9592105188 0.8168205740
H -3.9356975676 3.4478638095 -0.8136347262
H -1.5655807484 0.9541809993 2.3260523626
H -0.8797247111 1.8135816606 4.3097603650
H -0.1301792421 0.2245513190 3.9497570467
H 0.6757113608 1.3647676751 5.0673202925
H 2.7338815711 4.3444511452 -0.2184279090
H 3.4286610573 2.7077775085 -0.4834499518
H 4.0951719361 3.7750095169 0.7897964752
H 1.2763672321 2.8596237565 -1.2443389541
H -0.9401513119 1.9872020385 -1.7931456096
H 0.9683471770 -3.3962354793 -2.5827490778
H 1.7358993975 -1.2797662491 -3.5751242923
