28
CONF74
O -1.2766960487 1.0846815756 -2.4042440409
C -2.3076033301 0.1680408896 -2.0463684201
C -2.0692845518 -0.4519280162 -0.6811531880
O -0.7778365522 -1.0792152465 -0.6969311819
C -0.1882370353 -1.0433230367 0.6074765269
C -1.1045878968 -0.1664626008 1.4794438083
C -2.0273128879 0.5411789349 0.4784842990
O -3.3586014975 0.7384587780 0.9394083156
N 1.1830919399 -0.5380425600 0.4782724496
C 1.4137341460 0.6851753417 -0.1028033480
C 2.6472794977 1.2008976059 -0.2784625340
C 3.8130616196 0.4556285643 0.1481265541
O 4.9763366714 0.8032499319 0.0458083150
N 3.4866118288 -0.7869186513 0.7312367664
C 2.2388903590 -1.3466431581 0.9299351823
O 2.0752310713 -2.4311783141 1.4573422707
H -0.4770469948 0.5599675601 -2.5339707016
H -3.2448874160 0.7331125347 -2.0117780101
H -2.4111283308 -0.6242832558 -2.8011270484
H -2.8574372678 -1.1943785756 -0.4714901927
H -0.0825315548 -2.0566948412 1.0013715760
H -0.5330743861 0.5113224799 2.1181049801
H -1.7220271654 -0.8052734280 2.1181151063
H -1.5969422804 1.4902297311 0.1290799576
H -3.3807732383 1.5269368695 1.4910901710
H 0.5228394313 1.2096229873 -0.4337860328
H 2.7951081667 2.1665424310 -0.7408056635
H 4.2638243167 -1.3507039283 1.0496240777
