47
CONF109
C -2.8347099584 3.4894064707 -0.1486311842
C -2.2940626981 2.3925042957 0.7405529111
C -2.4300205273 2.4970696761 2.2421621293
C -1.0745842298 2.7639765138 1.5883633690
C 0.0063610268 1.7909816853 1.8008536712
O -0.0930992529 0.6636234540 2.2343927430
O 1.2024960423 2.3301153395 1.4059161458
C 2.3199869723 1.4034221329 1.4472859504
C 3.5182962392 2.2418312967 1.4678087551
N 4.4848979831 2.8732706579 1.4737920889
C 2.3134310879 0.4780046997 0.2490498326
C 2.2892976314 -0.8974839008 0.4498008750
C 2.2534205730 -1.7437374788 -0.6556104498
C 2.2402290458 -1.2287279094 -1.9504715105
C 2.2594497868 0.1516775552 -2.1311616479
C 2.2994864402 1.0124307592 -1.0401893605
O 2.2936555224 -3.0950262569 -0.3906677326
C 1.6719821598 -3.9710074123 -1.2716534376
C 2.3878456209 -5.0951803058 -1.6646456041
C 1.7701945891 -6.0384204068 -2.4829703806
C 0.4562730136 -5.8519017767 -2.9059784993
C -0.2467978365 -4.7184028310 -2.4994384550
C 0.3541342777 -3.7719398587 -1.6752707771
C -3.1235855620 3.6102416985 2.8936613664
C -3.8908626359 3.5086426505 3.9794620638
Cl -4.6836835957 4.8908965288 4.6908550143
Cl -4.2036147624 2.0148297251 4.8197238609
C -2.3939375998 1.0133088006 0.1302930044
H -2.3400113690 3.4478589611 -1.1244522225
H -2.6776703384 4.4867023012 0.2665660661
H -3.9090704345 3.3438434743 -0.3062080412
H -2.4824068646 1.5386491787 2.7493362835
H -0.7539539706 3.7967157747 1.5030148785
H 2.2867233968 0.8237149550 2.3767543993
H 2.2857460599 -1.3196078326 1.4492946207
H 2.2181899776 -1.8965943834 -2.8044736688
H 2.2542860488 0.5551962131 -3.1384249913
H 2.3160883754 2.0876880121 -1.1871301834
H 3.4115403374 -5.2216490653 -1.3281942961
H 2.3234891849 -6.9191633833 -2.7933830163
H -0.0199126634 -6.5869768999 -3.5463532925
H -1.2744500971 -4.5717605400 -2.8168970302
H -0.1888273239 -2.8917770428 -1.3462066525
H -3.0133507926 4.6057394355 2.4745709731
H -3.4398116770 0.8066822627 -0.1199196752
H -2.0405100006 0.2339310063 0.8069702966
H -1.8085657047 0.9664024841 -0.7951024952
