37
CONF4
C 0.8154626615 0.1402355234 -2.1518976308
Si 0.3314468941 -0.1188982631 -0.3635568651
C -0.0368059720 -1.9839219075 -0.1280635242
N -0.8262024937 -2.5235947111 -1.2288990373
C -0.4353372198 -3.3397555560 -2.2254919386
N -1.4297007164 -3.5214256962 -3.0919084543
C -2.4264164980 -2.7648514929 -2.5605897328
N -2.1072596963 -2.1346819160 -1.4332444787
C 1.7554762224 0.2888522014 0.7949951796
C 1.6646306885 1.2980676779 1.7640419312
C 2.7375503258 1.6081145473 2.5968892541
C 3.9100070083 0.8892773201 2.4430124819
F 4.9634667404 1.1835534808 3.2463615289
C 4.0570030405 -0.1162436793 1.5014249984
C 2.9703486643 -0.4073965848 0.6825271622
C -1.1760787184 0.8943161633 0.0967026686
C -1.6914224589 1.8711983064 -0.7662765488
C -2.8111464412 2.6270712503 -0.4257588736
C -3.4092256918 2.3874582983 0.7988279165
F -4.5010324303 3.1167762771 1.1424938271
C -2.9426943380 1.4350932812 1.6903617208
C -1.8236958259 0.6930950495 1.3259405888
H 1.0852859313 1.1845573065 -2.3397602050
H -0.0042483115 -0.1316821720 -2.8262858971
H 1.6825084164 -0.4817246356 -2.4007266363
H 0.9049908386 -2.5421677318 -0.1007518629
H -0.5611694170 -2.1745692651 0.8149867941
H 0.5560160469 -3.7709503987 -2.2743283693
H -3.4106713473 -2.6741863295 -3.0027459548
H 0.7418165658 1.8601019026 1.8762156257
H 2.6711827946 2.3886270407 3.3473059173
H 4.9970962745 -0.6507619244 1.4165847398
H 3.0845917108 -1.1929146151 -0.0607524286
H -1.2202009328 2.0534484588 -1.7277756384
H -3.2145190296 3.3828996113 -1.0910496041
H -3.4465897130 1.2828383799 2.6387581861
H -1.4544623821 -0.0558559966 2.0224329689
