33
CONF396
C 2.6977093096 -2.4702939832 0.4887580261
C 3.9090517836 -1.5912085657 0.8307803935
C 4.5756912231 -1.0392662602 -0.4007292229
C 5.7648359503 -1.4577062279 -0.8465428604
C 3.8736672219 0.0094888859 -1.1981400833
O 4.1576051992 0.3495704227 -2.3319613063
O 2.8598477643 0.5622673930 -0.4993084122
C 2.0646366605 1.5441563227 -1.2058907783
C 0.9929324012 2.0479017363 -0.2586347500
C 0.0851057546 0.9523355233 0.2668346747
C -1.2691025788 1.4956412261 0.8013696518
C -2.1820039727 0.5331277785 1.6384190440
C -2.5547830712 -0.8495740608 1.0205339402
F -3.5089859595 -1.4134391192 1.7760965409
F -3.0248063980 -0.7034171793 -0.2252175370
F -1.4950615757 -1.6666611546 1.0015118294
F -1.6017317354 0.3021396980 2.8373620307
F -3.3460966322 1.1996930373 1.8479487058
F -1.0083108188 2.5510456340 1.6191037498
F -1.9949970085 1.9455092076 -0.2523809934
F 0.6789331045 0.2616195893 1.2901874512
F -0.2127669181 0.0428621198 -0.7156920265
H 1.9509116698 -1.9091827087 -0.0803335536
H 2.2208392111 -2.8346191524 1.4036821230
H 3.0074847713 -3.3348274180 -0.1065391948
H 3.5900392859 -0.7689657474 1.4798317195
H 4.6456432316 -2.1802853817 1.3858652504
H 6.2008786303 -1.0479723705 -1.7516263321
H 6.3247079832 -2.2144544611 -0.3057771106
H 1.6340497198 1.0798350508 -2.0972740790
H 2.6994497914 2.3790084700 -1.5155127364
H 1.4342454389 2.5587915817 0.6012599844
H 0.3851234498 2.7763675507 -0.8053393174
