27
CONF118
C -3.7909269766 -0.2751209152 -1.3583919242
C -3.5216329924 0.4352130827 -0.0354482759
C -2.2029390501 0.0345729806 0.7005327767
C -0.9000548684 0.1264684605 -0.1582291952
C 0.4200965708 0.0998204092 0.6888959111
C 1.6897412604 -0.2614261320 -0.1607193963
C 3.0335775719 0.1367148391 0.5392012932
C 4.2941076461 -0.5710195336 -0.0582561836
F 4.3118515449 -0.4421718215 -1.3925970458
F 5.3914805059 0.0064516156 0.4479656434
F 4.3113689438 -1.8695913412 0.2582459728
F 2.9699945318 -0.1832285811 1.8522926352
F 3.2142347072 1.4680910851 0.4135130286
F 1.6232753795 0.3837741839 -1.3480182394
F 1.6956662477 -1.5949410840 -0.3847037372
F 0.2902335097 -0.8167151458 1.6725005543
F 0.6006764678 1.3215645322 1.2377883719
F -0.8885490198 -0.9296845816 -1.0151468389
F -0.9229349729 1.2681497777 -0.8826085638
F -2.0614677123 0.8323163658 1.7857709750
F -2.3439677849 -1.2496436020 1.1141901700
F -4.5228739699 0.1833007974 0.8501265876
F -3.5041229801 1.7904360900 -0.2428128250
O -5.0582679863 0.0779927438 -1.8670390196
H -3.7982806143 -1.3544416590 -1.1818813920
H -2.9780917343 -0.0371709303 -2.0580997569
H -5.0544841436 1.0218974877 -2.0675461635
