73
CONF2
C -2.8920605957 0.6661178691 -2.7002257684
C -2.6685775407 0.2984598003 -1.2254363681
C -3.9160528400 0.6201378902 -0.4485464138
C -4.7077967212 -0.2652438094 0.1569863526
C -5.9542987895 0.0718997539 0.9241092187
C -5.8569877062 -0.4715681826 2.3567340509
C -7.2484588186 -0.4093455046 0.2121054356
C -7.2870069045 -1.9205301170 -0.0298641517
C -7.4636647262 0.3435358600 -1.1017302586
C -1.4727177961 1.0285008452 -0.5820839410
C -1.2913805599 0.6170578865 0.9097063388
C 0.2247658141 0.6808049690 1.2187912149
C 0.8109747417 1.3730375690 -0.0082537725
C -0.0578551590 0.8489233154 -1.1965133194
C 0.2601864713 1.7214565985 -2.4194291617
C 1.7614294094 1.7372146572 -2.7365109695
C 2.6216056053 2.1357705416 -1.5224935853
C 2.2776150398 1.3187160066 -0.3041154271
C 3.1550684572 0.6190001190 0.4501238609
C 4.5716128238 0.4845258299 0.2099451828
C 5.4711595486 -0.1566979698 0.9955479429
C 6.9131441787 -0.2923814491 0.5673921129
C 7.3878402885 -1.7495798977 0.6215774325
C 7.1542954097 -2.3311941431 2.0106916168
C 5.6727857839 -2.2310907618 2.3998362575
C 5.1578046518 -0.8144961283 2.2806634066
C 4.5144214787 -0.2037345960 3.2836197185
O 8.7628776261 -1.8611116028 0.2212026096
C 0.2346317678 -0.6290834547 -1.4845398653
H -2.9758863923 1.7526059919 -2.8207117193
H -3.8194560898 0.2118592330 -3.0641680701
H -2.0744145619 0.3143246692 -3.3334391707
H -2.4947496320 -0.7842079579 -1.1537997800
H -4.1804979246 1.6810507080 -0.4067668446
H -4.4348142747 -1.3224046507 0.1188198666
H -6.0248899486 1.1673018060 0.9816982213
H -6.7755251940 -0.2627229471 2.9165004792
H -5.6936072781 -1.5543036456 2.3620297709
H -5.0184561746 -0.0080725285 2.8864982987
H -8.0770448342 -0.1539222487 0.8887685199
H -7.1518425518 -2.4910316917 0.8940154045
H -6.5057473807 -2.2241413560 -0.7356972559
H -8.2515480528 -2.2083852803 -0.4612728391
H -7.4710911665 1.4275246623 -0.9420755985
H -6.6625308824 0.1139920083 -1.8135996276
H -8.4165418166 0.0588723584 -1.5605616795
H -1.6924354303 2.1067652514 -0.6240129558
H -1.6811054155 -0.3947892224 1.0674180342
H -1.8685933694 1.2767301598 1.5639895188
H 0.4471418599 1.2247635780 2.1421042015
H 0.6350268539 -0.3281359278 1.3321777246
H 0.5506147413 2.4436524547 0.0682781408
H -0.2855626209 1.3782880919 -3.3037453181
H -0.0768631195 2.7472435065 -2.2110775828
H 1.9544942037 2.4370447048 -3.5577833996
H 2.0769708538 0.7482645743 -3.0901045877
H 2.4143842871 3.1914209602 -1.2888595408
H 3.6808654816 2.0706520734 -1.7816399200
H 2.7669089596 0.0974270628 1.3209539632
H 4.9617038881 0.9090138057 -0.7129872768
H 7.5544225721 0.2827691665 1.2550334363
H 7.0562282217 0.1094568752 -0.4407672510
H 6.8297909781 -2.3376197935 -0.1188341989
H 7.4813168722 -3.3764518759 2.0338690061
H 7.7655535736 -1.7720671705 2.7334749929
H 5.5140565300 -2.6052177471 3.4156816923
H 5.0917270696 -2.8697869949 1.7186319618
H 4.3241443681 -0.7196130811 4.2210980478
H 4.1749538416 0.8238852253 3.1957551530
H 9.2913588820 -1.3625936465 0.8593503854
H -0.3078423911 -0.9611724385 -2.3757671129
H -0.0677548077 -1.2715394124 -0.6519465952
H 1.3017759259 -0.7958314061 -1.6567718446
