70
CONF221
C 0.3596244220 -1.2688888009 2.1787570684
C -0.0616942996 -2.5933530411 2.8600759003
C -0.8876750574 -2.2981811533 4.0683019154
C -1.1356051992 -2.9534814491 5.2467674730
N -1.9813384776 -2.1722546210 6.0319650336
C -2.2715957408 -0.9982432526 5.3703715823
C -3.0293085213 0.1288807886 5.6897325753
C -3.0597527058 1.1466609994 4.7421388762
C -2.3726304874 1.0693259792 3.5118377395
C -1.6286467881 -0.0575209579 3.1878534389
C -1.5947590787 -1.0723730305 4.1395413445
C -0.8631411198 -0.3353361153 1.9112178381
C -0.4409539164 0.9507721878 1.2014736316
C 0.3553199909 0.6343283748 -0.0602906943
C 1.5338850929 -0.2654511708 0.3216177579
N 1.0360733295 -1.5188545292 0.8923547319
C 2.1266984425 -2.5014966987 0.9490263658
C 2.6083884798 -2.8531369306 -0.4268695260
C 3.8851832669 -2.9119137529 -0.7926534856
C 0.8658491186 1.9128100387 -0.7141130010
O 1.1253215990 2.8887980430 -0.0092557232
N 1.0343131336 1.9074757137 -2.0899654904
C 0.7439562200 0.7035381462 -2.8901286624
C -0.7127592385 0.6019600109 -3.3454564854
C -1.0228417732 -0.8214524630 -3.8080580666
N -0.9169842907 -1.7897349380 -2.7088575472
C -2.1114836847 -1.7882803062 -1.8695592787
C -0.6633036777 -3.1382330733 -3.2049900088
C 1.3671220631 3.0707111457 -2.8847144464
O 1.2969751260 2.9982638360 -4.1051589458
N 1.7597081086 4.1694861871 -2.2088933535
C 1.9851293287 5.4214383209 -2.9209490957
C 0.6878528454 6.1575514055 -3.2487087680
H 1.0348811138 -0.7314328698 2.8792697741
H -0.6233171429 -3.1928163938 2.1279515779
H 0.8208832813 -3.1718558559 3.1469181088
H -0.7872832294 -3.9101157392 5.6098329022
H -2.3017666566 -2.4219051159 6.9502720711
H -3.5669013542 0.2232312409 6.6275936648
H -3.6333509918 2.0422869090 4.9587248934
H -2.4384631088 1.9103507576 2.8300812293
H -1.5253272146 -0.9021649675 1.2359853803
H -1.3249814052 1.5441777183 0.9434895064
H 0.1687422690 1.5634565602 1.8743354796
H -0.2718179125 0.0617968720 -0.7488240961
H 2.1422879154 -0.5025701605 -0.5565131379
H 2.1862454992 0.2813129961 1.0328872804
H 2.9766862314 -2.1619886463 1.5748713443
H 1.7408534365 -3.4224691402 1.3977706078
H 1.8188086069 -3.0886364816 -1.1412501767
H 4.6845501979 -2.6616805460 -0.0995405126
H 4.1748862739 -3.2152558303 -1.7933191457
H 1.0082167737 -0.1820726032 -2.3116543174
H 1.3956656304 0.7391717823 -3.7655081847
H -1.3820645558 0.8943962453 -2.5271305017
H -0.8905135696 1.3073295845 -4.1633141702
H -0.2905636154 -1.1025754821 -4.5764181974
H -2.0179291405 -0.8608804816 -4.2920550446
H -1.9423449746 -2.4197049152 -0.9905534056
H -3.0065302107 -2.1620785164 -2.4055541961
H -2.3339139241 -0.7782053795 -1.5124377303
H 0.2753101488 -3.1601367598 -3.7690732219
H -0.5688802194 -3.8278297008 -2.3590101908
H -1.4713512397 -3.5167079623 -3.8621547993
H 1.6781012698 4.1361011328 -1.1961661497
H 2.6303271838 6.0413464762 -2.2893489289
H 2.5319852800 5.1976634110 -3.8419491385
H 0.0571427099 5.5387132345 -3.8923609025
H 0.9026511121 7.0936343811 -3.7740388346
H 0.1321475454 6.3942990622 -2.3362188430
