78
CONF277
C -0.7439251983 0.1417065401 -0.8330901770
C 0.1986114047 0.8715518955 -1.7790810737
O -0.2873237762 0.4854669382 -3.1116522502
C -0.9781248965 -0.6831771748 -3.0430458779
O -1.4062975572 -1.2220387534 -4.0364389202
C -1.0234869395 -1.1374865404 -1.6042801096
C -2.2586568224 -1.8653936090 -1.0676282616
C -3.5709132015 -1.1612353745 -1.3944475435
C -4.2330886382 -1.4776316219 -2.5822649390
C -5.4172854611 -0.8241173135 -2.9289217328
O -6.1363207961 -1.0613135644 -4.0634107300
C -5.6120525090 -2.0331320383 -4.9763599262
C -5.9485098795 0.1528458974 -2.0787809266
O -7.1098558995 0.7814392748 -2.4279521593
C -5.2861957442 0.4547840855 -0.8841642185
O -5.9094729742 1.4163272077 -0.1345741591
C -5.2938259641 1.7874768980 1.1048717341
C -4.1064267182 -0.1985501787 -0.5358664951
C -2.0710651280 -2.0377086029 0.4343362910
C -2.8632101948 -3.0206453783 1.0646176766
C -2.7570393887 -3.1581436422 2.4255251317
C -1.9056957623 -2.3556347670 3.1790473904
O -1.9976297380 -2.6882115652 4.5044553067
C -2.9444254194 -3.7765459175 4.5813995790
O -3.4210873959 -4.0325126081 3.2409894766
C -1.1289944698 -1.3883871057 2.5960172696
C -1.2139970413 -1.2286331513 1.1936733889
C -0.2969261071 -0.1883980802 0.5769246773
O 1.0560286785 -0.7352964539 0.5556549494
C 2.0013950921 -0.0035064121 1.2643830670
O 2.3302610161 1.1749130854 0.5131559250
C 3.3023046588 1.9465784944 1.2147058333
C 3.5742648655 3.2279624891 0.4479286999
O 4.6149734742 3.9518293460 1.1311840304
C 5.8036472804 3.2042014605 1.3239100630
O 5.5735306688 1.9723161872 2.0014454453
C 4.6077748538 1.1612799424 1.3157641851
C 4.3843763494 -0.1219538354 2.0841941728
O 5.5868164196 -0.8855965546 2.0677906419
C 3.2368063005 -0.8899929508 1.4270252572
O 2.9544942573 -2.0041135942 2.2700588420
C 6.5546865657 3.0053740226 0.0306294835
C 6.5076553598 3.7657675236 -1.1070405628
C 7.4398021101 3.3492536016 -2.0965457174
C 8.1971122441 2.2825382368 -1.6979804545
S 7.7732999238 1.7668723582 -0.0984285488
H -1.6774970749 0.7137111967 -0.7572396368
H 1.2316893626 0.5292900168 -1.6851330749
H 0.1518447513 1.9595696750 -1.7215547701
H -0.1570875106 -1.8106954154 -1.4920880001
H -2.2987586585 -2.8607614694 -1.5244655468
H -3.8096333672 -2.2278902929 -3.2369379351
H -5.5550539775 -3.0231635972 -4.5085760999
H -4.6199127584 -1.7383025185 -5.3383991516
H -6.3139469409 -2.0618425785 -5.8102861578
H -7.3235613561 1.4107536852 -1.7231047333
H -5.9314955795 2.5613408546 1.5325486346
H -5.2421892570 0.9308729487 1.7869429710
H -4.2874709550 2.1877230111 0.9353537780
H -3.6153982065 0.0200887228 0.4041937518
H -3.5396777580 -3.6403602469 0.4848441197
H -3.7877679641 -3.4788488914 5.2129474787
H -2.4385002349 -4.6704772908 4.9620784782
H -0.4719879977 -0.7615740732 3.1897636390
H -0.2905680141 0.7140159523 1.2002077362
H 1.6174193796 0.3022146063 2.2554878261
H 2.9443215690 2.1898362902 2.2287697184
H 2.7029047195 3.8866084808 0.4364923595
H 3.8658960308 2.9889368997 -0.5841676353
H 6.3999343130 3.7981369573 2.0249427722
H 4.9626011555 0.9233456926 0.3001284215
H 4.0972357314 0.1249414130 3.1200739067
H 5.4088599290 -1.7087347051 2.5418748598
H 3.5537594622 -1.2197444532 0.4251702989
H 2.3116016470 -2.5625679395 1.8131714420
H 5.8240400982 4.5980466654 -1.2268571064
H 7.5424778374 3.8209499606 -3.0668355629
H 8.9699139390 1.7609237444 -2.2470806210
