58
CONF5
C 3.4169268754 -0.3439995406 -5.1599628118
C 4.4841679926 -0.5143458214 -4.0777246140
C 5.6494898964 -1.3546720318 -4.6052313605
C 5.0027583094 0.8390132001 -3.5675414132
C 3.9502606551 1.7737289880 -2.9621955348
C 3.2458062050 1.2001262789 -1.7332857029
C 2.2403120806 2.1680389847 -1.1130362807
C 1.5510712307 1.5888881039 0.1206623424
C 0.4996214818 2.5290241624 0.7065709460
C -0.1586428086 1.9992741001 1.9616270877
O -0.8773382686 0.7404385850 1.6951250882
P -2.3965581198 0.7517259911 1.2319502492
O -3.2328842218 1.8911688461 1.6662935500
O -2.8873821741 -0.7188399034 1.6769054444
C -2.7704151350 -1.2015173888 2.9847399790
C -2.9117442338 -0.3799782858 4.0974005839
C -2.8064051976 -0.9505781067 5.3644169515
C -2.5756308807 -2.3157132072 5.5121100938
C -2.4460833127 -3.1202475931 4.3816430609
C -2.5397023283 -2.5660146298 3.1087802942
O -2.4421722026 0.6085781553 -0.3682548908
C -1.4837648842 -0.0442564600 -1.1534910829
C -0.9889109408 -1.3018122961 -0.8302210414
C -0.0522211815 -1.8869903231 -1.6799368550
C 0.3689443430 -1.2303549580 -2.8335469857
C -0.1521834256 0.0240721523 -3.1431889019
C -1.0819792856 0.6261522825 -2.3015927732
H 2.5368083623 0.1865016295 -4.7845865594
H 3.8192771659 0.2274655904 -6.0060279672
H 3.0847946221 -1.3172584881 -5.5373458435
H 4.0344785329 -1.0567999227 -3.2340764186
H 6.1248705669 -0.8572873119 -5.4598427069
H 5.3076447936 -2.3406177332 -4.9380498005
H 6.4137396178 -1.5015871079 -3.8341853384
H 5.7817894409 0.6516964961 -2.8149781513
H 5.4977674876 1.3508435218 -4.4057212571
H 3.2000004686 2.0382620896 -3.7193335481
H 4.4404696280 2.7157070179 -2.6815600446
H 2.7175936366 0.2762017917 -2.0022703492
H 3.9985561351 0.9212532903 -0.9816103809
H 2.7462991787 3.1064097183 -0.8450638337
H 1.4788877562 2.4259160205 -1.8629343116
H 2.3032341757 1.3655776057 0.8902653655
H 1.0808224003 0.6344985954 -0.1469534727
H 0.9650399700 3.4871606660 0.9757071482
H -0.2696900850 2.7572136142 -0.0445047409
H -0.8647309994 2.7164362623 2.3897957477
H 0.5818819152 1.7246580137 2.7171426861
H -2.9137547170 -0.3172766044 6.2392275147
H -2.4994218678 -2.7511299592 6.5028325734
H -2.2674349348 -4.1856095439 4.4865449141
H -2.4378625659 -3.1745175065 2.2165532987
H -1.3218146570 -1.8139963920 0.0647001542
H 0.3460898615 -2.8660486256 -1.4334395074
H 0.1690480916 0.5442963766 -4.0400420381
H -1.4926973475 1.6060854014 -2.5195970785
H -3.1074616672 0.6806913549 3.9816393942
H 1.1006538826 -1.6931043750 -3.4877179129
