27
CONF182
C -2.9538993673 -0.2358678481 -0.1659578413
C -4.0609593798 0.0629568297 0.8392697541
O -5.2933730101 -0.1707432290 0.1485842480
C -1.5855564529 0.0095092630 0.4166265769
C -0.4272607800 -0.3905159074 -0.5497580386
C 0.9934486829 0.1309637062 -0.1349692399
C 2.1683920315 -0.6474543040 -0.8130296619
C 3.5810193737 0.0441485835 -0.7931775032
C 4.1584900850 0.4792511253 0.5891474217
F 5.4358601819 0.8460206772 0.4241705909
F 4.1077230865 -0.5343035456 1.4627601319
F 3.4765015756 1.5204087028 1.0822678925
F 3.5561776621 1.1304043175 -1.5941895774
F 4.4421469274 -0.8610893245 -1.3180670671
F 2.2928032416 -1.8544749781 -0.2192979728
F 1.8687610357 -0.8333382918 -2.1222351083
F 1.0832847143 1.4376183044 -0.4759686970
F 1.1464874422 0.0165924630 1.2060791278
F -0.3954526814 -1.7455006163 -0.6309812443
F -0.7021190117 0.1057661640 -1.7817449368
F -1.4147825254 -0.6996752031 1.5770097003
F -1.4135688261 1.3360252083 0.7322365892
H -3.0119134604 -1.2817668045 -0.4858051493
H -3.0725579825 0.4000675625 -1.0476248748
H -3.9720045555 -0.5962676454 1.7120766563
H -3.9950411608 1.1055147969 1.1780468846
H -6.0126072539 0.0151263960 0.7645314391
