43
CONF15
C 0.1986932068 -4.3722903017 2.2361417167
C -0.8937723101 -3.5126159279 1.7126807847
N -1.0712982022 -3.2297647086 0.4529983105
N -2.1617777525 -2.4421983642 0.2056711941
C -2.8069584849 -2.1176908319 1.2938547547
S -2.0993459565 -2.7723744600 2.7587969298
S -4.2452964086 -1.1160050091 1.3761439520
C -4.1101263886 -0.2036011933 -0.2406007140
C -2.9085703905 0.6744270920 -0.2336695277
C -1.8229487456 0.4855368253 -1.0236813453
N -0.6823233775 1.2266204543 -0.6889945386
C -0.1163447977 1.4379918331 0.6596082529
C 0.5753176555 2.7218856738 0.0834802955
C 0.0067195014 2.2650562782 -1.2834841255
O 0.0588475267 2.6547932130 -2.4265581433
N 1.9880583186 2.9017742143 0.2256288020
C 2.8652816778 2.0381671407 -0.3325704135
O 2.5232532389 1.0441717644 -0.9643298702
C 4.3371629553 2.4248493037 -0.1455118655
N 5.1946408131 1.3033746705 -0.4599684316
C 5.7172126058 0.9227998327 -1.6382957283
N 6.3465417173 -0.2259527116 -1.4708737442
N 6.1806590809 -0.5434900403 -0.1583920695
N 5.4870248843 0.3585334870 0.4550113504
S -1.4079134298 1.5379403309 1.9455631335
C -2.8355523237 1.7784110831 0.7771658087
C -1.7219863740 -0.4832670687 -2.1412235957
O -2.6625302914 -0.9067496779 -2.7840539722
O -0.4397319691 -0.8105535727 -2.3950404395
H -0.2102515471 -5.2552832256 2.7368354817
H 0.8098114308 -3.8282922208 2.9624209255
H 0.8280744561 -4.6916832126 1.4035721544
H -5.0310740848 0.3889839257 -0.2640026763
H -4.1132117509 -0.9214917534 -1.0567650318
H 0.5973741614 0.6598581521 0.9476701516
H 0.0579226948 3.6264302207 0.4133538649
H 2.3251993032 3.6953502857 0.7515970830
H 4.5790073282 3.2503048029 -0.8226953514
H 4.5367546202 2.7465630255 0.8801137511
H 5.6290665465 1.4929097389 -2.5525825872
H -2.7083546103 2.7444006851 0.2771218490
H -3.7283337883 1.8160953157 1.4043197691
H -0.4318977294 -1.4217120833 -3.1518409138
