53
CONF252
C 0.3204372193 5.0659534645 0.1145084970
C 0.3616148650 4.0488474267 -1.0074437418
O -0.0228650727 2.7324976990 -0.5247343219
C 0.9422842703 1.9817036417 0.0559470775
O 2.1130215423 2.3421042189 0.1273658463
C 0.4002108053 0.7290535389 0.5687563596
C 1.2467615359 -0.2381583267 1.0186146640
N 0.7422682607 -1.3660863053 1.6050307112
C -0.5761633478 -1.5296290833 1.9541642594
C -1.4941307245 -0.6156918567 1.5209421353
C -1.1060208116 0.4924673123 0.5429892713
C -1.5689210603 0.1455025570 -0.8726107169
C -1.0548074165 -1.0114038792 -1.4722954521
C -1.4185704590 -1.4080415422 -2.7519096840
C -2.3251993547 -0.6398962024 -3.4786121273
C -2.8548517145 0.5153614462 -2.9167873353
C -2.4737671642 0.8932960792 -1.6305838761
Cl -3.1987935813 2.3791204513 -1.0071818806
C -2.8878310682 -0.7292256944 1.9365394913
O -3.3685633940 -1.5646164778 2.6934567015
O -3.6472450868 0.2420985933 1.3674411453
C -5.0475619404 0.2247834063 1.7106236149
C -0.8387588613 -2.7297206843 2.8111466644
C 2.7666970168 -0.2100542880 0.9679453594
O 3.3121805956 -1.5114607628 1.1594141295
C 3.3241603165 -2.3026812661 -0.0506120918
C 4.5322117227 -1.9864847418 -0.9247177521
N 5.8343309657 -2.2053935189 -0.2794479008
H 1.0542263902 4.8260682298 0.8884897445
H -0.6754951173 5.1004269263 0.5657866320
H 0.5523320122 6.0577451802 -0.2862845164
H 1.3525448154 3.9869451306 -1.4645404245
H -0.3792216919 4.2760584172 -1.7775107708
H 1.4246718171 -2.0476709443 1.9135755213
H -1.6075227899 1.4135779575 0.8407924541
H -0.3468882284 -1.6128684666 -0.9087461374
H -0.9969584371 -2.3114840184 -3.1803335017
H -2.6225915512 -0.9327476211 -4.4802866982
H -3.5606501382 1.1248200264 -3.4702808200
H -5.1804127474 0.3594165401 2.7874290914
H -5.4879812765 1.0594422976 1.1653197679
H -5.5061233135 -0.7181252233 1.4009966781
H 0.0676874160 -3.3318948611 2.9105398402
H -1.1691317999 -2.4251528205 3.8076433052
H -1.6360382923 -3.3429853888 2.3879417974
H 3.0982891261 0.2348167328 0.0265977602
H 3.1456491594 0.4195564028 1.7802288278
H 3.3637985616 -3.3455951230 0.2830399008
H 2.3887643209 -2.1526017106 -0.6118159185
H 4.4650303719 -2.6136814030 -1.8229281245
H 4.4833362301 -0.9455014021 -1.2679684229
H 5.8910488555 -3.1725468309 0.0286259512
H 5.8695081430 -1.6502616240 0.5709271315
