57
CONF4
C 3.4637891532 -0.2975716106 -3.1750929942
C 2.7581559336 -0.7281408428 -1.8933325909
C 1.2761521449 -1.1566779243 -2.1020827595
C 0.4914500153 -0.2259183523 -1.1782056465
C -0.9744576498 -0.5246995910 -0.8546707399
C -1.2775467003 -1.9079456995 -0.2670528848
C -2.7739259137 -2.0806281323 0.0239042558
C -3.2775107613 -0.9608987984 0.8777801627
C -3.9121934808 -1.1791848395 2.0461817854
C -4.4462184970 -0.1027318600 2.8747500657
O -5.0457231310 -0.3332441688 3.9353529661
C -4.2525087262 1.2607912297 2.3819387835
C -3.5767385149 1.5047981850 1.2477506478
C -3.0532772763 0.4319160668 0.3439633487
C -1.5221584718 0.6249316890 0.0230435115
C -0.6259980487 0.8549388571 1.2651444096
C 0.8392653596 1.1292140679 0.8846166627
C 1.4305126970 0.0129722572 0.0261239753
C 2.7314700984 0.3796091226 -0.7944281249
C 3.9928869605 0.3953521764 0.0570464757
O 4.6613741228 -0.6022385839 0.2826967374
C 4.4192030026 1.7157273677 0.6625298366
O 5.4879922208 1.5443109212 1.5703816488
O 2.5343803186 1.6939843400 -1.3261749623
C 1.7182487167 -1.2148417738 0.9056000822
O -1.0260835751 1.9973910004 2.0269337873
F -1.4402075599 1.8168736917 -0.7448048596
C -3.8869603529 0.5956824902 -0.9663002373
H 2.9116430745 0.4939087458 -3.6947467440
H 4.4839703113 0.0541884091 -2.9781476760
H 3.5345428201 -1.1471403937 -3.8605919353
H 3.3196815756 -1.5622068406 -1.4644063594
H 1.1411451121 -2.2104687036 -1.8391380304
H 0.9673576419 -1.0366370769 -3.1456448064
H 0.4631771823 0.7425873711 -1.6881391984
H -1.5141783765 -0.4608170294 -1.8090044678
H -0.9557971041 -2.6740298817 -0.9791389214
H -0.7278305596 -2.0866845532 0.6577970055
H -2.9614881012 -3.0385507576 0.5162348593
H -3.3264517841 -2.0870625904 -0.9250625752
H -4.0761965477 -2.1932048872 2.4027786075
H -4.6669950855 2.0677041313 2.9799713981
H -3.4435560123 2.5243668614 0.8964259802
H -0.7000324587 -0.0464845259 1.8897259871
H 0.8682420960 2.0826934679 0.3497425747
H 1.3958868709 1.2496239304 1.8208383388
H 3.5535034728 2.1773039481 1.1594631036
H 4.7045822598 2.3935238785 -0.1568885585
H 5.7538462640 0.6116933463 1.4907987107
H 3.1891686046 1.8421426446 -2.0208428043
H 2.5524196829 -1.0054168604 1.5803125195
H 0.8648960030 -1.4534234301 1.5393773801
H 1.9695796990 -2.1073282919 0.3278674514
H -1.7201632734 1.7316680371 2.6426223786
H -3.5427404940 -0.0750633232 -1.7539333041
H -4.9329361961 0.3665515780 -0.7459233249
H -3.8186494917 1.6234770064 -1.3259413658
