53
CONF32
C 1.6250952310 -2.2873890143 3.5399000366
N 2.3750457856 -2.0277287356 2.3086270947
C 3.5351129713 -2.9340494717 2.2584584883
C 4.4102808476 -2.6735421689 1.0404530062
C 3.5865630480 -2.8137556167 -0.2362042251
C 2.3652294737 -1.9039480404 -0.1501500866
C 1.5333392907 -2.1914740559 1.1047254914
C 0.2699281738 -1.3175179751 1.1566014034
C 0.5428650491 0.1748269253 1.3934656835
N 0.7960788844 0.9084083338 0.1450026849
C 1.8019136258 1.8959456134 0.1182134602
C 2.2830681732 2.5041716466 1.2845455175
C 3.3122115441 3.4402310368 1.2224643403
C 3.8534781938 3.8208704196 -0.0008417006
C 3.3511269587 3.2616821826 -1.1731274336
C 2.3498132966 2.2980118240 -1.1105234173
S 1.7869022961 1.5108423657 -2.6055752840
C 0.0874348478 1.2797901458 -2.1544260461
C -0.2200481306 0.9646474977 -0.8158643327
C -1.5547793933 0.6911937319 -0.4951653369
C -2.5180021146 0.7124813550 -1.4980865683
C -2.2220103190 1.0301547940 -2.8169674417
C -0.9019129448 1.3378121511 -3.1315384627
S -4.2063676375 0.2845787070 -1.0569916482
O -4.4105447150 0.6120830953 0.3730154654
O -5.1145170817 0.8782002517 -2.0639786902
C -4.2616549894 -1.5102790782 -1.2313224796
H 1.1246737293 -3.2751789032 3.5332622544
H 0.8646305059 -1.5199307160 3.7102342149
H 2.3147446642 -2.2633312679 4.3895540816
H 4.1142465571 -2.7896462158 3.1781280979
H 3.2011652263 -3.9930455956 2.2460911298
H 5.2527551693 -3.3746464535 1.0461953560
H 4.8243618507 -1.6585734949 1.1030151595
H 4.1877915906 -2.5669704539 -1.1186872955
H 3.2604680470 -3.8575019222 -0.3470384509
H 1.7246077289 -2.0240701774 -1.0319864666
H 2.6945739778 -0.8575492423 -0.1297152871
H 1.1839030010 -3.2454672978 1.0448920736
H -0.4003234862 -1.6742928900 1.9445209104
H -0.2710695418 -1.4667533074 0.2166712364
H 1.4464207304 0.2533661868 2.0001243256
H -0.2718658882 0.6406190358 1.9659993809
H 3.6773362023 3.8840099478 2.1430665452
H 3.7484506724 3.5565695784 -2.1394359662
H -1.8479197763 0.4586251394 0.5207459058
H -2.9945667884 1.0474160881 -3.5764961113
H -0.6330406379 1.5994751472 -4.1498628242
H -3.5237364087 -1.9435591390 -0.5523757717
H -5.2750434005 -1.8167188845 -0.9572568487
H -4.0428388559 -1.7632007133 -2.2709693572
H 1.8524196178 2.2553069245 2.2468314195
H 4.6506787838 4.5547020968 -0.0496088881
