47
CONF39
C -1.5808936736 3.3280791865 2.5840998970
C -1.4801143094 2.2460001269 1.5293907641
C -0.1432276916 1.6445578850 1.2540947559
C -0.7232017771 2.6838105891 0.2695662528
C -0.9433726638 2.2837642319 -1.1244495387
O -0.6424797435 2.9640965721 -2.0853472895
O -1.4733109045 1.0288463162 -1.2476988293
C -1.3347211383 0.4262977001 -2.5607156174
C -2.4407887827 -0.5215235959 -2.6835364398
N -3.2983704254 -1.2845450351 -2.8084722624
C 0.0122504301 -0.2551527407 -2.6575142252
C 0.9502924978 0.1760393973 -3.5901753756
C 2.2099517654 -0.4225530459 -3.6099617338
C 2.5327033160 -1.4248344534 -2.7048640817
C 1.5807933091 -1.8408787759 -1.7720548842
C 0.3140875483 -1.2690329689 -1.7475020217
O 1.9514266718 -2.8631656975 -0.9277028011
C 1.2576764935 -3.0026053284 0.2723228968
C 1.2948664649 -1.9868952318 1.2228363143
C 0.6330683492 -2.1705356777 2.4326863053
C -0.0447247364 -3.3621423939 2.6900988406
C -0.0577652861 -4.3732667366 1.7320867587
C 0.5918750576 -4.1971512650 0.5111237602
C 1.0762770464 1.9792938905 2.0153956828
C 2.2959735817 1.9180640656 1.4827928268
Cl 3.7467690341 2.2557101627 2.3834948710
Cl 2.5710382885 1.4973986315 -0.1856607581
C -2.7087168573 1.3665159485 1.4548912879
H -2.4688446975 3.9416541206 2.4026302804
H -0.7063748524 3.9842374792 2.5900060491
H -1.6777185719 2.8720697836 3.5754670721
H -0.1661023546 0.6340568880 0.8489782676
H -0.2838743868 3.6740768429 0.3280259387
H -1.4424496579 1.1898447745 -3.3390616397
H 0.7041211145 0.9730816650 -4.2837150218
H 2.9521863689 -0.0951232792 -4.3305591467
H 3.5134178094 -1.8888366181 -2.7054982072
H -0.4254176805 -1.5969946879 -1.0242720025
H 1.8337002293 -1.0693103732 1.0105317046
H 0.6550785047 -1.3811934278 3.1779998085
H -0.5572986278 -3.5025753545 3.6360566105
H -0.5810550564 -5.3036529369 1.9287384244
H 0.5842741047 -4.9697019806 -0.2506353093
H 0.9961424959 2.2659461717 3.0605167009
H -2.9285387226 0.9866873915 2.4584165887
H -2.5746762643 0.5153543309 0.7880593073
H -3.5739310001 1.9461877550 1.1161350247
