36
CONF78
C 2.8306905776 2.0757098726 0.2418216886
C 2.6365257083 1.8818867607 -1.2691212831
C 1.9403082027 0.5911579883 -1.5716788379
C 0.7290643117 0.4786818711 -2.1191279150
C 0.0138964960 -0.8196861883 -2.3400957978
C -1.2518335433 -0.9421361176 -1.4797727093
C -1.0981505674 -0.7039139447 0.0286826708
C -2.5415578224 -0.4513114199 0.4981032558
C -3.1316954872 0.4164714638 -0.6189649984
C -2.3816874901 0.0014745436 -1.8707506802
O -2.6328916766 0.3685721773 -3.0034474455
C -0.3780302343 -1.8452707205 0.7534057721
C -0.2291289498 -1.5449387271 2.2205541265
O -0.8505572053 -2.0793742136 3.1189643874
O 0.6737229517 -0.5657699659 2.4247942672
C 0.8589783292 -0.1514935969 3.8012227238
H 3.3941233764 1.2406696797 0.6720822823
H 1.8619699831 2.1249399877 0.7499980258
H 3.3782675183 2.9996702425 0.4523142429
H 3.6208685130 1.8926390347 -1.7565044982
H 2.0617839394 2.7185420044 -1.6831444893
H 2.4687512123 -0.3184954023 -1.2757306867
H 0.1887923767 1.3861466321 -2.3981250241
H 0.6841488180 -1.6564283493 -2.1151853449
H -0.2876362263 -0.9167151552 -3.3909602973
H -1.6783427055 -1.9508906418 -1.6240021223
H -0.5166807281 0.2171885614 0.1665564761
H -2.5870895011 0.0276485307 1.4801095450
H -3.0777934587 -1.4063850402 0.5605926657
H -2.9016242167 1.4789201514 -0.4554843695
H -4.2133853994 0.3365780852 -0.7579100270
H -0.9439375516 -2.7751556318 0.6483645355
H 0.6188041295 -1.9832763278 0.3198779465
H -0.0815588202 0.2240299419 4.2113566148
H 1.6056063345 0.6409336319 3.7658847509
H 1.2172790914 -0.9906203160 4.4022441578
