50
CONF239
C -1.7650850761 -0.3139156374 -2.6608483265
C -2.2403709070 -1.7164667147 -2.3652770954
C -1.4048960100 -2.9103005065 -2.7290470672
C -1.5833050722 -2.5331626794 -1.2469393638
C -0.4423072119 -2.0020974968 -0.4937623320
O 0.5520031323 -1.4663622431 -0.9357172855
O -0.6473939680 -2.1877876263 0.8489413697
C 0.3800803961 -1.6122413001 1.6982666146
C 0.2975259489 -2.3463690878 2.9604190307
N 0.2596899915 -2.9053835275 3.9699112328
C 0.1592995159 -0.1292364058 1.9053958053
C 1.1622548605 0.7655484836 1.5509607878
C 0.9477311301 2.1309508559 1.7272085981
C -0.2571560356 2.6038060746 2.2435468191
C -1.2479857853 1.6912477742 2.5968521708
C -1.0486794597 0.3250396791 2.4373082586
O 1.9570417110 2.9629333148 1.2970112366
C 2.0926441109 4.2161597698 1.8824454177
C 2.1949654508 4.3551356854 3.2640576213
C 2.4064377516 5.6223188814 3.7982421559
C 2.5232849629 6.7323283189 2.9622047105
C 2.4276681954 6.5714589910 1.5821040872
C 2.2076340921 5.3098914249 1.0334159669
C -0.1055948003 -2.7559459582 -3.4061247437
C 0.7390200085 -3.7304399942 -3.7521133423
C 0.6274221473 -5.1949994297 -3.4324425911
F -0.3166866183 -5.4383685778 -2.5010275137
F 1.7908329641 -5.6943952163 -2.9541187052
F 0.3102008666 -5.9292519173 -4.5295837447
Cl 2.1710993951 -3.3727196118 -4.7028168337
C -3.7400454335 -1.8870214990 -2.4732663555
H -0.6954233940 -0.1768384387 -2.5018861569
H -2.0004522245 -0.0617018469 -3.7005116320
H -2.2951126421 0.3927171339 -2.0140338188
H -1.9600638394 -3.8065541853 -2.9840461229
H -2.2482074488 -3.1704450537 -0.6745035086
H 1.3669569450 -1.7930552778 1.2574469929
H 2.1012459654 0.4197222746 1.1313206674
H -0.4205884932 3.6687360235 2.3654273230
H -2.1867150454 2.0573015417 2.9997450967
H -1.8238925757 -0.3812918772 2.7168807531
H 2.1111637892 3.4842010098 3.9060805723
H 2.4893858238 5.7396761595 4.8741619056
H 2.6911476915 7.7169538620 3.3858820566
H 2.5194168446 7.4304656128 0.9249607038
H 2.1268977962 5.1652039637 -0.0387956454
H 0.1800214861 -1.7527729012 -3.7065821990
H -4.0441921220 -2.9160879600 -2.2628230927
H -4.2495735051 -1.2221438792 -1.7681803621
H -4.0693454217 -1.6294395967 -3.4857501164
