24
CONF9
O 3.6077016811 2.0793130806 -1.2431832546
S 3.5017235602 0.5309055975 -0.7193483188
O 3.8948242169 -0.2961308208 -1.8404863430
O 4.0620076097 0.4363094775 0.6218936766
C 1.5912190021 0.4511966471 -0.5559936295
F 1.2011297519 1.5636147489 0.1001655838
F 1.0827053258 0.4565737499 -1.7956836460
C 1.1370571056 -0.8132474397 0.2282667065
F 1.8302473907 -1.8682952574 -0.2654487955
F 1.4509852019 -0.6534994333 1.5275430936
C -0.3846487170 -1.2139570859 0.1200663165
F -0.5486250490 -2.2705517850 0.9518276639
F -0.6257411281 -1.6091875693 -1.1459247093
C -1.4210011708 -0.1132567656 0.5155863468
F -1.4714938532 0.7974825828 -0.4872836199
F -1.0068327698 0.5023669612 1.6447745202
C -2.8635386873 -0.6743478924 0.7659130680
F -3.1560453681 -1.6121920550 -0.1630322546
F -2.9022735904 -1.2367305058 1.9914820108
C -3.9825112572 0.4172149823 0.7060295534
F -5.1212942740 -0.1062377329 1.1764235515
F -4.1860953659 0.8246627007 -0.5507249941
F -3.6443298287 1.4719573054 1.4619246723
H 3.6590441870 2.6650713145 -0.4679158824
