33
CONF2
C -0.2966334221 -2.4644805181 -0.0663090488
C -0.1215161082 -1.0738603969 0.5708717198
C -0.1495556739 -1.2422873023 2.1011487301
C -1.2601505849 -0.1838341051 0.0622210716
C -2.3336189717 0.1994832517 0.8611167443
C -3.3540744603 0.9735198739 0.3245706304
Br -4.8209353028 1.5035250065 1.4414736314
C -3.3635110047 1.3992905949 -1.0054245718
O -4.3359938669 2.1544280598 -1.5511251948
C -2.2723721711 1.0020530055 -1.7914134389
Br -2.2080682399 1.5558827806 -3.6104944215
C -1.2467013847 0.2331613836 -1.2728821492
C 1.2182670164 -0.4274814210 0.2015077918
C 2.2637724293 -1.1370144111 -0.3849389166
C 3.4788339043 -0.5197296412 -0.6556844786
Br 4.8775939754 -1.5261542132 -1.4640549233
C 3.7068985951 0.8254529046 -0.3554604091
O 4.8997731245 1.3825661907 -0.6394914729
C 2.6397476576 1.5178011462 0.2332249058
Br 2.9015785980 3.3703627380 0.6514273421
C 1.4242733804 0.9205041025 0.5072850614
H -0.2047943404 -2.4246159003 -1.1553809610
H 0.4370183952 -3.1761318143 0.3253353092
H -1.2936910817 -2.8436290808 0.1735105193
H 0.7205906640 -1.8259405828 2.4135480201
H -0.1069690784 -0.2769530685 2.6139202848
H -1.0478854995 -1.7774310678 2.4257317209
H -2.3927070367 -0.0902939343 1.9017605160
H -5.0014039299 2.3395788801 -0.8698595951
H -0.4132039558 -0.0306452855 -1.9145740516
H 2.1528323576 -2.1809981893 -0.6464428986
H 4.8763540462 2.3144658398 -0.3706758035
H 0.6262516835 1.5094052640 0.9455585426
