33
CONF209
C -3.3176644495 -0.9476208187 2.4028560175
C -3.4669970382 -0.5538184308 0.9370751224
C -2.5786214105 -1.3423217317 -0.0147613585
S -0.7503069736 -1.1933211008 0.3211563675
P -0.4853236693 0.8145703022 -0.2099316408
O -1.3016847768 1.2743550089 -1.3613748980
O -0.6750463089 1.7727092850 1.0448413083
C 0.0243660396 1.5548701581 2.3229944690
C 1.1189945686 2.5808813646 2.4884184112
O 1.1399396516 0.9014252693 -0.3990881361
C 1.8028190218 0.1285848755 -1.3346113681
C 1.5870153985 0.3062009949 -2.6960567911
C 2.2974162665 -0.4480332348 -3.6226068079
C 3.2288580962 -1.3696759554 -3.1617097198
C 3.4726921620 -1.5595594344 -1.8077638177
C 2.7471098348 -0.8014121782 -0.8959668611
Cl 3.0210381717 -1.0183535412 0.8131850715
Br 4.2179116351 -2.4116661930 -4.4252264587
H -3.5067074044 -2.0178855971 2.5398641500
H -2.3085367703 -0.7328290993 2.7682651495
H -4.0264731915 -0.3937369054 3.0248912947
H -4.4994534876 -0.7322997460 0.6083856948
H -3.2858366754 0.5201496233 0.8102634744
H -2.7391308521 -1.0555392069 -1.0562330043
H -2.7542111612 -2.4189696440 0.0836369022
H -0.7504666653 1.6571768211 3.0862106315
H 0.4130865807 0.5319350719 2.3536756396
H 1.5857941663 2.4430057872 3.4689996652
H 1.8872315833 2.4650034256 1.7197482119
H 0.7119582481 3.5945161300 2.4397719728
H 0.8597663832 1.0402643798 -3.0243739651
H 2.1269017850 -0.3097151352 -4.6833122525
H 4.2035592361 -2.2788903432 -1.4597950944
