35
CONF808
C -0.8704792240 1.9437932077 1.5396211981
C 0.2570319995 2.5314696749 2.3636645049
O 1.4607506634 1.7779245274 2.2830808553
C 1.4665943667 0.5726831629 3.0376089020
C 1.9234230067 -0.5904586502 2.1869580159
O 0.8830518516 -0.9730155699 1.2973006790
C 1.2626268965 -2.0810219937 0.4961761533
C 0.1436574428 -2.4296737199 -0.4539649775
O 0.0865153801 -1.4601137673 -1.4876395912
C -0.9663409465 -1.7108070017 -2.4095535991
C -1.0166902927 -0.5939134538 -3.4361058982
O -1.6075480045 0.6123404358 -2.9798344986
C -0.8124625243 1.3888687541 -2.0775980868
C -1.3614067267 1.2713404758 -0.6655860337
O -0.5357842719 2.0670833873 0.1699670364
H -1.0189721443 0.8830041404 1.8003747827
H -1.8079744349 2.4850438670 1.7659080228
H 0.5025867301 3.5270208334 1.9795039672
H -0.0726295178 2.6383780486 3.4107295648
H 0.4732988359 0.3459762447 3.4505558973
H 2.1652151741 0.6823433837 3.8826740253
H 2.1874643669 -1.4358346700 2.8483697288
H 2.8259038438 -0.3000576771 1.6248966397
H 1.4744146275 -2.9580381617 1.1335167514
H 2.1733476756 -1.8506548623 -0.0809272491
H -0.8113974004 -2.4695389409 0.0970855470
H 0.3334438460 -3.4310261892 -0.8791794416
H -1.9362647597 -1.7743434893 -1.8872139868
H -0.7941444060 -2.6715192483 -2.9288278238
H 0.0008400140 -0.4121976007 -3.8183138033
H -1.6418921899 -0.9273598154 -4.2724149879
H -0.8634060420 2.4339629952 -2.4072295072
H 0.2358771373 1.0680759930 -2.0865546679
H -2.4083284231 1.6199203234 -0.6389226326
H -1.3303220630 0.2203447474 -0.3420309931
