24
CONF1
C -1.9223103011 1.0274103061 -1.8158613950
C -0.5923676279 0.6729966445 -1.6152004393
C -0.1081844523 0.2227380983 -0.3667697348
C -1.0696654019 0.1795266775 0.6303927923
C -2.3883774445 0.5320867434 0.4264224212
C -2.8711198523 0.9638646858 -0.7858491023
O -3.0868243101 0.3533699900 1.6137509246
C -2.1675718574 -0.1199717398 2.5384744049
O -0.9143356788 -0.2303867025 1.9487086182
F -2.1082876152 0.7070876663 3.6057981125
F -2.5636728984 -1.3198313072 3.0191696054
C 1.2777716856 -0.1617196923 -0.1377882009
C 1.9798660599 -0.0573257374 1.0473626747
N 3.2543788330 -0.5098317592 0.8340722332
C 3.4146912871 -0.9163251755 -0.4472261284
C 2.2027639086 -0.7156579837 -1.0967302167
C 1.9512635763 -1.0806773443 -2.4288417101
N 1.7519942015 -1.3878297450 -3.5310344335
H -2.2341870430 1.3708725698 -2.7960998415
H 0.1048158946 0.7635497394 -2.4399885375
H -3.9094049154 1.2359453009 -0.9313666262
H 1.6757194476 0.3273330910 2.0083793909
H 3.9798750690 -0.5320199622 1.5360719366
H 4.3431690330 -1.3252041417 -0.8158466476
