63
CONF153
C 2.6466456980 -0.8576166197 0.6212664932
C 1.1496565206 -0.6543370270 0.4085757564
N 0.8937717337 0.4559150010 -0.5195228178
C 1.4878539549 0.1477824763 -1.8276236093
C 3.0012776537 -0.0088249255 -1.7200207912
C 3.3314660978 -1.1167553179 -0.7202086282
N 4.7713374688 -1.3289217156 -0.5782005399
C 5.7363041600 -0.4381733853 -0.1136501773
C 5.6674170600 0.8725378312 0.3436549388
C 6.8588893252 1.4855249442 0.7427919017
C 8.0806443240 0.8124107988 0.6880455420
C 8.1559839656 -0.5051269325 0.2294927172
C 6.9751402096 -1.1110923781 -0.1659736467
N 6.7201763791 -2.3779679561 -0.6572029045
C 5.3725266171 -2.5394720131 -0.9198581039
O 4.8178817002 -3.5433050514 -1.3631494753
C -0.5487502595 0.6956678621 -0.6709158868
C -1.1952305511 1.2928430782 0.5772631553
C -2.6274360585 1.7743548498 0.3283316498
C -3.5924911042 0.6804317717 -0.1787995033
C -3.6376043858 -0.5514937166 0.7055288067
C -3.5929911629 -0.4780226001 2.1015562294
C -3.6601431778 -1.6250357324 2.8886599032
C -3.7672668314 -2.8501979964 2.2544314052
C -3.8087242567 -2.9749830470 0.8769866654
C -3.7409664206 -1.8134353246 0.1123280583
F -3.8240586457 -3.9766583967 3.0154220387
C -4.9709956937 1.2786457508 -0.4141468035
C -5.3598727887 1.6299802478 -1.7096733680
C -6.5937574019 2.2266443626 -1.9605123700
C -7.4312773650 2.4661350151 -0.8861032252
C -7.0892549874 2.1364465651 0.4143679815
C -5.8515545981 1.5406839986 0.6395693658
F -8.6415126070 3.0451092905 -1.1151303925
H 2.8117316339 -1.7073542029 1.2928113799
H 3.0654976058 0.0341556337 1.0995179225
H 0.6799880756 -0.4348866632 1.3716011007
H 0.6964178331 -1.5936295143 0.0271308403
H 1.0520120483 -0.7803463584 -2.2529151524
H 1.2510405617 0.9645354796 -2.5186927353
H 3.4402583429 0.9420312385 -1.3993921808
H 3.4185524225 -0.2573404334 -2.7021360207
H 2.9499885586 -2.0633727391 -1.1224424567
H 4.7310599041 1.4136296971 0.3943900882
H 6.8264115403 2.5085865825 1.1029112916
H 8.9871987874 1.3169478168 1.0056513686
H 9.1001324529 -1.0373812792 0.1827269531
H 7.3978726245 -3.1071236574 -0.8135934344
H -1.0674663642 -0.2411200961 -0.9578290350
H -0.6814170208 1.3998605288 -1.5034095710
H -1.1995953558 0.5634620551 1.3940965275
H -0.5904584479 2.1447868108 0.9115138075
H -3.0311259692 2.2148028763 1.2481409115
H -2.6208136723 2.5774906198 -0.4196134643
H -3.2336529708 0.3489687165 -1.1593200965
H -3.4955634338 0.4832178228 2.5959450815
H -3.6224226527 -1.5720882017 3.9714222163
H -3.8855674730 -3.9548656369 0.4181535173
H -3.7682982460 -1.8922739382 -0.9712232614
H -4.6882275788 1.4345085254 -2.5411347162
H -6.9009798593 2.4969819122 -2.9651035544
H -7.7776865856 2.3392668969 1.2277958325
H -5.5779679310 1.2738932678 1.6554174007
