43
CONF14
C 4.4105702951 2.2778962227 0.6723423563
C 5.3222756046 1.1430438062 0.2609534549
O 4.5373872125 -0.0597958127 -0.0324504863
C 4.2000598248 -0.8274626418 1.0049526605
O 4.5421940390 -0.6486050875 2.1567223651
C 3.3692885347 -2.0398786304 0.5847402970
C 4.2940281428 -3.2237803922 0.3401273533
O 2.6402016267 -1.8269517842 -0.6265106425
C 1.6368907454 -0.8957811230 -0.6225103489
C 1.0043455321 -0.6956674028 -1.8539675082
C -0.0275626482 0.2240610969 -1.9652564183
C -0.4174049193 0.9411439253 -0.8419345564
C 0.1988775548 0.7580579776 0.3824116813
C 1.2346957405 -0.1680821960 0.4999437600
O -1.4102065150 1.9276646449 -0.9707012154
C -2.6993569651 1.5579885561 -0.7707990552
C -3.6553224177 2.6106923827 -0.9168604600
N -4.9331578687 2.3977881154 -0.7509918943
C -5.3167159540 1.1229801926 -0.4319060606
C -6.6854265487 0.8467830968 -0.2426013403
C -7.0586273394 -0.4364499617 0.0776482269
C -6.1229279359 -1.4777190467 0.2214364635
C -4.7840879891 -1.2159052924 0.0380863101
C -4.3516640007 0.0847904657 -0.2910370912
N -3.0206092235 0.3321839787 -0.4690935000
Cl -8.7598539175 -0.8045263314 0.3197267839
H 5.0096650571 3.1816154571 0.8208352728
H 3.8931880885 2.0499711481 1.6080949870
H 3.6685011110 2.4790541228 -0.1057071880
H 6.0566276050 0.9013688783 1.0328802747
H 5.8346160253 1.3559342542 -0.6787979730
H 2.6816925154 -2.2625688292 1.4101416180
H 3.6978811042 -4.1050815653 0.0921260953
H 4.9781844402 -3.0064854426 -0.4846357122
H 4.8737050006 -3.4315415123 1.2425035176
H 1.3340335251 -1.2664207839 -2.7156615654
H -0.5263203387 0.3882111643 -2.9146961490
H -0.1240624208 1.3327349702 1.2441593781
H 1.7050090031 -0.3000336078 1.4669731489
H -3.3147751463 3.6127644579 -1.1711308117
H -7.4095860974 1.6460096881 -0.3523521887
H -6.4605952536 -2.4762347448 0.4747922569
H -4.0456544108 -2.0037665043 0.1442197026
