65
CONF338
C -3.9554093354 3.8690040352 0.1212165716
C -2.5618322519 4.0980491619 -0.4593691839
C -1.8810274597 2.7997066181 -0.9035993468
C -0.5117392684 3.0650805984 -1.5486730735
C -1.6686678074 1.8769186706 0.2781990056
O -1.2281427105 2.2275095229 1.3569849634
O -1.9837591885 0.6039938662 -0.0273832490
C -1.7875231605 -0.4128694371 1.0063592852
C -3.0567685207 -0.5395573652 1.8316793272
C -2.8715316674 -1.5822894786 2.9438964368
C -2.1888390498 -2.8091491816 2.4157112505
C -1.5534418291 -2.8847114205 1.2307923077
C -1.4641952155 -1.7065605009 0.2791479537
C -0.0900237266 -1.6948658235 -0.4287530333
C 0.0114046659 -2.9942047063 -1.2572124523
C -0.2187119905 -4.1862595539 -0.3666777139
C -0.9185151605 -4.1126267360 0.7782184232
C 1.3076967598 -3.1220293405 -2.0605127499
C 1.0667910785 -1.5095040278 0.5813867622
C 1.7233661556 -0.1239698577 0.5482815994
C 2.5272866997 0.1686940827 -0.7048844613
C 3.1163075008 1.5643355348 -0.7349055901
C 3.9642045300 1.7167058477 -1.9863060053
C 5.1020253931 0.7127536617 -1.9316027553
C 4.7309068271 -0.6702173319 -1.4490624237
O 5.4709580213 -1.6231214717 -1.5964267787
O 3.5859712568 -0.8536101031 -0.7676726494
O 4.5662012049 3.0114440415 -2.0961546313
C -2.1167656007 -1.0133442902 4.1589813676
H -4.6070289757 3.3773718482 -0.6092891239
H -3.9127492979 3.2361335344 1.0147290639
H -4.4226928700 4.8159007530 0.4073405886
H -2.6241186079 4.7583574895 -1.3324155795
H -1.9209097470 4.5985323994 0.2758363492
H -2.5213203962 2.2819888541 -1.6262172625
H -0.6365826799 3.6965996764 -2.4331568942
H 0.1459282144 3.5826777044 -0.8429155788
H -0.0286789692 2.1317000483 -1.8568165577
H -0.9521826277 -0.0983838527 1.6384875073
H -3.3212651998 0.4322065323 2.2624015905
H -3.8713235386 -0.8466421570 1.1642761814
H -3.8694751229 -1.8780632232 3.2972540032
H -2.2091940179 -3.6926271248 3.0540935439
H -2.2319765905 -1.8452060026 -0.4985568097
H -0.0896904410 -0.8540524922 -1.1343539674
H -0.8115655726 -2.9587314766 -1.9900765519
H 0.2140013501 -5.1369460328 -0.6736224081
H -1.0366955731 -4.9940040852 1.4057534686
H 1.2639031017 -4.0041451986 -2.7077541084
H 1.4576027278 -2.2416733456 -2.6943984502
H 2.1830363797 -3.2260448793 -1.4130830296
H 0.6939425356 -1.6831178649 1.5981603309
H 1.8388623370 -2.2672348699 0.4230030838
H 0.9596278917 0.6605295683 0.6253704347
H 2.3865167889 -0.0056748504 1.4142731727
H 1.9113813609 0.0107776356 -1.6007489849
H 3.7307957106 1.7386254866 0.1579221560
H 2.2942139832 2.2875781215 -0.7352113797
H 3.3372736803 1.5211067424 -2.8706694634
H 5.8485305540 1.0795644747 -1.2127082237
H 5.6103697148 0.6079672904 -2.8933824083
H 3.8570005660 3.6546769736 -2.2222034506
H -1.1211684692 -0.6588175846 3.8724223239
H -1.9896356335 -1.7804240360 4.9294639749
H -2.6709596322 -0.1758120615 4.5951331384
