22
CONF9
C 2.2820985001 -0.9603003125 0.3070463415
C 1.1978242343 0.0991134977 0.0891680763
C -0.1898968162 -0.5172686919 -0.0909553423
C -1.2783132388 0.5003871631 -0.4498798934
C -1.4747330796 1.5931642138 0.5827240179
O -1.8079037315 0.9648306066 1.8302895547
O -2.5092337260 -0.2113514594 -0.6827183094
O -0.1177141410 -1.5040089606 -1.1363367449
O 1.5565255948 0.9565168684 -0.9985571037
O 2.6335406984 -1.6240742442 -0.9136123718
H 1.9514289933 -1.6765214438 1.0731186790
H 3.1957790054 -0.4715910570 0.6583957300
H 1.1605379661 0.7251299482 0.9890387718
H -0.4607586247 -1.0067968393 0.8580603846
H -1.0163210805 0.9664287571 -1.4053369413
H -0.5611492914 2.1975904811 0.6732171476
H -2.2904625829 2.2469057267 0.2467648814
H -2.1424347832 1.6448137958 2.4265872134
H -2.8431263382 -0.4784238698 0.1861824376
H -1.0290077247 -1.7713672234 -1.3243456437
H 1.9197880078 0.3777868855 -1.6856752216
H 1.8235329683 -2.0509636463 -1.2331756585
