49
CONF55
C -5.3974867561 -0.3790340026 -2.4703891696
C -4.1328179470 -0.9922131415 -1.8622801956
C -3.1620224838 -1.4208230876 -2.9662860186
C -3.4605138681 0.0029897319 -0.9146730908
C -4.2531437046 0.4235118039 0.3592024699
C -4.2915893097 -0.9147654139 1.1560555755
C -2.9088123401 -1.5539227069 0.8428176565
C -2.2343712483 -0.5090539185 -0.0985062372
C -1.9664210092 0.7098687759 0.7460337048
C -3.2165598782 1.2874320777 1.0307424368
C -3.3283516344 2.4447746061 1.7831112806
C -2.1529335702 3.0531381761 2.2389878295
C -0.9093688186 2.4969515960 1.9599094392
C -0.8047484771 1.3110249431 1.2155405480
N 0.4860928178 0.8180296937 0.8962053723
C 0.9052047177 -0.4663308257 1.1162122739
O 0.1977107892 -1.3277433190 1.6424656902
C 2.2765785683 -0.7667788505 0.6766310291
C 3.1008002066 -0.0836301528 -0.2114181346
N 4.2471184080 -0.7870771058 -0.2972666526
N 4.2419177546 -1.8882504678 0.4740468672
C 3.0477302438 -1.8877446630 1.0650753240
C 2.6562003845 -2.9844225496 1.9973950441
F 2.0408674606 -4.0087496630 1.2917271279
F 3.7700091496 -3.5427127986 2.5807461211
C 5.4156588476 -0.4786179110 -1.1112190258
H -5.8701610101 -1.0786559018 -3.1677231703
H -5.1528073413 0.5356575384 -3.0243884112
H -6.1323758511 -0.1224216845 -1.7011311844
H -4.4271393941 -1.8885381387 -1.3027868653
H -3.6524974360 -2.1031396739 -3.6684179845
H -2.8144683156 -0.5472596454 -3.5314682955
H -2.2846090762 -1.9317839090 -2.5580410185
H -3.1809632083 0.8949483972 -1.4933561212
H -5.2256308744 0.8966714686 0.2141426968
H -5.1159162806 -1.5433619642 0.8055871776
H -4.4410856413 -0.7342674565 2.2239261880
H -3.0172749599 -2.5117090015 0.3249110357
H -4.2978061783 2.8869125057 1.9934658711
H -2.2057118350 3.9733851556 2.8126153211
H 2.9482276618 0.8180321011 -0.7874841720
H 1.9682992572 -2.6622581841 2.7818259801
H 5.5920479831 -1.2879155301 -1.8239227974
H 6.2901025242 -0.3608617549 -0.4667840532
H 5.2256722823 0.4509661899 -1.6483328469
H -2.3025531195 -1.7202937618 1.7333721657
H -1.3824567746 -0.8892726528 -0.6621755053
H 1.1944885368 1.5126654183 0.7072704958
H -0.0032770034 2.9804771950 2.3139586797
