110
CONF82
C -2.9330142949 0.0405590106 -0.9907779712
N -3.5609187900 -0.2695078887 -2.2948041047
C -2.6805284319 -1.2954960168 -2.8752389000
C -2.3813153748 -2.2231951496 -1.6941629776
C -2.6140615314 -1.3637965787 -0.4106016791
C -1.4434862194 -1.3066302446 0.5300464411
C -0.1323216717 -0.9569066164 0.2664323595
C 0.8219305490 -0.9215009283 1.2859348279
C 0.3928676987 -1.2417501621 2.5928701585
O 1.3491138706 -1.1622169686 3.5660361262
C 1.0036388780 -1.5343641948 4.9054503321
C -0.9244063017 -1.6161548807 2.8728424108
C -1.8421929449 -1.6256984141 1.8222327708
N -3.2085053171 -1.8981669304 1.8978952240
C -3.5867373945 -2.9975147138 2.7920954721
C -3.7389256765 -1.9583197955 0.5129814200
C -5.0981113694 -1.2319707584 0.3145122604
O -5.5588661949 -1.4675965307 -1.0152155237
C -4.9860047781 0.2710583899 0.6025719924
O -6.2500387864 0.8874683265 0.3535958059
C -3.7912443728 0.9912455792 -0.1385924941
C -2.9341211768 1.6728348996 0.9674752906
C -1.7246822247 2.4779742090 0.4982248686
C -4.3293747047 2.0786805517 -1.0401254666
C -4.2829088879 2.0535268130 -2.3703075089
C -3.7207563734 0.9067706919 -3.1459450276
C -6.1627459709 -1.8162115778 1.2702687326
N -6.8986843216 -2.8147891276 0.7447578131
O -6.2816961001 -1.4277592399 2.4327331109
C 2.2559534656 -0.4315136853 1.0072218663
C 2.6677217169 -0.7934797893 -0.4523590044
C 4.1550953321 -0.6652398033 -0.8265238315
C 4.6721498409 0.7729856578 -0.9211493396
N 4.1043813353 1.5415163272 -2.0525186753
C 3.5525094397 0.7425993741 -3.1499671197
C 4.4397219943 -0.4690477077 -3.4072298483
O 5.7860794992 0.0030028569 -3.6786736563
C 4.0184443208 -1.2362790657 -4.6654268038
C 2.5481329412 -1.6503653154 -4.7293884239
C 4.4490139208 -1.3886421209 -2.1639217631
C 3.2578301897 2.6769604985 -1.6999324612
C 1.9266654744 2.3712183346 -0.9663347710
C 2.0663381259 2.1781176002 0.5148753340
C 2.2611439697 1.0561108407 1.3085777189
N 2.3062250134 1.4544471779 2.6356752083
C 2.1749736245 2.8112925431 2.7309292307
C 2.1735644659 3.6463001157 3.8478045704
C 2.0078550842 5.0079934607 3.6257016198
C 1.8489400409 5.5199715259 2.3238433897
C 1.8561953508 4.6827086974 1.2158963438
C 2.0231153347 3.3028750980 1.4085367389
C 3.2825038279 -1.1838930386 1.8739447910
O 4.1891538371 -0.6803542016 2.5034370275
O 3.1168574839 -2.5095491261 1.7442685417
C 4.0556606720 -3.3271618981 2.4823274228
H -1.9666192209 0.5375373857 -1.1858682447
H -1.7530432741 -0.8269066127 -3.2487044796
H -3.1728333752 -1.7989836124 -3.7133907063
H -1.3561640230 -2.5989731948 -1.7310444054
H -3.0519341858 -3.0860778268 -1.6951982895
H 0.1484862271 -0.7091410346 -0.7518586793
H 1.9191541266 -1.4166781145 5.4861798952
H 0.2241956704 -0.8765926518 5.3066600163
H 0.6696044321 -2.5772097274 4.9470037126
H -1.2298119865 -1.8665172743 3.8799638264
H -3.0427272766 -3.9221911205 2.5397226930
H -3.3649732738 -2.7281081348 3.8284059426
H -4.6574041843 -3.1837575812 2.7283012814
H -3.9010817387 -3.0117860416 0.2371629144
H -4.8963235272 -1.0323679830 -1.6449215600
H -4.8295490103 0.3731107983 1.6783334573
H -6.4797865348 0.6929402473 -0.5668583420
H -3.6190707649 2.3355172984 1.5124074761
H -2.6123065008 0.9080039968 1.6829617343
H -1.3104650765 3.0500087999 1.3349351777
H -1.9943773038 3.1864192340 -0.2925253155
H -0.9213643318 1.8368295654 0.1231850236
H -4.7510920669 2.9444083461 -0.5352210756
H -4.6495807132 2.8983760653 -2.9480547583
H -2.7477747062 1.2044346249 -3.5861159729
H -4.3780004309 0.6526684878 -3.9879361216
H -6.8395559499 -3.0154435255 -0.2410540385
H -7.6357884805 -3.2261174924 1.2959378183
H 2.0617719316 -0.2114228290 -1.1407895966
H 2.3757091317 -1.8385357752 -0.5912352845
H 4.7497640824 -1.1651882373 -0.0518458545
H 5.7668530402 0.7139076633 -1.0308920091
H 4.4815015694 1.3176150601 0.0063734323
H 2.5240762849 0.3881972966 -2.9696964512
H 3.5151990242 1.3712164656 -4.0522253362
H 5.8694500315 0.8617671023 -3.2385981279
H 4.2560837774 -0.6038628820 -5.5288132721
H 4.6612920706 -2.1234583042 -4.7362108294
H 2.2339272240 -2.2012248288 -3.8365331811
H 2.3787078417 -2.2991221336 -5.5939670285
H 1.8911023204 -0.7818893870 -4.8354680737
H 5.4391960258 -1.8538436613 -2.1245853730
H 3.7244564357 -2.1985866708 -2.3007088897
H 3.8410586186 3.3715215577 -1.0807289219
H 3.0219807558 3.2008601768 -2.6359792747
H 1.4055689885 1.5442268555 -1.4558132393
H 1.2757009931 3.2420057974 -1.1158004486
H 2.4585708015 0.8234726820 3.4054924880
H 2.2938459167 3.2469309435 4.8503120167
H 1.9996701221 5.6889094247 4.4711986433
H 1.7205699242 6.5894076289 2.1872920912
H 1.7361193627 5.0949751165 0.2179544152
H 5.0766995374 -3.1270541843 2.1483105178
H 3.9685922635 -3.1204292851 3.5522350885
H 3.7745917358 -4.3569436079 2.2655140514
