46
CONF189
C -1.4968650862 -0.4218408336 -4.2811277901
C -1.2947067363 -1.5768920153 -3.3271918936
O -1.3291734496 -1.1499282450 -1.9264131175
P -0.0804728895 -0.4233010135 -1.2224427100
S 1.6960564337 -1.0960461258 -1.6790032742
N -0.2712533882 1.1927169177 -1.4622749254
C -1.5101920908 1.9400690159 -1.1300195414
C -1.7425025453 3.0065810249 -2.1962012233
C -1.4269993065 2.5514014822 0.2673866942
O -0.5284990702 -0.6564968040 0.3395039711
C -0.3713326539 -1.8924530931 0.9510762620
C -1.3538530657 -2.8595992299 0.7721420027
C -1.2180359509 -4.1011405273 1.3836327031
C -0.0936654645 -4.3817067421 2.1573854000
C 0.8866240147 -3.4133216299 2.3234974798
C 0.7588084993 -2.1478979764 1.7385263976
C 1.8520147574 -1.1666917362 1.9981847007
O 3.0166406670 -1.5014992075 2.1260482111
O 1.4001378528 0.0835974629 2.1479263380
C 2.3890546380 1.1325239746 2.4619944786
C 3.0195704004 1.6218524684 1.1727420019
C 1.6172022832 2.2078530352 3.1970558421
H -2.4212858786 0.1159709321 -4.0510658607
H -0.6595718814 0.2803255659 -4.2443104101
H -1.5703658411 -0.8166279460 -5.2996240743
H -2.1099489558 -2.3003882893 -3.3971797424
H -0.3455407994 -2.0924455719 -3.5066172436
H 0.5810559985 1.7377676810 -1.3934242743
H -2.3331890028 1.2163813275 -1.1633586954
H -0.9084123725 3.7173158804 -2.2057160602
H -1.8296189030 2.5572177116 -3.1888572214
H -2.6603772195 3.5609739962 -1.9787866726
H -2.3544190433 3.0829749190 0.5026112453
H -1.2618355225 1.7814714664 1.0252344286
H -0.6001705007 3.2695655550 0.3130998871
H -2.2122394879 -2.6293714363 0.1515767379
H -1.9909079348 -4.8509604681 1.2487812449
H 0.0170533440 -5.3509385477 2.6316225608
H 1.7668065623 -3.6171419027 2.9239957605
H 3.1440601135 0.6823896795 3.1133474043
H 3.5351569378 0.8120606606 0.6508776077
H 2.2533914848 2.0420365987 0.5127924981
H 3.7469795634 2.4062147127 1.4029402071
H 1.1542572323 1.8074037527 4.1029532069
H 2.3024454914 3.0110252385 3.4826709906
H 0.8381186762 2.6289987001 2.5540084728
