20
CONF4
C 0.1751630108 -0.0211322950 -0.5734362632
O 0.7876173438 1.2371353162 -0.9653822827
C 1.8623792239 1.5002309464 -0.1437884459
O 2.5451193538 2.4924509640 -0.2295214651
C 2.0048498695 0.3968643481 0.7884284230
O 2.9842093894 0.3467837219 1.7229313048
C 1.0399476361 -0.5057122470 0.5481534446
O 0.7816743073 -1.6875312535 1.1397901745
C -1.2838288681 0.2781184101 -0.1966113907
O -1.9121142508 1.0056650198 -1.2482715696
C -2.1102056036 -0.9903816521 -0.0218304343
O -2.1379603942 -1.7650086984 -1.2135694542
H 0.1968407841 -0.6950779832 -1.4386808698
H 3.5225070739 1.1448549514 1.6066782530
H 1.4464138212 -1.8446925950 1.8246738281
H -1.2893175323 0.8563522233 0.7432361628
H -1.3386538087 1.7476111638 -1.4791432750
H -3.1237498558 -0.6918595273 0.2860340380
H -1.6806430202 -1.6209332301 0.7600983611
H -2.4702482739 -1.1837376840 -1.9097888358
