45
CONF181
C 3.9592004338 -1.7408691788 -1.5274018624
C 2.9932354742 -2.5007585441 -0.6197325977
C 2.8359886655 -1.8761897217 0.7715919496
C 2.3674142557 -0.4247700477 0.7721811959
N 1.0783472987 -0.3073986482 0.0974762594
C 0.3906769339 0.8690095291 0.0299488646
C -0.9478028965 0.8812754019 -0.4290507350
C -1.6362193103 2.0787582751 -0.5832146649
C -1.0510059264 3.3009724902 -0.2834548366
C 0.2571557704 3.2982377393 0.2025915717
C 0.9666833312 2.1068464047 0.3628304210
C 0.8637043586 4.6109141104 0.5382035141
O 0.2954166384 5.6789693278 0.4156252789
O 2.1282442677 4.5045735200 0.9988824688
S -3.3450157658 2.0434911013 -1.1580754768
O -4.1086647840 1.1458655349 -0.2795499727
O -3.7683953858 3.4389728280 -1.3355258609
N -3.3662629615 1.3436233310 -2.6839628909
O -1.5393330101 -0.2961699132 -0.8321932353
C -1.8805452863 -1.2340387070 0.1424460432
C -2.1315432595 -2.5217957265 -0.3196826643
C -2.4918828402 -3.5054330815 0.5953242219
C -2.5916657515 -3.2056441688 1.9532584162
C -2.3350526815 -1.9095040234 2.3927458033
C -1.9807378887 -0.9091067748 1.4902219047
H 4.1130335160 -2.2775395670 -2.4684736676
H 3.5791805360 -0.7443893023 -1.7752113948
H 4.9355786760 -1.6176979447 -1.0449580754
H 3.3476789546 -3.5300496952 -0.4888529985
H 2.0144895810 -2.5776748929 -1.1095757727
H 3.7993763894 -1.9067047544 1.2945984997
H 2.1354578087 -2.4767325440 1.3671164787
H 3.1020969042 0.2080128539 0.2578184834
H 2.2977755036 -0.0612785569 1.8095499403
H 0.5288204389 -1.1531020462 0.0610782687
H -1.5960324566 4.2272456396 -0.4083392929
H 1.9828367613 2.1390377322 0.7316009555
H 2.4491097403 5.4015832299 1.1905356579
H -3.0137703365 0.3883930085 -2.6452119968
H -2.8230835317 1.8978512123 -3.3438596916
H -2.0431894779 -2.7371353598 -1.3794142223
H -2.6910825823 -4.5122934950 0.2423422010
H -2.8692571575 -3.9772961854 2.6633540621
H -2.4160036706 -1.6649662626 3.4471358980
H -1.7949549594 0.1049060520 1.8281445462
