54
CONF207
C -0.6352242362 2.8077108963 3.1645477040
C -0.3432223427 2.2703125900 1.7559038890
C 0.4388060916 0.9927850907 1.8289266068
C -0.1493638322 -0.2525287413 1.9531159511
C 0.6653933392 -1.3962079802 2.1181039051
N 2.0005286847 -1.2541024242 2.1548371299
C 2.4728309580 -0.0173247946 2.0076584957
N 1.7859105013 1.1072736331 1.8429969524
N 0.1390164010 -2.6342942692 2.2724266445
C 0.9408105768 -3.8490978778 2.2952449216
C 1.6359970349 -4.1618190940 0.9695285782
O 0.6951989723 -4.1871834928 -0.1106796181
C 0.4920284205 -2.9934835665 -0.7804423551
C -0.8264717741 -2.5916554312 -1.0244861868
C -1.0602933468 -1.3930065649 -1.7275592437
C 0.0197458109 -0.6201267114 -2.1875674129
C 1.3189232449 -1.0663768983 -1.9396278464
C 1.5646158361 -2.2419670123 -1.2516635177
C -0.1543859177 0.7039741227 -2.8877077172
C -0.3459921228 1.8270942093 -1.8767558852
O -0.4916190596 3.0498810286 -2.5856202968
C -0.5213136125 4.1952939626 -1.7357625604
C 0.8682479327 4.6465678656 -1.3057202650
C -2.4881611247 -0.9683523255 -1.9484701173
C -1.9765797127 -3.4269079777 -0.5344376577
Cl -1.9009090564 -0.4395594917 1.9538118523
H -1.2450738365 2.1000443850 3.7338356672
H -1.1760548198 3.7566154155 3.1066391672
H 0.2987733840 2.9743932553 3.7083541765
H 0.2609168506 2.9947384904 1.2033954279
H -1.2799468202 2.1161260286 1.2138152708
H 3.5587181835 0.0793658044 2.0261674518
H -0.8417100473 -2.7316606528 2.0653197917
H 0.2640612094 -4.6677419110 2.5588875069
H 1.7053509007 -3.7725988788 3.0780941228
H 2.0798072806 -5.1617035766 1.0244111707
H 2.4300724313 -3.4333883515 0.7899875816
H 2.1577185493 -0.4812311541 -2.3066482509
H 2.5833739429 -2.5786048017 -1.0970992671
H -0.9975205687 0.6996093073 -3.5852588473
H 0.7398678974 0.9258080243 -3.4789947831
H -1.2414884829 1.6364172420 -1.2582636289
H 0.5220690015 1.8508312490 -1.1977370080
H -1.1574306816 3.9958518845 -0.8569122504
H -1.0060961852 4.9847765557 -2.3205911098
H 1.4753170769 4.8840311256 -2.1837919290
H 0.7965087573 5.5429384896 -0.6802780836
H 1.3888790929 3.8773373455 -0.7275407816
H -2.5655733257 -0.0720817657 -2.5630044569
H -2.9832615169 -0.7554925815 -0.9934455407
H -3.0661452581 -1.7613935367 -2.4355077524
H -2.6816426935 -2.8271374309 0.0519690065
H -2.5432122211 -3.8514929880 -1.3716960050
H -1.6207965503 -4.2581053202 0.0752912493
