63
CONF87
C 1.5829399775 -0.3949906404 2.5814963001
C 0.3096614838 -1.2231719925 2.7289609301
N -0.5290916819 -1.1292201317 1.5280728488
C 0.2029959158 -1.6455203696 0.3645783949
C 1.4722219456 -0.8373994210 0.1148253502
C 2.3618829447 -0.8683922021 1.3551535622
N 3.6060512894 -0.1168534032 1.1631239617
C 4.8897386559 -0.6486127784 1.2251148197
C 5.3496283815 -1.9353799601 1.4673437715
C 6.7331779543 -2.1387489595 1.4610379413
C 7.6229986607 -1.0895501413 1.2204078948
C 7.1618821214 0.2070897673 0.9755321247
C 5.7911808522 0.4071534220 0.9822527683
N 5.0243626971 1.5395119021 0.7818814616
C 3.6735958419 1.2469737473 0.8895468319
O 2.7382942554 2.0363704443 0.7672076704
C -1.7925039420 -1.8506713409 1.7432399073
C -2.8174177798 -1.6276013357 0.6322216479
C -3.2358131205 -0.1608135816 0.4781239574
C -3.6853039845 0.1710088198 -0.9563311819
C -4.3717931398 1.5190993980 -1.0922722648
C -5.2542815907 1.7247803586 -2.1590137492
C -5.8797501884 2.9507696733 -2.3593536119
C -5.6037743892 3.9757508499 -1.4695394368
C -4.7420444969 3.8207035030 -0.3996809094
C -4.1281949794 2.5816521937 -0.2185547260
F -6.2089755076 5.1809419817 -1.6538422594
C -2.5000048478 0.0800247060 -1.9069114525
C -1.4393828108 0.9862284813 -1.8025667418
C -0.3194488970 0.8828290142 -2.6198609158
C -0.2784935738 -0.1465257498 -3.5461577796
C -1.3064551947 -1.0593586677 -3.6933358560
C -2.4204355132 -0.9333822568 -2.8634340475
F 0.8174526892 -0.2589568964 -4.3455392375
H 2.1993115712 -0.5028300220 3.4809600423
H 1.3251739465 0.6627172492 2.4661990110
H -0.2674114005 -0.8588916379 3.5865227168
H 0.5813053924 -2.2788084520 2.9410052712
H 0.4624051507 -2.7162740101 0.5049964983
H -0.4327331608 -1.5749930504 -0.5231280444
H 1.2040419970 0.1971715528 -0.1192966654
H 2.0097899611 -1.2535886216 -0.7448449177
H 2.6679987462 -1.9068811870 1.5281916238
H 4.6707404498 -2.7594390845 1.6556927288
H 7.1187502420 -3.1356746735 1.6479384486
H 8.6910519834 -1.2808126438 1.2224603371
H 7.8469648132 1.0269379418 0.7873919774
H 5.3656211426 2.4671824393 0.5856944478
H -2.2128593967 -1.4947538199 2.6934923369
H -1.6109681221 -2.9379635238 1.8590033631
H -2.4202095260 -2.0050046925 -0.3162904038
H -3.6972963867 -2.2436688903 0.8519074522
H -4.0485274662 0.0715299668 1.1771095354
H -2.3887695392 0.4801817525 0.7454211319
H -4.4094294727 -0.5921672102 -1.2696419503
H -5.4563277176 0.9090772205 -2.8483672589
H -6.5676403693 3.1113699375 -3.1826308241
H -4.5569672271 4.6483587686 0.2766872686
H -3.4539249156 2.4561793873 0.6217935400
H -1.4826217017 1.7854566382 -1.0682181458
H 0.5089995431 1.5787061354 -2.5405063580
H -1.2360793471 -1.8484131869 -4.4343412035
H -3.2352858318 -1.6454052079 -2.9589290452
