45
CONF6
C -3.4167636971 1.6492599234 1.8012416483
C -4.1203389296 1.3399141298 0.5111053964
C -3.8745468458 0.2693236068 -0.2636550822
C -2.8917314305 -0.7929200901 0.0031904134
C -1.9790832927 -1.2759805435 -1.1456474496
C -3.0189699877 -2.2015875135 -0.5027538241
C -2.5872714433 -3.3314665021 0.4057102786
C -4.1772349342 -2.5783429469 -1.4020909130
C -0.5238767849 -1.3706646391 -0.9859869318
O 0.2708906017 -1.2913378053 -1.9054813083
O -0.1288694865 -1.5201308342 0.3100264976
C 1.2879600892 -1.5387005451 0.5580000422
N 1.8531824771 -0.2174645571 0.4470836723
C 1.5159022315 0.8405018515 1.2661297508
O 0.7339368922 0.8069735829 2.1960739662
C 2.3102056863 2.0314466763 0.7684910588
N 2.9944584386 1.5022942190 -0.4010856688
C 2.8201188817 0.1542638465 -0.5241709417
O 3.3780695638 -0.6080632370 -1.2911161952
C 4.1382835591 2.1765960877 -1.0031632073
C 5.3186468129 2.1472299383 -0.1419751859
C 6.2738857948 2.1173143700 0.5920754079
C -5.1628625872 2.3484599035 0.1160190206
H -4.1436526028 1.7252172386 2.6196743285
H -2.9243023993 2.6275408027 1.7325433378
H -2.6651599853 0.9091446997 2.0785139593
H -4.4468512559 0.1733417941 -1.1844721647
H -2.3612397317 -0.7261223374 0.9467909101
H -2.2460267553 -0.9324392552 -2.1400472755
H -3.4560540349 -3.6814347907 0.9743329282
H -2.2094417465 -4.1752869933 -0.1829698970
H -1.8158901689 -3.0273854406 1.1135810516
H -5.0681738422 -2.7793518215 -0.7964390189
H -3.9328857061 -3.4893711587 -1.9587333730
H -4.4210192293 -1.7969112789 -2.1243873876
H 1.3792703232 -1.9006139820 1.5830820161
H 1.8081776875 -2.1902072574 -0.1474880082
H 1.6421060134 2.8650938736 0.5239794369
H 3.0139869775 2.3552677635 1.5479047997
H 4.3552725318 1.6868843383 -1.9578067613
H 3.8573486921 3.2132602988 -1.2203056327
H 7.1240757468 2.0892569917 1.2355549160
H -5.9397423558 2.4235660256 0.8877224949
H -5.6392473005 2.0907692735 -0.8334361265
H -4.7177311857 3.3475242538 0.0248059510
