43
CONF286
C 1.0667589110 4.8778213444 -4.8222352670
C 1.2947338482 3.4616111245 -4.4349193908
N 2.2762842983 3.0477156810 -3.6881825936
N 2.2885643548 1.6951169292 -3.4788005589
C 1.3011179092 1.0825418827 -4.0738323184
S 0.2370398397 2.1548621584 -4.9664768075
S 0.9697120252 -0.6387527964 -4.0431615968
C 2.2421117321 -1.2045860918 -2.8186914255
C 1.8323809043 -0.9568305686 -1.4018874305
C 0.8640632923 -1.6500828841 -0.7484724946
N 0.5264130901 -1.1787787451 0.5313724976
C 0.2689714202 0.2285765321 0.9101664615
C 0.6868376447 -0.1641068383 2.3673439435
C 0.8037116883 -1.6081651923 1.8171102179
O 1.0881806957 -2.6899915012 2.2706464986
N -0.1888981392 0.0986445474 3.4691140000
C -1.4178215705 -0.4622779217 3.5437621945
O -1.8660302378 -1.2203754313 2.6925813434
C -2.2272215366 -0.0365871714 4.7753531802
N -3.3545920438 -0.9201732549 4.9707625765
C -4.5596371738 -0.9247035663 4.3746951491
N -5.2329129216 -1.9821747975 4.7877579806
N -4.3983179566 -2.6329595281 5.6433210625
N -3.2699291431 -2.0137190418 5.7553917054
S 1.2719569620 1.3972901077 -0.0711713126
C 2.5152747044 0.1373007981 -0.6384206853
C 0.0942928047 -2.7764066729 -1.3139917763
O 0.2588199420 -3.2442388633 -2.4261233908
O -0.8195258316 -3.2432337449 -0.4408977415
H 0.0710796954 5.2124137185 -4.5166418610
H 1.1436465684 4.9999639129 -5.9071369452
H 1.8203999786 5.5018159959 -4.3385236625
H 3.1802012866 -0.6993249097 -3.0522273887
H 2.3330445379 -2.2715125101 -3.0268331471
H -0.7834890132 0.5140560774 0.8179335022
H 1.6838061111 0.2172098776 2.6028025696
H 0.1371238886 0.6972500512 4.2139013954
H -1.6135317531 -0.0502968508 5.6798687370
H -2.5983916743 0.9821864380 4.6217215129
H -4.8966771276 -0.1655926088 3.6831384407
H 3.0252290395 -0.2652285078 0.2439780024
H 3.2301753155 0.6779007628 -1.2575355251
H -1.2849578635 -3.9841774486 -0.8650328518
