48
CONF16
C 2.2974861561 -1.9123093337 -2.0034254096
C 2.4852801677 -0.4501784075 -2.4007445325
C 2.1947281689 0.5214790975 -1.2535548034
C 0.7424049008 0.3884322491 -0.8000200251
O -0.1704469208 0.5604487349 -1.6061595338
N 0.5285917660 0.0822882438 0.4997290535
C -0.7902598165 -0.0832124893 1.0243415108
C -1.7315478940 -1.2214366179 0.4950148875
N -2.7132569604 -0.1878546887 0.1517170918
C -1.9264694846 0.8729962280 0.5809476637
O -2.1332680542 2.0621763727 0.6331030354
C -4.1049316107 -0.4566562746 0.4188087618
C -4.1384050829 -1.2955747020 1.7508017011
S -2.5874317524 -2.3526088525 1.6698767702
C -4.0697295760 -0.3408652589 2.9424792670
C -5.3490758590 -2.2154508441 1.8726938582
C -4.7303821305 -1.1986383393 -0.7524679399
O -4.1353282530 -1.9589384295 -1.4817782723
O -6.0393506248 -0.9132302465 -0.8628160288
O 3.0449009540 0.2759942763 -0.1232062483
C 4.3350102665 0.7399227056 -0.1300490452
C 5.1005709034 0.3701243196 0.9805064640
C 6.4156230317 0.8007820282 1.0891542075
C 6.9842727830 1.5989701650 0.0956544923
C 6.2161968210 1.9590891381 -1.0060199356
C 4.8923818621 1.5359820037 -1.1325222141
H 2.5266568467 -2.5675426330 -2.8481118182
H 2.9589222452 -2.1840658896 -1.1754353585
H 1.2650116635 -2.1115995310 -1.6956558820
H 3.5104571819 -0.2791968348 -2.7446692422
H 1.8192859811 -0.1849292286 -3.2277689620
H 1.3270006107 -0.0496695031 1.1034060269
H -1.3391852339 -1.7873647435 -0.3530334072
H -4.6390790716 0.4854968538 0.5767977338
H -4.9922967121 0.2491083685 2.9931344748
H -3.2226144495 0.3469618031 2.8711676694
H -3.9679794447 -0.9094312083 3.8704212851
H -5.4089690834 -2.9280084588 1.0459517832
H -5.2927607355 -2.7781425845 2.8086208717
H -6.2644495283 -1.6153600612 1.8938910294
H -6.4088894093 -1.4414878046 -1.5921426041
H 4.6474141370 -0.2502985366 1.7471540460
H 7.0002180874 0.5092653327 1.9563600366
H 8.0128762184 1.9329065752 0.1805911320
H 6.6440724975 2.5776342922 -1.7890672541
H -0.7442036549 -0.1007314137 2.1167693094
H 2.3033663407 1.5609288681 -1.5905626912
H 4.3257855247 1.8313447539 -2.0069270355
