59
CONF11
C 5.7485307232 -1.3594377962 -0.4893622201
C 5.6398700253 -0.7443758174 0.9100138475
C 4.8344410970 0.5622518441 0.8639567351
N 3.4407565954 0.2951153973 0.5435361863
C 2.7849474304 -0.8166686832 0.9414855503
N 1.4702325593 -1.0059357855 0.8228481830
N 0.8710916477 0.0618362311 0.2649942775
C -0.4431903493 0.0264439484 0.1601903170
C -1.2469380951 -1.0465115688 0.7088059267
C -2.5545261340 -1.2552894139 0.4395219388
C -3.3908983365 -2.3028125815 1.0030157572
C -4.6875577064 -2.4856575213 0.4933583717
C -5.5287800223 -3.4707748128 0.9873516721
C -5.0908769471 -4.2985603739 2.0177078613
C -3.8074212734 -4.1338400660 2.5437050820
C -2.9737745185 -3.1480276171 2.0478556355
C -5.9662037496 -5.3969319835 2.5368450238
F -5.8129330801 -5.5813631974 3.8713763225
F -7.2790902230 -5.1584748200 2.3123126929
F -5.6807663165 -6.5910530221 1.9492276877
C -1.0772049820 1.1568783830 -0.5027913745
C -0.4731668130 1.9724664319 -1.3908229116
C -1.0695310934 3.1365682246 -2.0246012953
C -0.4283804999 3.7153157764 -3.1340485546
C -0.9673972244 4.8091498397 -3.7921438163
C -2.1704957936 5.3574827104 -3.3521315550
C -2.8162379913 4.8128598238 -2.2409168170
C -2.2704105965 3.7229072948 -1.5856854454
C -2.7303755179 6.5702587583 -4.0282068363
F -2.2320826320 7.7216343488 -3.4990171123
F -4.0774734894 6.6450679628 -3.9133624250
F -2.4369414906 6.5979308697 -5.3507620394
N 3.5127599799 -1.8477403059 1.4435030584
C 4.8978174790 -1.6949700244 1.8614304245
C 7.0316585841 -0.4572366718 1.4726598341
H 4.7648453094 -1.5606604258 -0.9207121972
H 6.3033542711 -2.3025085463 -0.4502766370
H 6.2840108258 -0.6813611993 -1.1616606368
H 5.2498289552 1.2260725563 0.0965422538
H 4.9241892080 1.0796597040 1.8330555603
H 2.8223382860 1.0320132823 0.2310051535
H -0.7119263720 -1.7214876179 1.3683398994
H -3.0535995502 -0.6178643179 -0.2877747959
H -5.0347766454 -1.8408216431 -0.3085337772
H -6.5256945798 -3.5921277697 0.5791403421
H -3.4713653487 -4.7723488310 3.3536696705
H -1.9890432629 -3.0233899923 2.4839201931
H -2.1204667620 1.3271504057 -0.2502803459
H 0.5452652284 1.7347017194 -1.6892369359
H 0.5034217935 3.2835936912 -3.4872216261
H -0.4603675838 5.2331951893 -4.6519134766
H -3.7442695693 5.2498051507 -1.8889879978
H -2.7751281596 3.3296614609 -0.7101777470
H 2.9583791109 -2.6099885861 1.7999536309
H 5.3766331947 -2.6808038902 1.8492826461
H 4.9646205224 -1.3047739518 2.8907873275
H 7.5711333723 0.2428066965 0.8265809131
H 7.6220035449 -1.3774153239 1.5322551737
H 6.9771625843 -0.0216138504 2.4760882074
