46
CONF42
C -2.5184054879 3.0424801535 -1.4712926414
C -2.1728994038 2.2038399193 -0.2414482024
C -3.3965724142 1.6522492939 0.4980423068
C -4.2576858156 0.7064641129 -0.3183499193
O -3.4768361698 -0.4564728022 -0.7498385920
C -3.4095140396 -1.4889014717 0.0923552366
O -3.9947047207 -1.5766376639 1.1531243264
C -2.5514076401 -2.6277721056 -0.4610148157
C -3.4233157473 -3.5732599562 -1.2734642122
O -1.5160475672 -2.1633830590 -1.3331673700
C -0.5561688111 -1.3410536890 -0.8090036029
C 0.3050392271 -0.7553875628 -1.7423089550
C 1.3124495587 0.0991858720 -1.3193129693
C 1.4463124436 0.3656558174 0.0371402916
C 0.6030694688 -0.2057464567 0.9741113262
C -0.4072748240 -1.0683475877 0.5534520297
O 2.4200903442 1.2849607372 0.4545434583
C 3.6122608568 0.7949453860 0.8787860189
C 4.5399319387 1.7397788448 1.3407831173
C 5.7861169956 1.3838574554 1.7957218471
C 6.1344628537 0.0225495032 1.7946089066
C 5.2248320999 -0.9384662166 1.3360535734
C 3.9726543574 -0.5529682938 0.8812357205
C 7.4145423855 -0.3755471402 2.2606060060
N 8.4592591002 -0.7058272967 2.6398868831
F 4.1811725001 3.0393001794 1.3321871067
H -1.6157906259 3.4844105084 -1.9045877884
H -2.9948827421 2.4415004955 -2.2525940649
H -3.2026205665 3.8582064849 -1.2111805845
H -1.5180177934 1.3738423557 -0.5317798726
H -1.5986352027 2.8146266407 0.4653977045
H -3.0789151732 1.1389733141 1.4136210687
H -4.0454152835 2.4824561128 0.8083587239
H -5.1220821021 0.3572685425 0.2508980666
H -4.5956255269 1.1581889575 -1.2526924995
H -2.1221215910 -3.1583434812 0.3974960562
H -2.8185571403 -4.4116629172 -1.6273505725
H -4.2296893218 -3.9606158501 -0.6460705662
H -3.8548197547 -3.0510519950 -2.1316391187
H 0.1686679604 -0.9731763348 -2.7962605950
H 1.9860191568 0.5623503373 -2.0327150535
H 0.7284217203 0.0208689329 2.0279360769
H -1.0605521173 -1.5048680283 1.2990290966
H 6.4726265772 2.1461599697 2.1457146614
H 5.5003011105 -1.9866988220 1.3356384021
H 3.2703272180 -1.2979312919 0.5263666815
