78
CONF104
C -1.5007001202 0.4517532869 -1.7349874782
C -1.3217927405 1.2770373649 -3.0057317997
O -1.7906882093 0.3995379223 -4.0714954465
C -1.7521711174 -0.9076707235 -3.6735716813
O -2.0285493719 -1.8071152535 -4.4227965989
C -1.2538263603 -0.9583416649 -2.2460700599
C -1.7987812795 -2.0038002458 -1.2704678692
C -3.3234190944 -2.0767361599 -1.2586897055
C -3.9681414202 -2.8058480724 -2.2581271403
C -5.3573197780 -2.8266241276 -2.3030545685
O -6.1053657919 -3.4826133662 -3.2475107550
C -5.3993276177 -4.0553345451 -4.3497108025
C -6.1248942139 -2.1526261969 -1.3472633913
O -7.4855909599 -2.1800981469 -1.3843091526
C -5.4746305484 -1.4415594674 -0.3341369888
O -6.2942978159 -0.8228262942 0.5635563535
C -5.6707429704 -0.1004616200 1.6172180535
C -4.0792556264 -1.4023682769 -0.2977430650
C -1.2523805390 -1.6825896281 0.1147533970
C -1.3552121785 -2.6965905151 1.0875204430
C -0.9740685906 -2.4010018610 2.3717696680
C -0.5252308230 -1.1341414712 2.7298151681
O -0.2741968512 -1.0932525605 4.0799634681
C -0.3490581908 -2.4627818923 4.5117454703
O -1.0211403282 -3.2064490443 3.4805232326
C -0.4267184155 -0.1229562992 1.8100864295
C -0.7789591271 -0.4093358644 0.4713421837
C -0.5936063678 0.7016338940 -0.5462115407
O 0.7514956243 0.7575589782 -1.1049053516
C 1.8198156561 0.5446649132 -0.2609975388
O 1.9465427905 1.6810129333 0.6158266592
C 3.0290233779 1.4938273045 1.5175082787
C 3.1022464953 2.6517030916 2.4953095649
O 4.2643024926 2.4665273470 3.3217861664
C 5.4743288108 2.3428762674 2.5999279876
O 5.4359066481 1.2985568989 1.6292357375
C 4.3319355303 1.4597578931 0.7265258564
C 4.3095459114 0.2925487704 -0.2342291928
O 5.4387489050 0.2666062270 -1.1050391503
C 3.0727430546 0.3974432609 -1.1248997424
O 2.9139868101 -0.7745084164 -1.9106763280
C 5.8991177078 3.6566464591 1.9935397207
C 5.5903767106 4.9218602999 2.4154835828
C 6.2506599480 5.9346889030 1.6707824799
C 7.0661337003 5.4295606805 0.6970334832
S 7.0330450680 3.6987339639 0.6741276409
H -2.5425133292 0.5297336000 -1.3977448150
H -0.2722365540 1.5202161248 -3.1956343660
H -1.9313110750 2.1824117285 -3.0424043702
H -0.1641321160 -1.1016832887 -2.3313339947
H -1.4216156404 -2.9885304847 -1.5722910736
H -3.3787994128 -3.3117369526 -3.0106743832
H -6.1638855228 -4.4302572887 -5.0312288071
H -4.7650203471 -4.8870854102 -4.0190910038
H -4.7826047963 -3.3021657686 -4.8543555398
H -7.7312545978 -2.7045387295 -2.1592067138
H -5.0468617541 -0.7560904202 2.2396910330
H -5.0567753715 0.7245014688 1.2305411998
H -6.4842498315 0.3060884448 2.2198417515
H -3.5727038507 -0.8645314344 0.4931823337
H -1.7557288923 -3.6705263683 0.8275167787
H -0.9291171163 -2.5208793513 5.4364140857
H 0.6696653756 -2.8597492559 4.6390568767
H -0.0731815814 0.8651127588 2.0840153982
H -0.7946679358 1.6699136792 -0.0686712968
H 1.6851751093 -0.3635626900 0.3535213329
H 2.9150751657 0.5488639693 2.0777441782
H 2.2479854445 2.6684740605 3.1766519310
H 3.1474774683 3.6013394119 1.9433871906
H 6.2076157194 2.0043697299 3.3400559245
H 4.4323507843 2.4014505870 0.1636178415
H 4.2485434549 -0.6452023434 0.3445184712
H 6.2294722372 0.2074266656 -0.5555137871
H 3.1610264483 1.2946530494 -1.7588242683
H 3.7602710198 -0.9318128835 -2.3482448719
H 4.9121420419 5.1090266365 3.2391850312
H 6.1249913484 6.9957758164 1.8483541466
H 7.6749794991 5.9695619694 -0.0148320027
