31
CONF11
C -2.1517980428 -0.4735600115 0.0302988250
C -2.9418984923 -0.8067426254 1.1210628676
C -3.0053126313 0.0611454756 2.2048169599
C -2.3056112340 1.2621469056 2.2060480542
C -1.5282366575 1.5922093594 1.1053902564
C -1.4264695260 0.7259875354 0.0067591103
C -0.5757692819 1.0779993622 -1.1435270433
N 0.1977376199 0.3232150078 -1.8404161458
O 0.1677353191 -1.0005708762 -1.4607788654
C 1.3142761828 -1.6889648934 -1.9823040681
C 2.4401565867 -1.6976187763 -0.9551374800
O 2.8460949817 -0.3637260648 -0.6936820413
C 2.8511276682 -0.1799331337 0.7272193485
C 1.8320055868 -1.2037409272 1.2015370984
O 2.0315166412 -2.2807001657 0.2743043836
C -0.5023800545 2.5345790966 -1.5719542073
F -0.0492378292 2.6981598356 -2.8186707384
F 0.3225963892 3.2422326821 -0.7468541673
F -1.7214612235 3.1177539098 -1.4933545812
Cl -3.9878825365 -0.3618792606 3.5887083015
H -2.1099012545 -1.1473176429 -0.8147701762
H -3.5052518159 -1.7323365983 1.1301582448
H -2.3709593944 1.9313112796 3.0557864002
H -0.9868206383 2.5308047253 1.1134811756
H 1.6450538984 -1.2140640638 -2.9120111439
H 0.9897049348 -2.7167471746 -2.1711935021
H 3.2818117191 -2.2971177001 -1.3441557445
H 3.8515234890 -0.3840792082 1.1351733082
H 2.5661846425 0.8548192667 0.9365828292
H 0.8057799740 -0.8180835634 1.1352526700
H 2.0256858628 -1.5851815438 2.2071829848
