56
CONF6
C -2.8662897070 1.8965409983 -0.6165496459
C -2.5558380559 0.4228479157 -0.2451079877
C -3.3566083796 -0.5091903623 -1.1730178884
C -4.8605342979 -0.4474193874 -0.9241088223
C -5.1872372210 -0.7245365457 0.5246976955
O -6.2785447246 -1.1933202353 0.8617163182
C -4.1832934084 -0.3484499746 1.5069189426
C -2.9946642574 0.2174696345 1.1909941830
C -2.1210954136 0.7862389228 2.2670759896
C -0.6346977649 0.4791533407 2.0732615324
C -0.1796404394 0.8840644886 0.6683296149
C -1.0138511024 0.1987219311 -0.4312150845
C -0.5918116887 -1.2563134004 -0.6483854635
C 0.9127806406 -1.3690385407 -0.9096103593
C 1.8319675814 -0.7186429627 0.1431719504
C 1.3366603895 0.7099434598 0.4599273472
C 1.8958614208 1.6089701859 -0.6766998423
C 3.0082020021 0.8149565699 -1.3880923299
C 3.2317363714 -0.4678996264 -0.5617122503
C 4.3610798933 -0.3038065291 0.4605280000
O 5.1953954881 -1.1933941624 0.5808368498
C 4.5164517038 0.9397389524 1.3046908326
O 5.6807760348 0.8878438161 2.1030098488
O 3.5933100024 -1.5471904889 -1.4095331771
C 1.9946359321 -1.6363490671 1.3574565093
O -1.0438163490 -2.0548498665 0.4611775426
H -3.9210924608 2.1322432540 -0.4525658870
H -2.6322499890 2.0592492479 -1.6738114973
H -2.2774589920 2.5987816764 -0.0229836650
H -3.0435675751 -1.5417414617 -0.9937200502
H -3.1279326038 -0.2683099078 -2.2179004099
H -5.3985721528 -1.1675011750 -1.5480351273
H -5.2707506246 0.5435558640 -1.1625259112
H -4.4658487200 -0.4718474627 2.5506105121
H -2.2527495513 1.8796176096 2.2413873886
H -2.4743027182 0.4515966661 3.2472759696
H -0.0533686170 1.0375590608 2.8167693498
H -0.4608618319 -0.5834791718 2.2468226371
H -0.3571056959 1.9663631079 0.5885664128
H -0.7726567015 0.6891248686 -1.3855246404
H -1.0790295229 -1.6213774061 -1.5641434110
H 1.1762245639 -2.4263681609 -1.0237424116
H 1.0840867712 -0.9089729709 -1.8899630857
H 1.7937843432 1.0267887364 1.4038211025
H 2.2656067609 2.5508905894 -0.2606349055
H 1.1073641870 1.8695299034 -1.3893242240
H 3.9332336821 1.3827715236 -1.5209454082
H 2.6917449382 0.4958930352 -2.3844225807
H 3.6274826595 1.0532296128 1.9404610907
H 4.5465451504 1.8158483441 0.6408310935
H 6.0886187396 0.0228262723 1.9284781703
H 4.2816830064 -2.0496216900 -0.9423561760
H 2.5317224242 -1.1410849375 2.1747760622
H 1.0274180239 -1.9659111522 1.7369533324
H 2.5595364761 -2.5319233596 1.0705419081
H -0.8184374084 -2.9738192600 0.2674435709
