82
CONF79
C -3.8676028251 -1.8183585910 -2.7152175100
C -4.7853877669 -0.7064840723 -2.2832436889
C -6.0992333171 -0.7752117588 -2.5277493435
C -4.1277678520 0.4705000040 -1.6026649937
C -5.0626514761 1.5971990857 -1.1417872698
C -4.2272669065 2.3537475458 -0.1130307197
C -3.5346626990 1.2445855320 0.7090801266
C -3.2970539476 0.0916362590 -0.3286964914
C -1.7997021040 -0.1853493654 -0.5808856597
C -1.0945268857 0.9543317192 -1.3632611943
C 0.2949099908 1.2945539537 -0.8303841331
C 1.1082788854 0.0162378938 -0.6339385692
C 2.6620500800 0.3160911083 -0.4983050744
C 2.9703121851 1.5880212856 0.3241299329
C 4.4736940533 1.8496049577 0.4761454014
C 5.2433670428 0.6890818066 1.0960461904
C 4.9541207573 -0.6581057755 0.3824606863
C 3.4164299089 -0.8822708182 0.1550971651
C 2.7378321087 -1.3500521762 1.4775131289
C 1.2975280154 -0.8896560742 1.7011852187
C 0.4495093912 -0.9280349400 0.4296897305
C -1.0721015933 -0.5469845835 0.7442014327
C -1.2441267096 0.6225932908 1.7731304867
C -2.2306346078 1.7285831273 1.3567360068
C -1.7573137374 -1.7873929472 1.3624823269
C 0.5121136311 -2.3633884495 -0.1429736033
C 5.7576955895 -0.6587304994 -0.9382659942
C 5.5480522491 -1.8301026469 1.1896199696
O 4.9153110013 0.6954027871 2.5029032575
C 3.1067102723 0.5449932563 -1.9635542611
C -4.5008034108 0.7206792136 1.7921183715
O -4.8776741591 1.6992256138 2.7712517918
H -3.4452549869 -2.3372182436 -1.8463121731
H -3.0197832303 -1.4237647942 -3.2881477614
H -4.3960811529 -2.5535687826 -3.3272541588
H -6.7874420160 0.0111226968 -2.2368196895
H -6.5219102776 -1.6353820517 -3.0403349871
H -3.4307382403 0.9006663143 -2.3369091658
H -5.4029658068 2.2260616605 -1.9708391831
H -5.9538970621 1.1800638394 -0.6595772168
H -3.4681283297 2.9599040601 -0.6218557062
H -4.8170058806 3.0442745065 0.5012918633
H -3.7384065676 -0.8290376317 0.0737386180
H -1.7442634650 -1.0839298946 -1.2030947662
H -0.9873554905 0.6466289825 -2.4118975744
H -1.7089758491 1.8595396750 -1.3815636001
H 0.2284733986 1.8556280388 0.1059394577
H 0.7882544317 1.9614003453 -1.5455541217
H 1.0240726404 -0.5259181872 -1.5878175248
H 2.5201449245 1.5179964111 1.3195582979
H 2.5201162956 2.4618497916 -0.1594042246
H 4.9188861826 2.0846091991 -0.4951410806
H 4.6315007516 2.7351632938 1.1027712813
H 6.3244639537 0.8856540806 0.9959138927
H 3.3532228925 -1.7124112533 -0.5624581487
H 2.7812657358 -2.4443401748 1.5129364555
H 3.3158315337 -0.9923481835 2.3292518108
H 1.3130910755 0.1252591355 2.1032959356
H 0.8476989945 -1.5160656994 2.4820616082
H -1.5599530502 0.1966503587 2.7333191643
H -0.2919874473 1.1162702426 1.9789754619
H -2.4769652362 2.3328483456 2.2381240391
H -1.7306314500 2.4083722255 0.6613977612
H -1.1500836196 -2.1960663609 2.1760095544
H -1.9247485918 -2.5796298261 0.6271644319
H -2.7256943815 -1.5300339880 1.7929346464
H -0.1978207562 -2.4966835611 -0.9662416278
H 0.3035711347 -3.1226390845 0.6159331596
H 1.5063725429 -2.5661828614 -0.5460013962
H 5.6485864924 0.2553001019 -1.5186742041
H 5.4516890906 -1.4993241935 -1.5696822918
H 6.8236277486 -0.7767533368 -0.7150020246
H 6.6225238331 -1.6697236281 1.3384307671
H 5.4266833194 -2.7630110327 0.6267426086
H 5.0903662333 -1.9791011374 2.1691631820
H 5.4602744892 0.0274244581 2.9362430117
H 3.2388669144 -0.4111034622 -2.4811374533
H 4.0307833666 1.1124601134 -2.0604342821
H 2.3394557683 1.1091742907 -2.5023534665
H -5.3966836036 0.2920406834 1.3195165636
H -4.0147887058 -0.0782380178 2.3595628888
H -5.4876655155 2.3191670794 2.3543994483
