43
CONF9
C -2.9350690315 -0.1761650138 -4.2576496090
N -2.8975546580 0.5759496624 -3.0006022695
C -2.5092686496 0.1940006145 -1.7613517859
C -2.6676174132 1.2906063807 -0.9035261023
C -3.1642975614 2.2876040486 -1.7658356024
N -3.2921502924 1.8591752840 -3.0174214781
Cl -3.5479526383 3.9273248553 -1.4096812151
C -2.2945291437 1.3635903810 0.5163912790
O -1.4508046571 0.6553190124 1.0334076613
O -2.9863782151 2.3090643026 1.1615048740
C -2.6385971839 2.4904094632 2.5599679457
S -2.0343040788 -1.4770868502 -1.3311065524
O -2.7022854462 -1.8424876423 -0.0819830908
O -2.1948529358 -2.3109978385 -2.5201260380
N -0.3989015085 -1.3761829037 -0.9380117826
C 0.4915193094 -0.7487315302 -1.7941344424
O 0.2169177638 -0.4518996504 -2.9495441103
N 1.7400923418 -0.4794526233 -1.2615242913
C 2.2345690926 -0.6259157448 0.0332188002
N 3.4896542364 -0.2041033601 0.1912358644
C 3.9802576213 -0.3238551300 1.4298504407
C 3.2510383560 -0.8473325173 2.4960132363
C 1.9569199831 -1.2514529047 2.1951038208
N 1.4369228520 -1.1491652771 0.9639961188
O 1.2133698080 -1.7632733898 3.1801792501
C -0.1314239721 -2.1961138835 2.8563450760
O 5.2323532467 0.0728215732 1.6831980887
C 6.0023218039 0.6212273511 0.5865827847
H -3.1872018538 0.5410633121 -5.0373878245
H -1.9567920641 -0.6189495101 -4.4446976053
H -3.6943075736 -0.9580054265 -4.2037397313
H -1.5842539744 2.7610532392 2.6496030050
H -3.2777559475 3.2997968841 2.9086034247
H -2.8379745584 1.5713100821 3.1152816870
H -0.1467315462 -1.3798354823 0.0659315985
H 2.3796769935 -0.0513284717 -1.9188839265
H 3.6659096623 -0.9358420512 3.4909033339
H -0.1055787105 -2.9912282515 2.1061664901
H -0.5360445865 -2.5742437317 3.7943182159
H -0.7274686867 -1.3539654819 2.4951515707
H 6.1190294961 -0.1198431870 -0.2077600705
H 5.5199494233 1.5184126424 0.1914504965
H 6.9695957969 0.8687291511 1.0223670658
