21
CONF16
C 1.6275713982 -1.5818406785 0.7706707493
C 1.4266137842 -0.1195317131 0.3652548367
C 0.0158228922 0.1531954794 -0.0921287844
C -0.2188044298 1.6292086548 -0.5200814769
C -1.6508073195 2.0144133476 -1.0002634637
F -2.0090686183 1.3002826498 -2.0756803240
F -1.6581949475 3.3167675320 -1.3357168813
F -2.5557215305 1.8242731184 -0.0310855609
F 0.6307216341 1.9222395702 -1.5393589312
F 0.0751420982 2.4356161547 0.5332975291
F -0.8873300204 -0.1299609522 0.9025590507
F -0.3165929873 -0.6382397814 -1.1634954524
C 3.0626155380 -1.8059963541 1.2367925327
O 3.3064110179 -3.1718493419 1.5932993432
H 0.9395862753 -1.8439462754 1.5827966152
H 1.4187984831 -2.2435223146 -0.0763330455
H 2.1029894553 0.1489359657 -0.4531332536
H 1.6400978736 0.5470504230 1.2074444270
H 3.2937571035 -1.1372244453 2.0792769579
H 3.7614314218 -1.5774027349 0.4248992253
H 2.7727812568 -3.3700074437 2.3731418435
