48
CONF373
C -2.6641192410 2.1709523037 -0.8926869674
C -1.2193641476 2.3586454754 -1.3466179299
C -0.2102490116 1.9433740511 -0.2751335937
C 1.2345630743 2.2201542810 -0.7003173592
O 1.5477803767 2.9302475559 -1.6310509305
O 2.0975012948 1.6416978724 0.1493187118
C 3.5205035316 1.7781658502 -0.1550160418
C 3.9585910231 0.7002390865 -1.1281874784
C 3.8130254922 -0.7149104403 -0.5518776929
C 4.0678032941 -1.7707182579 -1.5806034299
C 4.9922833136 -2.7256363928 -1.4885789074
N -0.3812496738 0.5534444888 0.1790696423
C -0.4658673669 0.3443645481 1.6455209238
C -1.6947401456 0.9202680953 2.2401540912
C -1.9192329231 2.0141774044 3.0198548642
C -3.3285689188 2.0705666209 3.2534471596
C -3.8673748952 1.0085345236 2.5991156666
O -2.8843996109 0.2891405943 1.9772666471
C -0.0567535133 -0.4092468308 -0.7180794969
O 0.4813622083 -0.1913797413 -1.7966766901
N -0.4151126410 -1.7509475401 -0.3698792910
C 0.3150352669 -2.8688789121 -0.7429686069
C -0.4428853364 -3.9403371003 -0.3694430975
N -1.6369790270 -3.5200583900 0.1952019232
C -1.5931205852 -2.2084793081 0.1815203778
H -3.3514465289 2.5417800144 -1.6582260385
H -2.8932363243 1.1157812195 -0.7163864262
H -2.8616721920 2.7174720357 0.0364858467
H -1.0275234315 1.7993012237 -2.2667448651
H -1.0278991441 3.4125103625 -1.5696758019
H -0.3842853536 2.5680878773 0.6116443348
H 4.0129977170 1.6684167826 0.8143010416
H 3.7039356909 2.7799931568 -0.5502469344
H 3.3772326236 0.7918938467 -2.0532462837
H 5.0074391928 0.8888056251 -1.3881897484
H 2.7884515317 -0.8280441522 -0.1712826512
H 4.4914599521 -0.8445160807 0.2997686699
H 3.4341937249 -1.7259922551 -2.4685423206
H 5.1250066469 -3.4641627478 -2.2737429244
H 5.6441613144 -2.7970260155 -0.6204329064
H -0.3836020825 -0.7231973050 1.8583501951
H 0.3959530539 0.8388668555 2.1077426545
H -1.1648224501 2.6988079235 3.3796643067
H -3.8678942498 2.8062042932 3.8315596078
H -4.8719566251 0.6323555839 2.4821075251
H 1.2823105941 -2.7813665942 -1.2124350793
H -0.2015516538 -4.9890864548 -0.4715714174
H -2.3701611051 -1.5341014913 0.5149139191
