48
CONF10
C -2.9043516413 -2.3697002963 -1.3727923536
C -2.9455952667 -0.9512291281 -0.8060793157
C -2.9832326711 0.1256981242 -1.9276335171
C -3.9860794396 1.1506942441 -1.4111108498
N -4.9878775582 0.2902836946 -0.7717468935
C -4.2376658674 -0.6618213619 0.0361715431
N -3.7484540019 -0.1350856425 1.3423500324
C -2.3716034495 -0.2720502343 1.4093766744
C -1.8371227362 -0.7009681662 0.1855831307
C -0.4740182022 -0.8648726598 0.0268781029
C 0.3495745482 -0.6055926737 1.1216664798
C -0.1619147915 -0.2080655766 2.3469321187
C -1.5399147692 -0.0426072835 2.5086315472
O 1.7329325886 -0.8346210555 1.0117848151
C 2.4654297644 0.1438143936 0.3823404187
O 1.9965018631 1.1855156731 -0.0336015772
N 3.7628254138 -0.2640207197 0.3211243128
C 4.8617051836 0.4132412072 -0.2337870465
C 4.7793265584 1.6816718442 -0.8204532957
C 5.9293903878 2.2680683422 -1.3439084534
C 7.1590077400 1.6178795938 -1.2945973193
C 7.2345493369 0.3554129288 -0.7080251721
C 6.0989973674 -0.2448821917 -0.1813602256
C -4.5336798827 -0.3896642370 2.5445792940
C -6.0575584147 1.0071667936 -0.0914142576
H -3.7866710737 -2.5512697403 -1.9957160147
H -2.0128836324 -2.5053585464 -1.9942912698
H -2.8816118345 -3.1120849300 -0.5689894886
H -1.9930273005 0.5464706145 -2.1194444437
H -3.3563574575 -0.3235192439 -2.8539465774
H -4.4477987271 1.7484671192 -2.2043537509
H -4.8537025774 -1.5541547840 0.2219095184
H -0.0439539952 -1.2007810589 -0.9125508892
H 0.5156631433 -0.0328999507 3.1764810573
H -1.9410027308 0.2632717731 3.4687541280
H 3.9533273188 -1.1726729224 0.7207546449
H 3.8324497785 2.1999108689 -0.8659486643
H 5.8539107098 3.2521046521 -1.7966725944
H 8.0464171231 2.0868148843 -1.7065339251
H 8.1834797198 -0.1695057186 -0.6584582620
H 6.1640080522 -1.2290171937 0.2745386375
H -5.5967677640 -0.3545281916 2.3010663661
H -4.3056641416 -1.3748703916 2.9830809473
H -4.3395103053 0.3793495894 3.2997141243
H -6.5813683452 1.6405727492 -0.8152356832
H -5.6937704641 1.6529898303 0.7273034738
H -6.7797614287 0.2951545632 0.3234971572
H -3.5116992918 1.8444336164 -0.6904424876
