47
CONF116
C -4.7712823679 1.4821251687 0.7995540045
C -3.8342706044 0.3015073952 0.9186061318
C -4.3505404299 -1.1008210087 0.6997745750
C -3.5127875891 -0.4266811682 -0.3889983083
C -2.1624646619 -0.9428837424 -0.6499263471
O -1.4931339918 -1.6548605125 0.0670522359
O -1.7153543277 -0.4836240361 -1.8620552217
C -0.3447027402 -0.8482180338 -2.1730232153
C -0.2350669290 -0.7428035300 -3.6277734785
N -0.1107159648 -0.6558776513 -4.7722660036
C 0.6411389059 0.0618071454 -1.4748988085
C 1.5944150150 -0.4850476178 -0.6191776364
C 2.4841161294 0.3479742946 0.0453261004
C 2.3948542116 1.7260452298 -0.1519659829
C 1.4597907449 2.2820122715 -1.0064986513
C 0.5783194803 1.4408301197 -1.6752613457
F 3.2454927986 2.5288225791 0.5173865460
O 3.3676690686 -0.1863031700 0.9525616902
C 4.7289043779 -0.0317792722 0.7201751945
C 5.5578319668 -0.2284328294 1.8208926015
C 6.9349994081 -0.1316262228 1.6557238033
C 7.4796048945 0.1633179882 0.4062865509
C 6.6334467830 0.3545049470 -0.6826840783
C 5.2511029526 0.2547993336 -0.5371955714
C -5.7588143239 -1.3861741115 0.4173525009
C -6.4405014459 -2.4314870255 0.8871076557
Cl -5.7639224870 -3.6502989769 1.9318979047
Cl -8.1215614990 -2.6953223258 0.5012015876
C -2.7550607408 0.4869599985 1.9604135146
H -5.3224943231 1.6132328494 1.7372600610
H -5.4927942196 1.3726366990 -0.0125914736
H -4.1920726273 2.3929830421 0.6166446771
H -3.8097696557 -1.8633014272 1.2520269107
H -4.0389925101 -0.0564579757 -1.2621487389
H -0.1659694824 -1.8908632786 -1.8867756099
H 1.6524477474 -1.5553468097 -0.4498969967
H 1.4267039673 3.3584396357 -1.1342421645
H -0.1625426416 1.8641636909 -2.3459398810
H 5.1178214457 -0.4524271344 2.7869023863
H 7.5847258483 -0.2830303354 2.5119801403
H 8.5545050097 0.2420555664 0.2831398167
H 7.0463088249 0.5790718200 -1.6612102611
H 4.5956775862 0.3950044626 -1.3903200690
H -6.3060934702 -0.7047094963 -0.2267512797
H -2.1274787388 -0.3986800976 2.0675023008
H -3.2233692344 0.6997153150 2.9270932957
H -2.1181198745 1.3390483595 1.6973690398
