42
CONF6
C -4.4797186116 1.3966657151 3.0685127377
C -3.3798967454 1.1065396701 3.8756860855
C -2.1809695219 0.7018552420 3.3003450828
C -2.0577069239 0.5825535054 1.9114338574
C -3.1630227372 0.8696393105 1.1113578247
C -4.3673313394 1.2741742817 1.6873087192
C -0.7213415637 0.1440642575 1.3465745276
C -0.7199123132 -0.2906839344 -0.1048347525
C -0.7625789354 0.6626832049 -1.1282319539
C -0.7117652737 0.2694532818 -2.4617830825
C -0.6181778825 -1.0820434635 -2.7867273903
C -0.5892641903 -2.0380935115 -1.7734494722
C -0.6379340189 -1.6439552038 -0.4397335278
C 0.3593222732 1.2180074371 1.5118617687
O 0.1398682673 2.3428842648 1.9024620164
C 1.7843083292 0.8338421945 1.0957631898
C 2.1587467701 1.4305032886 -0.2811153070
O 2.0446493494 2.5941350449 -0.6023684119
C 2.7005754473 0.3305307655 -1.1046689075
C 3.1827787095 0.3883653173 -2.4077379995
C 3.6578308617 -0.7909550949 -2.9733557665
C 3.6509425629 -1.9938708243 -2.2524896118
C 3.1685588445 -2.0477331361 -0.9484221485
C 2.6927728464 -0.8687098323 -0.3859395419
C 2.1307325262 -0.6503502401 0.9615705072
O 2.0001287214 -1.4862602788 1.8370773595
H -5.4180393608 1.7097662664 3.5156856003
H -3.4581499739 1.1923521679 4.9552043527
H -1.3275565338 0.4728509870 3.9336163887
H -3.0942799604 0.7698493065 0.0333956306
H -5.2195575435 1.4900579407 1.0501094590
H -0.3697029332 -0.7082945593 1.9435066779
H -0.8326095236 1.7188278813 -0.8806653937
H -0.7373958939 1.0190474294 -3.2464068964
H -0.5677675853 -1.3895980143 -3.8264934992
H -0.5176781102 -3.0925341249 -2.0213402897
H -0.5970478837 -2.3887109469 0.3502419733
H 2.4481271400 1.2875274284 1.8437619482
H 3.1843592854 1.3218973223 -2.9605833115
H 4.0405970797 -0.7839589172 -3.9886969726
H 4.0280952341 -2.8954613162 -2.7241257831
H 3.1570124236 -2.9768604146 -0.3882536717
