34
CONF70
C -4.4033858973 -0.1924663382 1.4595765810
C -3.5243606690 -1.3066749089 0.9432221104
O -2.1050602783 -0.9178104970 0.9236926439
P -1.5309718801 0.1085003174 -0.1448246217
S -2.1821483330 0.0467730821 -1.9662902112
O -1.6025701954 1.4869837122 0.6492973473
C -1.1968188868 2.7516614301 0.0119091295
C -2.4169603364 3.6155579585 -0.1927403244
O 0.0765481307 -0.3095724873 -0.1680016520
N 0.6965706680 -0.2043857629 1.0865336937
C 1.9416901410 -0.5557088897 1.0336480825
C 2.5810013301 -0.3900182538 2.3105428311
N 3.1238064626 -0.2721274352 3.3250592579
C 2.7695253985 -1.0523993400 -0.0782487151
C 4.1293424303 -0.7072602394 -0.0977271533
C 4.9493406783 -1.1548803656 -1.1246098678
C 4.4290705123 -1.9726776771 -2.1249518634
C 3.0851207293 -2.3401581802 -2.0949558009
C 2.2505715929 -1.8815463837 -1.0842177318
H -4.4077685168 0.6628771187 0.7771828046
H -5.4287566237 -0.5663946682 1.5433279619
H -4.0724119648 0.1405201782 2.4470224516
H -3.5390218703 -2.1755904396 1.6032824570
H -3.8040562300 -1.6171898215 -0.0682921235
H -0.6874103822 2.5378611486 -0.9330092505
H -0.4832371828 3.2012553235 0.7065975480
H -3.1152047787 3.1408924368 -0.8875611956
H -2.1087392221 4.5787908202 -0.6113294570
H -2.9259395510 3.7970466255 0.7579178371
H 4.5401755957 -0.0765453588 0.6845765920
H 5.9961264771 -0.8703897606 -1.1390218893
H 5.0716747662 -2.3301449793 -2.9230717116
H 2.6818385623 -2.9906815138 -2.8639989852
H 1.2124191279 -2.1840961630 -1.0646251685
