94
CONF279
C 9.4978960292 -1.2557710405 -3.0029593748
C 8.4259181597 -1.3293484041 -1.9327051387
C 7.5960907452 -2.6157117438 -2.0140244162
C 6.5350097436 -2.6704647795 -0.9639342443
C 5.2474169219 -2.3463736494 -1.1929200085
C 4.2307687555 -2.2804779496 -0.1817593435
C 2.9759616613 -1.8094080592 -0.4079114846
C 1.9669958507 -1.7050467892 0.5997181382
C 0.7419309044 -1.1534999461 0.3956682148
C -0.2712191411 -1.0616505927 1.4093709530
C -1.4589068537 -0.4525602304 1.2311233403
C -2.4977112256 -0.3546040643 2.2977078519
C -2.7531138725 1.0643807846 2.8066269091
C -3.0144624854 2.0836793207 1.7037533038
C -3.8783908606 3.2711357642 2.1810473937
C -4.0004059071 4.2984877418 1.0387197528
C -2.6128063489 4.7023878150 0.5737624031
C -1.7771825534 3.4856780482 0.1791268109
O -1.7351731053 2.5620643489 1.2788895702
C -0.3191433566 3.8599706739 -0.0898782100
C 0.5825647918 2.6815347066 -0.4571936170
C 2.0338851249 3.1373552187 -0.6011225086
C 2.9335296664 2.0550653029 -1.1286467211
C 4.1941727718 2.4098127076 -1.8141263594
O 3.0344929463 1.9442820899 -2.5582097707
C 5.3328241029 1.4906263259 -1.8099778946
C 6.6061984138 1.8919790759 -1.6944173894
C 7.7413575247 0.9584149879 -1.6009371115
O 8.8122587522 1.2547112482 -1.0934583199
O 7.4595833413 -0.2461401442 -2.1251569590
O 0.1218772941 2.0199086712 -1.6618996102
O -2.3915707912 2.8964496384 -0.9526336648
O -4.6670370774 5.4892632369 1.4788011884
C -5.2462192141 2.7725903986 2.5662831400
O -5.9829673343 2.1535949297 1.8223583647
O -5.5792585153 3.0888246354 3.8333672851
O -3.7964247562 -0.8126791143 1.8197442490
C -3.8450892255 -2.1401502505 1.3887780502
C -5.2572409952 -2.6687700935 1.6511947103
C -5.3925098358 -4.0711751052 1.0514846753
C -4.9503979821 -4.0758274054 -0.4139557256
C -3.5414945770 -3.4991499817 -0.5430218061
O -3.5425454132 -2.1638064071 -0.0062068155
C -3.0645411424 -3.4050405708 -1.9765790036
O -4.9401316888 -5.4145315733 -0.9161066133
N -6.7318246836 -4.6616490530 1.1444992224
O -6.2464730210 -1.8260863703 1.0581324943
H 10.0444790413 -0.3120621449 -2.9403069050
H 9.0478647673 -1.3447294667 -3.9967147336
H 10.2065716866 -2.0782263182 -2.8667901824
H 8.8607825150 -1.2140903254 -0.9341335276
H 8.2948283412 -3.4542024812 -1.9088149122
H 7.1500819708 -2.6720206565 -3.0140299547
H 6.8490123356 -2.9173424964 0.0507599027
H 4.9483457913 -2.0796300630 -2.2079699816
H 4.5026257968 -2.5980602710 0.8255437048
H 2.7159637125 -1.4724865747 -1.4128418609
H 2.2119110649 -2.0863087608 1.5919906207
H 0.5010684564 -0.7507482718 -0.5890367706
H -0.0475798236 -1.5138036844 2.3769083310
H -1.6954962495 0.0056530536 0.2730515894
H -2.2057124354 -0.9828000806 3.1519705734
H -3.6112818027 1.0113489350 3.4866836449
H -1.8927550478 1.3971840836 3.3965385633
H -3.5314020829 1.6076083148 0.8594832068
H -3.3978408813 3.7510115503 3.0409672908
H -4.5578230117 3.8390393699 0.2116862745
H -2.1038977645 5.2279608417 1.3897290196
H -2.6911925238 5.3810659495 -0.2806465391
H -0.2981263843 4.5996959235 -0.8997266280
H 0.0831935418 4.3409273186 0.8084075753
H 0.5174917317 1.9072328726 0.3151264711
H 2.3972343778 3.4545136768 0.3842690649
H 2.0919012142 4.0063559077 -1.2694857624
H 2.8915142106 1.0910561592 -0.6161513217
H 4.4131564741 3.4706318525 -1.9394730223
H 5.0927708293 0.4319805020 -1.8823522376
H 6.8599805640 2.9423690257 -1.5795820142
H 0.3389742994 2.5890784556 -2.4149387365
H -1.7087477753 2.3424656142 -1.3775558479
H -5.6200564241 5.3381867644 1.4425962400
H -6.4704526959 2.7389613409 4.0110074809
H -3.1112180424 -2.7640161523 1.9335197339
H -5.4026094547 -2.7232120147 2.7421360291
H -4.6979777592 -4.7243411894 1.5993620856
H -5.6375224229 -3.4504735503 -1.0082268566
H -2.8508410275 -4.1279616720 0.0467450153
H -2.0620803275 -2.9688986713 -2.0129037885
H -3.0296131679 -4.3993916074 -2.4277576209
H -3.7454398132 -2.7775043681 -2.5610961421
H -5.7354730632 -5.8277427106 -0.5434422901
H -6.9502699440 -4.8712899189 2.1132147282
H -7.4164585066 -3.9758233652 0.8382426669
H -6.1243760146 -0.9394360231 1.4236217536
