35
CONF131
C -1.3065498102 1.2896104248 1.2744273527
C -1.0155845340 2.6718616168 0.7326964417
C -1.9607543106 3.0908426185 -0.3670366771
Br -1.6290641220 1.9911955650 -1.9992806782
Br -1.2621847155 4.0204256712 2.1907635704
O -0.4283879039 0.9280120245 2.3673932594
P 0.9746197997 0.2031157149 2.1344683117
O 1.5814201067 -0.2335667816 3.4099379342
O 1.7564568924 1.2887767445 1.2591173209
C 3.0679511861 1.0042197031 0.7126334524
C 3.0887586644 1.3378482004 -0.7604269212
C 2.1089572253 0.5797694635 -1.6230978560
Br 2.6997853115 -1.3146228578 -1.7837122042
Br 2.6392526319 3.2781582161 -1.0015546037
O 0.7507398697 -0.9521762499 1.0413226738
C 0.5438120119 -2.3287428298 1.4183226567
C -0.9296757635 -2.6682253769 1.4533501289
C -1.2130669816 -4.1059291392 1.8135896628
Br -0.7538775740 -4.4199750763 3.7271327142
Br -1.6991305465 -2.4087594448 -0.3803041542
H -1.2060517359 0.5625968954 0.4595091362
H -2.3215139192 1.2350038301 1.6760066381
H 0.0270076349 2.7868225932 0.4362271819
H -3.0076877873 2.9316840256 -0.1090448247
H -1.7846122706 4.1164251069 -0.6825250898
H 3.3181366835 -0.0577163607 0.8286322851
H 3.7977162577 1.6055733043 1.2585000198
H 4.1099630408 1.2528861170 -1.1355498715
H 1.1063259117 0.5501262390 -1.1978373561
H 2.0901704626 0.9532120514 -2.6441588226
H 1.0674782471 -2.9341483677 0.6737486227
H 0.9764633450 -2.5128828741 2.4081946346
H -1.4929131561 -1.9746913622 2.0807816516
H -0.6095174712 -4.8094673068 1.2401155247
H -2.2713097122 -4.3433255068 1.7362481127
