41
CONF4
C 3.4981807522 1.0394918146 1.1434898942
C 2.9651444164 1.2807376072 -0.2271504604
N 2.0142939479 0.4329841974 -0.6627319122
C 1.5482341534 0.6804688337 -1.8872443328
N 1.9602955028 1.6685544887 -2.6958694461
C 2.9115979064 2.4295247870 -2.1619322252
N 3.4509876497 2.2966781735 -0.9363336249
O 3.4162668131 3.4399036680 -2.8611995303
C 2.8977176617 3.6615383560 -4.1968736338
N 0.5517229766 -0.1162520022 -2.4091877545
C -0.1547658220 -1.1867487757 -1.8511861231
O -1.0861254497 -1.6882259851 -2.4598155666
N 0.2938097786 -1.6094604582 -0.6191472696
S -0.5941728010 -2.7102737942 0.3263245307
O 0.1160822374 -2.7188631708 1.6113445999
O -0.7581526095 -3.9512603815 -0.4315398974
C -2.2170370965 -1.9748480489 0.5647996448
C -3.2766620403 -2.5056085442 -0.1610424357
C -4.5650522094 -2.0340086878 0.0720902359
C -4.7847251414 -1.0605856591 1.0402198755
C -3.7198578053 -0.5467340726 1.7746902417
C -2.4175994233 -0.9862746587 1.5367100099
C -1.2961972505 -0.3128049826 2.2630258138
O -0.3827234681 0.2652097149 1.7103646832
O -1.4718142382 -0.3729397945 3.5860539518
C -0.4611714187 0.3086345558 4.3785961314
H 2.6694394358 0.9723722446 1.8548485391
H 4.1862938363 1.8308506740 1.4383741114
H 4.0181813569 0.0754515120 1.1648661378
H 3.0771804154 2.7845662389 -4.8226042057
H 3.4526411843 4.5209958663 -4.5701248750
H 1.8285020529 3.8805539254 -4.1557783668
H 0.2249504909 0.1443221547 -3.3312066803
H 0.9612276885 -0.9904219041 -0.1271939355
H -3.0929137390 -3.2845154722 -0.8907444871
H -5.3942220565 -2.4395743133 -0.4972891768
H -5.7897020660 -0.6995124204 1.2313391556
H -3.8912618368 0.2134910949 2.5291893112
H -0.4497330290 1.3724343840 4.1316861445
H 0.5191298346 -0.1320003193 4.1838980726
H -0.7579910986 0.1527894556 5.4142849604
