82
CONF3
C -5.8670745758 -1.3688393855 -1.6875724564
C -4.6716546859 -0.7125896235 -2.3217690385
C -4.1395655856 -1.1802130503 -3.4574641983
C -4.0701890455 0.4777652122 -1.6196607254
C -5.0549109644 1.5502595436 -1.1207710547
C -4.2333811494 2.3061298620 -0.0755281035
C -3.5055836904 1.1964439596 0.7171022099
C -3.2596877083 0.0745428818 -0.3476092343
C -1.7700359716 -0.2059290537 -0.6247799443
C -1.0605647906 0.9478168846 -1.3838368075
C 0.3260792439 1.2850586506 -0.8417116647
C 1.1490260554 0.0098161678 -0.6680183618
C 2.6992340899 0.3183107285 -0.5122011370
C 2.9880843798 1.5770305503 0.3371529571
C 4.4869648813 1.8471213675 0.5082038542
C 5.2539516383 0.6751614731 1.1197619418
C 4.9938790969 -0.6519690418 0.3737931772
C 3.4609333747 -0.8895103380 0.1184001723
C 2.7717021635 -1.4127322868 1.4142612408
C 1.3305173638 -0.9613195557 1.6433838892
C 0.4886038517 -0.9648500723 0.3669702565
C -1.0344967962 -0.5976529906 0.6872734128
C -1.2072679597 0.5545028276 1.7397721247
C -2.1954958910 1.6732197614 1.3559408636
C -1.7131769480 -1.8533150793 1.2806780780
C 0.5582661402 -2.3828371341 -0.2460512726
C 5.8105257370 -0.6107259851 -0.9385631124
C 5.5933222274 -1.8341170732 1.1613471969
O 4.9100636746 0.5272689290 2.5160368026
C 3.1541458029 0.5838329894 -1.9681774850
C -4.4481763661 0.6352563388 1.8013448019
O -4.8159509696 1.5847881268 2.8123512758
H -6.7556642851 -0.7342578372 -1.7878012014
H -5.7156648174 -1.5264295717 -0.6132522668
H -6.0833812267 -2.3321836265 -2.1559008640
H -3.2862150421 -0.6900172780 -3.9198947887
H -4.5391554640 -2.0621706857 -3.9514102115
H -3.3877920949 0.9655500589 -2.3238286380
H -5.4166507629 2.1901173795 -1.9324896334
H -5.9300721216 1.0887345725 -0.6507046154
H -3.4928902411 2.9396886776 -0.5789986245
H -4.8367601839 2.9691798346 0.5553252581
H -3.6944895999 -0.8579535146 0.0318188482
H -1.7446433876 -1.0913536184 -1.2736859111
H -0.9496952589 0.6603687606 -2.4376363252
H -1.6764097708 1.8523725389 -1.3862049761
H 0.2550900442 1.8288899431 0.1041336300
H 0.8148933954 1.9689158757 -1.5439506223
H 1.0779868532 -0.5101916701 -1.6351752758
H 2.5322550258 1.4833881404 1.3282806964
H 2.5325231144 2.4554901596 -0.1325636794
H 4.9444208629 2.1053777211 -0.4526182788
H 4.6308016744 2.7280115646 1.1481388960
H 6.3356913323 0.8826067771 1.0521637211
H 3.4201540114 -1.6965420869 -0.6263298188
H 2.8138530145 -2.5076571033 1.4019225364
H 3.3426269172 -1.0940138513 2.2848354266
H 1.3414474437 0.0407550114 2.0769494873
H 0.8778944795 -1.6120404397 2.4024048286
H -1.5206624638 0.1082733904 2.6915566863
H -0.2540486282 1.0422648880 1.9538574194
H -2.4278269036 2.2591887395 2.2533509881
H -1.7046524505 2.3661230915 0.6670510964
H -1.1022807350 -2.2792422261 2.0823297423
H -1.8802180081 -2.6286331395 0.5273521671
H -2.6811767656 -1.6104086973 1.7202393679
H -0.1452573070 -2.4929866231 -1.0779521832
H 0.3469715551 -3.1644405725 0.4891155933
H 1.5567021062 -2.5708089026 -0.6467024876
H 5.6967556735 0.3144148317 -1.5002533602
H 5.5189433965 -1.4401268196 -1.5909965747
H 6.8753874270 -0.7220694750 -0.7075904307
H 5.4743068813 -2.7578882018 0.5823651987
H 5.1429425198 -1.9838402668 2.1415877627
H 6.6659687784 -1.6672511394 1.3106487754
H 5.0749106817 1.3805677548 2.9362003251
H 2.3888010006 1.1581897988 -2.4987919038
H 3.2940689380 -0.3588065868 -2.5080036287
H 4.0768938150 1.1564400967 -2.0443975227
H -5.3490102125 0.2126690932 1.3325679974
H -3.9482084358 -0.1747449137 2.3402943874
H -5.4375531870 2.2107548380 2.4225841264
