70
CONF206
C -2.5046440029 0.2615966627 0.4444555592
C -3.7725185985 1.1373686846 0.5797196604
C -4.9594888819 0.2611601701 0.8154347100
C -6.3072015693 0.3713717469 0.5716631632
N -6.9451431146 -0.7897223716 0.9976997666
C -6.0145602056 -1.6654223895 1.5086740798
C -6.0925110464 -2.9528722240 2.0463377049
C -4.8920925217 -3.5344201985 2.4475279430
C -3.6443157458 -2.8796456091 2.3300046225
C -3.5664483286 -1.5942843207 1.8045374969
C -4.7681027532 -1.0154893034 1.4011814641
C -2.3331963639 -0.7294588025 1.6357350424
C -1.0607913673 -1.5619599160 1.4749741818
C 0.1521022099 -0.6583804549 1.2989065633
C -0.0978287871 0.2852260269 0.1176832149
N -1.2917210968 1.1003289663 0.3663317405
C -1.3556928391 2.2089005228 -0.6113398372
C -1.5320817845 1.7960186327 -2.0476757594
C -0.6515360097 2.0681382019 -3.0090874477
C 1.4227693642 -1.4755607670 1.0890986237
O 1.3878890803 -2.7003072080 0.9620440223
N 2.6204610888 -0.8038476008 0.9752094450
C 3.8356019456 -1.6134851796 0.7119743237
C 3.9742236492 -2.1665928804 -0.7113246461
C 4.5851342423 -1.2221930299 -1.7440092049
N 3.7986911586 -0.0075287909 -2.0116985890
C 2.5095208413 -0.3094213037 -2.6400551837
C 4.5648265041 0.9165463309 -2.8559603040
C 2.7826773007 0.5823787264 1.3652931472
O 2.3279732420 1.0106144505 2.4269045258
N 3.4975647292 1.2848588440 0.4797343182
C 3.7806376308 2.7010740654 0.6819424229
C 2.6368957608 3.5929515343 0.2033894419
H -2.6172242690 -0.3576956398 -0.4694894969
H -3.6228586013 1.8360447316 1.4161694121
H -3.9203529947 1.7403894551 -0.3205337704
H -6.8825198476 1.1728004291 0.1287071062
H -7.9348448087 -0.9600499567 0.9219799289
H -7.0347536811 -3.4822653620 2.1458229285
H -4.9133587012 -4.5362685984 2.8664384693
H -2.7527892475 -3.4026279109 2.6607832908
H -2.2280778332 -0.1077222926 2.5401148031
H -0.9191152244 -2.2083082183 2.3462396118
H -1.1665112698 -2.2155655342 0.6000898076
H 0.2820715907 -0.0447899361 2.1953338134
H 0.7484069360 0.9650188370 -0.0302395253
H -0.1942778041 -0.3194673008 -0.8051776105
H -2.1656503016 2.8849612888 -0.3165622341
H -0.4222915754 2.7762922290 -0.5151646463
H -2.4386799190 1.2431606237 -2.2946575723
H 0.2631737147 2.6170408774 -2.7915045536
H -0.8128456409 1.7604710904 -4.0385344189
H 3.8132588423 -2.4527377742 1.4143215190
H 4.6996360061 -0.9913203382 0.9620276578
H 4.6478878146 -3.0298133347 -0.6489916170
H 3.0128916978 -2.5637621171 -1.0484016171
H 4.7536912606 -1.7834862727 -2.6828057865
H 5.5698510144 -0.8971977815 -1.3831726623
H 1.9548651188 0.6214282466 -2.7948444139
H 1.9091681893 -0.9546938722 -1.9941893657
H 2.6347139871 -0.8100930299 -3.6168064249
H 3.9844492527 1.8312816012 -3.0159421491
H 5.5029092254 1.1804214449 -2.3566488703
H 4.8033048363 0.4776058461 -3.8408494234
H 3.6332503719 0.8558291662 -0.4671161445
H 3.9749657922 2.8693640916 1.7459659878
H 4.6987896593 2.9348329477 0.1325346549
H 2.4339519492 3.4226127034 -0.8591143974
H 2.8946225257 4.6477132119 0.3413324291
H 1.7231966744 3.3826549306 0.7675797609
