34
CONF132
C -3.9165953695 -1.4927475247 0.1962436156
C -2.4124819372 -1.4352278483 0.2926555253
O -1.9861262464 -0.0247539431 0.3634836008
P -1.2181218429 0.6841174359 -0.8331542792
S -1.7304153726 0.2567972541 -2.6522855917
O -1.1892401694 2.2094755437 -0.3898728858
C -2.1490394607 3.1944534786 -0.9174575179
C -3.5203522522 3.0055955042 -0.3143112729
O 0.3243602953 0.2243748654 -0.3999311579
N 1.3016091055 0.7565944117 -1.2401923747
C 2.4857642430 0.3356737742 -0.9276998557
C 3.4891981381 0.9369119897 -1.7622613350
N 4.3214133140 1.3939757069 -2.4227342274
C 2.9406464356 -0.6030058993 0.1116636376
C 2.1898770764 -1.7312116752 0.4753240968
C 2.6769125828 -2.5967284254 1.4459324594
C 3.8979571320 -2.3457641377 2.0696352195
C 4.6489985138 -1.2304926919 1.7060422019
C 4.1818526013 -0.3692752004 0.7221152291
H -4.2348964191 -2.5399284420 0.2040948035
H -4.3789765162 -0.9831077703 1.0460614815
H -4.2636067619 -1.0292813097 -0.7313934117
H -2.0388956231 -1.8866859053 1.2146199931
H -1.9294850152 -1.9167150310 -0.5628090688
H -2.1614186440 3.1057990389 -2.0078743790
H -1.7081920192 4.1528661830 -0.6383325433
H -3.9600013400 2.0501281165 -0.6167683659
H -4.1737267516 3.8087561897 -0.6693478323
H -3.4763318536 3.0497140486 0.7773214835
H 1.2471757215 -1.9440557813 -0.0111328903
H 2.0985058574 -3.4742721967 1.7154878710
H 4.2669946727 -3.0236917503 2.8324530810
H 5.6030201295 -1.0334407962 2.1834612905
H 4.7736175906 0.4951534969 0.4368749956
