71
CONF390
C 5.2976406234 -1.3338198621 3.7693857149
C 6.0440244977 -2.2137084688 2.8089295236
C 5.8400279901 -2.1291788658 1.4224877364
C 6.4899450569 -2.9912075861 0.5230286902
C 7.3743387630 -3.9404905811 1.0363291519
C 7.6098809057 -4.0255891359 2.4053954203
C 6.9482846046 -3.1706165325 3.2796407627
C 6.2383041633 -2.8836837410 -0.9545962754
N 4.9288121834 -1.1781068382 0.8921091031
C 5.0802156239 0.1663312098 0.9502002320
O 6.0103399168 0.7436627449 1.5157953711
C 4.0123568972 0.9533380227 0.1945049463
N 2.8373375593 0.1657793482 -0.1509516609
C 2.1333041748 0.6876837000 -1.3282624654
C 0.9686669361 -0.2245482860 -1.6787767140
N 0.0307578643 -0.3238857570 -0.5571224059
C 0.7364000774 -0.8358634039 0.6209014880
C 1.9004968326 0.0733626472 0.9771663069
C -1.1111636040 -1.1693663583 -0.9183920408
C -2.2468193396 -1.1408775444 0.1071576097
C -2.6705154617 0.2605202202 0.5526948668
C -3.0763630925 1.1824377701 -0.6079803909
C -4.2708217915 0.6325966711 -1.3709967522
C -5.5038634213 0.4595196949 -0.7336166241
C -6.6032511785 -0.0505940877 -1.4160125585
C -6.4478773930 -0.3810904555 -2.7527783572
C -5.2514501231 -0.2207536600 -3.4267964695
C -4.1632840281 0.2906961346 -2.7201041101
F -7.5185959194 -0.8808683741 -3.4286257328
C -3.3455028351 2.6174575767 -0.1809275687
C -3.2087677174 3.6374794919 -1.1299039032
C -3.4805321906 4.9648325942 -0.8163931150
C -3.8957468600 5.2571897203 0.4723979477
C -4.0421244624 4.2862624135 1.4453019904
C -3.7635308917 2.9620929462 1.1066037594
F -4.1652345378 6.5523997614 0.7930533317
H 5.3572942328 -1.7384892492 4.7822007665
H 5.7093756128 -0.3193925074 3.7750956279
H 4.2437235620 -1.2472916557 3.4852437536
H 7.8868565922 -4.6106251443 0.3520197165
H 7.1176736621 -3.2512530175 4.3497400194
H 5.1987968017 -3.1288891210 -1.2027689563
H 6.8874966490 -3.5676393813 -1.5050631345
H 6.4184459640 -1.8640327087 -1.3123268888
H 3.7790484991 1.8513512385 0.7929253825
H 4.4972408887 1.3041332526 -0.7260540499
H 1.7555944424 1.7122252534 -1.1474473419
H 2.8322152181 0.7255383646 -2.1712443082
H 1.3649937748 -1.2207131623 -1.9624142312
H 0.4386104052 0.1851902942 -2.5468685236
H 0.0484208626 -0.8743483755 1.4716947597
H 1.1149188047 -1.8636614551 0.4448586910
H 2.4266675495 -0.3331485718 1.8487815196
H 1.5160695795 1.0750882326 1.2488338133
H -0.7968070539 -2.2205916818 -1.0756744703
H -1.4863563617 -0.8113416427 -1.8850332871
H -3.1026301373 -1.6623259272 -0.3402556922
H -1.9719133345 -1.7202286008 0.9960309554
H -3.5047992527 0.1584072187 1.2561104987
H -1.8488283823 0.7388326855 1.0981664598
H -2.2365325565 1.2210314458 -1.3107782086
H -5.6143403927 0.7310443282 0.3123749260
H -7.5622320978 -0.1882307504 -0.9280566744
H -5.1734255378 -0.4886089041 -4.4750228382
H -3.2160271265 0.4256769173 -3.2344546832
H -2.8838057811 3.3874393323 -2.1365000241
H -3.3714628986 5.7572253644 -1.5490893083
H -4.3644632297 4.5585047482 2.4446697306
H -3.8761247908 2.2005718668 1.8701892593
H 8.3040001137 -4.7656117772 2.7917218746
H 4.1732269651 -1.4868681190 0.2847881481
