37
CONF4
C -2.0326223333 -3.0077291414 1.2284411280
N -1.5946091462 -2.2877989181 0.0412436696
C -1.5859362610 -0.9456867368 -0.0039636851
O -1.8951041599 -0.2255755850 0.9520352563
C -1.1731547087 -0.3234222639 -1.3164053549
N -1.4984004288 -0.9880149633 -2.3699106428
O -1.1065197687 -0.3828758650 -3.5505432500
C -1.5133857718 -1.2040463073 -4.6626093112
C -0.5041899100 0.9886996121 -1.2634703070
C -0.9607527103 2.0964918992 -1.9862258231
C -0.3286998394 3.3272238101 -1.8642985175
C 0.7832963110 3.4594695233 -1.0319531802
C 1.2621978578 2.3685557518 -0.3156608057
C 0.6100678221 1.1449740733 -0.4312369609
O 1.0894532730 -0.0010263958 0.1696499736
C 1.5159628171 0.0360107389 1.4872395024
C 2.5159500710 -0.8684483626 1.8330409281
C 2.9436429925 -0.9344012096 3.1557182188
C 2.3820853180 -0.1010216988 4.1214384803
C 1.3796454183 0.7961364780 3.7568965779
C 0.9342456048 0.8689072397 2.4398396741
H -3.0958633747 -2.8339659376 1.4292811399
H -1.8688250847 -4.0739616501 1.0672688012
H -1.4594820623 -2.6851258481 2.1034966900
H -1.3466534423 -2.8018389868 -0.7901163708
H -2.6037174849 -1.2923267842 -4.6951735173
H -1.0533665991 -2.1948664258 -4.5963398415
H -1.1525130361 -0.6803587882 -5.5492234912
H -1.8295436732 1.9884963090 -2.6255724635
H -0.6999971246 4.1827105637 -2.4184065884
H 1.2891584527 4.4158966880 -0.9466719804
H 2.1352237287 2.4588992218 0.3217960818
H 2.9440677776 -1.5078914800 1.0680723266
H 3.7239006760 -1.6380317000 3.4285995621
H 2.7211180953 -0.1516618988 5.1508170411
H 0.9293397456 1.4422356120 4.5041240909
H 0.1439806461 1.5553689449 2.1587829435
