37
CONF29
C 5.8251235888 -1.3275677482 1.7567362821
C 4.6770480993 -2.2944735267 1.5380129377
C 5.0981581041 -3.5926820423 0.8835609478
O 3.7089768945 -1.6818497811 0.6054076139
C 2.8461337981 -0.7985745244 1.1096250158
O 2.7398846267 -0.5173029727 2.2886223943
C 1.9436567997 -0.2195257117 0.0685670741
C 2.3255439818 0.1848884823 -1.2177510645
C 1.3993570367 0.7220007391 -2.1036673254
C 0.0832453670 0.8337054285 -1.6964869654
C -0.3573597038 0.4428931596 -0.4325758482
C 0.6059718501 -0.0636819624 0.4374171380
C -1.7507355509 0.5841083153 -0.0077314239
N -2.0413688572 1.1683329960 1.1657430017
N -3.3691005549 1.1144325825 1.3036341903
C -3.9606910769 0.5065599852 0.2398463816
C -2.9356159067 0.1490016370 -0.6252423651
Br -3.1064707530 -0.8406080694 -2.2125308821
C -5.4209128710 0.2547572435 0.0731309052
F -5.7014276802 -1.0721203156 0.0975115771
F -5.8640868330 0.7222449883 -1.1175599384
F -6.1633573593 0.8372358435 1.0352418389
C -3.9753586443 1.7013889162 2.4996272046
F -0.7924860614 1.3935205140 -2.5509362867
Cl 3.9886806750 0.1334899203 -1.7566414089
H 6.3279157643 -1.1155396522 0.8080083780
H 5.4747234221 -0.3899090393 2.1951559330
H 6.5500939130 -1.7783428997 2.4411313789
H 4.1462001312 -2.4838038436 2.4757537143
H 5.5889531907 -3.3986242429 -0.0751823250
H 4.2363354188 -4.2444612407 0.7178622601
H 5.8055418603 -4.1113145063 1.5367699099
H 1.6927033667 1.0735417851 -3.0855148174
H 0.3057154378 -0.3696186744 1.4334885938
H -3.1539142557 2.0490902559 3.1248137985
H -4.5570584451 0.9484977116 3.0347783488
H -4.6163079535 2.5418968038 2.2259841523
