56
CONF56
C -0.8214256878 4.1807964907 3.1983804562
C 0.0150016813 3.1286374409 2.5086380904
O -0.5411782626 1.8431495955 2.8556923189
C 0.0889898873 0.7309330507 2.3781513656
C 1.1314538061 0.7469127953 1.4497140787
C 1.6952227030 -0.4565993642 1.0292450337
C 1.2695588733 -1.6951149381 1.5167615132
C 0.2209049402 -1.6817575161 2.4452769221
C -0.3645943887 -0.4960330436 2.8698323560
C 1.8857256661 -2.9957132044 0.9962401718
C 1.6798371027 -4.1679308884 1.9661950589
C 3.3980936078 -2.8386756739 0.7554080429
C 1.2478678528 -3.3321687008 -0.3610219577
O -0.1322515177 -3.6525461405 -0.1807446142
C -0.8534742157 -3.6602878213 -1.4071598250
C -1.1445198225 -2.2722338353 -1.9348261093
C -1.3791497024 -1.2262755337 -1.0416583311
C -1.7004038466 0.0334440917 -1.5291267614
C -1.7967410870 0.2803520335 -2.8975891520
C -1.5482563899 -0.7646478120 -3.7811476498
C -1.2192687979 -2.0337724675 -3.3074619680
O -2.0111876926 1.0048982828 -0.5905601232
C -1.5309669881 2.2885723386 -0.7565431261
C -0.2845459012 2.5549490630 -1.3212206910
C 0.1614869326 3.8720786377 -1.3826784971
C -0.6198301203 4.9128678512 -0.8829136346
C -1.8608443194 4.6280131889 -0.3166132422
C -2.3234433951 3.3172857849 -0.2530397832
H -1.8606202789 4.1271056595 2.8611369758
H -0.4319274490 5.1731650135 2.9525420024
H -0.7927919814 4.0543001840 4.2845209611
H 1.0613571779 3.1676426181 2.8417961388
H -0.0127513506 3.2612437901 1.4203707598
H 1.5058808871 1.6773920424 1.0411257231
H 2.4921845541 -0.4069319106 0.2947816350
H -0.1581077320 -2.6114001981 2.8536313112
H -1.1760169623 -0.5064589395 3.5912175927
H 0.6250356539 -4.4079441325 2.1105725409
H 2.1717098651 -5.0607379323 1.5663927610
H 2.1226585760 -3.9389590740 2.9411651124
H 3.8319552312 -3.8038753373 0.4755876791
H 3.8921068011 -2.4902369067 1.6676161498
H 3.6207720578 -2.1304727699 -0.0475469642
H 1.7659059467 -4.1933394005 -0.8164753363
H 1.3538447797 -2.4677568076 -1.0348323200
H -1.7993117306 -4.1725445496 -1.1918565121
H -0.3219107070 -4.2473381872 -2.1719302281
H -1.2994077661 -1.3849886724 0.0292057552
H -2.0575048033 1.2691486554 -3.2595931147
H -1.6132580331 -0.5851189358 -4.8499072713
H -1.0216759873 -2.8408812441 -4.0072560980
H 0.3302893185 1.7435735721 -1.6951414365
H 1.1345397977 4.0817313558 -1.8161737580
H -0.2625354582 5.9360905125 -0.9317812436
H -2.4767139184 5.4294889201 0.0794143337
H -3.2857670096 3.0789698367 0.1880865980
