35
CONF62
C -5.7071765272 0.8014217197 0.4462029891
C -4.3640463515 0.1402332692 0.1639197979
C -3.9111058552 -0.6377969186 1.3968217985
O -3.1402176261 -0.2285894574 2.2336197860
O -4.5278346267 -1.8323608088 1.4515654026
O -3.4416355594 1.1844502982 -0.1308329096
C -2.1965483288 0.8476603418 -0.5905947917
C -1.7693147082 -0.4566275817 -0.8488842954
C -0.4760609229 -0.6734442441 -1.3231618408
C 0.3668183345 0.4043206172 -1.5320634366
C -0.0503275350 1.7068398622 -1.2845632050
C -1.3347978297 1.9270811159 -0.8118732170
O 1.6445446825 0.1836888841 -2.0613537762
C 2.6833067837 0.0317639549 -1.1943845233
N 3.8506448789 -0.1385548648 -1.8072599960
C 4.9362042904 -0.2982972806 -1.0475960414
C 4.8937096646 -0.2909510388 0.3425058329
C 3.6592394179 -0.1165699922 0.9704205685
C 2.5262844634 0.0515579281 0.1975668918
C 6.1280138653 -0.5087054258 1.1532034197
F 6.2388731531 -1.7977976914 1.5825824644
F 7.2566948804 -0.2344676588 0.4594618164
F 6.1453401768 0.2633197654 2.2692338574
H -6.4579242174 0.0407960673 0.6710788829
H -5.6204290005 1.4844758885 1.2955981853
H -6.0243468817 1.3622136139 -0.4358935444
H -4.4572705849 -0.5473411774 -0.6864264185
H -4.2662746573 -2.2780702197 2.2760939754
H -2.4142507682 -1.3133164715 -0.6935494693
H -0.1273678815 -1.6806778427 -1.5261747319
H 0.6278419857 2.5356729068 -1.4595052277
H -1.6872774972 2.9328397644 -0.6096074133
H 5.8777774229 -0.4339422143 -1.5738210158
H 3.5835457021 -0.1080463936 2.0528562831
H 1.5553676730 0.1933160797 0.6548138011
