44
CONF13
C 3.3605608815 -4.1418987327 0.8845972075
N 2.9510592815 -3.0058514326 0.0591142239
C 1.9807633089 -3.4347954210 -0.9538372317
C 1.5761849699 -2.2622426980 -1.8392602901
N 1.0438948116 -1.1781800490 -1.0114142806
C 1.9712050467 -0.7517999695 0.0406936603
C 2.3657032050 -1.9515371562 0.8944242031
C -0.2642529566 -0.8618130304 -1.0794270723
O -1.0661025372 -1.2797893784 -1.9013233822
O -0.6215344411 0.0162870234 -0.0676652311
C -1.8513345879 0.7057098188 -0.2504046719
N -1.6247069770 2.1573069877 -0.1531587892
C -2.3229599589 2.7578629026 0.8971164397
O -2.3488431644 3.9403744488 1.1841069396
C -3.0466837370 1.6442370880 1.5641982615
N -3.8409829085 1.7351108337 2.6260163313
C -4.3505251536 0.5587467939 3.0121813090
C -4.0625769936 -0.6458892186 2.3542907149
N -3.2610744295 -0.7169061817 1.2805306262
C -2.7723395149 0.4577967367 0.9081849196
C -0.8352770780 2.8044523528 -1.1183481118
N -0.5118757856 2.0469180433 -2.1697722944
C 0.2463383581 2.5703150710 -3.1321851736
C 0.7043135969 3.8801480061 -3.0711896307
Cl 1.6950995681 4.5140438643 -4.3670994068
C 0.3765384744 4.6732806454 -1.9785503233
C -0.4069054174 4.1304218148 -0.9728958852
H 3.8159217003 -4.9111711267 0.2522149119
H 4.1020600365 -3.8146338419 1.6209021089
H 2.5109157354 -4.5979011883 1.4271529491
H 2.4382098006 -4.2127264810 -1.5761196274
H 1.0716973109 -3.8645310750 -0.4857836863
H 2.4523144382 -1.8832845331 -2.3809971030
H 0.8175283649 -2.5668930019 -2.5606509934
H 1.5151288911 0.0232984068 0.6539050244
H 2.8638147442 -0.3362291231 -0.4449249466
H 3.1077125044 -1.6342231584 1.6362441757
H 1.4725406081 -2.3179773273 1.4403809248
H -2.2916210460 0.4301124924 -1.2140114288
H -5.0103029891 0.5588537865 3.8760166496
H -4.4976813923 -1.5753448105 2.7125389344
H 0.4944835391 1.9294088112 -3.9748106097
H 0.7295801250 5.6958507747 -1.9069882844
H -0.6759881271 4.7150819361 -0.1055146637
