52
CONF959
C -0.8948640267 -3.5354882576 3.5790476987
C -0.2093276739 -2.1991311090 3.8627987260
C 1.1352562228 -2.0259406025 3.1486078061
C 1.0297276684 -2.1174321417 1.6254570144
C 2.3005427144 -1.7078256479 0.8652549123
C 2.2345871435 -2.1925301764 -0.5925936738
C 3.4197236824 -1.7769496620 -1.4620079012
C 2.5655300311 -0.2147719664 0.9626442130
O 1.5162541866 0.4977675535 0.2203131795
P 0.7235375853 1.7221569733 0.8443525053
O 0.6395241142 1.7900302288 2.3193064642
O 1.3559500501 3.0726597897 0.2432537727
C 1.6777809529 3.1791443307 -1.1213898254
C 2.9313627087 2.7650675491 -1.5504002728
C 3.2621126658 2.9196584644 -2.8943317572
C 2.3486772169 3.4829023189 -3.7831572771
C 1.0987980228 3.8969334491 -3.3273096457
C 0.7528638035 3.7465030304 -1.9863653601
O -0.6675138845 1.6572398269 0.0300635538
C -1.4369559646 0.4824302564 0.1028678027
C -1.4167236638 -0.3807102378 -0.9833960980
C -2.1820351881 -1.5421876393 -0.9266293025
C -2.9494546729 -1.8246576676 0.2022451972
C -2.9621957544 -0.9366797668 1.2753517587
C -2.2045947233 0.2319841740 1.2318131271
H -0.2295266677 -4.3742147114 3.8155450904
H -1.8030433165 -3.6458708855 4.1803630229
H -1.1837441379 -3.6236890546 2.5266812925
H -0.0511405706 -2.0953154402 4.9434326057
H -0.8757424838 -1.3775566585 3.5664336117
H 1.8424662206 -2.7872152018 3.5069199621
H 1.5524011006 -1.0532019278 3.4366370972
H 0.7832372629 -3.1468293682 1.3390346081
H 0.1932701972 -1.4966934697 1.2750716649
H 3.1705078874 -2.1824462435 1.3466027586
H 1.3005994308 -1.8307498801 -1.0410402773
H 2.1621668578 -3.2865747935 -0.5725572254
H 3.4348755789 -0.6963550830 -1.6393575350
H 4.3707096434 -2.0551779065 -0.9931145343
H 3.3717852871 -2.2677840589 -2.4388756886
H 3.5149137484 0.0612411102 0.4965589349
H 2.5666799647 0.1305133185 1.9996181791
H 4.2385612347 2.5997769067 -3.2437924197
H 2.6118543030 3.6019908486 -4.8290529060
H 0.3861985472 4.3401003413 -4.0155212065
H -0.2142413513 4.0627160111 -1.6113460566
H -0.8016111042 -0.1453181837 -1.8453067160
H -2.1727124761 -2.2298895536 -1.7662235849
H -3.5392876420 -2.7344596339 0.2439662277
H -3.5607996806 -1.1515594592 2.1548029543
H -2.1967441420 0.9334230347 2.0588226401
H 3.6299147858 2.3330303864 -0.8417214622
