37
CONF408
C -0.9590123073 -1.0278764637 -3.2020636371
C -2.2623227094 -0.5132631688 -2.6271866402
O -2.2951412617 -0.6109638081 -1.1723922951
P -1.4531430349 0.4319872272 -0.3100596942
O -1.2624590014 1.7833308447 -0.8820691299
O -2.1660038448 0.2971958925 1.0964319224
C -2.2680957365 1.4567948973 1.9945322350
C -2.1801141339 0.9425600848 3.4091244658
O -0.0474673653 -0.3928565307 -0.1474135092
P 1.2122375479 0.0302376062 0.8068693190
O 0.8598977452 0.9996862513 1.8605466357
O 1.7345534585 -1.3663997597 1.3392686806
C 1.9414620094 -2.4979506547 0.4377834005
C 0.8362445936 -3.5112577287 0.6310211424
O 2.3380937876 0.4409200222 -0.2469241351
C 2.2106747083 1.7232662169 -0.9514557790
C 2.8560397732 2.8348613243 -0.1553587239
H -1.0250222529 -1.0378370127 -4.2948216901
H -0.7577787991 -2.0455375247 -2.8555306908
H -0.1196404898 -0.3872453475 -2.9170852797
H -2.4428351058 0.5286734336 -2.9119215671
H -3.1083276201 -1.1241105014 -2.9510444509
H -3.2306565107 1.9343303196 1.7846190055
H -1.4579772677 2.1545533485 1.7720279367
H -2.9658602339 0.2090408093 3.6098406569
H -1.2021231217 0.4872142963 3.5802483025
H -2.3009167749 1.7798523594 4.1038908704
H 2.9190199808 -2.9058616825 0.7094106713
H 1.9918280381 -2.1426576418 -0.5969878420
H -0.1319019673 -3.0849693023 0.3563511787
H 1.0259110591 -4.3849921437 -0.0011465023
H 0.7938168480 -3.8398430341 1.6726147292
H 2.7210343654 1.5576483585 -1.9040499652
H 1.1516018306 1.9277052814 -1.1481267953
H 2.7963863847 3.7677067228 -0.7255587455
H 2.3393305075 2.9739940325 0.7970697442
H 3.9086677057 2.6120627114 0.0395465570
