43
CONF60
C 0.5769070156 -1.8068498961 -4.1591852772
C 1.5955148304 -2.0250209964 -3.0608114840
O 1.3362627675 -1.1828797206 -1.9086591689
N 0.2488455954 -1.6799647226 -1.2137099752
C -0.1057759617 -0.9366090651 -0.2361599101
C -1.1315379177 -1.3821459921 0.7173204157
C -2.1976306651 -0.5190435378 1.0544407550
C -3.1603147231 -0.9156185243 1.9829068402
C -3.0707488441 -2.1687129650 2.5769734049
C -2.0231561898 -3.0194845860 2.2596931910
C -1.0459370955 -2.6439270542 1.3316517334
O -0.0388921256 -3.5105007314 1.0291507528
C 1.1977175219 -3.2307409142 1.7224702517
Cl -1.9101794263 -4.5862492942 3.0392405076
O -2.2164752228 0.6652497957 0.4015527398
C -3.2754448298 1.5878628025 0.6999422758
O 0.5333308029 0.2522609717 0.1009226430
C 0.4638397165 1.3144194158 -0.7759072923
O -0.1794735192 1.2900635718 -1.7967045021
C 1.2527111488 2.4639628570 -0.2834049415
C 2.0002861284 2.4111019101 0.8990638900
C 2.7233331210 3.5252872769 1.3084044542
C 2.7049016943 4.6916098455 0.5458199375
C 1.9610495736 4.7460182139 -0.6324012550
C 1.2370326828 3.6368050226 -1.0476117132
H 0.5611709541 -0.7579437127 -4.4694317605
H 0.8373892792 -2.4221963202 -5.0262381193
H -0.4237473822 -2.0925020617 -3.8230004636
H 1.6261079291 -3.0702119188 -2.7327112543
H 2.5972869138 -1.7203609613 -3.3762623090
H -3.9878735052 -0.2685787393 2.2420348558
H -3.8209681611 -2.4809075243 3.2947841683
H 1.0459813126 -3.2838780111 2.8065281693
H 1.5801304681 -2.2404488129 1.4480835535
H 1.9034882306 -3.9991551259 1.4051009956
H -3.0819740512 2.4603239536 0.0759451387
H -4.2499192922 1.1573277215 0.4447340903
H -3.2562036059 1.8753102397 1.7569568307
H 2.0163746465 1.5050615648 1.4926783764
H 3.3030801538 3.4836094317 2.2247361354
H 3.2712203338 5.5591762145 0.8696590090
H 1.9471757241 5.6540490820 -1.2262787920
H 0.6551138839 3.6644318950 -1.9623168334
