40
CONF8
C 2.9750247575 -1.8081517862 1.7567307490
C 4.1256528855 -2.0781025629 0.8115210361
O 4.3050535880 -0.9572064766 -0.1085160054
C 3.5313010378 -0.9661313430 -1.2022281082
O 2.7187492316 -1.8139380804 -1.4864907957
C 3.8197595481 0.2552077610 -2.0678453934
C 2.5613125403 0.7516155683 -2.7698099244
C 1.5888784460 1.3180132395 -1.7665702417
C 0.5225144022 0.5441947604 -1.3054419935
C -0.3952849483 1.0337175424 -0.3810067456
C -0.2269556051 2.3299271779 0.1058600446
C 0.8065964320 3.1351707632 -0.3331011561
C 1.7033039261 2.6174583513 -1.2595832642
Cl 3.0063502728 3.6618362477 -1.7949075768
F -1.0699369855 2.8107858988 1.0299827811
N -1.4653410800 0.2351548370 0.0636166148
C -1.3662388571 -1.0704244059 0.5112480977
O -0.3965434429 -1.7899925114 0.6405063839
N -2.7147908998 -1.3758177321 0.7996351703
C -3.4965339778 -0.2626156196 0.5098692525
N -2.7679035209 0.7135635779 0.0658125552
C -4.9662145190 -0.2045685625 0.6788576893
C -3.1093025046 -2.6430411346 1.2982740898
F -4.0237915947 -3.2235705798 0.4627173804
F -3.7289839173 -2.5100627304 2.5106562671
Cl 5.0583009271 -0.2720675553 -3.3046220079
H 2.0285037241 -1.7390876317 1.2158073836
H 3.1426847591 -0.8812619790 2.3128831163
H 2.8971414930 -2.6299482270 2.4758562555
H 3.9638670449 -2.9857985029 0.2240845127
H 5.0821725837 -2.1417254702 1.3351488670
H 2.8430461468 1.5122050840 -3.5018292700
H 2.1044500912 -0.0892351166 -3.2966765436
H 0.4115539319 -0.4714769131 -1.6689565640
H 0.9089984555 4.1400260143 0.0570381097
H -5.2473575160 -0.3825269392 1.7212956668
H -5.4613182749 -0.9626235752 0.0646590911
H -5.3074943400 0.7860089430 0.3768950452
H -2.2283686131 -3.2864999861 1.3960061007
H 4.2993356206 1.0381394185 -1.4780726015
