51
CONF14
C -0.2112777979 -0.3721296245 3.3592911321
N -0.5323475579 -1.6198162802 2.6739684906
C -1.7306923739 -2.2511503253 3.2339960900
C -1.9071103934 -3.6559238069 2.6650855774
C -1.9672699427 -3.6157850608 1.1383027394
C -0.7592347334 -2.8614456594 0.5766483131
C -0.6019172595 -1.4711935361 1.2072584613
C -1.6795721756 -0.4841679793 0.6969355938
C -1.2865123844 0.1608410106 -0.6346914857
N -0.0495366116 0.9424434558 -0.5184251944
C 0.0093467287 2.0076959033 0.3994939465
C -1.1405992219 2.6811377237 0.8303827607
C -1.0529675250 3.6952527879 1.7799165686
C 0.1822934633 4.0839558341 2.2902300498
C 1.3391595679 3.4545341016 1.8368855808
C 1.2503941077 2.4149970763 0.9160252503
S 2.7078379622 1.5177500150 0.4260125576
C 2.2474934458 1.1932766610 -1.2616500943
C 0.9022028372 0.8980719454 -1.5496233876
C 0.5544401934 0.5790865986 -2.8637425016
C 1.5327294479 0.4979015657 -3.8639357410
C 2.8652892573 0.7850121722 -3.5655362339
C 3.2055446216 1.1546667143 -2.2654288119
S 0.9530778878 0.0385872413 -5.4814267918
C 2.4552619916 0.1235055877 -6.5123535898
H -1.0349517919 0.3663341478 3.3619654863
H 0.6574501682 0.0976082333 2.8829744006
H 0.0407649437 -0.5856505459 4.4044758744
H -2.6431831677 -1.6505009532 3.0403082601
H -1.6102771391 -2.2982411247 4.3234549191
H -1.0572858988 -4.2739233607 2.9834429160
H -2.8167083464 -4.1078811378 3.0773167529
H -2.8985526561 -3.1259099994 0.8258929454
H -1.9960341085 -4.6316553397 0.7280093674
H 0.1515450204 -3.4383654458 0.7805643117
H -0.8405382490 -2.7624553170 -0.5124780324
H 0.3734185536 -1.0642695945 0.9056912433
H -1.8629018272 0.2927809945 1.4439811833
H -2.6376228083 -0.9904312810 0.5395765061
H -1.0895383170 -0.6322838269 -1.3605980644
H -2.1158670081 0.7603360050 -1.0378457229
H -2.1103702429 2.4070250711 0.4316250862
H -1.9605480264 4.1890121035 2.1123291637
H 0.2511379442 4.8768614007 3.0273549567
H 2.3131251866 3.7523529060 2.2129747687
H -0.4840844048 0.3999065372 -3.1199921889
H 3.6407096532 0.7356891044 -4.3189319615
H 4.2392414691 1.3870599386 -2.0277069251
H 3.2021110053 -0.6024499067 -6.1823149794
H 2.1290114323 -0.1309511758 -7.5233262108
H 2.8739138365 1.1328984346 -6.5123629346
