39
CONF21
C -4.5457463161 -0.2077475251 2.2956236170
C -3.3640769080 -0.7696202225 3.0276127031
C -2.0705685147 -0.6853557817 2.5058233579
C -0.9504280787 -1.2182219901 3.1619659685
C -1.1685959408 -1.8276367550 4.4068937957
C -2.4325231961 -1.8984011562 4.9693959524
C -3.5152742363 -1.3824552086 4.2717122708
Cl 0.1883771623 -2.5124491460 5.2776748477
N 0.3411918298 -1.1007833611 2.6170446218
S 0.7925531291 -2.1283809206 1.3055199604
O 2.0819472025 -2.7105432759 1.6805935481
O -0.3615371138 -2.9232224259 0.9028680706
C 1.1451366740 -0.9254554415 0.0122628687
N 0.6783768812 -1.1239577388 -1.2149803064
N 1.2384349173 -0.0651438167 -1.8549556565
C 1.1153165521 0.2720729253 -3.1739166606
C 1.7814036340 1.3995939602 -3.5861139443
C 2.5379597942 2.1227679013 -2.6248264967
N 2.6602563460 1.8052293971 -1.3533907121
C 2.0083140402 0.7034770850 -0.9658475441
N 1.9452729355 0.1363800522 0.2364394318
O 3.1581503701 3.2101650589 -3.1060528351
C 3.9416189662 3.9754761871 -2.1661261419
O 0.3580017000 -0.5504190302 -3.8856168939
C 0.2023721917 -0.2448839361 -5.2822431883
Cl -1.8303692418 0.1291605640 0.9808712776
H -5.4618522832 -0.3795339030 2.8639694153
H -4.4338052925 0.8690040797 2.1321919620
H -4.6531404382 -0.6707163804 1.3095450186
H -2.5659815335 -2.3712818396 5.9347590004
H -4.5077477624 -1.4542013422 4.7046366150
H 1.0794415385 -1.1670102111 3.3125434462
H 1.7469890433 1.7468575493 -4.6077201466
H 3.3097008069 4.3521096938 -1.3578396677
H 4.3552354362 4.7972210868 -2.7501823981
H 4.7386451257 3.3600874686 -1.7413702946
H 1.1732451937 -0.2638418715 -5.7885551394
H -0.2758886107 0.7320536595 -5.4097973511
H -0.4404051940 -1.0303926958 -5.6761513805
