40
CONF45
C -5.7386910067 -1.0193547380 -0.2706888754
C -4.5831894728 -0.8918200450 0.6949689802
O -3.4595329031 -0.3774499436 -0.0475140364
C -2.2974273200 -0.1730530335 0.6353660113
C -2.1037852261 -0.4278497530 1.9875499590
C -0.8629860399 -0.1980406158 2.5864451149
C 0.1932061654 0.3091577697 1.8374523636
C 0.0053151767 0.5970956482 0.4782108775
C -1.2213999699 0.3447611877 -0.1240914475
O -1.4888773114 0.5758974831 -1.4382884513
C -0.4126677744 1.0629557796 -2.2676057140
C -0.9487460215 1.1760627440 -3.6757807986
N 1.4104901845 0.5822798006 2.5073200717
C 2.7042415888 0.4965818938 2.0683798250
O 3.6606912483 0.7359770907 2.7968700360
O 2.7926729530 0.1338539970 0.7768903046
C 4.1400898509 0.0362524332 0.1986672216
C 3.9545759829 0.2650185116 -1.2876680514
C 4.7263046073 -1.3239220908 0.5257903345
H -5.4919608861 -1.7087762576 -1.0831163669
H -6.6130908274 -1.4078540951 0.2592094823
H -5.9970632458 -0.0463279241 -0.6981241809
H -4.3187640204 -1.8663508803 1.1273503327
H -4.8248039421 -0.2008101836 1.5138150869
H -2.9098661471 -0.8221322200 2.5937313386
H -0.7272316332 -0.4160089216 3.6412547782
H 0.8161355293 1.0199544294 -0.0949385135
H 0.4293894566 0.3595397818 -2.2169954992
H -0.0764627571 2.0385576005 -1.8920701953
H -1.7879992218 1.8761502298 -3.7171293227
H -1.2815193862 0.2017262900 -4.0445565484
H -0.1580243177 1.5447902337 -4.3353794151
H 1.3436341031 0.7201591740 3.5053739442
H 4.7453996470 0.8329581781 0.6410094232
H 3.3115608048 -0.5095346456 -1.7179080455
H 3.5075615244 1.2446124125 -1.4794311157
H 4.9276092826 0.2226661126 -1.7853477198
H 4.8013096553 -1.4696511786 1.6062778325
H 5.7297027326 -1.4008882253 0.0959026244
H 4.1041986671 -2.1171830300 0.0987981428
