23
CONF23
C -2.5166290300 -1.7512314718 -1.0992968086
C -1.9380004811 -0.6537941690 -0.2412225302
C -0.3855985721 -0.5533010576 -0.4293105468
C 0.3538887815 0.3575179024 0.6027800207
C 1.8282460719 0.7914583934 0.2436084188
C 2.8558244489 -0.3462386103 -0.0505284893
C 4.3514306232 0.1163842948 -0.0458276829
F 4.7538533710 0.4246595352 1.1911351740
F 5.1078139441 -0.8913261728 -0.5024169336
F 4.5203559847 1.1798679290 -0.8420785715
F 2.5938934332 -0.8598434893 -1.2738060091
F 2.7329531391 -1.3216573333 0.8777747135
F 1.7853650281 1.6207037269 -0.8207555421
F 2.2700296168 1.4927847711 1.3179212950
F -0.3341617167 1.5167798752 0.7403309969
F 0.3833627463 -0.2694837186 1.7987885958
F -0.1509322520 -0.0881790528 -1.6806278317
F 0.1411808102 -1.8004667831 -0.3222826313
F -2.1833849675 -0.8715766234 1.0841410896
F -2.4699353364 0.5592668675 -0.5649272772
I -4.6701030431 -1.8404183610 -0.9027114914
H -2.3050509654 -1.5642800631 -2.1515399372
H -2.1370134914 -2.7234367711 -0.7912346217
