38
CONF28
C 5.4008144620 -0.6271691241 0.7981127423
C 3.9658879325 -0.2124848868 1.1103021390
C 3.3932399320 -1.0494873351 2.2589295396
N 3.1734854153 -0.2927780105 -0.1318399863
C 1.7850825774 0.1664357108 -0.0089365825
C 1.2366236667 0.4238009879 -1.4109990282
O 2.1140629480 1.3013870285 -2.1225492245
C -0.1219889051 1.1015914724 -1.3934806133
O -1.0489654885 0.1711278347 -0.8223213329
C -2.3486676065 0.5680949054 -0.6965193858
C -2.8556311715 1.7968750994 -1.1035631913
C -4.2225516379 2.0980288544 -0.9241202559
C -5.1070461732 1.2033862950 -0.3449704009
C -4.5801551958 -0.0279130242 0.0597555765
N -5.1923183223 -1.1044078212 0.6563346931
C -4.2670390652 -2.1016869107 0.8730233501
C -3.0373131851 -1.6901046583 0.4205628384
C -3.2137155358 -0.3703118909 -0.1019592580
H 5.4317002026 -1.6735016471 0.4705615244
H 5.8236335579 -0.0046135951 0.0038864601
H 6.0301786421 -0.5346864535 1.6882109561
H 3.9622436401 0.8449312048 1.4116591570
H 2.3772239364 -0.7379560682 2.5192157980
H 4.0156300376 -0.9486618619 3.1543062877
H 3.3683333503 -2.1095590913 1.9777798895
H 3.1729853439 -1.2597242829 -0.4510545096
H 1.1216650140 -0.5342883773 0.5203455246
H 1.7856382199 1.1148650623 0.5463383113
H 1.1469801648 -0.5364506165 -1.9480113215
H 3.0000047404 1.0476692358 -1.8054669109
H -0.0802108325 2.0200217575 -0.7907109229
H -0.4218684974 1.3593907186 -2.4181298257
H -2.2135103115 2.5381603637 -1.5631978374
H -4.5839206462 3.0670593916 -1.2543744167
H -6.1563152171 1.4438003035 -0.2111520361
H -6.1686892317 -1.1569927644 0.8987381515
H -4.5632037413 -3.0320011574 1.3366784673
H -2.1223031195 -2.2618461358 0.4582845266
