41
CONF48
C -0.0476001247 -3.2400051363 -1.2583785466
C -0.4072509853 -1.8500125272 -0.8742384957
C -1.6011453531 -1.3716049126 -0.3923973662
C -1.4319558454 0.0269975103 -0.0928480315
C -0.1015054509 0.3686567647 -0.3954690525
N 0.5309507847 -0.8016097187 -0.8672618689
C 1.8404581617 -0.9069305037 -1.3704731238
O 2.1027305863 -1.6569808949 -2.2974602813
C 2.8856989954 -0.1113131716 -0.6841590046
C 3.9557459306 0.3799665275 -1.4373957773
C 4.9903176068 1.0692932350 -0.8215926588
C 4.9536511286 1.2323116081 0.5604078742
C 3.9130603295 0.7295758651 1.3355641244
C 2.8716811058 0.0648181121 0.7031635141
Cl 6.2624558931 2.0910278100 1.3498217677
C 0.3394896585 1.6871647519 -0.3027294269
C -0.5548956368 2.6381752954 0.1634034009
C -1.8756021578 2.2964378712 0.5145474703
C -2.3334237382 0.9887456571 0.3796442174
O -2.6374579446 3.3351347514 0.9672126525
C -3.9918991373 3.0449467980 1.3306083880
C -2.8635600620 -2.1335637731 -0.1704143966
C -3.1520434464 -2.5069853482 1.2794755176
O -4.2436199769 -2.8512012208 1.6730162471
O -2.1080969640 -2.4712343638 2.1303782766
H 0.0547951928 -3.3488154564 -2.3417093554
H -0.8225492172 -3.9247869082 -0.9090657010
H 0.9036241838 -3.5405035534 -0.8096409142
H 3.9672175076 0.2299450335 -2.5116539015
H 5.8133907600 1.4700762984 -1.4016129870
H 3.9168580704 0.8561621928 2.4118665318
H 2.0532398748 -0.3304812766 1.2955220631
H 1.3430655737 1.9848336141 -0.5789266749
H -0.2464554997 3.6736521855 0.2599931078
H -3.3535125615 0.7088043777 0.6134299887
H -4.4177126169 3.9901110777 1.6684572529
H -4.0321928635 2.3104895418 2.1440883650
H -4.5593232916 2.6721869026 0.4693259466
H -2.8661372501 -3.0764025268 -0.7290749172
H -3.7323363063 -1.5686882355 -0.5243443053
H -1.3181552101 -2.1583937675 1.6515605938
