43
CONF81
C 4.2862651587 -2.5372025270 -0.9659721291
O 4.6757668056 -1.5482119947 -0.0041886200
C 3.8698385839 -0.4572920211 0.1341402483
C 2.7087620948 -0.2520315246 -0.6084617013
C 2.0058829396 0.9171100375 -0.3198127277
C 2.4161544396 1.8565485843 0.6541099783
C 3.5916507489 1.6265744266 1.3770424771
C 4.3031909410 0.4724641478 1.1097945373
N 1.5112771085 2.9095956534 0.7185092614
C 0.5990331549 2.5924028141 -0.1663577754
N 0.8404818691 1.4291991745 -0.8415262401
S -0.8923060913 3.5391634406 -0.5254372919
O -1.3847503288 2.9666365110 -1.8539555841
C -1.9711353777 2.7921726984 0.8476433435
C -1.9228178354 1.3031676651 0.8395175787
N -0.9770202821 0.7603517162 1.6235115425
C -0.7980822871 -0.5605974886 1.5803421260
C -1.5128329481 -1.4181427930 0.7470802544
C -1.2473364744 -2.8916999861 0.7096422566
C -2.5105656506 -0.8336218573 -0.0398396651
O -3.2735064031 -1.6563699614 -0.8343376993
C -2.8833671869 -1.6275953029 -2.2253215527
C -2.7646369227 0.5430280578 0.0073530798
C -3.9134364573 1.1477796868 -0.7510727438
H 4.2586578241 -2.1121326818 -1.9762461757
H 5.0477051281 -3.3156721888 -0.9152520062
H 3.3063131762 -2.9610091905 -0.7159688843
H 2.3565097446 -0.9481836815 -1.3584605770
H 3.9321692751 2.3305629615 2.1292273390
H 5.2171952026 0.2499530151 1.6504785088
H 0.2390535571 1.0232373386 -1.5453376251
H -1.5596499558 3.2122522701 1.7694596873
H -2.9543356131 3.2209499616 0.6389269301
H -0.0299907550 -0.9699518464 2.2365401828
H -0.4314437460 -3.1500361746 1.3885617430
H -0.9769731242 -3.2186433442 -0.2995679670
H -2.1380896827 -3.4575350109 1.0011327796
H -3.5591393456 -2.3063703986 -2.7476309243
H -2.9790317875 -0.6173954592 -2.6390971664
H -1.8485699838 -1.9722647228 -2.3361884279
H -4.5033093630 1.7952747975 -0.0948152423
H -3.5627809295 1.7571814973 -1.5878273018
H -4.5708005121 0.3663542877 -1.1346105233
