53
CONF393
C 2.7299188973 0.0276379891 -1.7438863396
C 3.2500704543 1.3820561932 -1.2889099619
N 2.5495228218 2.4652136414 -1.9874722456
C 1.1077042932 2.3516686101 -1.7371300797
C 0.5959817329 0.9937118958 -2.1898566932
N 1.2933163809 -0.0801757510 -1.4756667813
C 0.7683923458 -1.4029847334 -1.8373186632
C -0.5340174719 -1.7148840619 -1.1016773512
C -0.2760290511 -1.9587866354 0.3893727078
N -1.4967650862 -1.7933062160 1.1880814006
C -2.0962340789 -0.5131060760 1.2222621157
C -1.4016316300 0.6446994545 0.8514072254
C -2.0415891904 1.8816409821 0.8577270837
C -3.3679354922 1.9941681765 1.2638497217
C -4.0589922994 0.8549623480 1.6704856348
C -3.4335623418 -0.3873979779 1.6294818915
S -4.3363212785 -1.8680734858 2.0364687125
C -3.0098896220 -2.7489838074 2.8281918981
C -1.7130343834 -2.6313628900 2.2946822762
C -0.6755612559 -3.3560238762 2.8962120727
C -0.9681036547 -4.2096066974 3.9526105795
C -2.2454989427 -4.3461285175 4.4753196211
C -3.2641302771 -3.5812464249 3.9117349652
Cl 0.3514419239 -5.1330720126 4.6693776731
C 3.0740506014 3.7802952218 -1.6001252946
C 2.7098190113 4.8313461135 -2.6405343517
O 3.1323460712 4.4163606515 -3.9456444258
H 3.2545586121 -0.7613141713 -1.1926983615
H 2.9531108306 -0.1049694761 -2.8217394120
H 4.3210451992 1.4534873672 -1.5105277952
H 3.1228114841 1.4675160901 -0.1916001647
H 0.5761975121 3.1329922818 -2.2905205244
H 0.8830332937 2.4876279481 -0.6603156163
H 0.7347098931 0.8964111679 -3.2854345373
H -0.4782015461 0.9368685656 -1.9837553224
H 1.5213248048 -2.1530896860 -1.5615103072
H 0.6155928730 -1.4908033744 -2.9290456626
H -0.9958677095 -2.6077583405 -1.5367984037
H -1.2467811273 -0.8969326316 -1.2414712924
H 0.5344970134 -1.3091827119 0.7512714595
H 0.0572871586 -2.9912798655 0.5119108440
H -0.3660609233 0.5813289441 0.5341795547
H -1.4882873968 2.7624097861 0.5464114470
H -3.8637222929 2.9590414733 1.2730200997
H -5.0908883320 0.9232997185 2.0008850453
H 0.3469440701 -3.2549080601 2.5567642867
H -2.4462536348 -5.0170601697 5.3016277440
H -4.2721264349 -3.6541129358 4.3075072858
H 2.7139193961 4.0989934337 -0.6036716581
H 4.1669737806 3.7030714043 -1.5508493857
H 1.6282988590 5.0334157934 -2.6358134939
H 3.2244204413 5.7692722592 -2.4080629189
H 2.9501967883 3.4622404819 -3.9688066194
