33
CONF511
C 5.4715285909 -3.4411202230 -0.3533369742
C 4.4682786281 -2.2964363109 -0.2817325119
C 5.0039114530 -0.9552687597 -0.7100757107
C 6.2540330028 -0.7286213498 -1.1277763234
C 4.0826135187 0.2196877422 -0.6715262771
O 4.3741362660 1.3630080102 -0.9698720401
O 2.8462788192 -0.1342444625 -0.2565439157
C 1.8790815604 0.9399969850 -0.1846309604
C 0.5915476781 0.2877971509 0.2962885354
C -0.5279950215 1.2971934405 0.3803540111
C -1.8423794561 0.7026253910 0.9711329699
C -3.1135301314 1.6012901358 0.8173519005
C -4.2973449880 1.2040795719 1.7588294233
F -4.5481901162 -0.1099960248 1.6722910003
F -4.0233185915 1.5143888714 3.0311751146
F -5.3939757750 1.8785942374 1.3841227814
F -2.8061724523 2.8922791115 1.0822871908
F -3.5598808771 1.5107053135 -0.4561023091
F -2.0979214658 -0.4781694053 0.3531181232
F -1.6380431770 0.4570797414 2.2914097270
F -0.8274021477 1.8029970554 -0.8604806003
F -0.1649447523 2.3590721467 1.1657426856
H 6.3367931745 -3.2567322839 0.2915431658
H 5.8353865926 -3.5913895652 -1.3749060596
H 4.9985701371 -4.3703878703 -0.0244311491
H 3.5911762905 -2.5313006864 -0.8978149765
H 4.0822173466 -2.2034119912 0.7413150694
H 6.5639958415 0.2687776378 -1.4200013048
H 6.9864972899 -1.5250853307 -1.1867233851
H 1.7639690734 1.3881366661 -1.1758205993
H 2.2381312153 1.7008829876 0.5133796322
H 0.2904636863 -0.5046712513 -0.3938941737
H 0.7372316477 -0.1522692437 1.2879727882
