38
CONF7
C 4.7778598079 1.9167450978 1.9455477608
C 3.6947511147 1.0061912343 1.4739485759
N 2.5162754290 1.0698956062 2.1137815832
C 1.5771415233 0.2490886783 1.6300801690
N 1.7305400271 -0.5954063571 0.6047108198
C 2.9415601892 -0.5619702095 0.0451922578
N 3.9631449541 0.2093666775 0.4323070888
O 3.2047271770 -1.3510680865 -0.9883545457
C 2.1462047508 -2.2273948466 -1.4579268233
N 0.3580472343 0.3107996616 2.2725370882
C -0.8543583701 -0.3373329853 2.0251737779
O -1.8471673292 -0.0491769721 2.6734700922
N -0.8239323463 -1.3012971951 1.0384197785
S -2.2575891575 -1.9552426626 0.4006468673
O -2.9673523845 -2.6581544546 1.4708775295
O -1.8236446688 -2.6934912617 -0.7878995693
C -3.2737321414 -0.5534391487 -0.0545120865
C -2.9564697998 0.4407786982 -0.9661463121
S -4.2907887386 1.5421744136 -1.1188402167
C -5.2307528127 0.6623696713 0.0202967702
C -4.5642924339 -0.4297819008 0.5082468563
C -1.7150755133 0.6619655783 -1.7161713343
O -0.7113104762 -0.0143031836 -1.5998655312
O -1.8254978469 1.7171240134 -2.5404051214
C -0.6360149874 2.0350542942 -3.3074973727
H 5.7590980964 1.5099994092 1.6982604005
H 4.6714765161 2.8821753927 1.4356420765
H 4.6907430045 2.0955311066 3.0184170072
H 1.2820771893 -1.6404022501 -1.7770638805
H 1.8597884574 -2.9276103810 -0.6691461053
H 2.5829159418 -2.7604080022 -2.3010139662
H 0.3057828087 0.9826902731 3.0283554004
H -0.0019908363 -1.3144195483 0.4190791360
H -6.2275412311 0.9978319453 0.2758719395
H -4.9703124810 -1.1155620759 1.2390231911
H -0.3752920697 1.1954443682 -3.9556870296
H 0.1935761221 2.2579910171 -2.6326587607
H -0.9025960207 2.9107797785 -3.8966975113
