47
CONF89
C -6.1399102212 -3.2574154685 1.6514699624
O -6.3185763280 -1.9522753577 1.0566936232
P -5.0376664672 -1.1233380550 0.5618226942
S -3.6775580638 -2.0810841230 -0.4196421322
O -5.7393668278 0.1247083367 -0.1609346844
C -6.1289688030 0.0212658951 -1.5497005779
O -4.5851187871 -0.4341833025 1.9609422032
C -3.3991511458 0.3012419116 2.0309947415
C -2.2426600191 -0.3287457837 2.4742237990
C -1.0745982754 0.4091263826 2.5944690160
C -1.0603300057 1.7619263681 2.2420839368
C -2.2308793063 2.3772108081 1.7969274607
C -3.4118943801 1.6476301804 1.7006830504
S 0.4161068065 2.7518422655 2.4181980350
C 1.6433794262 1.7634363457 1.5744325426
C 1.3435502080 1.0128066006 0.4348224481
C 2.3456010907 0.3021676627 -0.2120343307
C 3.6453462402 0.3636618086 0.2735838054
C 3.9643153305 1.1145048731 1.3952456557
C 2.9549316897 1.8076766215 2.0529975897
O 4.6396890227 -0.3989683159 -0.3463377449
P 5.5717724096 0.2449937568 -1.5121811781
S 6.5720562616 1.8401110070 -1.1318402172
O 4.4695578269 0.3321788248 -2.6939508047
C 4.7546811047 1.1119840409 -3.8766627060
O 6.4931647626 -1.0178463593 -1.8632956690
C 5.8923940084 -2.3075825827 -2.1358531921
H -5.5720637934 -3.9067394282 0.9786925479
H -7.1441038575 -3.6533930271 1.8056400826
H -5.6237342832 -3.1673031664 2.6125196509
H -6.9465013866 -0.6977800449 -1.6600975348
H -6.4678323451 1.0170371458 -1.8370649238
H -5.2748188012 -0.2829918086 -2.1613207706
H -2.2694204111 -1.3836528022 2.7216591497
H -0.1660675695 -0.0660478833 2.9485143651
H -2.2157564699 3.4249130664 1.5163782934
H -4.3309723433 2.1066676685 1.3549158828
H 0.3279922886 0.9778192867 0.0559354090
H 2.1308787895 -0.2884453900 -1.0952243889
H 4.9883425019 1.1424530553 1.7486820173
H 3.1867571727 2.3799952423 2.9451742743
H 4.9809420478 2.1457684469 -3.6017729482
H 5.5982861793 0.6823163202 -4.4267022862
H 3.8510419812 1.0681652716 -4.4861450455
H 6.7004068478 -2.9369415255 -2.5104544707
H 5.4797487599 -2.7317767027 -1.2168689748
H 5.1070060390 -2.2170978446 -2.8925716331
