47
CONF54
C -4.3166246802 -2.0180661172 0.0348831633
C -3.4177748548 -0.8093597150 0.1889236449
C -1.9751279067 -0.9974181740 0.5882676040
C -2.3324363662 -0.6738235637 -0.8770041478
C -1.8679656102 0.5698729713 -1.5071287965
O -1.5986677255 0.6814955110 -2.6853995696
O -1.7330707682 1.6043077899 -0.6237770070
C -1.0909873717 2.7827912280 -1.1665482406
C -1.4395137352 3.8708599879 -0.2521871363
N -1.6812939905 4.7519655406 0.4535991187
C 0.4064171373 2.5838233222 -1.2520991399
C 1.0814754735 2.0395269668 -0.1595721272
C 2.4414744309 1.7927357573 -0.2486083737
C 3.1155085607 2.1116864466 -1.4271025646
C 2.4624859011 2.6696001782 -2.5107695193
C 1.0925498625 2.8996068240 -2.4212484948
F 4.4348282499 1.8523488788 -1.5011397203
O 3.1366328637 1.2825193333 0.8243955234
C 3.2905324339 -0.0958566000 0.8944998895
C 4.0645708204 -0.5604820068 1.9550616476
C 4.2472202996 -1.9294158371 2.1104632327
C 3.6655435158 -2.8287474207 1.2171037908
C 2.8978472444 -2.3449651374 0.1624647933
C 2.7036915315 -0.9755248451 -0.0107192135
C -1.3963292200 -2.3064339659 0.8929778683
C -0.4688980070 -2.5384935156 1.8238779511
Cl 0.2255548955 -1.3093584039 2.8420497831
Cl 0.1465043524 -4.1401721278 2.1385896757
C -4.1451341880 0.4019599777 0.7290948027
H -4.6759184348 -2.3406624489 1.0180938318
H -3.8163363296 -2.8614840623 -0.4447397904
H -5.1865866717 -1.7518946975 -0.5740927630
H -1.5508114012 -0.1569813548 1.1273354505
H -2.2792720230 -1.5058799539 -1.5712657279
H -1.5002693340 3.0147144273 -2.1564263059
H 0.5599834209 1.7784949081 0.7565305755
H 3.0195182817 2.9012137553 -3.4118601125
H 0.5598977290 3.3135887244 -3.2710922932
H 4.5078519324 0.1512352384 2.6435500197
H 4.8481806869 -2.2940656194 2.9376805909
H 3.8069853209 -3.8964949592 1.3456183269
H 2.4359331334 -3.0348540843 -0.5370293792
H 2.0966057477 -0.6086386587 -0.8310721915
H -1.7383672063 -3.1693080376 0.3298452640
H -4.6552466949 0.1211469227 1.6565488403
H -4.9047469958 0.7380464297 0.0147261919
H -3.4764139928 1.2348402930 0.9443311309
