82
CONF36
C -2.4536463039 2.5708190934 -2.2931789231
C -1.7293156183 2.5085733591 -0.9767030157
C -0.5846725506 3.1773204424 -0.7863557582
C -2.3602318650 1.7276766456 0.1518693136
C -3.5828080508 2.4537484679 0.7493820823
C -4.1554745919 1.4069229219 1.6996940469
C -4.0214894011 0.0598068535 0.9449487124
C -2.9527358572 0.3292141505 -0.1725812607
C -2.0431688123 -0.8934481567 -0.4354528339
C -1.1006332303 -0.6632040856 -1.6207447607
C -0.0438286453 -1.7559302596 -1.6867772300
C 0.9338743061 -1.7041173062 -0.4915733072
C 2.2628531742 -0.9112929378 -0.8986411686
C 2.0387194451 0.3258691265 -1.8042135961
C 3.3502938917 1.0250954699 -2.1783716818
C 4.1486450761 1.5059800964 -0.9670279558
C 4.3436530797 0.3941782514 0.0890922466
C 3.0181641742 -0.4046639213 0.3635205250
C 2.0737033562 0.4255592892 1.2773992933
C 0.5714611390 0.1625543224 1.1347723786
C 0.2319638815 -1.3021096974 0.8622649136
C -1.3349766067 -1.5619844003 0.8082225172
C -2.0644172058 -1.0765562228 2.0850734627
C -3.5818209645 -1.0690957343 1.8925230796
C -1.5758334529 -3.0966655530 0.7396883114
C 0.8304435113 -2.1448783983 2.0094861023
C 5.4838438584 -0.5204552196 -0.4128237645
C 4.8759483037 0.9990729878 1.4023252232
O 3.5021670618 2.6515369788 -0.3646774651
C 3.0627531357 -1.9770871429 -1.6840961134
C -5.3391166222 -0.3065071399 0.2535539099
O -6.3727557737 -0.7426783308 1.1489649039
H -2.4402849081 1.5971433101 -2.7952423859
H -1.9897330775 3.3037207873 -2.9579520468
H -3.5076587512 2.8399101444 -2.1597766001
H -0.0565571317 3.1321655501 0.1630590722
H -0.1447962503 3.7847628191 -1.5732467750
H -1.6229885539 1.6458032089 0.9563512915
H -3.3054727811 3.3904616829 1.2431672061
H -4.3050395637 2.6883617065 -0.0424480621
H -3.5553762766 1.3817977784 2.6175587907
H -5.1885453884 1.6201856112 2.0006348500
H -3.5091639835 0.4658015507 -1.1132233727
H -2.7547796158 -1.6568214138 -0.7812104984
H -1.6899926424 -0.6496637671 -2.5465011479
H -0.6214314747 0.3159931451 -1.5489560705
H 0.5090910883 -1.6892197307 -2.6276498565
H -0.5511205844 -2.7262924383 -1.7210036284
H 1.2886486175 -2.7303310759 -0.3322523096
H 1.4006115513 1.0562656913 -1.2967947977
H 1.5251941538 0.0475885788 -2.7301998954
H 3.9828373449 0.3688658032 -2.7851714111
H 3.1327357848 1.8928557807 -2.8154532627
H 5.1524491996 1.8194884512 -1.3006826106
H 3.3377259979 -1.2976746550 0.9182005835
H 2.3712313306 0.2530352372 2.3174415823
H 2.2321774389 1.4881382391 1.0892895072
H 0.1670573674 0.7744239207 0.3276417276
H 0.0886733259 0.5090101045 2.0548322360
H -1.8033977346 -1.7252527169 2.9276143174
H -1.7507444020 -0.0660199911 2.3639193019
H -3.9176097138 -2.0377585560 1.5038447428
H -4.0843175576 -0.9399799088 2.8581745028
H -1.4301446198 -3.5611910220 1.7193610628
H -0.9055417110 -3.5970610982 0.0379820859
H -2.5994404913 -3.3179424061 0.4258026065
H 0.6951739244 -3.2155853663 1.8407137222
H 0.3706653523 -1.8866331560 2.9696242505
H 1.9028766525 -1.9721786445 2.1078058998
H 5.3914737180 -0.8048679386 -1.4598907314
H 5.5266579173 -1.4367309817 0.1848060565
H 6.4420676177 -0.0014101935 -0.3017704157
H 5.8074595082 1.5412225829 1.2040312630
H 5.0997289736 0.1955325003 2.1146147654
H 4.1823670562 1.6936789240 1.8743345597
H 3.3976666211 3.3111931252 -1.0618888173
H 2.3915249360 -2.5277481492 -2.3510097450
H 3.5139358541 -2.7001584154 -0.9959560629
H 3.8550478036 -1.5684071734 -2.3078878255
H -5.6892266792 0.5482612887 -0.3473874980
H -5.1684154522 -1.1505484226 -0.4262283629
H -6.6048634381 0.0005559973 1.7194168223
