39
CONF128
C 4.6944417063 1.3237693934 -2.3082669215
C 3.5197698095 1.1681624176 -1.3449370175
C 3.0926107625 -0.2920845923 -1.1928904021
C 1.9629880484 -0.4847507364 -0.2079406106
C 1.4495095874 -1.9020483891 -0.0518057438
O 0.1076995933 -1.6947006816 0.4262539115
C -0.3497639621 -0.4588172198 -0.1138407392
C -1.3526859630 -0.7193288416 -1.2640892622
N -2.6412316760 -1.1763251684 -0.7790434168
C -3.7417281840 -0.4375115396 -0.5271744402
N -4.6885983536 -1.1922105852 0.0163436159
C -4.0923847918 -2.4162877206 0.0820198392
N -2.8501248087 -2.4571596161 -0.3832719627
O 0.7708918637 0.1793409754 -0.7046639831
C -0.9719655754 0.3600115138 1.0179484280
C -1.3087260592 1.7129438799 0.8992446389
Cl -1.0144954778 2.6247112292 -0.5769726431
C -1.9100242634 2.4208636907 1.9354545082
C -2.1977781981 1.7492517968 3.1147200136
Cl -2.9634418231 2.6313379489 4.4241037328
C -1.8983215712 0.4043658752 3.2765842997
C -1.2896445806 -0.2686207268 2.2255263256
H 4.4349566926 0.9457792585 -3.3033167848
H 4.9868406145 2.3730951886 -2.4123219598
H 5.5666709412 0.7629934267 -1.9545796258
H 2.6679438920 1.7593832586 -1.7011300782
H 3.7901154626 1.5677086529 -0.3589446710
H 3.9437701430 -0.8897805783 -0.8398740860
H 2.7901967770 -0.7023139147 -2.1651876330
H 2.2219570257 -0.0620053779 0.7752148652
H 1.9853368429 -2.4905562003 0.6956632664
H 1.4406643227 -2.4270477699 -1.0175439497
H -1.5130519047 0.2031802387 -1.8255102972
H -0.9237230321 -1.4751904919 -1.9267869031
H -3.8044992783 0.6176439647 -0.7620171658
H -4.5822584173 -3.2991224679 0.4734830745
H -2.1506392053 3.4701390539 1.8170553957
H -2.1324643803 -0.1110401689 4.2004872860
H -1.0488123732 -1.3177781721 2.3420069849
