31
CONF12
C 5.0410106948 0.6972826267 -1.9020766415
C 4.0834897858 0.3497162537 -0.8102296014
N 2.8496348902 -0.0093343952 -1.1485536501
C 2.0139834981 -0.3099996830 -0.1519401039
N 0.7308842750 -0.6967105372 -0.2144109694
C 0.4208634090 -0.8484275571 1.0851970416
N 1.3655731156 -0.6014236915 1.9939816844
N 2.3968626824 -0.2564428648 1.1913372860
C 3.6541668038 0.1006251058 1.5565129423
C 4.5150726304 0.4111911198 0.5454917015
S -1.2539191933 -1.2332288301 1.6179989980
O -1.8909817400 -1.9813588474 0.5365060942
O -1.1959620716 -1.7287849309 2.9925727623
N -2.0337539512 0.2837117440 1.7016269111
C -2.1702798985 0.9997506809 0.4837025359
C -3.2680468183 0.7905879298 -0.3545210758
C -3.4308393539 1.4690666989 -1.5494803035
C -2.4712401850 2.4058833190 -1.9221044231
C -1.3663988752 2.6637796389 -1.1144966640
C -1.2378262329 1.9510016671 0.0614358148
F -0.1711177733 2.1764795976 0.8599373877
F -4.2058707592 -0.0921997247 0.0299928858
H 5.9116122334 0.0335067061 -1.8630226890
H 4.5617027582 0.6113704567 -2.8771217143
H 3.8844941712 0.1170270668 2.6152477829
H 5.5302880430 0.7061388780 0.7803837040
H -4.3010536340 1.2676942077 -2.1633476233
H -2.5883679899 2.9475833166 -2.8540724123
H -0.6115407993 3.3914730233 -1.3887977111
H 5.4123480128 1.7186369220 -1.7650579834
H -1.6322743127 0.8311723289 2.4619741439
