39
CONF58
C 3.8617482133 -0.8798350846 -2.7143625208
C 3.3516250259 -0.3719254040 -1.3671071852
C 1.8477679777 -0.0989889116 -1.3937080622
C 1.3150147062 0.3915765573 -0.0569408956
C 1.1422696143 -0.7080539399 0.9930417093
O -0.2077157611 -1.1500980017 0.7651984548
C -0.9291523403 0.0334468588 0.4979559344
C -2.1433141482 -0.2679491039 -0.3972198926
N -1.7558665909 -0.8771002776 -1.6534931395
C -1.3957350439 -0.2656575558 -2.7992915315
N -1.0496451730 -1.1653135085 -3.7117765368
C -1.2141444668 -2.3438231463 -3.0454971674
N -1.6396186250 -2.2220930415 -1.7948825056
O -0.0475550544 0.8769164639 -0.2264165364
C -1.3808935973 0.7252535215 1.7938670103
C -2.0719918725 0.0766450293 2.8236582515
Cl -2.5073008946 -1.6264220764 2.7317534602
C -2.4569402168 0.7361709787 3.9868800635
C -2.1467490642 2.0824462409 4.1166044708
Cl -2.6276286883 2.9217694108 5.5806253660
C -1.4707846107 2.7725983085 3.1210335752
C -1.1004024812 2.0819195822 1.9744768583
H 3.6663088807 -0.1482200498 -3.5059618550
H 4.9392213865 -1.0688741776 -2.6867182514
H 3.3610061051 -1.8140629985 -2.9914684194
H 3.8800338466 0.5499578968 -1.0915317300
H 3.5839320723 -1.1089796741 -0.5877913792
H 1.3022700999 -1.0085911135 -1.6810486907
H 1.6278022810 0.6620820384 -2.1525983451
H 1.9225904120 1.2209883118 0.3246744326
H 1.2505199581 -0.3208382813 2.0148576755
H 1.8024683680 -1.5639989232 0.8449042859
H -2.8414896643 -0.9324685204 0.1132337997
H -2.6447964658 0.6796620295 -0.6107008843
H -1.4105119804 0.8094685479 -2.9179470489
H -1.0249322445 -3.3128744900 -3.4901946859
H -2.9855035884 0.2071712840 4.7703268928
H -1.2348624020 3.8240715430 3.2342722169
H -0.5670437665 2.6040244971 1.1892927211
