53
CONF128
C -2.3120412934 4.6003706201 -0.4258623421
C -0.8514752133 4.2133390610 -0.4352274996
O -0.7777857485 2.8167028889 -0.0440033220
C 0.4611095082 2.2676290443 -0.0154876381
O 1.4670204587 2.9117755002 -0.2984329089
C 0.4226159395 0.8741524098 0.4074853417
C 1.5873802625 0.1803894691 0.5430797135
N 1.5800373411 -1.0724851837 1.0850601073
C 0.4727322906 -1.6792762987 1.6257972781
C -0.7423706748 -1.0696913766 1.5132839777
C -0.9182307916 0.2291931126 0.7340541188
C -1.8062890065 0.0476586687 -0.5025094841
C -3.0237001634 0.7395274172 -0.5571443045
C -3.8917609361 0.6335248133 -1.6340591433
C -3.5598975254 -0.1859125578 -2.7108940617
C -2.3630973251 -0.8895469440 -2.6937110914
C -1.5102392778 -0.7651424497 -1.5983129767
Cl -0.0137407874 -1.7006961417 -1.6632561537
C -1.9161690568 -1.6629459307 2.1469557257
O -2.0016207117 -2.7787010211 2.6443948330
O -2.9711128750 -0.8042258905 2.1311208635
C -4.1952830402 -1.3103609705 2.7005330997
C 0.7597387749 -2.9796410127 2.3107661646
C 2.9797946956 0.6795726191 0.1869354768
O 3.9444175382 -0.3645157884 0.2396172696
C 4.0425730876 -1.1016526227 -0.9940613340
C 5.0983693036 -2.1776027344 -0.8109955227
N 6.4557080335 -1.6853896333 -0.5385215743
H -2.8806285573 3.9923072180 -1.1354344287
H -2.4096034466 5.6513001006 -0.7133862444
H -2.7438787990 4.4733141047 0.5711481969
H -0.2655420540 4.8092324784 0.2725588308
H -0.4065245267 4.3238802566 -1.4293931071
H 2.4856880952 -1.5144995961 1.1860377248
H -1.4738192871 0.9267079802 1.3680585040
H -3.2802766879 1.3805300626 0.2803214269
H -4.8243879210 1.1885984369 -1.6345296711
H -4.2259326007 -0.2815550967 -3.5622851146
H -2.0858451400 -1.5337624410 -3.5207424155
H -4.0605592413 -1.5400819242 3.7609134982
H -4.9251282387 -0.5105444986 2.5743047622
H -4.5193408829 -2.2103286513 2.1712268613
H 0.2658320421 -3.8032990396 1.7886808839
H 1.8356044411 -3.1692582858 2.3368757128
H 0.3709896798 -2.9769516149 3.3305307280
H 2.9662349283 1.1540629465 -0.7989764053
H 3.2827066518 1.4412005612 0.9136858920
H 3.0716434867 -1.5575318989 -1.2457973524
H 4.3223953537 -0.4115900796 -1.8048724046
H 4.7923643485 -2.8365297461 0.0120229500
H 5.1154780119 -2.7903048726 -1.7205174671
H 6.4265300826 -1.0869613114 0.2814633337
H 6.7493173540 -1.0839825637 -1.3033112026
