52
CONF46
C -3.4174129254 3.9257083318 1.1885800789
C -2.0139162239 3.4119325172 1.5177965382
C -1.1916508839 4.4925465219 2.2198178059
C -1.2970314838 2.9660916907 0.2247959091
C 0.0960011881 2.3863869843 0.4185164212
C 0.3754164725 1.4636554279 1.4298698767
C 1.6419650378 0.9057746819 1.5608484149
C 2.6318156493 1.2722594334 0.6572828836
C 2.3869413431 2.1821566103 -0.3623907305
C 1.1136928578 2.7334185681 -0.4723706523
Cl 4.2380856716 0.5677346028 0.8125324408
C -2.0749335723 1.9343930201 -0.5688830989
O -2.2901855577 1.9754558524 -1.7578540640
O -2.4542979766 0.8920666730 0.2214338197
C -2.9306527634 -0.2761140012 -0.5031606892
C -3.6829390068 -1.0602148632 0.4741282822
N -4.2707130932 -1.7132429081 1.2231698742
C -1.7650886319 -1.0531586875 -1.0743430079
C -0.7497561685 -1.4762728793 -0.2184112633
C 0.3545103464 -2.1319244147 -0.7494345698
C 0.4478798260 -2.3815475510 -2.1195098179
C -0.5840724767 -1.9692684364 -2.9548814633
C -1.6931960039 -1.3004036176 -2.4427234269
O 1.3626745933 -2.4485689506 0.1346286005
C 2.1442901437 -3.5706491673 -0.1092894354
C 1.5673499161 -4.8036710508 -0.4028367917
C 2.3941872794 -5.9112130000 -0.5650793676
C 3.7762903479 -5.7899860298 -0.4262412286
C 4.3334255749 -4.5501139424 -0.1220455539
C 3.5193394117 -3.4307852975 0.0347778311
H -3.3625108599 4.7787538582 0.5021645478
H -3.9243206810 4.2565083693 2.0999984630
H -4.0379367983 3.1521272546 0.7231789007
H -2.1089036473 2.5470998112 2.1841493330
H -1.6942314293 4.8130227695 3.1374090852
H -1.0791664796 5.3686270585 1.5701680573
H -0.1930084805 4.1326727623 2.4842006710
H -1.2152073031 3.8341479977 -0.4379523129
H -0.3985366136 1.1666943727 2.1292196211
H 1.8521697609 0.1919293624 2.3492114757
H 3.1716618311 2.4589444488 -1.0571896696
H 0.9134285753 3.4453948657 -1.2678244329
H -3.6127238072 0.0344913300 -1.3023988934
H -0.7975871256 -1.2905417921 0.8495981570
H 1.3177664243 -2.8868267012 -2.5243939274
H -0.5121676608 -2.1570071819 -4.0211703431
H -2.4860102091 -0.9605885495 -3.1006241015
H 0.4901406020 -4.8924151849 -0.5002469985
H 1.9519657555 -6.8761542555 -0.7923752750
H 4.4141292597 -6.6586794629 -0.5514861608
H 5.4082140422 -4.4473018337 -0.0103076960
H 3.9348161647 -2.4560829164 0.2679474972
