35
CONF729
C -0.9704236590 1.8324231016 -0.1184218904
C -1.2748364010 2.3195448895 1.2913418563
C -0.1515993563 3.0293335065 2.0023973811
Br 0.7022803549 4.4549257948 0.9376597748
Br -2.8872900370 3.4604438436 1.1213703194
O 0.2868612038 1.1082997241 -0.1780819301
P 0.4880267047 -0.2869488031 0.5813253374
O 0.2001080141 -0.2967543376 2.0346643039
O 1.9915170569 -0.6423111494 0.1635728651
C 3.0693886632 -0.0745537311 0.9390645820
C 3.4006789252 1.3413466400 0.5078590963
C 4.4678760831 1.9933662781 1.3536200456
Br 3.7754457843 2.3187128774 3.1887534104
Br 4.1110130927 1.3185259694 -1.3521783724
O -0.3675227807 -1.3064913407 -0.3073806037
C -0.9799874648 -2.4627853510 0.2999278013
C -2.4216039326 -2.5574682869 -0.1454989863
C -2.6482923791 -2.4647606786 -1.6353799267
Br -1.8512485861 -4.0448675362 -2.5299729993
Br -3.4723862788 -1.0579633966 0.6586548661
H -0.8323462579 2.6815861633 -0.7893981511
H -1.7835043188 1.1972386389 -0.4816830715
H -1.5904367329 1.4903325798 1.9307414289
H -0.4962701574 3.5038193420 2.9195318082
H 0.6397162017 2.3136585784 2.2344971054
H 3.9266386441 -0.7351932884 0.7862386524
H 2.7951423775 -0.0714190977 2.0014963519
H 2.5099882376 1.9693934291 0.4478503443
H 5.3558370173 1.3706214564 1.4663042290
H 4.7352463698 2.9746379671 0.9683132053
H -0.4439501326 -3.3497265408 -0.0579191376
H -0.9170702943 -2.4037306790 1.3902465453
H -2.1636620526 -1.5904599163 -2.0666807426
H -3.7066265776 -2.4874174396 -1.8851899754
H -2.8684889724 -3.4621980895 0.2715893954
