45
CONF1666
N 4.2937839705 0.7783470363 -2.3889113981
C 3.5188006309 0.2083130562 -1.2771698531
C 3.4399153289 1.2121463484 -0.1231210938
C 2.7974703104 0.6216754644 1.1361550395
C 2.3129009854 1.6705552393 2.1413791717
C 1.2004885977 2.5882957389 1.5957629221
N 0.1063839186 1.9033452172 0.8918350368
C -0.6169916832 0.9312392063 1.7157828344
C -1.6675819899 0.2552298408 0.8491378638
O -2.4385081983 1.2171124060 0.1517436968
O -0.9774814741 -0.6157555857 -0.0581161049
C -1.7855348380 -1.7800217058 -0.3563913316
C -1.9746234398 -1.9103809054 -1.8461871609
O -0.6949246580 -2.2156181472 -2.4356480302
C -3.0891824581 -1.5973620555 0.4192710458
O -3.5788733366 -2.8656738629 0.8338861413
C -2.6506222425 -0.6756868210 1.5656266979
O -3.7033163175 -0.0181910487 2.2415883027
C 2.0954941433 -0.1378530490 -1.7190803706
O 1.3229628504 0.6910797625 -2.1747018291
O 1.7869898916 -1.4299278697 -1.5764547072
H 3.7980709566 1.5918074663 -2.7456517786
H 4.0140468217 -0.7094492951 -0.9403540784
H 2.8733858725 2.0814886908 -0.4802745563
H 4.4548565288 1.5603056671 0.0989009941
H 3.5175044236 -0.0441241881 1.6263088969
H 1.9500790173 -0.0200219203 0.8574202603
H 1.9587608499 1.1575881275 3.0433145261
H 3.1519233806 2.3048756871 2.4561338417
H 0.7685843616 3.1617544639 2.4257576768
H 1.6267788710 3.3179251620 0.8978722853
H 0.4934497929 1.4172378004 0.0854905325
H -1.1169486721 1.4640755298 2.5353878507
H 0.0119823751 0.1419208780 2.1560886777
H -1.8570581340 1.9914834140 0.0412210427
H -1.2631468689 -2.6681297202 0.0279301770
H -2.6840478453 -2.7247161942 -2.0487530816
H -2.3731945528 -0.9714539914 -2.2511898769
H -3.8395115887 -1.0738093794 -0.1937385930
H -2.1087186821 -1.2732427394 2.3087357014
H -4.0376417914 0.6632050540 1.6390406617
H -4.4645517626 -2.7340635363 1.1956784871
H -0.7824963323 -2.1743131247 -3.3966161754
H 4.3275093350 0.1142706745 -3.1574229536
H 0.8476088363 -1.5867883309 -1.8668726531
