61
CONF12
C -0.7836864083 -2.3760862296 -2.5743763571
C -1.9738606031 -1.4553174551 -2.2762290166
C -2.1874389494 -1.2620643064 -0.7966801569
C -3.0424179040 -2.1278818068 -0.1146733385
C -3.2501810426 -2.0292134567 1.2585535593
C -2.5859177651 -1.0182454095 1.9513568417
C -1.7267241815 -0.1276247651 1.3095436775
C -1.5078808488 -0.2638680327 -0.0762558083
C -0.5682325418 0.6389751014 -0.7601935185
C -0.8957595141 1.6812001780 -1.7288931684
O -1.9692571554 2.0464758759 -2.1989056890
N 0.3392739327 2.2345687519 -2.0881586036
N 1.3902578449 1.6305127355 -1.3950049285
C 0.7777660638 0.7064962254 -0.5809184371
O 1.5141470213 -0.0002327530 0.3251290866
C 2.2031074224 -1.1334025398 -0.1349729969
O 2.4315389066 -1.3108703570 -1.2962891647
C 2.5177871588 -2.0614670658 1.0220053203
C 1.1917801436 -2.7832668342 1.3521283481
C 3.0097398737 -1.2839198431 2.2506752154
C 3.5715021792 -3.0724835570 0.5644218439
C 2.4665338111 2.4924474525 -0.8939120166
C 1.9750617757 3.7902108067 -0.2451145078
O 1.7477815684 4.8321527885 -1.1845060449
C 0.5430934561 4.6986137049 -1.9330611678
C 0.5042439049 3.4632850248 -2.8312090372
C -1.1270360046 1.0102511664 2.1002270000
C -1.8506633757 2.3358100519 1.8258052479
C -4.2016654557 -2.9553012246 1.9652473264
H -0.9264042540 -3.3563267350 -2.1070084930
H -0.6679357922 -2.5252567934 -3.6525603950
H 0.1482494116 -1.9490254391 -2.1942411732
H -1.8297439665 -0.4868927360 -2.7630569279
H -2.8843701675 -1.8885661004 -2.7050575468
H -3.5604222813 -2.9015785524 -0.6777957175
H -2.7505629301 -0.9100360775 3.0213327601
H 0.8169390046 -3.3305331564 0.4816042313
H 0.4201061327 -2.0763961479 1.6695806507
H 1.3690742369 -3.4990540949 2.1612064332
H 2.2460754978 -0.5984827039 2.6238694225
H 3.9151380975 -0.7114181150 2.0237554627
H 3.2516662043 -1.9954112962 3.0462317256
H 3.7714512019 -3.7804934524 1.3741728489
H 4.5090690521 -2.5736477001 0.3014754956
H 3.2278558274 -3.6278496929 -0.3109382394
H 3.1506942207 2.7366989314 -1.7142113047
H 3.0209405809 1.8894200411 -0.1683080655
H 1.0710418568 3.5937555755 0.3576348326
H 2.7595582323 4.1646056212 0.4208156944
H -0.3287914842 4.6754077676 -1.2591313716
H 0.4839103497 5.5996076212 -2.5520374479
H -0.3776133252 3.5248693885 -3.4788670163
H 1.3978255437 3.4073888608 -3.4637969547
H -0.0626323415 1.1220763790 1.8728522380
H -1.1955569120 0.7723577045 3.1676026558
H -2.9091793882 2.2569618759 2.0911475509
H -1.7975597859 2.5972851629 0.7643608458
H -1.4092348614 3.1511934569 2.4086277771
H -4.2142185589 -3.9442893085 1.4986675164
H -3.9336711876 -3.0738601519 3.0186701178
H -5.2245922257 -2.5622641539 1.9276622772
