35
CONF16
C -5.8051252583 -0.0096884134 0.6306282939
C -4.4355503724 0.1746788950 -0.0109139452
C -4.0924495471 -1.0610739356 -0.8387044863
O -3.4054014285 -1.9818842904 -0.4623238673
O -4.7009086531 -1.0082360864 -2.0380221979
O -3.4997317824 0.3392926887 1.0489924707
C -2.2159778688 0.7054213564 0.7379818269
C -1.7535359100 0.9672706889 -0.5529697152
C -0.4244978575 1.3460350105 -0.7417075992
C 0.4181676307 1.4560264503 0.3494355243
C -0.0324834104 1.2014831537 1.6384613289
C -1.3522803659 0.8237152022 1.8316322219
O 1.7300892648 1.9155493115 0.1585122837
C 2.7230817145 0.9972278459 0.0236765202
N 2.4269068602 -0.2932238602 0.0239588454
C 3.4370770693 -1.1620402717 -0.1193971508
C 4.7566180129 -0.7622426368 -0.2661759458
C 5.0503648723 0.6079993970 -0.2606695297
C 4.0210701616 1.5106402902 -0.1149838149
C 5.8641480377 -1.7518713661 -0.4085251844
F 6.6541343329 -1.4760000309 -1.4805204396
F 6.6895232520 -1.7518291636 0.6753708574
F 5.4165768074 -3.0178374035 -0.5595580127
H -6.5669046461 -0.1301686218 -0.1426168192
H -5.8038126265 -0.8923043600 1.2760651269
H -6.0436569038 0.8729029546 1.2284207837
H -4.4441540426 1.0577636838 -0.6629389801
H -4.5133621382 -1.8345626919 -2.5163570812
H -2.3974892166 0.8864777927 -1.4205981594
H -0.0489768070 1.5507770049 -1.7387203015
H 0.6468513976 1.2965532149 2.4790882996
H -1.7313896530 0.6187978187 2.8271822331
H 3.1700125265 -2.2154117808 -0.1176027722
H 6.0728776245 0.9551260091 -0.3704873227
H 4.1901889180 2.5807309181 -0.1056134077
