29
CONF84
C 2.4365785033 -0.0346140186 -1.8546173725
C 2.7400678439 -0.0174587371 -0.3828552418
C 1.8871924006 0.4007599102 0.5636918358
C 0.4881713516 0.9092317087 0.3706242026
C -0.5472096810 -0.1816279139 0.6871598436
C -2.0163034956 0.2139201964 0.4216998200
C -2.4309376780 1.4612003910 1.2032267765
C -2.8944268573 -0.9440292150 0.8359912426
C -3.7395730084 -1.6023026123 0.0470713011
O -2.1964840713 0.5449118753 -0.9656692566
C 4.1102492249 -0.5263276711 -0.0268451509
H 3.1497712833 0.5969668564 -2.3996647752
H 1.4260780473 0.3032681724 -2.0903432608
H 2.5582492616 -1.0510429127 -2.2497341511
H 2.2197824844 0.3383724999 1.6011596767
H 0.3303446749 1.2696706924 -0.6495517633
H 0.3292598881 1.7632300200 1.0396279935
H -0.4492442081 -0.4894002586 1.7359094328
H -0.3258733204 -1.0691890912 0.0780275197
H -2.2792894201 1.3046985706 2.2748618617
H -3.4891265030 1.6748036719 1.0268155241
H -1.8425677998 2.3262782405 0.8867176014
H -2.7905910481 -1.2350950339 1.8815364570
H -3.8723903500 -1.3331927207 -0.9971208369
H -4.3297194391 -2.4298891750 0.4286758444
H -1.8874562255 -0.2070539188 -1.4894095575
H 4.2404068448 -1.5607707279 -0.3700334347
H 4.2892558325 -0.4924815396 1.0511587093
H 4.8857839564 0.0671627248 -0.5280085282
