38
CONF162
C 4.0670599899 3.2371711129 0.0186522983
C 2.6675143743 2.8225915022 -0.4335827123
C 2.3828745941 1.3782308645 -0.0765015466
O 1.0596209695 1.0490405005 -0.5331076422
C 0.7199045847 -0.2933631998 -0.2218864881
C -0.5979921376 -0.6119970098 -0.8815486783
N -1.6902990944 -0.9059393980 -0.2946662846
C -1.8376923505 -0.7922677429 1.0877553993
C -1.7861401670 0.4597141814 1.7131595191
C -2.0335179916 0.5908005845 3.0721616469
C -2.3351489295 -0.5424546855 3.8169493439
C -2.3961452248 -1.7987044836 3.2307771081
C -2.1542935802 -1.9211419407 1.8656418487
C -2.2119289477 -3.2748430483 1.2188519037
F -1.0612119496 -3.5777769922 0.5619938844
F -2.4165433292 -4.2635654042 2.1180108572
F -3.2136772398 -3.3673167271 0.3058999078
Cl -2.6493806945 -0.3879030887 5.5375559034
N -0.5906341698 -0.6239978000 -2.2872272429
C 0.5025623512 -0.4469353303 -3.1315365951
C 0.0088060091 -0.5549166727 -4.3959648650
N -1.3599235951 -0.7911855352 -4.3693504258
C -1.6888840868 -0.8272940054 -3.1029740150
H 4.1766662557 3.1321065998 1.1032088904
H 4.8338486678 2.6186140053 -0.4596206114
H 4.2654656648 4.2806289368 -0.2406781681
H 1.9121588459 3.4616256599 0.0386697752
H 2.5672960264 2.9461203032 -1.5184302569
H 3.1108498275 0.7053959566 -0.5576749853
H 2.4439022259 1.2258907811 1.0127987605
H 1.4834766807 -0.9962162060 -0.5951487100
H 0.6266976422 -0.4430746339 0.8614709824
H -1.5610301197 1.3369281040 1.1153509747
H -1.9899351477 1.5662359326 3.5432195018
H -2.6267991471 -2.6717549322 3.8280225037
H 1.4958738774 -0.2547593423 -2.7614042323
H 0.5528295944 -0.4742513147 -5.3264404670
H -2.6762309460 -0.9894352249 -2.6948725829
