42
CONF4
C -4.5382756412 1.4451191139 2.9638487315
C -4.2994276878 1.5872877327 1.6006854852
C -3.1106983730 1.1189767427 1.0409003803
C -2.1478024231 0.5028242453 1.8393088499
C -2.3989422154 0.3570695583 3.2082884954
C -3.5822363519 0.8247427454 3.7679271516
C -0.8333737585 -0.0177582592 1.2942487470
C -0.7400100577 -0.1538647314 -0.2118373794
C -0.8008761800 -1.4124596327 -0.8141756026
C -0.6641839528 -1.5419519240 -2.1928881930
C -0.4610633810 -0.4132278623 -2.9842005726
C -0.4116842061 0.8474732176 -2.3932520703
C -0.5507776254 0.9763590518 -1.0149633588
C 0.3605176918 0.8209712257 1.7641411489
O 0.2562736543 1.8605774127 2.3761948367
C 1.7543250420 0.3193847542 1.3705099869
C 2.3388188840 1.1219033835 0.1846022844
O 2.4047171123 2.3304641904 0.1123544481
C 2.8205957750 0.1446749848 -0.8126966154
C 3.4433106821 0.3944278434 -2.0306325315
C 3.8228273399 -0.7020918760 -2.7987833419
C 3.5851956464 -2.0120705788 -2.3580790145
C 2.9616490539 -2.2581273064 -1.1387346535
C 2.5824968742 -1.1611141217 -0.3734907548
C 1.9132129323 -1.1409030320 0.9423093266
O 1.5788819304 -2.1086532637 1.6009284639
H -5.4643339238 1.8088081262 3.3981251519
H -5.0403811955 2.0615175768 0.9642813568
H -2.9428191150 1.2299229713 -0.0250127860
H -1.6577132486 -0.1284643690 3.8380581772
H -3.7609263454 0.7024049803 4.8318716299
H -0.6646810345 -1.0152239042 1.7228042131
H -0.9396835383 -2.2946125160 -0.1954553424
H -0.7052922087 -2.5265471200 -2.6481636707
H -0.3417073417 -0.5159551578 -4.0581917977
H -0.2565242675 1.7308806006 -3.0045635677
H -0.5076901637 1.9624642467 -0.5594500539
H 2.3983817662 0.5044369180 2.2406850180
H 3.6235779606 1.4100058383 -2.3670925819
H 4.3108184685 -0.5454196610 -3.7552207196
H 3.8932490126 -2.8446009113 -2.9821969539
H 2.7722557013 -3.2696515299 -0.7949403376
