32
CONF5
C 3.4601713272 -0.0072516183 -0.8211530867
C 2.7899817248 -0.6818462978 0.1843246311
C 1.7581840063 -0.0628291215 0.9016726974
C 1.4324519156 1.2705897671 0.5909179900
C 2.1100062221 1.9698634721 -0.3930474905
C 3.1107291594 1.3098395373 -1.0920692384
N 3.8266371815 2.0432747407 -2.1553935956
O 3.5053798123 3.2081646477 -2.3525337607
O 4.6922462321 1.4344891178 -2.7703863379
Cl 0.1408626460 2.0729906540 1.4573341460
N 1.0887567121 -0.7717814801 1.9140283378
S 0.0874446908 -2.1089292173 1.4334151745
O -0.6280716456 -2.4763770184 2.6521832723
O 0.9428715544 -3.0276796524 0.6867551265
C -1.0675450260 -1.3654403373 0.2796779297
C -2.2639166739 -0.8572597736 0.7670310399
C -3.1369971190 -0.2050352438 -0.0970784646
C -2.7800811786 -0.0692649107 -1.4463418243
C -1.5801771062 -0.5904108918 -1.9238294266
C -0.7150315110 -1.2463204269 -1.0601197901
Cl -3.8167110591 0.7424974627 -2.5807749311
C -4.4382344831 0.3421076791 0.4438617234
F -5.5066120066 -0.2131202311 -0.1648549504
F -4.5596656643 0.0940144323 1.7658230709
F -4.5202531641 1.6803723883 0.2824312656
H 4.2585821543 -0.4779324163 -1.3799965173
H 3.0533349177 -1.7011799536 0.4377153355
H 1.8617895332 2.9960729180 -0.6305404382
H 0.5313734197 -0.1724205557 2.5196717438
H -2.5185712347 -0.9773527689 1.8130919673
H -1.3335116522 -0.4824194950 -2.9732811859
H 0.2145765319 -1.6694248987 -1.4236902889
