60
CONF8
C 0.7745872739 -1.0624842271 1.1878021242
C -0.5833087975 -1.7586285081 1.3100486257
C -1.8117063176 -0.8755278607 0.9529548413
C -1.4946017212 0.5891203216 0.8160252151
C -0.3502578708 1.1436644659 1.3309990272
O -0.1302862731 2.4500970260 1.4070480995
C 0.7433555611 0.2767050492 1.9176833146
O 0.4406461332 0.0630863924 3.2917502173
C 2.0953964075 0.9966985790 1.8052671257
O 2.5511074623 1.5295053098 2.8240082815
C 2.6968050568 1.0410531213 0.5014939230
C 3.7859371837 1.9676447403 0.1577668517
O 4.1960162662 2.0508248878 -1.0375826215
N 4.3377375601 2.7239007875 1.1169302364
C 5.4302989588 3.6360062310 0.8114483491
O 6.6594970296 2.9692492621 0.5653700512
C 2.1931148236 0.2179587947 -0.5059933224
O 2.6190439819 0.3260208629 -1.7375498881
C 1.2203072740 -0.9153872858 -0.2789811985
N 1.7556803568 -2.2032841097 -0.7483067494
C 1.5679645308 -2.4803761829 -2.1730476886
C 3.1350331908 -2.4782328781 -0.3409300529
C -2.5279722748 1.4537850275 0.3386034263
O -2.4257342479 2.7225572902 0.4668536222
C -3.6858873384 0.8911080785 -0.3508668091
C -4.7152899492 1.7777997599 -0.7769750094
O -4.7266870122 3.0786164947 -0.4537328164
C -5.7606692287 1.3071613662 -1.5709579666
C -5.7288419388 0.0073812804 -2.0239087608
C -4.6995574398 -0.8542282480 -1.6388226049
Cl -4.7186460050 -2.4221261448 -2.4637982644
C -3.7037620817 -0.4790257661 -0.7380277055
C -2.6365165760 -1.4632178007 -0.2214431740
C -3.2781520189 -2.7535384612 0.3276915514
O -1.7133100189 -1.7335604000 -1.2908092008
H 1.5161961646 -1.6775235229 1.7093090730
H -0.5544088012 -2.6401391253 0.6661147120
H -0.6893067728 -2.1121254035 2.3377061182
H -2.5033767500 -0.9320325848 1.8053639026
H -0.9773187455 2.8819879571 1.0684556066
H 0.9886205150 0.7064911296 3.7781975911
H 4.0351899191 2.5646443435 2.0723057167
H 5.1436387965 4.2530665738 -0.0477871692
H 5.5813695117 4.2684221171 1.6877885455
H 6.5990664738 2.5691699605 -0.3125947582
H 3.3421327472 1.0822569908 -1.7024921708
H 0.3391457579 -0.6945425916 -0.8943689805
H 1.7314410967 -3.5512695405 -2.3426348814
H 0.5431189606 -2.2363960496 -2.4650491376
H 2.2634795832 -1.9234345437 -2.8207085967
H 3.2763328473 -2.2646025017 0.7227544165
H 3.8788881425 -1.8968074586 -0.9139772374
H 3.3437734582 -3.5410703078 -0.5015665015
H -3.8517646940 3.2570000285 -0.0083970687
H -6.5512405821 1.9871172181 -1.8677379756
H -6.4994491655 -0.3518959775 -2.6968284240
H -2.5631868530 -3.2751128827 0.9670340887
H -4.1573705180 -2.5059079145 0.9298275692
H -3.5790572717 -3.4405403371 -0.4591582088
H -2.1672554595 -2.2670822932 -1.9576399449
