39
CONF3
C -1.5985627641 1.0976874219 -3.5599020468
N -1.7837294950 0.8297092561 -2.1394530282
C -1.6101829396 -0.3433268848 -1.5008414913
C -1.8928786081 -0.1224257178 -0.1576660562
C -2.2388806536 1.2504129706 -0.1054644539
N -2.1535256013 1.8188522541 -1.3097233751
C -2.6563935370 2.1273991835 1.0221463550
F -3.9412851330 1.8243844188 1.4383937285
F -1.8460487675 1.9586234072 2.1224040378
C -1.8742659975 -1.0739647742 0.9644987331
O -2.6334958186 -0.9455992245 1.9285316043
N -1.0025796926 -2.1299345712 0.9074122458
C 0.0455342228 -2.3880665965 -0.0151705321
C 1.0731382736 -1.4563239793 -0.2628512058
C 2.0402429309 -1.7684120851 -1.2245135402
C 1.9962936034 -2.9916328287 -1.8658733333
C 1.0237074860 -3.9399490767 -1.6035696105
C 0.0400624153 -3.6170825026 -0.6773349491
F 2.9573897771 -3.2753464370 -2.7795575369
C 1.1623905448 -0.1527713650 0.4302973559
C 1.0828160606 -0.0756710820 1.8222895870
C 1.1702672381 1.1545482056 2.4601452208
C 1.3354540583 2.3238610588 1.7159384007
C 1.4278422592 2.2520388042 0.3300334160
C 1.3448506751 1.0223066049 -0.3060155782
Cl 1.4112976242 3.8843938036 2.4926850667
Cl 1.0524488474 1.2065051030 4.2015650967
H -2.5297983552 1.4769611929 -3.9871650837
H -1.3192348038 0.1651755644 -4.0511595467
H -0.8045960847 1.8367334118 -3.6928334879
H -1.3156806083 -1.2350168100 -2.0339996700
H -2.6385026544 3.1844048178 0.7376119662
H 1.0260587044 -4.8927388580 -2.1208556410
H 0.9572827164 -0.9729756134 2.4168646717
H 1.5513090426 3.1628124748 -0.2450001699
H 2.8445553256 -1.0740037756 -1.4417378700
H -0.7612396284 -4.3198999550 -0.4729113020
H 1.3930916146 0.9796336878 -1.3892459718
H -1.1481497281 -2.8189996368 1.6351566023
