94
CONF11
C 10.2066511712 -2.1386605190 -0.8801103988
C 8.9991294991 -2.0268457277 0.0287935646
C 8.1412887465 -3.3052444934 0.0419564301
C 6.9090267715 -3.1515970761 0.8708119060
C 5.7093843890 -2.8222088330 0.3549302374
C 4.5172375228 -2.5976300132 1.1192328132
C 3.3319362310 -2.2259200241 0.5711230707
C 2.1239408761 -2.0280144381 1.3069843825
C 0.9459104078 -1.6528838442 0.7455801849
C -0.2756514686 -1.4635848732 1.4731634793
C -1.4192478483 -1.0294317364 0.9140804309
C -2.6505155330 -0.6770235255 1.6857397007
C -2.7620056755 0.8318497202 1.9095148723
C -2.7794470409 1.6107886348 0.5901739192
C -3.9781571843 2.5822042786 0.4504609492
C -3.8023855028 3.4214819316 -0.8211805231
C -2.4405641317 4.1007393703 -0.8200915857
C -1.3367922426 3.0530698802 -0.6878884478
O -1.5417316871 2.3212182318 0.5277215568
C 0.0646289346 3.6480831048 -0.5263197330
C 1.1461190839 2.5793240069 -0.3482221175
C 2.4838175736 3.1851970050 0.0704582300
C 3.6077928620 2.1894397863 -0.0209720126
C 5.0103243722 2.6367233154 -0.1298888934
O 4.3074106002 2.1480718691 -1.2810387249
C 6.1105566687 1.8126879522 0.3905289507
C 6.6009771949 0.7395452280 -0.2332111511
C 7.6593614749 -0.0691759288 0.3994136399
O 8.0386498562 0.0430958684 1.5459615315
O 8.1532073598 -0.9680298728 -0.4928499004
O 1.2952752505 1.7775255370 -1.5452509294
O -1.4198676677 2.2119270349 -1.8215236548
O -4.7948404391 4.4499534699 -0.9062733524
C -5.2207996708 1.7133408798 0.4428739654
O -5.8145000483 1.3885096115 1.4613432119
O -5.5379117188 1.2698743744 -0.7697049378
O -3.8613289213 -1.0353321739 0.9840748023
C -4.2951854779 -2.3718990387 1.1135974291
C -5.8217474518 -2.3711304834 0.9476758027
C -6.2449955442 -2.1465509863 -0.5445073864
C -5.0387255782 -2.0906927227 -1.4673521951
C -4.0969823884 -3.2578295055 -1.1610745610
O -3.6619399984 -3.2589007263 0.2210906460
C -2.8536826375 -3.2519165688 -2.0296814518
O -5.5493270148 -2.1965268584 -2.8057784230
N -7.0519014248 -0.9188178936 -0.6979238972
O -6.4502007241 -1.4931378719 1.8544936064
H 9.8979018847 -2.3497908351 -1.9084970136
H 10.8569626405 -2.9498331144 -0.5392034918
H 10.7801491134 -1.2082469947 -0.8720560078
H 9.2959256835 -1.7562125096 1.0464928348
H 8.7692380020 -4.1214494346 0.4205987209
H 7.8740305132 -3.5431591279 -0.9946981033
H 7.0163881914 -3.2412424001 1.9513896287
H 5.6236207101 -2.7075810047 -0.7265835807
H 4.5805683437 -2.7380200388 2.1982641117
H 3.2823359844 -2.0750375939 -0.5078631841
H 2.1612006224 -2.2013271316 2.3829325981
H 0.9135634667 -1.4665351404 -0.3281946548
H -0.2515895761 -1.6677750085 2.5447777489
H -1.4439830506 -0.8166556684 -0.1529960823
H -2.6392843928 -1.1839543746 2.6632098780
H -3.6723077129 1.0232577025 2.4851130590
H -1.9034615944 1.1708387878 2.4960255503
H -2.8335397584 0.9223007189 -0.2633610518
H -4.0173908635 3.2381545993 1.3276750922
H -3.8653929326 2.7605707561 -1.6934941912
H -2.3802528348 4.7977058338 0.0234753562
H -2.3122000186 4.6634115905 -1.7493965625
H 0.2945854264 4.2681318020 -1.4018283413
H 0.0589179671 4.3004610829 0.3542686430
H 0.8193521988 1.8614090993 0.4118430452
H 2.3947520588 3.5496343111 1.1018631230
H 2.7304995414 4.0500828924 -0.5609543709
H 3.4299632010 1.2020698185 0.4109048589
H 5.1799579641 3.7171445023 -0.1258858862
H 6.5343700856 2.1076354091 1.3494819442
H 6.2271212258 0.4305201877 -1.2032579373
H 1.8566118345 2.2582762832 -2.1680450815
H -0.5511098437 1.7856124275 -1.9279892004
H -5.6311223423 4.0255187768 -1.1313429586
H -6.1915389658 0.4686444079 -0.6903201888
H -4.0362957497 -2.7463579726 2.1139820247
H -6.1509075250 -3.3759516155 1.2341311295
H -6.8287422700 -3.0256633040 -0.8603609940
H -4.5088735350 -1.1392141251 -1.3306315612
H -4.6606422826 -4.1894882381 -1.3315279057
H -3.1127706126 -3.4339667484 -3.0769829435
H -2.3337512370 -2.2919654160 -1.9446665154
H -2.1701312133 -4.0404699828 -1.7050365925
H -4.9123059760 -1.7928154182 -3.4042503582
H -7.5353998850 -0.9639112063 -1.5894934668
H -7.7465405787 -0.8843749758 0.0437170349
H -6.0912324653 -0.5929008603 1.7327249448
