35
CONF387
C -0.5506854054 2.3936212333 -0.2683550004
C -1.0167980501 3.5676199149 0.5604705401
C -1.4213794555 3.2665503271 1.9827387044
Br -3.1029097802 2.1972972991 1.9690973796
Br 0.4575453491 4.9191254977 0.6895867543
O 0.6283032284 1.7742870805 0.3028234953
P 0.5976427416 0.3404225212 1.0057357591
O -0.0145624399 0.2167278501 2.3473883270
O 2.1491135273 -0.0219693636 1.0539292895
C 2.9617670337 -0.0267345938 -0.1444996679
C 3.9420968798 -1.1711299877 -0.0667882864
C 4.7282005674 -1.2861574007 1.2160897548
Br 5.9057548237 0.3069482678 1.4223308331
Br 2.9464381159 -2.9062403305 -0.2248185823
O -0.0759684055 -0.5603864539 -0.1425718747
C -0.7483362759 -1.7889861076 0.2205810149
C -2.2064524526 -1.5337015828 0.5286346297
C -2.9670748671 -2.7686528260 0.9433739322
Br -2.3623852589 -3.3478969657 2.7517680070
Br -3.1161437843 -0.8704466777 -1.1308842622
H -0.2747776171 2.7212054471 -1.2723722931
H -1.3708092179 1.6695236556 -0.3472444968
H -1.8095291317 4.0881295373 0.0198238585
H -0.6891751462 2.6599936364 2.5147726536
H -1.6692768377 4.1694816819 2.5353938880
H 3.5177013357 0.9166894881 -0.1808840957
H 2.3449282222 -0.1152421585 -1.0426182367
H 4.5922179587 -1.1492266648 -0.9430111693
H 4.0901355158 -1.3001333441 2.0975820153
H 5.4032197697 -2.1386403582 1.2027032865
H -0.6327736334 -2.4654296123 -0.6294834945
H -0.2745522184 -2.2378813781 1.1010435788
H -2.3274587540 -0.7166051917 1.2421106111
H -2.7900522951 -3.6160190891 0.2809163015
H -4.0308311002 -2.5722067754 1.0532270524
