85
CONF148
C 3.4966217509 0.1939536365 -4.4817293438
C 4.3931636730 1.0970683506 -3.6359774350
C 4.1870710293 0.9174784470 -2.1396720352
C 5.0942584250 1.7885363205 -1.2672226120
C 4.6706098626 1.6383118878 0.1973226457
C 3.1881793031 1.9469530482 0.3703026121
C 2.3401041085 1.0881798245 -0.5728918829
O 2.7883908434 1.2342600562 -1.9002359395
C 0.8614265370 1.4997681227 -0.5970919083
C 0.1677749935 1.1112558194 0.6951980616
C 0.3797439304 -0.3627915367 0.9623502123
C 1.8553636724 -0.7165720315 0.9731181746
O 2.4656497379 -0.3180242313 -0.2647231394
C 2.0426267431 -2.2295462998 1.1330275930
C 1.5333329224 -2.6627207488 2.4765026108
C 0.5987101810 -3.5758841738 2.7805574427
C -0.1031917713 -4.4819981991 1.8009316450
C -1.6119970504 -4.1668712470 1.5582104824
C -1.7785576276 -3.2362202277 0.4011723103
C -2.5077814145 -2.1066307642 0.3477617677
C -2.5381060317 -1.3144322913 -0.8611161140
C -3.0932663925 -0.1123967132 -1.0823602049
C -2.9672996928 0.6099675781 -2.3928370106
O -4.1599299202 1.4127746473 -2.4847978116
C -4.4331095865 1.8648672125 -1.1521592011
C -4.0380385701 0.6987941134 -0.2047718844
C -3.5571131059 1.1968549068 1.1906672699
C -3.9669126920 2.6252442220 1.4926175867
C -4.0072803870 3.5791028074 0.5568450226
C -3.7018101541 3.1784645267 -0.8618392817
O -4.1462886895 4.1895725468 -1.7695259803
C -4.3414166612 5.0058466382 0.8540336873
C -2.0742081652 1.1321321321 1.5266569365
O -1.6865236025 0.9493818686 2.6652776438
O -1.2673519473 1.3668464267 0.4829792707
O -5.2077598823 -0.0903238766 0.1142951462
C -2.3709483857 -5.4734131701 1.2628089169
C 0.2135056792 -3.8091289557 4.2188108911
C 6.5703616845 1.4291943720 -1.4395352221
H 2.4394410254 0.4247620163 -4.3272062754
H 3.7189710871 0.3146138820 -5.5464050875
H 3.6536540644 -0.8590906953 -4.2220200810
H 5.4417741444 0.8787262377 -3.8622769288
H 4.2239070663 2.1519800979 -3.8900269260
H 4.3521178138 -0.1388953390 -1.8747695219
H 4.9367482563 2.8359390538 -1.5672212467
H 4.8789049632 0.6115183924 0.5282251068
H 5.2679934062 2.3073613464 0.8272554760
H 2.9912519205 2.9951783645 0.1152440502
H 2.8766935988 1.8085367921 1.4099695020
H 0.3832349769 0.9674015036 -1.4275615083
H 0.7875690716 2.5757326178 -0.7820593669
H 0.4961852847 1.7270118015 1.5392484217
H -0.1018871411 -0.9331436527 0.1614542402
H -0.0706491181 -0.6641646849 1.9084332298
H 2.3621464375 -0.2148810272 1.8128787899
H 1.5293147830 -2.7391574905 0.3111341264
H 3.1163979998 -2.4469711653 1.0462521175
H 1.9747292554 -2.1161490636 3.3125214551
H -0.0416791016 -5.5000962297 2.2085238194
H 0.4090871788 -4.5027325133 0.8337108587
H -2.0430507954 -3.7080901493 2.4561293410
H -1.2578067917 -3.5445683188 -0.5095270150
H -3.0437696290 -1.7574288323 1.2296588937
H -1.9777748141 -1.7434915665 -1.6940738215
H -2.0730895434 1.2562270429 -2.4089105301
H -2.9325300669 -0.0562504870 -3.2587178415
H -5.5083417704 2.0602663230 -1.0834816348
H -4.0259170023 0.5394775509 1.9273592322
H -4.1464514103 2.8661884040 2.5369074202
H -2.6143532709 3.0352212333 -0.9756613899
H -3.9830188117 3.8472071269 -2.6590695396
H -3.5302556057 5.6668863451 0.5271557151
H -4.5049045038 5.1477604784 1.9247607521
H -5.2386759036 5.3207303305 0.3114606736
H -5.5290884538 -0.4720869539 -0.7147058710
H -3.4296123043 -5.2756845309 1.0701570477
H -1.9480088570 -5.9677764014 0.3805901645
H -2.2906417983 -6.1609395964 2.1114934424
H -0.8661069880 -3.6819387592 4.3643921296
H 0.7314073860 -3.1227103232 4.8934723412
H 0.4481899396 -4.8384555162 4.5187639196
H 6.7281578365 0.3581837881 -1.2637814819
H 7.1780115372 1.9802901688 -0.7141745414
H 6.9437207986 1.6696492367 -2.4384623112
