26
CONF2
C 3.6300964594 -0.0327538147 0.1033587828
C 2.1298768666 -0.0668660272 0.1124670019
C 1.4316572955 -0.8304899421 0.9614828798
C -0.0690870409 -0.8568891963 1.0407944027
C -0.7093108119 0.3331092851 0.3029687128
C -0.0362849948 0.4864961707 -1.0680852152
C 1.4447892591 0.8198574237 -0.8961939732
C -2.2123506895 0.1970801103 0.2198287876
C -3.0129000895 0.9487266551 0.9831453721
C -2.7668437967 -0.8101771879 -0.7490333144
H 3.9932132759 0.9921405541 0.2551845229
H 4.0547314551 -0.6697711904 0.8841257313
H 4.0214443108 -0.3610872812 -0.8679074876
H 1.9694609764 -1.4711373353 1.6603713740
H -0.4467327004 -1.8041704079 0.6278746859
H -0.3827474963 -0.8438232419 2.0926422977
H -0.4873918280 1.2372667336 0.8869382051
H -0.1341247071 -0.4542564098 -1.6249324341
H -0.5359887917 1.2662863123 -1.6545769861
H 1.9654551135 0.7341497648 -1.8594972902
H 1.5657130889 1.8697611172 -0.5881502578
H -2.6053173847 1.6869063771 1.6693403426
H -4.0942620651 0.8456044321 0.9443118759
H -2.5533905055 -0.5105209076 -1.7819578508
H -3.8493378760 -0.9087550215 -0.6380902647
H -2.3103671432 -1.7966867710 -0.6097291943
