52
CONF18
C -3.9944452359 1.6234857473 2.9076656644
O -4.1440134454 1.2303088019 1.5365228524
C -3.0262417058 0.8086530138 0.8835692181
C -1.7498000961 0.7639551023 1.4496317464
C -0.6684330965 0.3134249868 0.6914002401
C -0.8531663721 -0.0766971141 -0.6353777127
C -2.1290677411 -0.0331754090 -1.2027356889
C -3.2242782162 0.4015896893 -0.4439532239
O -4.4864474829 0.4088417195 -0.9886935578
C -4.8104290121 1.6579689845 -1.6348016503
O -2.4119442677 -0.3931631016 -2.4854532520
C -1.3211874975 -0.8569723588 -3.2925098711
C 0.7067073986 0.2346120903 1.3459325650
C 0.9627594629 -1.0974379804 2.0554349867
C 1.1275006921 -2.2360141986 1.0626442433
C 0.9365070618 -3.4517652136 1.9597363187
O -0.0363101164 -3.0020441702 2.9628140695
C -0.0351428232 -1.6450641331 3.0473062154
O -0.7203940983 -1.0633618760 3.8552775938
C 2.4463898274 -2.0706432978 0.3332755695
C 2.6074880647 -0.6349298048 -0.1512916196
C 3.6209020933 -0.3974850512 -1.1062646665
C 3.8075110140 0.8913905125 -1.5366637608
C 3.0384503780 1.9436661173 -1.0533454088
C 2.0537131452 1.7434766157 -0.1193311599
C 1.8353558170 0.4278967872 0.3415472626
O 3.4266279152 3.1191028482 -1.6386734412
C 4.5126318189 2.7840657208 -2.5322292382
O 4.7186933135 1.3566236263 -2.4493581488
O 2.5497715015 -2.9423157598 -0.8035356563
H -4.9940992614 1.8998944933 3.2439001196
H -3.6164414138 0.7929163311 3.5149851247
H -3.3229953857 2.4850809084 2.9997228494
H -1.5863215632 1.0677581620 2.4751393059
H 0.0003584945 -0.3896773854 -1.2229959233
H -5.8261203119 1.5535234466 -2.0211617755
H -4.1174582724 1.8532562525 -2.4614405379
H -4.7708241904 2.4834696085 -0.9145621335
H -1.7567985413 -1.1001439355 -4.2620078891
H -0.8633562000 -1.7534514635 -2.8579558774
H -0.5609969441 -0.0765501813 -3.4151536862
H 0.7640506899 1.0402443413 2.0868474970
H 1.8992160160 -0.9945664733 2.6316192420
H 0.3111585568 -2.1954114855 0.3310861926
H 1.8579006594 -3.7291297687 2.4858212348
H 0.5062816498 -4.3235125332 1.4656932065
H 3.2697063886 -2.2925238786 1.0342189485
H 4.2231982248 -1.2139856067 -1.4861312181
H 1.4505989307 2.5650272575 0.2537041945
H 4.2320334171 3.0506482751 -3.5566023100
H 5.4215944417 3.3006253171 -2.2054725993
H 2.7396066936 -3.8314853809 -0.4777948243
