41
CONF13
O 8.7125291813 0.0927950413 0.6398984648
N 8.1523516160 -0.4202088405 -0.3331576316
O 8.7659005028 -0.9296336458 -1.2753412042
C 6.7016014415 -0.4216832554 -0.3731694958
C 5.9897902066 0.1663490930 0.6777290201
C 4.6108163710 0.1678163189 0.6424517572
C 3.9284008575 -0.4201213671 -0.4440117639
C 4.6698467818 -1.0127137416 -1.4833830190
C 6.0508791633 -1.0130559191 -1.4572294659
N 2.5395141603 -0.4868257953 -0.5809564076
N 1.8919688801 0.1556614552 0.3167484905
C 0.5210259389 0.0931720282 0.2410990147
C -0.1898395081 0.8263834346 1.2145511317
C -1.5627589974 0.8461979630 1.2432927937
C -2.3210686709 0.1159693605 0.2836804269
C -1.5935130832 -0.6309199172 -0.6954376421
C -0.2236610924 -0.6384956517 -0.7154372738
N -3.6761730069 0.1232646569 0.2931303093
C -4.4350375102 0.8168574902 1.3368196632
C -4.6295791616 2.2986965164 1.0548903550
O -5.4213695549 2.4296537304 -0.1317552164
C -4.4685155989 -0.6305654449 -0.6893864053
C -4.6516955471 -2.0925603944 -0.2882501108
H 6.5234373644 0.6119365963 1.5080233373
H 4.0470969446 0.6151407337 1.4514779883
H 4.1354053765 -1.4672582869 -2.3109821197
H 6.6237374928 -1.4637161140 -2.2575593963
H 0.3758089169 1.3890623577 1.9512086226
H -2.0548176795 1.4352711339 2.0053207639
H -2.1225897864 -1.2175855527 -1.4348436878
H 0.2975517744 -1.2186077591 -1.4681132251
H -5.4148657300 0.3342961375 1.4061302874
H -3.9497073068 0.6937240525 2.3099016498
H -3.6577789969 2.7946056221 0.9268498695
H -5.1372015937 2.7473229832 1.9213622821
H -5.4730550111 3.3683454047 -0.3483793735
H -5.4389783250 -0.1348764902 -0.7596986323
H -4.0040809795 -0.5450964116 -1.6756273235
H -5.1532101218 -2.1643289930 0.6818092435
H -3.6902801087 -2.6096710679 -0.2196425086
H -5.2678853086 -2.6045982556 -1.0333735684
