42
CONF669
C -2.9025096169 -1.1542220791 0.4259987903
C -3.0614154837 0.3041826718 0.0892975341
O -1.8183643900 0.8233174304 -0.3856433817
C -1.9219063261 2.2141774690 -0.6842077313
C -0.6066799441 2.7232005085 -1.2119627402
O 0.3742241193 2.6639463588 -0.1784303415
C 1.5807228688 3.3276708092 -0.5559337743
C 2.6333916454 3.1233192461 0.5141799981
O 3.3370106462 1.8813985503 0.4435097816
C 2.5874647732 0.7146741168 0.7964621097
C 2.1979327610 -0.0592514407 -0.4538302921
O 1.6339143300 -1.2969599993 -0.0260756132
C 1.2441418774 -2.1172058455 -1.1264832755
C 0.6789510615 -3.4247826143 -0.6168326279
O -0.5854550588 -3.2643911961 0.0315937600
C -0.4955648928 -3.1096173391 1.4523452673
C -1.8250600515 -2.6242766458 1.9829037773
O -2.1038177428 -1.2711055297 1.6078166535
H -2.4343614535 -1.6845514580 -0.4133842301
H -3.9004801129 -1.5868960379 0.6009542943
H -3.3908011953 0.8644975958 0.9791231791
H -3.8364084209 0.4080024675 -0.6874614445
H -2.6966302939 2.3838852345 -1.4498471020
H -2.2063830794 2.7756589655 0.2202488100
H -0.7474290628 3.7637190669 -1.5466272467
H -0.2815665174 2.1257498501 -2.0793993278
H 1.3886506493 4.4079011740 -0.6692016019
H 1.9511662743 2.9447203510 -1.5210995889
H 3.4021107792 3.8930619433 0.3907022305
H 2.1743725026 3.2482996049 1.5070487235
H 3.2369818451 0.0829932053 1.4160698104
H 1.6969183145 0.9773980215 1.3804392312
H 3.0943517053 -0.2391794444 -1.0692061458
H 1.4701280583 0.5084276177 -1.0534070561
H 0.4883257079 -1.5969342806 -1.7374017994
H 2.1154614971 -2.3320792796 -1.7684015688
H 0.5140328059 -4.0795300047 -1.4808005360
H 1.3985790764 -3.9179448844 0.0528072366
H -0.2499371871 -4.0762994444 1.9240769735
H 0.2865232092 -2.3855103645 1.7123949231
H -1.7824571743 -2.6497931096 3.0785060217
H -2.6381287896 -3.2896714569 1.6572103246
