43
CONF1
C 0.6910904343 2.9626419458 1.8005931287
C 0.3253812849 1.5201204638 1.4510503998
C -0.8291971138 1.0206643613 2.3169448362
C -0.0126684302 1.4454370686 -0.0602431533
C -0.2363121334 0.0439428694 -0.5509146440
C 0.8538044636 -0.8199383902 -0.7732796584
C 0.5916988167 -2.1412056856 -1.1494510545
N -0.6312186385 -2.6289824242 -1.3159167622
C -1.6662345094 -1.8171551136 -1.1212024449
C -1.5246188733 -0.4800383636 -0.7422716850
C -2.7287956632 0.4082105736 -0.6078786176
O -2.9670017278 1.3237881294 -1.3666897915
O -3.4782708842 0.0562507325 0.4355186988
C -4.6932444007 0.8337281186 0.6275303792
C -3.0004473145 -2.4889838213 -1.3604990360
F -3.9083697234 -1.6059822368 -1.8941755744
F -3.5267119119 -2.9289835607 -0.1652200942
C 1.7080892501 -3.1564452801 -1.3667417269
F 2.7595163834 -2.6262420423 -2.0305516896
F 2.1737025751 -3.6234054945 -0.1818168160
F 1.2890693791 -4.2186781516 -2.0745996188
C 2.2472522284 -0.3307765147 -0.6146286387
N 2.9650682318 -0.5987269673 0.3979274696
C 4.2635566720 0.0829747555 0.3448848964
C 4.6023887607 0.4513206275 -1.1079870663
S 2.9626052708 0.6802712484 -1.9181101979
H 1.5427419312 3.3104473376 1.2065642101
H -0.1567904820 3.6307014904 1.6078429997
H 0.9540871928 3.0457444711 2.8598721638
H 1.1992149471 0.8840540523 1.6346108304
H -1.0817152785 -0.0224910929 2.1006328344
H -1.7264331311 1.6296819644 2.1522035858
H -0.5639633142 1.0882552235 3.3767970647
H 0.8139201712 1.8922920159 -0.6210445424
H -0.8974526093 2.0587505894 -0.2489870205
H -4.4389194372 1.8841158576 0.7839320694
H -5.3391876771 0.7271887282 -0.2467151126
H -5.1639674146 0.4111189470 1.5132566751
H -2.9054882929 -3.3473842274 -2.0317381647
H 4.1852989570 0.9826252191 0.9720461573
H 5.0403264258 -0.5572124934 0.7737191498
H 5.1281446755 -0.3561585139 -1.6247003541
H 5.1800509098 1.3744630909 -1.1805638096
