53
CONF119
C -3.1099617660 2.2280688040 -0.8698392400
O -2.5442364462 1.0049276242 -0.3170068293
C -2.7903499989 -0.1064966807 -1.0106100136
O -3.4022665237 -0.1640305246 -2.0525455780
C -2.2475504538 -1.3438266313 -0.2698646448
C -3.1920644461 -1.6576139270 0.9185203003
C -2.4456167348 -1.1062410881 2.1086809740
C -2.9229976325 -0.8878595802 3.3908721335
C -2.0178335902 -0.4104080748 4.3367782803
C -0.6761982607 -0.1574988357 4.0444100330
C -0.2089409120 -0.3829101144 2.7559687772
C -1.1025108620 -0.8485856135 1.7940064389
C -0.9046182412 -1.1310315041 0.3889340342
N 0.2186475208 -1.3482849430 -0.1974906681
N 0.1282254551 -1.7039710022 -1.5159778748
C -1.1353598016 -2.2015074603 -2.1440985020
O -2.1203222961 -2.4448089061 -1.1639659662
C 1.1949153485 -1.5430092799 -2.3573289183
O 1.1698732629 -1.9716783150 -3.5022994618
N 2.2845811568 -0.7854760210 -1.8269845468
C 2.0263239168 0.4483014788 -1.1513869367
C 1.0373410190 1.3002009861 -1.6382613788
C 0.6943338497 2.4410667003 -0.9207720905
C 1.3750056798 2.7189982630 0.2520355188
C 2.4066815801 1.9160149518 0.7182751985
C 2.7226381515 0.7625761263 0.0149001713
O 1.0333575030 3.8986032108 0.9550874475
C 0.2360234674 3.7318935918 2.0332732337
F 0.8399044763 3.0557493618 3.0394959185
F -0.9020925699 3.0579587781 1.7471958370
F -0.0947912960 4.9451603652 2.4902445300
C 3.6059497999 -1.1197804118 -2.1454365675
O 4.5284755195 -0.3317142265 -2.0924272829
O 3.7125822189 -2.4145572686 -2.4612928758
C 5.0378360741 -2.8377726000 -2.8731445180
Cl -2.5907970659 -0.1095311101 5.9700624313
H -2.8137806369 3.0165817619 -0.1811497432
H -4.1972199056 2.1400356321 -0.9188916869
H -2.6993465586 2.4059139544 -1.8657786531
H -3.2901937208 -2.7469498876 0.9943396978
H -4.1923648468 -1.2343225423 0.7979570564
H -3.9571077651 -1.0796769887 3.6544692421
H -0.0139268231 0.2199363041 4.8148472869
H 0.8268726011 -0.1800459874 2.5036678493
H -0.9303202245 -3.1577020848 -2.6284910008
H -1.4680866985 -1.4631634421 -2.8859152210
H 0.5137955892 1.0639775467 -2.5597647913
H -0.0865112474 3.1075743858 -1.2690719111
H 2.9359138917 2.1732714643 1.6284734708
H 3.4910452423 0.0954048748 0.3876269426
H 5.7456683923 -2.7029179521 -2.0525892131
H 4.9319509335 -3.8926673284 -3.1212905726
H 5.3594237541 -2.2661762098 -3.7464470110
