38
CONF23
C 2.3598677044 2.8725432992 1.8903152613
C 2.2275607825 1.3925566897 1.5377069866
C 1.7777399419 1.2087803820 0.1034971255
O 1.5482325121 -0.1952501039 -0.1161655795
C 1.1157193745 -0.4973472862 -1.4149104974
C -0.3996775200 -0.5530066756 -1.5559644268
N -1.2943948202 -0.4363539036 -0.6664851365
C -1.1172076299 -0.2119727532 0.6945623852
C -1.3224891084 1.0789049175 1.2004653604
C -1.2788609322 1.3322365975 2.5628146905
C -1.0570819967 0.2784648940 3.4409693920
C -0.9041989435 -1.0204778293 2.9815022592
C -0.9446062501 -1.2684191132 1.6112114918
C -0.8425050806 -2.6792393436 1.1142485466
F -0.6797757651 -3.5706054967 2.1168312168
F -1.9597986903 -3.0581649224 0.4349999188
F 0.1990158461 -2.8651565702 0.2592363069
Cl -0.9860547771 0.5911976328 5.1698121469
N -0.8476850250 -0.8103333193 -2.8716240478
C -2.1745911893 -0.9623158217 -3.2615893354
C -2.1360319160 -1.2176543034 -4.5982471550
N -0.8264226236 -1.2344769540 -5.0589928443
C -0.0820464473 -0.9894612971 -4.0092862397
H 2.7070315206 2.9977114961 2.9195884351
H 3.0748461837 3.3743778540 1.2294235816
H 1.3951544123 3.3828405842 1.7944449430
H 3.1838963695 0.8764450015 1.6825328749
H 1.4959323757 0.9133586388 2.1985476825
H 0.8535274165 1.7750305866 -0.0874102597
H 2.5467466499 1.5644563810 -0.5989475834
H 1.5126882260 0.2209924787 -2.1476174122
H 1.5028648010 -1.4893681277 -1.6829844304
H -1.5133516832 1.8893570423 0.5054232311
H -1.4182955095 2.3413398690 2.9341588251
H -0.7574588360 -1.8342469415 3.6804498766
H -2.9842101479 -0.8723600472 -2.5567519052
H -2.9712613585 -1.3914223477 -5.2621864801
H 0.9971814037 -0.9329609016 -4.0060446897
