34
CONF4
C 1.9429616208 0.5403484298 -1.2149117371
C 2.8811653427 -0.2593832155 -2.0906444759
O 4.2325268914 0.1107305884 -1.6567269797
P 4.6662190196 0.0426981825 -0.1177961895
O 4.6520896583 -1.5431613014 0.1330416280
O 5.9170213971 0.7638009121 0.1810184110
O 3.4177538951 0.6363640766 0.7327956104
C 2.1406596383 0.1821135111 0.2502552780
C 0.9390441998 0.8633990024 0.8977808949
O 1.1334993467 2.2585684770 1.0590139507
C -0.1277418125 0.6866496574 -0.2256361530
O 0.5659976146 0.2331489087 -1.4124019563
N -1.1782884213 -0.2540223479 0.0687038513
C -1.0629065178 -1.6084737922 0.3235844913
N -2.2156643969 -2.1950889165 0.5454144363
C -3.1463226683 -1.1775756714 0.4321850004
C -2.5282034575 0.0362740981 0.1327591612
N -3.1271421163 1.2173660991 -0.0483906079
C -4.4542217472 1.1136356541 0.0911543736
N -5.1839020247 0.0266293486 0.3764548229
C -4.5498534394 -1.1528480848 0.5559419542
N -5.2725359756 -2.2464565582 0.8509352258
H 2.1358959012 1.6142511707 -1.3606886589
H 2.8263460680 0.0148214970 -3.1446799578
H 2.7329274881 -1.3380089728 -1.9698963180
H 4.9461752016 -1.8000720883 1.0213697856
H 2.0592541303 -0.9057563526 0.3803970953
H 0.6230662384 0.3855934075 1.8324292961
H 1.8649040973 2.3888904895 1.6778481175
H -0.6071740868 1.6551281337 -0.4085431886
H -0.0998042941 -2.1034697222 0.3181066345
H -5.0202927949 2.0345920129 -0.0445756736
H -4.8264453000 -3.1430728531 0.9456153835
H -6.2770101938 -2.1882680528 0.8880866099
