52
CONF17
C 1.3566063295 1.0348946277 -1.1900071872
C 1.5502862394 0.2262564978 0.1019724779
C 1.0246051120 0.9768085067 1.3365987647
C -0.3963516532 0.5698298503 1.7334067666
O -0.7714931640 0.6421988860 2.8846867413
C -1.2530426701 0.0958709674 0.5723457713
C -0.6409291087 -1.2021054758 -0.0251891888
C 0.8999417506 -1.1743754755 0.0700569199
C 1.7268074443 -1.9583849103 -0.9519400929
C 3.1647705109 -1.3955677185 -0.7879630807
C 3.0683063544 -0.2250080029 0.2166714607
C 4.0091832068 0.9562707463 0.0062787503
O 4.2451071525 1.6960271459 0.9504378759
C 4.6956517176 1.2159101046 -1.3134042489
O 5.3809090744 2.4378261626 -1.3224714893
O 3.3396286503 -0.7583543564 1.5092671472
C -1.2602608579 -1.4563623709 -1.3974754333
C -2.7910466197 -1.5598349856 -1.2606612454
C -3.3632894647 -0.3532116656 -0.5734118364
C -4.2763922645 0.4260964546 -1.1785220161
C -4.7951079135 1.6656937346 -0.5911110691
O -5.6419899984 2.3499322883 -1.1606655242
C -4.2271020839 2.0464419026 0.7090181680
C -3.3149896481 1.2882723869 1.3281974527
C -2.7959327944 -0.0154789825 0.7922925568
C -3.1846612663 -1.1047404513 1.8248035375
H 1.8903153118 1.9898775400 -1.1308342215
H 0.3078809387 1.2737398408 -1.3727313156
H 1.7183274447 0.4979712756 -2.0712774383
H 1.6437905926 0.8020755308 2.2189730802
H 1.0085656998 2.0626232617 1.1688960744
H -1.1329796578 0.8799164567 -0.1881954496
H -0.9637342796 -2.0303517699 0.6180752231
H 1.1446971439 -1.5890832186 1.0571904242
H 1.3624043954 -1.7840227641 -1.9688418101
H 1.6848152889 -3.0366595726 -0.7758945294
H 3.8595301983 -2.1335823688 -0.3817935480
H 3.5628023921 -1.0711951453 -1.7522516999
H 5.3854262916 0.3628942136 -1.4665830816
H 3.9741730334 1.1805969535 -2.1407110852
H 5.3915132364 2.7463230215 -0.4014088890
H 3.6253704394 -0.0145472271 2.0612560471
H -0.8748903077 -2.3892119485 -1.8236465689
H -1.0056595833 -0.6484005348 -2.0954546214
H -3.0263863826 -2.4656110893 -0.6849440616
H -3.2561467444 -1.6778936225 -2.2436552354
H -4.6635808932 0.1727925031 -2.1625139277
H -4.5939437299 2.9704303059 1.1461637109
H -2.9256596947 1.5757792242 2.3007680010
H -4.2741162720 -1.1448673564 1.9091052253
H -2.7595635107 -0.8587848840 2.7995321338
H -2.8321654870 -2.0957147945 1.5315823820
