50
CONF198
C -0.3645683811 0.3271516656 -1.6534743899
C -1.6609182893 -0.4451286850 -1.7261515096
C -1.6922445762 -1.8719228842 -2.2161215465
C -1.9342274749 -1.5751118383 -0.7296885624
C -0.9240796736 -1.9243028080 0.2767907995
O 0.2256683644 -2.2600159737 0.0938755868
O -1.4592246029 -1.7833666437 1.5316922059
C -0.4969636800 -1.9275930659 2.6017532079
C -1.2904603652 -2.0171742466 3.8279868887
N -1.8770029678 -2.0740441630 4.8208196835
C 0.4647283697 -0.7547574612 2.6634733883
C 0.0021990892 0.5261653669 2.3727186329
C 0.8988273101 1.5869776263 2.3970600369
C 2.2380132427 1.3915685039 2.7330058667
C 2.6783989979 0.1068731167 3.0295922667
C 1.7997902015 -0.9733105968 2.9903877815
O 0.3839751860 2.8433271623 2.1482788907
C 1.1096130937 3.7187893154 1.3547489284
C 1.8108240134 3.2866172422 0.2309929424
C 2.4580076156 4.2295395263 -0.5626061033
C 2.4006599666 5.5853563742 -0.2446372706
C 1.6868903606 5.9991781837 0.8782416849
C 1.0402433749 5.0680384925 1.6862099050
C -0.4716984933 -2.5449966673 -2.6803755109
C -0.4325288284 -3.7180657545 -3.3185357952
C -1.6417366123 -4.5794106393 -3.5914767293
F -2.3626887096 -4.1123898867 -4.6469924595
F -2.4794378651 -4.5975083539 -2.5267143168
F -1.3276051418 -5.8576881973 -3.8672733382
Cl 1.0728825036 -4.3409753057 -3.9587406876
C -2.8591619738 0.4104216264 -2.0716157252
H 0.4785433850 -0.2669448756 -1.2986253308
H -0.1188164313 0.7264375464 -2.6433604835
H -0.4885993335 1.1738033804 -0.9698880722
H -2.6088529714 -2.1584702004 -2.7214579680
H -2.9603845188 -1.6589089052 -0.3878081371
H 0.0625569058 -2.8627077804 2.4804510581
H -1.0344614814 0.7070173065 2.1085055119
H 2.9219895990 2.2331497317 2.7565538752
H 3.7200399026 -0.0540750024 3.2874031073
H 2.1529684959 -1.9778863749 3.2002482291
H 1.8473958299 2.2317745881 -0.0200510394
H 3.0043816272 3.8982184412 -1.4402139922
H 2.9066360752 6.3139010713 -0.8693148454
H 1.6356250083 7.0527923721 1.1343032344
H 0.4831589515 5.3728965072 2.5659338144
H 0.4730656022 -2.0325596691 -2.5394485075
H -2.7001953985 0.8940198979 -3.0415566649
H -3.7756332615 -0.1830868575 -2.1267173789
H -2.9955921417 1.1933882015 -1.3181811518
