45
CONF5
C -1.9729273740 -1.1515687521 1.8320615931
C -2.0847214088 -1.1709798550 0.3419158357
C -1.9469761753 -0.0987583478 -0.4464095965
C -2.0653612760 -0.1579215335 -1.9108031714
C -1.0372875075 0.5810868670 -2.8267036599
C -2.4880800854 1.0064859847 -2.7692101197
C -2.9103057779 2.3173416818 -2.1440261342
C -3.2886892760 0.6567971660 -4.0082401925
C 0.0727212979 1.2647740886 -2.1486215591
O 0.0157865069 2.1548512100 -1.3232395988
O 1.2565226518 0.6912777249 -2.5210460512
C 2.3998688641 1.0538586833 -1.7040647222
C 2.2261447577 0.5152844222 -0.3111400902
C 2.1515492824 1.3386983031 0.8075328386
C 1.8984114168 0.8218210518 2.0693551068
C 1.7011824673 -0.5378712949 2.2838542113
C 1.7886852475 -1.3593312512 1.1664368011
C 2.0524065874 -0.8479035918 -0.0953057462
F 2.1259208523 -1.6981778166 -1.1349029375
F 1.6184629699 -2.6892157559 1.2951571809
C 1.4596532424 -1.0733412401 3.6758889169
O 2.6478693008 -1.0693425304 4.4634122360
C 3.6013893051 -2.0375495034 4.0201114409
F 1.8286630995 1.6709617774 3.1105166906
F 2.3136408453 2.6654048098 0.6793317467
H -2.9128457723 -1.4666785151 2.3022051794
H -1.7181123715 -0.1538552132 2.2020466097
H -1.2050102805 -1.8561889856 2.1750665661
H -2.2979881504 -2.1376347047 -0.1171700153
H -1.7270690127 0.8647984751 0.0077487884
H -2.3209421561 -1.1425190360 -2.2969573065
H -0.7299430751 0.0046342917 -3.6931848666
H -2.3547784148 2.5631434553 -1.2412275935
H -3.9774066953 2.2679321011 -1.9002980713
H -2.7666906213 3.1327930682 -2.8612743769
H -4.3521828976 0.5796220532 -3.7570145514
H -2.9665937259 -0.2960850255 -4.4380795241
H -3.1731636745 1.4362370201 -4.7695990808
H 3.2491522468 0.5846960338 -2.2035080994
H 2.5293980171 2.1367628740 -1.6870616513
H 1.0383941124 -2.0849520087 3.6139236379
H 0.7481715289 -0.4262287560 4.1948992944
H 3.9623343325 -1.8138242722 3.0062407400
H 4.4421069567 -1.9914433630 4.7149684038
H 3.1686406226 -3.0478920921 4.0330819930
