45
CONF3
C 1.3617012747 -2.7631027285 2.6100666576
N 0.7196203132 -1.4788777925 2.3346336778
C 0.0975172107 -0.9701419038 3.5556261269
C 1.6785897936 -0.4976474960 1.8180319311
C 2.2634145455 -0.8574572531 0.4534536986
C 1.2082970971 -1.1998940172 -0.6001527048
N 0.2069629971 -0.1417266899 -0.7751937348
C 0.6210715773 1.1323284795 -1.2311522326
C 1.8380400590 1.2337633504 -1.9328609386
C 2.3225086933 2.4470172922 -2.3979954023
C 1.5915391630 3.6104105499 -2.1859334103
C 0.3876659246 3.5205533843 -1.5011014835
C -0.1226984296 2.3154264652 -1.0056713672
C -1.4386246485 2.4224206672 -0.2589451319
C -1.8889103022 1.1976162623 0.5389513746
C -2.1871778448 0.0459256921 -0.3661702681
C -3.4853538290 -0.4095999646 -0.5932914821
C -3.7329317328 -1.4884412028 -1.4376864666
C -2.6675991070 -2.1194201063 -2.0739198964
C -1.3680703051 -1.6654756728 -1.8727298184
C -1.1207627097 -0.5814761760 -1.0241237403
H 0.6232833314 -3.4587065156 3.0215388371
H 2.1935279587 -2.6728293742 3.3371857920
H 1.7588570819 -3.2048429179 1.6915100247
H -0.4064091345 -0.0198197549 3.3507409942
H -0.6509623106 -1.6836113551 3.9161059267
H 0.8313476145 -0.8004781770 4.3686444647
H 1.1548374685 0.4622431497 1.7320136796
H 2.5151361316 -0.3442483503 2.5313876635
H 2.8816492708 -0.0133907690 0.1297456833
H 2.9405834708 -1.7164968347 0.5298513391
H 1.7032303441 -1.4838906930 -1.5430738626
H 0.6564034205 -2.0779918008 -0.2560270122
H 2.4114214562 0.3377932108 -2.1344859772
H 3.2654744703 2.4747583338 -2.9355586414
H 1.9513886287 4.5698980185 -2.5422436171
H -0.1887599102 4.4250410502 -1.3200923124
H -1.3636115900 3.2826556813 0.4175965720
H -2.2313262650 2.6708629484 -0.9780162278
H -2.7812754842 1.4589047018 1.1162701694
H -1.1028616520 0.9102525995 1.2471501254
H -4.3101446902 0.0778171020 -0.0797660307
H -4.7488621808 -1.8374484367 -1.5924001627
H -2.8461347789 -2.9599350047 -2.7374828717
H -0.5415926936 -2.1487373534 -2.3835694476
