38
CONF87
C 4.0143426636 -1.9048791279 -1.0037279881
C 3.4952189171 -0.7157822066 -1.8091552495
C 2.6564216510 0.2352880984 -0.9789970431
O 1.5035009270 -0.4741331971 -0.5108949718
C 0.6950665772 0.3247558589 0.3333002047
C -0.4557799533 -0.5209962762 0.8277047853
N -1.6895363756 -0.3108072683 0.5959098714
C -2.1241909301 0.7323710891 -0.2216548601
C -2.2432105511 0.5301062020 -1.6012294141
C -2.7615444158 1.5166760707 -2.4269312917
C -3.1747995533 2.7224157087 -1.8724929660
C -3.0711599493 2.9535996399 -0.5086113031
C -2.5482422746 1.9611405906 0.3161749739
C -2.4091387829 2.2114087125 1.7917691365
F -3.1062722149 1.3250729570 2.5332821630
F -1.1065075448 2.1196054208 2.1900962039
F -2.8326338733 3.4448227721 2.1415989264
Cl -3.8346826103 3.9705273937 -2.9076171479
N -0.1135215344 -1.6136860111 1.6296607995
C -1.0042110749 -2.5046912461 2.2208296603
C -0.2299015517 -3.3798254136 2.9189816278
N 1.1161643643 -3.0719857189 2.7854362177
C 1.1577340191 -2.0203805384 2.0168939080
H 3.1883083386 -2.5072045802 -0.6165835017
H 4.6435567161 -2.5518294165 -1.6209889783
H 4.6156397819 -1.5675076720 -0.1520192637
H 4.3328266960 -0.1418997485 -2.2240963874
H 2.8962410499 -1.0629738347 -2.6591448823
H 3.2344577493 0.6062625912 -0.1143831201
H 2.3372347150 1.1066286062 -1.5734479310
H 1.2669815883 0.7034439695 1.1986409543
H 0.2880508521 1.1920153960 -0.2050597197
H -1.9265482007 -0.4207127960 -2.0162698163
H -2.8454963398 1.3506217977 -3.4947217655
H -3.3900111046 3.8990896931 -0.0891628816
H -2.0674610303 -2.4010496473 2.0852694239
H -0.5557650156 -4.2183953146 3.5172413396
H 2.0488675872 -1.5171122472 1.6719348074
