34
CONF47
C -4.6169682029 -1.3329509983 0.5709237471
C -3.4056842460 -2.2335168884 0.6143436759
O -2.1555629520 -1.4566459961 0.6374331403
P -1.5996989629 -0.7144908905 -0.6545757358
S -1.8650272732 -1.5448025903 -2.3839804008
O -2.0799023623 0.7887829176 -0.4551472567
C -2.1421954749 1.7614833445 -1.5580612708
C -0.7689025646 2.2637287157 -1.9339291169
O -0.0142774137 -0.5035304263 -0.1814872331
N 0.6798851626 -1.7117938308 -0.1145016628
C 1.8999925152 -1.5458468325 0.2854254397
C 2.5897367349 -2.8004683880 0.4038710105
N 3.1803171170 -3.7895471998 0.5078761405
C 2.6434604808 -0.3257958610 0.6431931603
C 3.5642997530 -0.3897606446 1.6989312295
C 4.2808461510 0.7413619874 2.0670709294
C 4.1065203527 1.9347684259 1.3697457930
C 3.2128310829 1.9938383767 0.3015645077
C 2.4768428414 0.8740816044 -0.0627637216
H -4.6078864976 -0.6259781547 1.4050229906
H -4.6671811272 -0.7759340104 -0.3697112726
H -5.5168047862 -1.9512755835 0.6486988878
H -3.3615001930 -2.8126418061 1.5382861507
H -3.3668091516 -2.9150531829 -0.2408926647
H -2.7709410934 2.5582048200 -1.1568916411
H -2.6532812908 1.2878715989 -2.4014843217
H -0.2512900844 2.6754255376 -1.0627357227
H -0.8768510775 3.0567352856 -2.6806861862
H -0.1592936926 1.4666051325 -2.3705243240
H 3.7066283975 -1.3198941584 2.2405642173
H 4.9801710788 0.6884080690 2.8947737682
H 4.6727235473 2.8163030825 1.6526897873
H 3.0887782318 2.9173275793 -0.2545282964
H 1.7970248093 0.9250016687 -0.9026021625
