44
CONF49
C 3.9330999683 0.0438024876 -3.4135020318
N 3.6803997886 -0.0988323707 -1.9767177928
C 3.7536019207 -1.5156561888 -1.6086911603
C 2.3658136513 0.4672914681 -1.6537885843
C 2.0988342100 0.5652089923 -0.1449156445
C 0.8061469551 1.2766459314 0.0999107515
C -0.3428729262 0.7172432380 0.5181688747
C -1.5722857921 1.5405526301 0.6789927602
C -1.4440309419 2.7634017764 1.3634388825
C -2.5266899422 3.6037362651 1.5777918111
C -3.7842984421 3.2276567774 1.1110251772
C -3.9259568939 2.0222430343 0.4372994025
C -2.8459086080 1.1586946057 0.2067545794
C -3.1677710078 -0.1055511802 -0.5700981573
C -1.9997756810 -0.9647311642 -1.0659227276
C -1.2342256114 -1.5655798093 0.0764010774
C -1.3185069313 -2.9215865630 0.3953887541
C -0.6289681829 -3.4424669660 1.4884582193
C 0.1530356092 -2.6030999620 2.2784148001
C 0.2458571524 -1.2488429270 1.9671961377
C -0.4383407462 -0.7239720508 0.8673173243
H 4.9224700492 -0.3578854823 -3.6559005228
H 3.9115570200 1.1025581745 -3.6921739776
H 3.1845861571 -0.4910350263 -4.0298456845
H 4.7237641338 -1.9202667014 -1.9141465771
H 3.6636634169 -1.6417667762 -0.5263161889
H 2.9598657096 -2.1152667311 -2.0961789355
H 1.5504068252 -0.1228328294 -2.1220582688
H 2.3196205766 1.4752814293 -2.0853165897
H 2.0710089177 -0.4310419377 0.3011516867
H 2.9264203845 1.1189989311 0.3182313514
H 0.7890262238 2.3339930756 -0.1651381331
H -0.4670527925 3.0367601208 1.7500479443
H -2.3921551133 4.5370940130 2.1156811291
H -4.6472102402 3.8667998168 1.2708915131
H -4.9052833289 1.7335166120 0.0623914807
H -3.7755145332 0.1875613512 -1.4347835177
H -3.8196348275 -0.7336784204 0.0529975910
H -2.4021652718 -1.7589608626 -1.7020876388
H -1.3312555053 -0.3534802660 -1.6852034077
H -1.9289473793 -3.5748665340 -0.2228661346
H -0.7032425292 -4.5000951717 1.7226767466
H 0.6899176297 -3.0000703700 3.1345088487
H 0.8529980506 -0.5874739421 2.5789928478
