61
CONF718
C -1.2017934875 3.7413146548 2.6351654082
C -2.5655622970 3.1006315559 2.3739546526
C -2.8964911314 1.9483524147 3.3301588332
C -2.0229755191 0.7105600070 3.1274183735
C -2.3454502251 -0.0374648677 1.8492252962
O -3.4105510003 0.2066184354 1.2350136995
N -1.4891979182 -0.9809596117 1.3970030235
C -0.1670181581 -1.2357894907 1.9893325922
C 0.9436467187 -0.7036272155 1.1108857728
C 2.0768295406 -1.4742784206 0.8547162987
C 3.0820391718 -1.0003427815 0.0153492930
C 2.9628204382 0.2483236489 -0.5983331758
C 1.8466508742 1.0398823576 -0.3006318164
C 0.8490635160 0.5682905794 0.5387459193
C 3.9660747166 0.7073965016 -1.5867307006
C 5.3131207392 0.8012408077 -1.2256562996
C 6.2649941226 1.2844830976 -2.1176424825
C 5.8823382667 1.6865717808 -3.3950764678
C 4.5517840158 1.5799915476 -3.7814454688
C 3.5910064230 1.0827816518 -2.8949856637
C 2.2113185001 0.9282046994 -3.3629128894
N 1.4314607057 -0.1184607458 -3.0721137037
N 0.3040429882 0.2090134540 -3.6743430914
N 0.3386857573 1.3684040586 -4.3081684739
N 1.5526354606 1.8408935372 -4.1304864273
C -1.8225144404 -1.8615917425 0.2485999992
C -3.0686052111 -2.7504893993 0.4989693668
C -3.2687301763 -3.7077356727 -0.6783144448
C -2.8999862244 -3.5271278670 1.8053713717
C -1.9138392337 -1.1318712520 -1.0994575858
O -1.2868707890 -1.5235376393 -2.0722082220
O -2.7382558415 -0.1004805114 -1.1818446612
H -0.3806209465 3.0319100219 2.4878391257
H -1.1387259035 4.1174343020 3.6625230470
H -1.0300380305 4.5829967717 1.9568139491
H -2.6151236435 2.7418253405 1.3384694148
H -3.3440485184 3.8666961969 2.4724266408
H -3.9489026702 1.6681622045 3.2260476889
H -2.7562683007 2.2903866394 4.3629113424
H -0.9675794296 0.9960906848 3.1442366425
H -2.1576905000 0.0035628161 3.9577463345
H -0.1228298755 -0.7925392506 2.9847435936
H -0.0512309802 -2.3159771689 2.1243073824
H 2.1635463947 -2.4649365385 1.2929197303
H 3.9401615376 -1.6275477640 -0.2077286257
H 1.7497076469 2.0221031823 -0.7540998623
H -0.0217649526 1.1897430554 0.7300198380
H 5.6067018125 0.5146395797 -0.2202584788
H 7.3036332176 1.3564599401 -1.8108404838
H 6.6192898933 2.0692389232 -4.0934549335
H 4.2498679182 1.8583162373 -4.7859850595
H -0.5433880717 -0.3523554600 -3.5486032013
H -0.9659043842 -2.5324137468 0.1388279187
H -3.9502048505 -2.1069673279 0.5800843687
H -4.1207584785 -4.3627241989 -0.4751860336
H -2.3821922145 -4.3357973197 -0.8237164227
H -3.4704046487 -3.1770614050 -1.6137593103
H -2.0218110454 -4.1816756263 1.7543819422
H -2.7858960922 -2.8620199532 2.6664843763
H -3.7803726260 -4.1533066072 1.9777979314
H -3.1478222688 0.0565588937 -0.2593444735
