43
CONF29
C 0.6715040497 2.7520300324 2.0749871439
C 0.3531875189 1.3106889659 1.6772367538
C -0.6696409746 0.6924965235 2.6279276750
C -0.1434493312 1.2970069779 0.2080012792
C -0.3293190079 -0.0914291171 -0.3324017940
C 0.7860176001 -0.8599323766 -0.7250437261
C 0.5787039222 -2.1887784128 -1.1021092949
N -0.6137313735 -2.7762112862 -1.1164273670
C -1.6712181010 -2.0516462783 -0.7836822682
C -1.5851481710 -0.7115232477 -0.3905198448
C -2.8451282664 -0.0002909472 0.0084280121
O -3.5381205895 -0.3536975092 0.9396627957
O -3.1097581855 1.0255633367 -0.8003310586
C -4.3183077172 1.7756448609 -0.4876118740
C -3.0214239261 -2.7486911407 -0.8461369350
F -2.9145709155 -3.9551444230 -1.4687783057
F -3.8800960604 -1.9742594216 -1.6079204212
C 1.7324288062 -3.1094315621 -1.4829980484
F 2.3753495904 -3.5607974683 -0.3769581409
F 1.3099443408 -4.1880899902 -2.1637385468
F 2.6514591577 -2.4876683929 -2.2549199997
C 2.1431421076 -0.2574786483 -0.7357641002
N 3.0082263906 -0.4669182165 0.1695235114
C 4.2230517362 0.3297264778 -0.0385500658
C 4.3342595241 0.7403358117 -1.5153005431
S 2.5886662334 0.8248568827 -2.1012940254
H 1.0474413921 2.7914942904 3.1022619409
H 1.4289822010 3.1872365580 1.4147126989
H -0.2296450698 3.3743803242 2.0195402334
H 1.2773981921 0.7230544691 1.7272907492
H -0.2952384629 0.7187569309 3.6561633059
H -0.8844658005 -0.3515472868 2.3770983939
H -1.6126228683 1.2515289095 2.5959197246
H 0.5872399849 1.8283912364 -0.4093250976
H -1.0801466764 1.8570785775 0.1534809420
H -4.2367460372 2.2047222078 0.5132956092
H -4.3703159840 2.5570817193 -1.2432730259
H -5.1864915642 1.1160397168 -0.5464581928
H -3.4839772681 -2.8986660179 0.1348646724
H 4.1485206924 1.2131570289 0.6116225086
H 5.1031167733 -0.2411529072 0.2724222936
H 4.8582375734 -0.0108934786 -2.1123760618
H 4.8126845694 1.7129757935 -1.6425212149
