27
CONF2
C -1.2607815955 0.8226165035 1.2374928888
N -1.1805885206 0.8120859357 -0.2609459903
O -0.8801899725 2.0483715861 -0.7183034885
C -2.4773436471 0.2644789196 -0.8351422836
C -2.4173981495 -1.2502722573 -0.6473760290
C -0.9056506141 -1.5961944351 -0.5275256959
C -0.1736739153 -0.2787405325 -0.7576809238
C 1.1913841108 -0.0764051935 -0.1829856139
C 1.6468550147 -0.7311797185 0.9645316769
N 2.8531456669 -0.5333717400 1.5101198805
C 3.6651745623 0.3516466749 0.9152089747
C 3.3142571180 1.0549217223 -0.2317306460
C 2.0618360171 0.8334195488 -0.7891515745
H -2.0493185002 1.5272166303 1.5038702935
H -0.3018765962 1.1721698609 1.6195906714
H -1.4908926022 -0.1713212464 1.6306634234
H -2.4546214406 0.5529406899 -1.8881721709
H -3.3115827626 0.7618365085 -0.3377323068
H -2.9550285430 -1.5609409361 0.2514943717
H -2.8796179632 -1.7528706529 -1.4991313247
H -0.5888447707 -2.3284778180 -1.2732631640
H -0.6896976742 -2.0172270736 0.4556599045
H -0.1368591684 -0.0575354804 -1.8292544430
H 1.0130767059 -1.4516674872 1.4764973428
H 4.6413356148 0.4982166028 1.3740715934
H 4.0117735829 1.7545428905 -0.6798913250
H 1.7551282383 1.3517405874 -1.6915373427
