31
CONF185
F 1.5217900886 -0.1796371930 1.3032168911
C 1.7076635794 -0.1880394283 -0.0349261395
F 2.1312952406 1.0263641644 -0.4298134427
C 0.3712077860 -0.5370470664 -0.7627933390
F 0.4846290453 -0.1718325921 -2.0577525175
F 0.1748511224 -1.8710559486 -0.6920258248
C -0.8755077929 0.1821095507 -0.1338184957
F -0.5370541926 1.4620828297 0.1597403524
F -1.2075927107 -0.4618434304 1.0063826037
C -2.1193184174 0.2171300833 -1.0798811474
F -1.9070334991 1.1335531566 -2.0476595644
F -2.2582023979 -1.0035858873 -1.6508349943
C -3.5068246793 0.5364781559 -0.4109891982
F -4.3946269398 0.6260157932 -1.4300903046
F -3.8642695490 -0.4925772101 0.3854325927
C -3.6279907328 1.8513691403 0.4180373081
F -4.9147495969 2.0399220029 0.7381802517
F -3.2016137047 2.9016766560 -0.2949971207
F -2.9155602799 1.7695665608 1.5490639355
S 3.0991065811 -1.4494330937 -0.4084715145
O 3.2489182747 -1.4420333189 -1.8627769446
O 2.7957138883 -2.6367176101 0.3869420544
N 4.3831821600 -0.6401847462 0.2686120639
C 5.0102075812 -1.1249245503 1.5124996756
C 6.0383996785 -2.2243114766 1.2848407052
H 5.0045778092 -0.2778207207 -0.4462414117
H 5.4650923902 -0.2505184166 1.9918978487
H 4.2087337883 -1.4726222043 2.1694389873
H 5.5672614368 -3.1079951846 0.8467729524
H 6.4957598973 -2.5124594752 2.2364241864
H 6.8365907951 -1.8850123941 0.6166263679
