38
CONF25
C 3.1960023010 1.0803971696 -1.0484223850
C 2.8399139932 -0.3679023426 -0.7757362430
C 2.8574004938 -1.2411525101 -2.0109372426
O 1.4495948513 -0.4195078322 -0.2758639860
C 1.2470416547 -0.1727376815 1.0166080453
O 2.1087852654 0.0184623824 1.8453667285
C -0.2690097552 -0.0870739048 1.3193544507
C -1.0464725448 -1.2582574394 0.7281030204
C -0.4724845635 -2.5320813345 0.7056659118
C -1.1998899798 -3.6388402293 0.2845465228
C -2.5213050225 -3.4573356348 -0.1062258261
C -3.1275046756 -2.2097204822 -0.0776075699
C -2.3796504627 -1.1130429879 0.3440882683
Br -3.5343876572 -4.9753581489 -0.6984467494
C -0.7002639590 1.2830807157 0.7822074539
C -0.8503078363 2.3576808572 1.6573945424
C -1.1960718465 3.6216729440 1.1833718435
C -1.3803353475 3.7948630895 -0.1801412433
C -1.2284940607 2.7451300596 -1.0786170231
C -0.8836160177 1.4915499188 -0.5880849447
Br -1.8579034005 5.5297942267 -0.8466584063
O -0.3612085256 -0.1484325532 2.7404725438
H 2.5288696196 1.4974809506 -1.8095470900
H 3.1229409689 1.6824571122 -0.1387692771
H 4.2240873316 1.1367466318 -1.4182249623
H 3.4794373324 -0.7857706176 0.0070769981
H 2.5640271348 -2.2661069081 -1.7683300919
H 3.8695598694 -1.2577794013 -2.4248251383
H 2.1776882286 -0.8447684418 -2.7717784589
H 0.5575353120 -2.6761695675 1.0188900612
H -0.7424916342 -4.6210900735 0.2621963298
H -4.1617220017 -2.0852687080 -0.3767631518
H -2.8538574351 -0.1373933100 0.3701339610
H -0.6982267820 2.2150296542 2.7208968372
H -1.3150059010 4.4504455759 1.8716217518
H -1.3759256271 2.8966519749 -2.1415892538
H -0.7643332184 0.6702428591 -1.2860841601
H -1.3024166152 -0.1758961184 2.9646580020
