33
CONF2
N 2.6434837019 2.4039810830 -0.8115816364
C 2.5720691184 1.1688099765 -0.2189536707
N 1.4025862573 0.5770607268 -0.1082871535
C 1.4714393799 -0.6700884988 0.4178637246
C 2.5991726186 -1.3598588768 0.8578716984
N 2.2593650089 -2.6087727743 1.3299661550
C 0.9644985963 -2.6736838120 1.1778403023
N 0.4147603775 -1.5222598508 0.6285481348
C -0.9882951868 -1.2845479491 0.3683279731
O -1.1556784615 -0.9168481193 -0.9902986980
C -2.2448848915 0.0359145551 -1.1190869627
C -1.7175733883 1.2890675755 -1.8042951496
O -0.8247391918 2.0235633636 -0.9866491347
C -2.7865408519 0.2657527606 0.2994014393
O -3.8434478463 -0.6509801138 0.6244425093
C -1.6092344612 -0.1376635426 1.1949179070
O -1.9548961230 -0.5083579097 2.5050820621
C 3.8848799718 -0.7356323113 0.7553786444
O 4.9944583850 -1.1283932423 1.0539952638
N 3.7371881974 0.5812958460 0.1789732768
H 3.3853418656 3.0219672908 -0.5238865707
H 1.7478355313 2.8535576069 -0.9419752692
H 0.3346817379 -3.5130694898 1.4436789594
H -1.5111022660 -2.2263484855 0.6010847810
H -3.0238755310 -0.4221299690 -1.7463292942
H -1.2486557900 0.9887135313 -2.7548669705
H -2.5638699371 1.9470316668 -2.0405754765
H -0.0792608015 1.4246450247 -0.7460993475
H -3.0937780832 1.3049312291 0.4640701649
H -4.6665425168 -0.3277776940 0.2455377602
H -0.9002024137 0.6922470128 1.2539042856
H -2.8169757185 -0.9450569002 2.4513441284
H 4.6177928286 1.0529300939 0.0220831470
