61
CONF23
C -1.6289788926 -0.6043921753 -4.0639117883
C -1.1397960370 -0.9058655541 -2.6509626861
C -1.9581025028 -0.3155242892 -1.5239229416
C -3.1817140889 0.3131488206 -1.7544918395
C -3.9279876416 0.8655890834 -0.7123998570
C -3.4298823318 0.7801367303 0.5877567802
C -2.2118558885 0.1578587151 0.8648958937
C -1.4715560649 -0.3870543624 -0.2027513438
C -0.1658573175 -1.0142930837 0.0518854279
C 0.9857205560 -0.3862001026 0.4206417600
N 2.0105221923 -1.2570088680 0.6619561750
C 3.4158892330 -0.9652398385 0.3493637621
C 3.8485548767 -1.4322331764 -1.0406252020
O 4.2419736881 -2.8040884984 -1.0717450928
C 3.1538135892 -3.7268300481 -1.0371930801
C 2.3470964165 -3.6840102328 0.2586753490
N 1.4979815938 -2.5131929850 0.3561785292
C 0.1626269203 -2.4258963966 -0.0293573649
O -0.5382597649 -3.4078050728 -0.3167954402
O 1.1788283791 0.9447723509 0.6517764061
C 1.2973554213 1.7636434149 -0.4737184609
O 1.4797053113 1.3020925306 -1.5690349925
C 1.1366023744 3.2211774760 -0.0990712602
C -0.3589977008 3.4389414007 0.2159782085
C 1.9897707031 3.5610002145 1.1334391427
C 1.5529847877 4.0839817195 -1.2924824142
C -1.6779570392 0.0540163790 2.2777151604
C -2.6312618182 0.4868791121 3.3872575502
C -5.2597605909 1.5115661288 -0.9841177836
H -2.6217046920 -1.0258692898 -4.2515848801
H -0.9411158356 -1.0394397090 -4.7947152970
H -1.6783965752 0.4740009540 -4.2488648728
H -1.0898112581 -1.9930211309 -2.5060523078
H -0.1071632292 -0.5532922184 -2.5379015160
H -3.5682211783 0.3857214865 -2.7662552620
H -4.0133690057 1.2075493133 1.3969266114
H 3.5251725491 0.1191934787 0.4357852531
H 4.0570716422 -1.4259217301 1.1083651760
H 4.7388615094 -0.8644516503 -1.3271317278
H 3.0524243727 -1.2340219983 -1.7755220799
H 2.4795255544 -3.5524521557 -1.8906745062
H 3.6044707603 -4.7188320455 -1.1385060485
H 1.6671224365 -4.5416736660 0.2811590669
H 3.0040787205 -3.7445211976 1.1335328938
H -0.6729402014 2.8463879965 1.0793034448
H -0.5165656426 4.4981354746 0.4422908446
H -0.9847777146 3.1701707823 -0.6415607110
H 3.0484344495 3.3532217044 0.9478686409
H 1.8822100804 4.6284024224 1.3484999685
H 1.6683878013 2.9975945265 2.0121030930
H 0.9400560556 3.8653286566 -2.1705723833
H 2.6025687419 3.9162895077 -1.5515513237
H 1.4238113893 5.1380883855 -1.0309067754
H -0.7566096964 0.6468049006 2.3508345924
H -2.8841464093 1.5494811652 3.3137989342
H -3.5640768799 -0.0861283615 3.3624991191
H -5.2666226030 2.0111896742 -1.9571571051
H -6.0585798459 0.7600945206 -0.9977584031
H -5.5103908161 2.2440228285 -0.2120022380
H -1.3651589512 -0.9842786176 2.4475947472
H -2.1624506094 0.3247963400 4.3621186331
