41
CONF4
C 5.4117641249 2.6648751758 -1.4065187836
C 3.9538725602 2.6043710968 -1.8672745780
C 3.8972684299 2.3878348582 -3.3839060654
C 3.2305000584 3.8978476588 -1.4754144463
N 3.3521585729 1.4466184472 -1.1634201526
C 2.0715149641 1.0543878675 -1.2781955441
O 1.2013271503 1.5436400365 -1.9760027669
O 1.8478712351 -0.0346030025 -0.4398083579
C 0.5996635897 -0.6495764644 -0.5339181474
C 0.2688250405 -1.3990137453 -1.6554005971
C -0.9627153923 -2.0468251793 -1.6647351443
C -1.8403423228 -1.9618614927 -0.5881369794
C -1.4797174605 -1.2151855861 0.5411103315
C -0.2452131220 -0.5499295090 0.5581268802
N -2.3204666956 -1.0438793603 1.6481802898
C -3.2854243130 -1.9461574734 2.0900611101
O -3.4453049842 -3.0528132424 1.5657168513
N -4.0503946477 -1.4953238913 3.1334337219
C -4.8780207146 -2.4478699947 3.8657017060
C -3.8571495251 -0.1930339372 3.7650321073
H 5.9439543576 1.7449765641 -1.6716260470
H 5.9126815732 3.5043504040 -1.8949501463
H 5.4734360493 2.8106674274 -0.3227078012
H 2.8635531853 2.3247085602 -3.7308302868
H 4.3837154919 3.2269209244 -3.8903920213
H 4.4201131006 1.4659565528 -3.6574719239
H 3.7138185363 4.7480676029 -1.9659941675
H 3.2770436053 4.0486002934 -0.3922676468
H 2.1833842395 3.8681314691 -1.7845009079
H 3.9381380966 0.9186794201 -0.5342583975
H 0.9537848378 -1.4635240990 -2.4933269154
H -1.2517652575 -2.6299199190 -2.5335561324
H -2.7948413985 -2.4672697667 -0.6204404182
H -5.8763635477 -2.0260659254 4.0227043372
H -4.4367033123 -2.6756361016 4.8456730965
H -4.9643085997 -3.3686166843 3.2904893495
H -4.7242350226 0.0123856947 4.3963122812
H -2.9605104571 -0.1634471679 4.4020723448
H -3.7990352784 0.6036604939 3.0173219145
H -2.0323882670 -0.3219325879 2.2904950022
H 0.0589183250 0.0397760921 1.4176406847
