54
CONF354
C 3.0648242983 -2.0912089041 2.3305928541
C 3.8260584370 -2.2316218802 3.6470245654
C 4.1597925424 -0.8764171126 4.2110401339
C 3.4550112755 0.2589914189 3.7884082726
C 3.7717875439 1.5268546546 4.2826409900
C 4.7895599991 1.6830454815 5.2152103759
C 5.4699059693 0.5510113605 5.6328934494
C 5.1809165763 -0.7108791623 5.1508035468
F 6.4690489265 0.6889440626 6.5519655225
O 2.4396146995 0.2075877506 2.8696901403
C 1.9261668014 -1.1037527397 2.5119563329
C 1.0753680467 -0.8515600145 1.2672542301
C 0.3779469584 -2.1278539312 0.7897214134
N -0.8165048037 -1.9374543043 -0.0356859406
C -0.5891039238 -1.2936531908 -1.3363842692
C -1.7466537936 -1.6278028017 -2.2781882344
C -3.0828480384 -1.0012586712 -1.8397804606
C -4.2302693289 -1.2553535483 -2.8067874342
C -3.9448545701 -0.6171263035 -4.1644914550
C -3.3988262181 0.7764214823 -3.9984049937
C -2.9054626072 1.2096574101 -2.7589043067
O -2.9064148972 0.4230587866 -1.6351149659
C -2.4093607004 2.5064749726 -2.5980858645
C -2.3894314763 3.3908564973 -3.6690283304
C -2.8701542573 2.9456608858 -4.8897238817
C -3.3702554753 1.6714086973 -5.0718942192
F -2.8533889867 3.8007982110 -5.9532570817
O -1.9103712404 -3.0468511953 -2.3646925030
O 1.8743405436 -0.3374192861 0.1949223308
H 2.6618097281 -3.0600313755 2.0212604542
H 3.7284847690 -1.7328574446 1.5360195422
H 3.2125463695 -2.7872683094 4.3686360005
H 4.7456366816 -2.8083476880 3.5053380737
H 3.2106574191 2.3860254605 3.9297125105
H 5.0473275894 2.6590950732 5.6113505011
H 5.7506660589 -1.5684021223 5.4963784115
H 1.2648339169 -1.4376443686 3.3263660029
H 0.3041961164 -0.1129496609 1.5442201506
H 1.0979830411 -2.7347447525 0.2265140984
H 0.0818500622 -2.7074351964 1.6734714462
H 0.3258267134 -1.7156782829 -1.7675319838
H -0.4533029215 -0.2045824815 -1.2805285797
H -1.4883835882 -1.2696066687 -3.2819668061
H -4.3882226928 -2.3318465902 -2.9063648704
H -5.1395520406 -0.8241701740 -2.3724715843
H -3.2262159688 -1.2256565058 -4.7290789858
H -4.8568992459 -0.5839621506 -4.7694156334
H -2.0391476967 2.8109104577 -1.6244091103
H -2.0069796951 4.3999299278 -3.5615160710
H -3.7470311519 1.3695093487 -6.0447793530
H 2.3073561659 0.4626109214 0.5234266123
H -3.3447615154 -1.3865901863 -0.8484401192
H -1.7491700166 -3.3593239318 -1.4566199652
H -1.4935517841 -1.3994159560 0.4967929091
