54
CONF1125
C 7.3939130290 -3.3152600802 -0.1322652138
C 6.5145331111 -2.3961257809 0.7048587235
C 5.1885533872 -2.9916686168 1.0960763114
C 4.2670020991 -2.2894274018 1.8574676425
C 3.0358090064 -2.8892406264 2.1957645164
N 2.7698673085 -4.1335136960 1.7604638313
C 3.7177270488 -4.7293033268 1.0419015827
N 4.9022953209 -4.2430139123 0.6848423038
N 2.1182896153 -2.2626255448 2.9785522850
C 0.7550661429 -2.7558393198 3.1067287019
C -0.1099365114 -2.3844232368 1.9146528877
O -0.1515890203 -0.9587485725 1.8767184357
C -0.7920655110 -0.3527302736 0.8250848031
C -0.7250195881 1.0492835007 0.7886695312
C -1.3419550300 1.7380977103 -0.2679751437
C -2.0307956041 1.0308816704 -1.2732062371
C -2.0850684688 -0.3581447767 -1.1923656776
C -1.4753630848 -1.0594375927 -0.1602153054
C -2.7506512147 1.7193895159 -2.4063841274
C -4.0935876218 2.2816781388 -1.9561737974
O -4.7075247687 2.9238950853 -3.0632998271
C -5.9806045600 3.4678117317 -2.7348249721
C -6.5580157706 4.1133050213 -3.9765986259
C -1.2348262216 3.2415102936 -0.2958287524
C 0.0178811001 1.7929679132 1.8656183801
Cl 4.6088958697 -0.6538991514 2.4077133974
H 8.3318059619 -2.8080980090 -0.3757079440
H 6.8971353368 -3.5967361758 -1.0633877846
H 7.6250980797 -4.2379784171 0.4046148211
H 6.3203213334 -1.4570736742 0.1698018855
H 7.0362339817 -2.0946721187 1.6228613824
H 3.4895670543 -5.7397484583 0.7015056902
H 2.2474596119 -1.2699985526 3.1008902908
H 0.3254394339 -2.3276103254 4.0184696332
H 0.7783156699 -3.8431383290 3.2098742797
H -1.1215391875 -2.7994762341 2.0381249954
H 0.3303408801 -2.7823046559 0.9900822047
H -2.6142546713 -0.9123533762 -1.9626900147
H -1.5350350722 -2.1402706174 -0.1406891087
H -2.9322553773 1.0024154155 -3.2133145999
H -2.1536227022 2.5294674690 -2.8381769443
H -4.7307171154 1.4622510533 -1.5796805449
H -3.9554250202 2.9958473439 -1.1255741302
H -5.8747426472 4.2091275061 -1.9236421035
H -6.6463924890 2.6687193303 -2.3654624582
H -5.9003649329 4.9100417537 -4.3349554318
H -6.6709807583 3.3741988750 -4.7744503177
H -7.5399807040 4.5437144263 -3.7585346345
H -0.1970200119 3.5633351511 -0.1618872213
H -1.8141782028 3.6956657982 0.5172475879
H -1.5974905697 3.6657290355 -1.2317099015
H 0.1978984046 1.1577064231 2.7322277406
H 0.9917222386 2.1453498665 1.5024749410
H -0.5401693869 2.6736212339 2.1957119383
