52
CONF6
C 1.7989927210 0.6119458884 -0.2011260527
C 2.9155462286 1.3428933569 -0.9641723221
C 4.2222694633 0.6751409396 -0.4627268603
C 3.7850042555 -0.4955704046 0.4828763480
O 4.6080844421 -1.6618115503 0.3490983318
C 3.8099603642 -0.0454868191 1.8748200943
C 3.9060957538 0.3332401486 3.0154192288
C 2.3401636353 -0.8140378994 -0.0074113084
C 2.4467325763 -1.6007983802 -1.3229697079
C 1.4370660937 -1.5470154873 0.9812099358
C -0.0171258977 -1.5486246436 0.4870950604
C -0.5522426738 -0.1349626755 0.1894923472
C 0.3799512965 0.6546973221 -0.7574370568
C -0.1155079817 2.0919211362 -0.8945747860
C -1.5445471970 2.1211289934 -1.4314441171
C -2.4921737124 1.2926113147 -0.6145103031
C -3.7394399981 1.7435773950 -0.3621195142
C -4.6590633620 0.8640536193 0.2894337223
C -4.3220231006 -0.3331391853 0.8469395104
C -2.8919443420 -0.7434624336 0.9106058662
C -2.0508918757 -0.1344602191 -0.2551372832
C -2.2919893423 -0.9819665959 -1.5245841591
C -5.5537777375 -0.8254218316 1.3287973892
N -6.5569118799 -0.0064687023 1.0785903488
O -5.9816986395 1.0912079951 0.4073113960
H 1.7513472258 1.0562171221 0.8066755627
H 2.9058246067 2.4192293311 -0.7739213626
H 2.7962998224 1.2041568595 -2.0448537259
H 4.8740295399 1.3744391210 0.0656487348
H 4.7993668752 0.2359536895 -1.2805933579
H 5.4023121125 -1.5199247238 0.8767413344
H 3.9695777051 0.6575447279 4.0261926219
H 1.4699944700 -1.7017498051 -1.8001563782
H 2.8349005382 -2.6024501960 -1.1247415440
H 3.1180786070 -1.1245212578 -2.0411698717
H 1.4862380158 -1.0404884780 1.9528757531
H 1.7843735883 -2.5756416951 1.1343980598
H -0.0991445147 -2.1754761742 -0.4073414062
H -0.6390129535 -2.0241597595 1.2519486587
H -0.5313349819 0.4200100903 1.1431780245
H 0.3726155022 0.1924653924 -1.7559314078
H 0.5401867937 2.6599002212 -1.5641045988
H -0.0756968745 2.5810355538 0.0890817778
H -1.9221734888 3.1465575842 -1.5005382225
H -1.5307419990 1.7263914074 -2.4591042973
H -4.0655520057 2.7256002430 -0.6904049242
H -2.7968463449 -1.8333223784 0.8876808576
H -2.4679809999 -0.4098726210 1.8703619142
H -1.7081626285 -0.6221957527 -2.3757122098
H -3.3512989975 -0.9382107392 -1.7965930617
H -2.0330447337 -2.0303053406 -1.3510149324
H -5.7646843039 -1.7503732006 1.8519387809
