41
CONF2
C 0.0611911404 -1.5376295904 -3.0717387337
C -0.3553119017 -0.7951959106 -1.8530065717
C -1.5225705838 -0.8870909805 -1.1434482669
C -1.4221044529 -0.0263367280 0.0031527007
C -0.1567614950 0.5865369667 -0.0376751639
N 0.5092188201 0.0898354943 -1.1790533922
C 1.7634681348 0.4912466350 -1.6746923103
O 1.9883974824 0.5425285705 -2.8706314339
C 2.8204466474 0.7814053742 -0.6711644128
C 3.8049055401 1.7167212849 -1.0002960624
C 4.8566095811 1.9687183230 -0.1321811452
C 4.9308977467 1.2515625024 1.0588284002
C 3.9783418639 0.2942545639 1.3945839572
C 2.9187330847 0.0687734642 0.5273234670
Cl 6.2580974141 1.5552817183 2.1559192195
C 0.1910733596 1.5703522945 0.8854701035
C -0.7151508076 1.8680806058 1.8902267263
C -1.9596527164 1.2163093575 1.9723098553
C -2.3332831102 0.2712919128 1.0227882084
O -2.7382625248 1.5942352482 3.0285094343
C -4.0038173074 0.9547392726 3.1618954663
C -2.7151781698 -1.7379179536 -1.4553737953
C -2.8171883458 -2.8825081270 -0.4700295128
O -3.5437011934 -2.9198637070 0.4940836402
O -1.9484166339 -3.8798060998 -0.7806487677
H -0.6411273027 -2.3524018334 -3.2562371106
H 1.0576864611 -1.9726987110 -2.9507190377
H 0.1043751000 -0.8889327478 -3.9506167643
H 3.7336164452 2.2427066881 -1.9461145691
H 5.6147142837 2.7045696894 -0.3727387821
H 4.0673022233 -0.2618549526 2.3202117800
H 2.1658697613 -0.6692756415 0.7823295863
H 1.1357423341 2.0969523344 0.8411661928
H -0.4796039104 2.6175556749 2.6372151318
H -3.2879764156 -0.2380596950 1.0558077745
H -4.6498819743 1.1659561015 2.2994945500
H -4.4551849725 1.3709353770 4.0634770251
H -3.8920181531 -0.1315792990 3.2743315445
H -2.6531776561 -2.1369177186 -2.4705665059
H -3.6329192666 -1.1497662680 -1.3641786675
H -2.0373988262 -4.5527129877 -0.0873732550
