22
CONF793
C 2.2539045382 -0.3202949755 -0.8471263732
C 0.8584231197 -0.7031658718 -0.3615071196
C 0.0947112927 0.4789309597 0.2434253079
C -1.2769644589 0.0991769164 0.8256235274
C -2.2044565193 -0.6164631164 -0.1436700499
O -2.5189408580 0.1268977876 -1.3271119364
O -1.9389187166 1.2995370606 1.2675851315
O -0.0515038984 1.4575448959 -0.8011315190
O 0.9437133796 -1.7671000223 0.5903711519
O 3.1157297577 0.0126568072 0.2520557778
H 2.1970459957 0.4974340771 -1.5743572581
H 2.7021157028 -1.1931285799 -1.3322972759
H 0.2972224367 -1.0879827378 -1.2229552864
H 0.6931414393 0.9041921539 1.0679931113
H -1.1116896742 -0.5813494785 1.6717052021
H -1.7550577105 -1.5881391832 -0.3980182625
H -3.1538463315 -0.8136432577 0.3654295493
H -1.7027565897 0.5707565401 -1.6059950703
H -1.4659252460 1.6288008836 2.0431194065
H -0.5731572811 2.1817226561 -0.4232877519
H 1.6452104443 -1.5175390590 1.2107359310
H 2.9519993735 0.9311555491 0.4994139176
