63
CONF367
C -9.2590300042 2.6517984362 -1.8539240463
C -9.1308765556 2.8715422775 -0.3467023157
C -7.7270196580 2.5976193879 0.2013254699
C -7.2693261949 1.1458888586 0.0571757138
C -5.9088395354 0.8833676688 0.7013579237
C -5.4490716653 -0.5672075121 0.5645806340
C -4.0771535259 -0.8291068598 1.1840789848
C -3.6380667089 -2.2878871960 1.0530485533
C -2.2976611943 -2.6078813344 1.7202055442
C -1.0995557675 -1.8922319139 1.0947521368
C 0.2380424067 -2.3589103752 1.6669360211
C 1.4399635935 -1.6526275486 1.0416012126
C 2.7755098104 -2.1311467529 1.6120544435
C 4.0021822353 -1.5477670239 0.9052441388
C 4.1247367208 -0.0271654921 1.0288776061
C 5.4538706779 0.5301826509 0.5117991121
C 5.6796888811 0.3108495530 -0.9844461015
C 6.9473255420 0.9898896607 -1.5021838378
C 7.1877619174 0.7476547697 -2.9918117709
C 8.4074364357 1.4795165314 -3.5397211804
O 9.6398183220 1.0292477529 -2.9680285421
H -10.2509883419 2.9433083374 -2.2124242016
H -8.5178217823 3.2473489811 -2.3989651376
H -9.1077622900 1.6028144561 -2.1256619641
H -9.8536255351 2.2341693310 0.1800681946
H -9.4063006046 3.9068604015 -0.1108844859
H -7.6991598186 2.8722283974 1.2643155945
H -7.0063003302 3.2558807419 -0.3044943347
H -7.2173380994 0.8725272960 -1.0045338411
H -8.0210094678 0.4828148500 0.5093350332
H -5.9517075254 1.1522537884 1.7661584890
H -5.1591356956 1.5475470973 0.2486659929
H -6.1922264128 -1.2287859521 1.0316617602
H -5.4230369431 -0.8415949725 -0.4994466249
H -3.3402592125 -0.1703709561 0.7067861220
H -4.0963538258 -0.5504998430 2.2475643785
H -3.5828319368 -2.5543354985 -0.0120127793
H -4.4157032098 -2.9294256921 1.4886933263
H -2.3533741688 -2.3585034933 2.7892286881
H -2.1258423194 -3.6913504859 1.6673593990
H -1.1070063266 -2.0595359073 0.0078898734
H -1.1911163816 -0.8079884347 1.2387336618
H 0.2461342953 -2.1981739666 2.7543275608
H 0.3368801622 -3.4435439697 1.5187613845
H 1.4319989479 -1.8161299090 -0.0458900754
H 1.3348434136 -0.5701440090 1.1898793004
H 2.8211010277 -1.8869587608 2.6828691403
H 2.8152033831 -3.2266327115 1.5456397056
H 4.9085148241 -2.0089918838 1.3214326054
H 3.9694718831 -1.8346268467 -0.1539312942
H 3.3022995111 0.4589725645 0.4881645689
H 4.0063114112 0.2513707004 2.0850761126
H 6.2824367841 0.0762107138 1.0736656303
H 5.4944875570 1.6076393631 0.7209816923
H 4.8108153940 0.6902092349 -1.5413400097
H 5.7393331068 -0.7629622228 -1.2022470691
H 6.8842842697 2.0717331746 -1.3129079577
H 6.3064337258 1.0783434024 -3.5593026664
H 7.3047121490 -0.3272368565 -3.1795864488
H 8.2889787543 2.5665828846 -3.3980553720
H 8.5037922037 1.2964631767 -4.6147076525
H 9.6422630536 1.2764649160 -2.0376059234
H 7.8035368723 0.6179361537 -0.9212647120
