48
CONF84
C 4.3496265006 1.4263528915 0.1130231440
C 2.9497000933 1.5380307794 0.7102822153
C 2.3523639931 0.1745404698 1.0566920394
C 0.9210181501 0.3585848646 1.5825615308
O 0.6746917577 0.5173665610 2.7730829671
N -0.0207564034 0.3761001832 0.6022069047
C -1.3952082008 0.6651001977 0.8489458593
C -2.1219073629 1.7180307595 -0.0580877668
N -3.1287193627 0.6892737873 -0.3680511338
C -2.4236964780 -0.3353540797 0.2547185570
O -2.5761733490 -1.5331600469 0.2630980396
C -3.6727254253 0.6812479605 -1.7097477887
C -2.4846090521 1.0375587972 -2.6800920138
S -1.3865829261 2.1938950099 -1.6756473409
C -1.7156306157 -0.2341636367 -3.0368513936
C -2.9222831634 1.7643391115 -3.9484384352
C -4.8198650656 1.6748623911 -1.8068198036
O -4.8899954799 2.7030563806 -1.1709910720
O -5.7342281621 1.2727652636 -2.7024945066
O 3.1790537937 -0.4017155849 2.0645652166
C 2.9662608806 -1.7073107824 2.4195305021
C 3.8125813124 -2.1973612231 3.4198618784
C 3.6871557471 -3.5112311537 3.8496685649
C 2.7209089800 -4.3508465751 3.2926105820
C 1.8836065062 -3.8552291970 2.2990810846
C 1.9951008270 -2.5368530467 1.8542073811
H 4.3356756126 0.8184444599 -0.7978110211
H 4.7309616730 2.4182008316 -0.1458378908
H 5.0458845073 0.9682514555 0.8202456951
H 2.9608591817 2.1502092869 1.6199551944
H 2.2733334030 2.0249211084 -0.0012517436
H 2.3510284889 -0.4639005731 0.1608192978
H 0.2709791702 0.2528843725 -0.3588321090
H -1.5377622249 0.8505599253 1.9170381965
H -2.5025415335 2.6036747081 0.4526115768
H -4.0392372486 -0.3216466795 -1.9488593130
H -0.8303984158 0.0203072390 -3.6256125426
H -2.3556499821 -0.8923935956 -3.6354589848
H -1.3870656659 -0.7804526742 -2.1491046891
H -3.4524183940 2.6949921667 -3.7296079152
H -2.0460903572 2.0027257991 -4.5575190249
H -3.5742841951 1.1108800678 -4.5368241559
H -6.4261094338 1.9549132446 -2.7704544726
H 4.5599805357 -1.5355526630 3.8459029804
H 4.3489204973 -3.8818188146 4.6266364176
H 2.6239926029 -5.3770612606 3.6309229782
H 1.1257631039 -4.4945396596 1.8563821653
H 1.3244921744 -2.1833799137 1.0797443548
