21
CONF5
C -3.3252082482 -0.2868468034 -0.2739243711
C -3.0346749989 1.0747342819 -0.1723871038
C -1.7389139317 1.5029387907 0.0807156804
C -0.7100569356 0.5664595472 0.2380873288
C -0.9886119183 -0.7990821116 0.1352143308
C -2.2977765780 -1.2109907816 -0.1184524271
O 0.5236877555 1.0984212612 0.5001373030
C 1.6489044914 0.2133228783 0.6470333686
C 2.1773707989 -0.2418328193 -0.6808343929
C 3.6130040053 -0.4688226088 -0.8543400969
O 2.9920517915 0.7214984253 -1.3830397538
H -4.3383754459 -0.6195400607 -0.4732138897
H -3.8237694463 1.8111887897 -0.2910068568
H -1.5032215436 2.5592082275 0.1635544363
H -0.2128963216 -1.5469696540 0.2443090270
H -2.5053656611 -2.2739219858 -0.1973567723
H 2.4115848158 0.8090097081 1.1555227955
H 1.3921391302 -0.6428548206 1.2832550779
H 1.4873147692 -0.7835862710 -1.3275867594
H 3.9504179875 -1.1844307978 -1.6014605781
H 4.2823960871 -0.2979031955 -0.0120366515
