40
CONF7
C -1.0564427457 -3.0729179103 2.2870439026
C -0.5090403538 -1.7820910182 1.6545607420
C 0.9903632847 -1.9648953856 1.3777444542
C -1.3286911303 -1.4917754150 0.3919784692
C -2.6592159423 -1.0731231614 0.5208758017
C -3.4409175922 -0.8227516737 -0.6005027902
C -2.9069157904 -0.9852549116 -1.8785157208
C -1.5876571485 -1.4012178528 -2.0192293548
C -0.8039970537 -1.6540323193 -0.8926536763
N -0.7244042186 -0.7102861411 2.6566037648
C -0.3020737523 0.6031135552 2.5555876744
O -0.1113349552 1.2874976219 3.5714626549
N -0.1573039168 1.1000065313 1.2944597737
C 0.3080976873 2.4517853128 1.0243218027
C 1.3269983787 2.4366178658 -0.0870591436
C 0.9724738113 2.8607571659 -1.3706958300
C 1.8756839597 2.8170859934 -2.4283333724
C 3.1656850876 2.3410350708 -2.2156618261
C 3.5509928088 1.9126837692 -0.9481234569
C 2.6310835532 1.9651736803 0.0917402432
Cl 3.1533809156 1.4232239956 1.6856087520
H -0.9534095410 -3.8981964542 1.5780977621
H -2.1136124421 -2.9626688059 2.5441762456
H -0.4921961880 -3.3204775574 3.1932608295
H 1.5072770055 -2.1118304916 2.3303350413
H 1.1691546894 -2.8465198895 0.7560356504
H 1.4238477585 -1.0924281705 0.8808898353
H -3.0752276024 -0.9270306373 1.5129491697
H -4.4686197646 -0.4943874366 -0.4778063636
H -3.5147164241 -0.7846428008 -2.7552189903
H -1.1581978646 -1.5279610639 -3.0083602743
H 0.2243327873 -1.9682573721 -1.0303388095
H -0.6735920210 -1.0277554595 3.6149119740
H -0.4433763990 0.5417705482 0.5033067746
H 0.7357712027 2.8461632224 1.9495674788
H -0.5254629855 3.1037297821 0.7333319816
H -0.0365928902 3.2298817385 -1.5322036365
H 1.5723431833 3.1533397877 -3.4142758322
H 3.8805540119 2.3015026686 -3.0311209593
H 4.5549577025 1.5451343171 -0.7677051259
