52
CONF25
O 4.0980882455 -1.3910635218 -2.3571074976
C 2.7668628137 -1.3875921940 -1.8198505320
C 2.7745600194 -0.5869421436 -0.5256846024
C 3.9066509369 -0.7264345909 0.3063574690
C 3.9437340211 0.0041391438 1.4661582010
C 2.9047138484 0.8537621696 1.8264886917
C 1.7832615727 0.9905772787 1.0489849882
C 1.7129612646 0.2546073816 -0.1533776266
C 0.4494612512 0.4408449853 -1.0039696443
C -0.8087004136 0.4542869731 -0.1559576010
C -1.6135358773 1.5897013708 -0.1308930759
C -2.7674845799 1.6057640372 0.6605571581
O -3.6232959948 2.6600809924 0.7543781802
C -3.3157900416 3.8279261337 -0.0193393812
C -3.1053424508 0.4871261988 1.4333876836
O -4.2113192619 0.5179107246 2.2496752792
C -5.4098881968 0.0631463869 1.5872841092
C -2.2865353885 -0.6529031792 1.3986889752
O -2.6986634730 -1.6889228177 2.1792306871
C -1.8889155205 -2.8723705970 2.1799958277
C -1.1355543845 -0.6657500958 0.6096608905
C 0.4238069579 -0.6388283428 -2.0783544693
C -0.5266227964 -0.4807844047 -3.2435919632
O 0.0414826667 -1.0373181540 -4.3476657267
C 1.3787468404 -1.5486023697 -4.0254775550
C 1.7690471483 -0.7718431626 -2.7761711427
O -1.6247090158 0.0210517010 -3.2872552764
O 3.1723387500 1.4264323986 3.0453798473
C 4.5541168128 1.1034525394 3.3127703085
O 4.9056049946 0.0033566342 2.4473800943
H 4.1565780358 -2.1145925368 -2.9938692624
H 2.4619176430 -2.4252859911 -1.6011203563
H 4.7188681877 -1.3852279330 0.0243819882
H 0.9650808258 1.6359379692 1.3502969958
H 0.5233893258 1.4138890997 -1.5090106200
H -1.3403123948 2.4471432526 -0.7335945582
H -4.1127054428 4.5401491006 0.1960346643
H -2.3503217654 4.2531366277 0.2781653435
H -3.3054979858 3.5981055314 -1.0910786012
H -6.2154990988 0.1334823623 2.3207029704
H -5.6374398478 0.7002573945 0.7247790186
H -5.2963928534 -0.9770822926 1.2602931406
H -0.8795270145 -2.6575590778 2.5495557875
H -2.3869812185 -3.5679580983 2.8558941953
H -1.8309495629 -3.3099723723 1.1765622806
H -0.4828101299 -1.5305750074 0.5995374426
H 0.1717715434 -1.6096926167 -1.6191111926
H 2.0094616664 -1.3670891028 -4.8962215217
H 1.2948567339 -2.6250326157 -3.8332873606
H 2.1268569166 0.2273309503 -3.0618408685
H 5.1810108391 1.9714907143 3.0669766648
H 4.6595659596 0.7943341768 4.3542712089
