37
CONF121
C -3.3041486814 -0.1484497005 -2.4947351893
C -1.8677368879 -0.1270313889 -2.9732745804
O -0.9349824265 -0.5087681352 -1.9189971064
P -0.6658393954 0.5264953053 -0.7327671733
O -0.7486096656 1.9639328474 -1.0615105992
O -1.6098744969 0.0059765055 0.4433076087
C -2.1573382594 0.9471463175 1.4295613249
C -2.3351983547 0.1910725028 2.7223325715
O 0.8183416619 -0.0089412944 -0.3420558972
P 1.5411451388 0.0907988088 1.1213806611
O 0.9094179053 1.0385644295 2.0574903449
O 1.5720389584 -1.4106733468 1.6247811675
C 1.9420487763 -2.5109834308 0.7352463482
C 0.7066562476 -3.2957310836 0.3576756666
O 3.0558778789 0.3714111550 0.7107275110
C 3.5103637828 1.7562685388 0.5659254413
C 2.9568683989 2.4169470229 -0.6783654302
H -3.9712301950 0.0358847455 -3.3430765337
H -3.4829125874 0.6318887597 -1.7492596868
H -3.5541436370 -1.1185801052 -2.0569407281
H -1.6974240435 -0.8685999807 -3.7574985484
H -1.5842935969 0.8624554075 -3.3471431573
H -3.1092891453 1.3124476266 1.0291763465
H -1.4680574315 1.7855725840 1.5480434596
H -2.9913433022 -0.6730270987 2.5847342072
H -1.3647694754 -0.1449184062 3.0950953547
H -2.7842234795 0.8532855399 3.4693281887
H 2.6491295435 -3.1161842392 1.3092850294
H 2.4591417811 -2.1183040720 -0.1463923618
H 0.1940575229 -3.6575181248 1.2528572484
H 0.0139889990 -2.6788201417 -0.2202514141
H 0.9944154314 -4.1585906698 -0.2519480047
H 3.2298430218 2.3031072451 1.4721041419
H 4.5985232233 1.6676660715 0.5241245165
H 1.8743592437 2.5615393906 -0.6181059565
H 3.4232576225 3.4009745383 -0.7931436002
H 3.1819407172 1.8216855693 -1.5677107633
