53
CONF541
C 0.1191259923 4.5556626329 -1.5307971287
C 0.1716910945 4.3638859633 -0.0285225316
O -0.1557725456 2.9921847185 0.3177902967
C 0.8489724134 2.0846236978 0.2711735512
O 2.0157907669 2.3953886381 0.0511903097
C 0.3522111329 0.7374528974 0.5127195814
C 1.2225317063 -0.3113997421 0.5402552176
N 0.7627929686 -1.5720986541 0.8050914570
C -0.5093194924 -1.8522294548 1.2442463850
C -1.4459638243 -0.8590779846 1.2445468778
C -1.1512123275 0.5056290559 0.6266385463
C -1.8021172053 0.6347087532 -0.7516361846
C -1.4043409027 -0.2579319523 -1.7555547648
C -1.9239524936 -0.2083025901 -3.0417944831
C -2.8743849726 0.7581522542 -3.3626488743
C -3.2944611846 1.6593978454 -2.3922783049
C -2.7594615518 1.5884536708 -1.1071826105
Cl -3.3616802645 2.7768552505 0.0522431884
C -2.7743692903 -1.1092341912 1.7940607593
O -3.1637094108 -2.1276505854 2.3534520766
O -3.5846368138 -0.0343196283 1.6181034183
C -4.9233270118 -0.1661655903 2.1372963128
C -0.6972557794 -3.2670155798 1.6983219118
C 2.7138621737 -0.2265391918 0.3127251655
O 3.2669728489 -1.5322112064 0.3914854433
C 4.6891363020 -1.5294892418 0.2103270565
C 5.1775852354 -2.9542147402 0.3388390600
N 4.9454947644 -3.4645016432 1.7009610236
H 0.8771007204 3.9453646634 -2.0294821733
H 0.3068387955 5.6065935568 -1.7720459870
H -0.8674686081 4.2818824286 -1.9169911148
H -0.5941541016 4.9583629998 0.4750119587
H 1.1537497971 4.6152929236 0.3804377873
H 1.4559560542 -2.3087881707 0.8182670749
H -1.5750825610 1.2772795047 1.2695033464
H -0.6610440773 -1.0106736469 -1.5087678257
H -1.5884893023 -0.9185210859 -3.7904711665
H -3.2913640578 0.8152139256 -4.3628899757
H -4.0340394791 2.4172168351 -2.6261732751
H -5.4425435044 -0.9968063542 1.6519351853
H -4.9009987122 -0.3310505157 3.2178808128
H -5.4161712137 0.7781119916 1.9062191560
H -0.7857212401 -3.3120409280 2.7878627943
H -1.6136147128 -3.6916555941 1.2878248411
H 0.1560996179 -3.8777259498 1.3929279763
H 2.9132727089 0.2216589518 -0.6708337977
H 3.1652128758 0.4350221369 1.0661700192
H 4.9352644006 -1.1286307037 -0.7844010417
H 5.1542124597 -0.8893363650 0.9757621901
H 4.6991226753 -3.5618224622 -0.4474393210
H 6.2556639135 -2.9538523021 0.1394979988
H 5.2941348740 -4.4160240938 1.7598838577
H 3.9438602484 -3.5350835545 1.8544460283
