33
CONF2
C -4.0143986110 1.3003444599 0.4969369978
C -2.7161539335 0.8169707074 1.0174921886
N -1.6042001745 0.8257078721 0.3476094857
N -0.6439750821 0.3206976136 1.2131590818
C -1.1666826140 -0.0699347227 2.4323339824
O -0.6316986005 -0.6099877779 3.3795201960
N -2.5213801878 0.3026097131 2.2941230373
C -3.4712600588 0.0950744596 3.3275580239
F -4.0753121448 1.2759996654 3.6645133820
F -4.4725945367 -0.7350393341 2.8998230419
C 0.6643606314 0.0642898489 0.7591586332
C 1.7785414242 0.5994515208 1.4139783802
C 3.0582879467 0.3018895940 0.9627261799
C 3.2156429150 -0.4800452028 -0.1715708964
C 2.1137817022 -1.0131825472 -0.8598754720
C 0.8410045983 -0.7416208545 -0.3590131295
N 2.2671744461 -1.8414933898 -1.9900998432
S 1.6243251742 -1.3168044690 -3.5014112149
O 0.1832792284 -1.1275061020 -3.3182253053
O 2.1523204900 -2.2770883004 -4.4741581271
C 2.3697020007 0.3020762051 -3.7924708980
Cl 4.8390306475 -0.7947146324 -0.7479560635
Cl 1.5923973457 1.6803019447 2.7629096265
H -4.7635533959 0.5033491198 0.5164104957
H -4.3901673200 2.1316282901 1.1009634481
H -3.8714867099 1.6363956273 -0.5305491782
H -2.9769735738 -0.3373009270 4.2032335433
H 3.9237650168 0.7101862415 1.4694112210
H -0.0256627943 -1.1719323900 -0.8453258649
H 3.2219421036 -2.1609225369 -2.1377214954
H 2.1018681045 0.9590422356 -2.9615287853
H 1.9469750555 0.6761466259 -4.7281280287
H 3.4511022138 0.1754121355 -3.8731054304
