40
CONF7
C -3.4347077355 -2.6648820485 -2.8698748071
C -2.8797317475 -1.5847399311 -1.9855214168
C -2.0504023244 -1.8930569409 -0.9020936185
C -1.5101067743 -0.8948783638 -0.1017446211
C -1.7842827822 0.4520147542 -0.3694599067
C -2.6249029366 0.7680861335 -1.4438929952
C -3.1631502125 -0.2377762913 -2.2356281224
C -1.2614502595 1.5256365335 0.4738532799
C -1.9208639231 2.6279176565 0.9946369131
C -0.9692339533 3.2589308702 1.8080045971
N 0.2048678004 2.6311854742 1.8050064874
N 0.0160130106 1.5781111414 0.9835931890
C 1.1264916970 0.7432556699 0.6822575644
C 1.9451129044 0.3088452702 1.7229080067
C 3.0427548070 -0.4910762123 1.4363397067
C 3.2929427254 -0.8471443151 0.1139585856
C 2.4826601661 -0.4091607430 -0.9295321688
C 1.3930964085 0.4014013542 -0.6424903830
S 4.6962744970 -1.9089784486 -0.2558894109
O 5.0512760193 -1.7065475138 -1.6678526110
O 5.6952057721 -1.7227023571 0.8063746767
N 4.1804178601 -3.5072148833 -0.1304039407
C -1.1259452061 4.5119330406 2.5996501857
F -2.4315162835 4.8410935925 2.7239999928
F -0.6092440765 4.4039494554 3.8453188022
F -0.5050513880 5.5702182702 2.0139230046
H -4.4441132553 -2.4171964461 -3.2099830379
H -2.8101594024 -2.7867416413 -3.7630503624
H -3.4627650506 -3.6265184264 -2.3514397976
H -1.8333956254 -2.9331632324 -0.6750380957
H -0.8871626697 -1.1637418501 0.7455753286
H -2.8460645145 1.8086091705 -1.6614816682
H -3.8109858467 0.0266579194 -3.0669331941
H -2.9553058585 2.8930327628 0.8425470883
H 1.7213256563 0.5954711564 2.7438213152
H 3.6934831710 -0.8335220418 2.2330874809
H 2.7112963172 -0.6763692608 -1.9549193472
H 0.7637074637 0.7754725426 -1.4416192141
H 3.8689733509 -3.7144716003 0.8171619293
H 3.4346424002 -3.7019407126 -0.7964642100
