55
CONF51
C 3.6007858698 0.7245271927 -5.4856719577
O 4.0029216028 -0.3170644833 -4.6015717163
C 3.2433097991 -0.5260520598 -3.4883564759
C 3.6698022865 -1.5589320919 -2.6492315157
C 2.9607177388 -1.8451649321 -1.4956377445
C 1.8189634103 -1.1176577589 -1.1447780395
C 1.4012780277 -0.0961974802 -1.9952652707
C 2.1015583228 0.2067872733 -3.1586826578
C 1.1043841907 -1.4512863769 0.1372262962
S -0.6902319119 -1.7546255781 -0.2510376269
C -1.4293310705 -1.6548952592 1.3677059831
C -2.0230241225 -2.7929902127 1.9156867300
C -2.6988307072 -2.7304993350 3.1290480311
C -2.7538000747 -1.5268456137 3.8247563922
C -2.1499224297 -0.3912696055 3.3004356412
C -1.5047193905 -0.4329573190 2.0625929988
N -0.9514037852 0.7586236575 1.5322885812
C -1.8325315280 1.9173817803 1.3319590901
C -2.5242127969 1.8629830292 -0.0283494789
N -3.3551803973 0.6746670580 -0.1894085174
C -3.6349843460 0.4151654379 -1.5966945787
C -4.5916935512 0.7528717252 0.5777879330
C 0.3166470801 0.8382824226 1.0148779006
O 0.7365098791 1.8355529585 0.4466914137
C 1.2086235355 -0.3899938815 1.2480779753
O 2.5820616839 0.0159951923 1.2843755874
C 2.9081158077 0.8335019624 2.3230802931
C 4.3117700013 1.3377141905 2.1740262529
O 2.1421807103 1.1110682640 3.2147034756
H 4.3302913071 0.7247926311 -6.2966068430
H 3.6126614497 1.7009785255 -4.9841834608
H 2.6001280509 0.5353710587 -5.8956927723
H 4.5550925267 -2.1229141218 -2.9218280347
H 3.3035497721 -2.6471634239 -0.8478679602
H 0.5203665859 0.4845699011 -1.7477929253
H 1.7482828227 1.0119316018 -3.7905444395
H 1.5286029191 -2.3783758032 0.5378657548
H -1.9566287829 -3.7279615800 1.3696014489
H -3.1645745243 -3.6219147459 3.5355653958
H -3.2515789263 -1.4728768809 4.7873894465
H -2.1619434110 0.5399922042 3.8573110434
H -1.2214331333 2.8214001177 1.3917587413
H -2.5605568140 1.9396552549 2.1460810441
H -3.1007595879 2.8021737309 -0.1686239546
H -1.7430332476 1.8464546677 -0.7962985007
H -4.2056539372 1.2314453817 -2.0832303022
H -4.2172445556 -0.5075382964 -1.6913891503
H -2.6941459845 0.2765085019 -2.1391470668
H -5.2364186371 1.6013172338 0.2710754698
H -5.1599457317 -0.1736781431 0.4476662857
H -4.3790103698 0.8531852143 1.6468759027
H 0.9451393153 -0.8438022512 2.2090753852
H 4.3014551055 2.1434668904 1.4326511908
H 4.6627942732 1.7301192704 3.1276515347
H 4.9747978969 0.5541741950 1.8020013690
