110
CONF69
C -3.5716434523 -0.1870466611 1.4207009740
N -4.5968301595 0.2886387752 2.3723777776
C -4.2521444631 1.6841722244 2.7222407502
C -3.3778883532 2.1779196571 1.5523427321
C -3.4052118853 1.0364357990 0.5045200849
C -2.1766566658 1.0052919497 -0.3620543360
C -0.8546258439 0.8171487825 -0.0043805306
C 0.1626427453 0.8583525840 -0.9639471045
C -0.2120907940 1.1261925114 -2.3006572980
O 0.8186559887 1.1543094687 -3.1904920655
C 0.5356587395 1.4867449549 -4.5552581309
C -1.5400514271 1.3417266253 -2.6788439560
C -2.5217389911 1.2538274985 -1.6886447127
N -3.8876962686 1.3646192069 -1.8482883077
C -4.4265326102 2.2655863233 -2.8591814691
C -4.5687144815 1.2183617331 -0.5487515153
C -5.5967397820 0.0308873012 -0.5398433052
O -6.4856718265 0.1712616776 0.5557085369
C -4.8015922681 -1.2855409744 -0.5365992828
O -5.6363015215 -2.4263069742 -0.7555734955
C -3.9709869087 -1.5212502155 0.7599450118
C -2.7065795232 -2.3158639250 0.3092949697
C -1.7531460142 -2.7769301883 1.4082424908
C -4.7040854677 -2.3777232866 1.7671792545
C -5.0136432606 -1.9999446468 3.0067466648
C -4.7940707263 -0.6059367277 3.5052285250
C -6.4550577954 0.0842252168 -1.8191440083
N -7.5598071953 0.8416665199 -1.7215942314
O -6.1280528960 -0.5104852287 -2.8531165908
C 1.6331737260 0.5944497954 -0.6191395834
C 1.8676932131 0.6687272952 0.9281131371
C 3.3393685025 0.4195216548 1.2450170861
C 3.6176321053 -0.9946889864 1.7690709518
N 5.0251021900 -1.3226821363 1.5974569643
C 5.8697167573 -0.3413773582 2.2781669132
C 5.5625165383 1.1636308095 2.0694827977
O 5.9491373336 1.5689858212 0.7337150758
C 6.3534918995 1.9735273160 3.1079740352
C 6.1752322918 3.4867562431 3.0067645145
C 4.0494278223 1.4203685931 2.1522171909
C 5.3723273659 -1.7722550013 0.2416983013
C 4.7307820170 -1.1212922169 -1.0286303116
C 3.2814169442 -1.4680925349 -1.2703854263
C 2.0711539573 -0.7857069542 -1.1238361490
N 1.0358619290 -1.6638320702 -1.4121833489
C 1.5226601244 -2.8890645593 -1.7669058597
C 0.8534466159 -4.0500533985 -2.1535363291
C 1.6310798485 -5.1568920973 -2.4693418409
C 3.0369831678 -5.0989748888 -2.4059407725
C 3.6943475831 -3.9380045313 -2.0206457724
C 2.9356705283 -2.8027335974 -1.6897794341
C 2.4913091144 1.7189352051 -1.2367392968
O 3.4777033720 1.5884557612 -1.9274701242
O 2.0234621891 2.9187675007 -0.8461778089
C 2.7795555499 4.0626601431 -1.3107208609
H -2.6181672923 -0.3339482631 1.9555866712
H -3.6931114704 1.7215927994 3.6685731072
H -5.1703872802 2.2685289197 2.8489303379
H -2.3453860878 2.3168756768 1.8858711504
H -3.7213459848 3.1229428241 1.1251436835
H -0.6134080200 0.6399078391 1.0372329483
H 1.5009134763 1.4863056788 -5.0625564770
H -0.1220628262 0.7385423491 -5.0121753082
H 0.0776647376 2.4795442704 -4.6294379171
H -1.8028721504 1.5455858361 -3.7084208849
H -4.1520542258 1.9231151858 -3.8617945694
H -5.5156299069 2.2767973653 -2.8004650592
H -4.0572576351 3.2943507714 -2.7228911006
H -5.1480259764 2.1241625264 -0.3218666629
H -5.8886508378 0.2406076895 1.3761403459
H -4.0887484411 -1.1971743502 -1.3687750555
H -5.9171927561 -2.3711706453 -1.6802366373
H -3.0718901441 -3.1912411383 -0.2420821739
H -2.1610319889 -1.6949586823 -0.4102380278
H -2.2646178205 -3.3905353531 2.1561971918
H -1.2801834430 -1.9364629531 1.9260081236
H -0.9509946549 -3.3792863552 0.9687474182
H -4.9008097240 -3.4001712202 1.4560317628
H -5.4566871345 -2.7083970864 3.7021386698
H -3.9292327332 -0.5743883387 4.1979528704
H -5.6666139210 -0.2668526359 4.0793967229
H -8.1882793532 0.9144930672 -2.5070156604
H -7.8235999909 1.2279904769 -0.8284626775
H 1.2430530551 -0.0924827790 1.4084629456
H 1.5291842425 1.6466728958 1.2841510678
H 3.8759576955 0.5012877838 0.3052609437
H 3.0074424070 -1.7397693810 1.2470284131
H 3.3575290704 -1.0417656782 2.8400296040
H 5.7748430074 -0.5289273045 3.3601535982
H 6.9201234939 -0.5230085907 2.0144582958
H 6.8764805277 1.3248514709 0.6147474302
H 6.0593299194 1.6326096859 4.1083968115
H 7.4171339574 1.7197596473 2.9920809231
H 6.8353324566 3.9965125211 3.7152972961
H 5.1482882220 3.7874961002 3.2358773683
H 6.4171577067 3.8446057040 2.0015830526
H 3.8425517860 2.4493488597 1.8336688191
H 3.7204349269 1.3187246760 3.1951746383
H 6.4605215623 -1.6877776428 0.1392716033
H 5.1304827533 -2.8445583481 0.1861135616
H 5.2996680122 -1.5540698235 -1.8643023129
H 4.9236526185 -0.0513148169 -1.0627977111
H 0.0647786689 -1.3935511521 -1.4203838867
H -0.2309031464 -4.0837640464 -2.2048238949
H 1.1478199043 -6.0804949191 -2.7727631676
H 3.6151102471 -5.9810851751 -2.6642886718
H 4.7793560579 -3.9136349786 -1.9814874142
H 2.7839609546 4.0929228900 -2.4032091761
H 2.2651134974 4.9327000049 -0.9045067359
H 3.8056107938 4.0124813484 -0.9371272720
