47
CONF16
C -1.3735968806 0.3181567263 2.1100299927
C -0.7835518787 1.2057201141 1.0174352000
C -1.6570450674 2.4032325754 0.6324398232
C -3.0543774822 2.0462708147 0.1564068668
O -3.0196615220 1.0755800038 -0.9330336294
C -2.8239810729 1.5659196426 -2.1637586069
O -2.7125080905 2.7363456316 -2.4502305307
C -2.8465897124 0.4583261095 -3.2215158563
C -4.2803646298 0.2105385618 -3.6654918605
O -2.3448446830 -0.7847841187 -2.7373112312
C -1.0481489374 -0.8209995784 -2.3023980653
C -0.6919383043 -1.9619889240 -1.5774037928
C 0.5961282349 -2.1036119468 -1.0903798103
C 1.5261522953 -1.0989245690 -1.3251613670
C 1.1909372114 0.0313493449 -2.0454275499
C -0.1042382609 0.1788420049 -2.5411858485
O 2.8531107697 -1.2600325570 -0.9032108119
C 3.1443102579 -1.0604703850 0.4077565329
C 4.4780892736 -1.2854905484 0.7822030525
C 4.8130622426 -1.0785509854 2.1014899890
C 3.8233384694 -0.6561546293 2.9976991967
C 2.5354959130 -0.4673566640 2.5192059645
N 2.1952701632 -0.6670589500 1.2408285937
C 4.1680128519 -0.4452436614 4.4363957133
F 4.4266807332 -1.6192599532 5.0706988501
F 3.1743340017 0.1642750202 5.1188676121
F 5.2829477746 0.3165083125 4.5760106219
H -0.6702748083 -0.4786946556 2.3698091025
H -1.5977979443 0.8891794363 3.0188892538
H -2.2971904146 -0.1678470670 1.7790992283
H 0.1921028210 1.5862730086 1.3407509539
H -0.5835027956 0.5971449061 0.1312536322
H -1.7828773361 3.0686444104 1.4983026173
H -1.1587318807 2.9910602209 -0.1465690130
H -3.5935971937 2.9348914730 -0.1838031904
H -3.6319635407 1.5425448356 0.9346433343
H -2.2500339355 0.8169845613 -4.0703698105
H -4.7143302097 1.1369213505 -4.0495275892
H -4.8772805730 -0.1469437745 -2.8226197132
H -4.2935760082 -0.5442551242 -4.4554190303
H -1.4443639836 -2.7224051607 -1.4005887162
H 0.8810951009 -2.9806899608 -0.5199471608
H 1.9357643985 0.8010844565 -2.2146116072
H -0.3541442744 1.0778533277 -3.0915380652
H 5.2020921367 -1.6074851189 0.0437043011
H 5.8308839395 -1.2351508090 2.4437156135
H 1.7407018048 -0.1374477970 3.1838661120
