16
CONF4
C -1.1753841965 -0.4892391529 -0.4719855721
C 0.2374200797 -0.6097732639 -0.3874005653
C 0.9679571632 0.2600338188 0.4035483650
N 0.3931262420 1.2320661076 1.1287535453
C -0.9122387692 1.3727016296 1.0503380505
C -1.7416987600 0.5664404637 0.2809339912
Cl -3.4625561225 0.7985024328 0.2280125069
Cl -1.6048305536 2.6743915675 2.0014984605
C 2.4623477970 0.1938371099 0.5757082302
O 2.9966725910 0.1964095983 1.6617465726
O 3.1137651363 0.1839540796 -0.5937367564
Cl 0.9930208482 -1.9269242602 -1.2479496722
N -1.9214045272 -1.3193512817 -1.2124913502
H 4.0707070151 0.1413090045 -0.4153275906
H -2.9216214723 -1.2152494801 -1.2559062322
H -1.4952820711 -2.0591081736 -1.7457419831
