47
CONF277
C -3.7012089136 2.3831439001 4.1763475332
C -2.7114539447 1.4162288875 3.5246528741
C -2.5456547943 1.6229316319 2.0149068918
C -3.8303295251 1.3467053697 1.2537858456
O -3.6120483950 1.5142075301 -0.1842383613
C -3.1220751374 0.4619764482 -0.8495999922
O -2.8650696165 -0.6197696026 -0.3669916551
C -2.9835439690 0.8013521792 -2.3344480223
C -4.3066205610 0.5442706357 -3.0411330204
O -2.0131061462 -0.0462085754 -2.9478647141
C -0.7023541637 0.0961773344 -2.5764353370
C 0.1899299030 -0.7907500762 -3.1887246935
C 1.5430612852 -0.7322370191 -2.8935312326
C 1.9975717731 0.2103483147 -1.9791954844
C 1.1289846420 1.0967423696 -1.3689240694
C -0.2329594669 1.0460072276 -1.6669868325
O 3.3730044897 0.3294924197 -1.7316416423
C 3.9533823953 -0.5396433097 -0.8625803560
C 5.3439534017 -0.4263193080 -0.7179465669
C 5.9651999291 -1.2880020477 0.1574519740
C 5.1893427925 -2.2254581171 0.8534280699
C 3.8199095966 -2.2492777280 0.6389206001
N 3.2035189543 -1.4150424356 -0.2103420797
C 5.8520488433 -3.1655913912 1.8035271225
F 6.8295154481 -3.8929683019 1.1965154919
F 4.9892194660 -4.0465901890 2.3556309687
F 6.4594288567 -2.5086885793 2.8302761023
H -3.7051147739 2.2601783074 5.2636812660
H -3.4319739010 3.4221687237 3.9553829236
H -4.7244829781 2.2195473482 3.8239207706
H -1.7280590267 1.5350365746 3.9933439545
H -3.0230382388 0.3810005937 3.7146553033
H -2.2235914372 2.6520651535 1.8121862769
H -1.7640256818 0.9529282747 1.6385968388
H -4.6121599948 2.0714386136 1.4858587246
H -4.1999216668 0.3341273973 1.4406844988
H -2.6959455890 1.8546170277 -2.4426128064
H -4.2020338589 0.7765559499 -4.1036121860
H -5.0847821147 1.1818871003 -2.6152761759
H -4.5988906984 -0.5033514163 -2.9276406655
H -0.1921024290 -1.5184155309 -3.8969535459
H 2.2431373948 -1.4146246771 -3.3643450744
H 1.5082236467 1.8268037900 -0.6616447024
H -0.8961708857 1.7527179536 -1.1821761084
H 5.8944084892 0.3159689060 -1.2835037102
H 7.0399088164 -1.2416196424 0.3026971538
H 3.1849667898 -2.9592681099 1.1618971620
