33
CONF1
C -3.9156822445 -0.3287669832 -0.1118287268
C -3.7021402974 -0.3308503569 1.2667672412
C -2.3970709380 -0.3041923061 1.7410575389
N -1.3418604050 -0.2874210225 0.9290612330
C -1.5299718126 -0.2601924173 -0.3845798112
C -2.8210874548 -0.2851668191 -0.9494865904
Cl -3.0313120864 -0.2639755975 -2.6784168647
N -0.4186691887 -0.2547404778 -1.2127841101
C 0.8851890799 -0.0292372181 -0.8561713129
C 1.9406724217 -0.7508199285 -1.4685778078
C 3.2687943540 -0.5425208799 -1.1274529266
C 3.6287231502 0.4080708486 -0.1948342059
C 2.6189290894 1.1742021992 0.4139898339
C 1.2824092926 0.9423897849 0.0955705695
N 0.2630173560 1.8727913668 0.6449177898
O 0.2058612205 2.0085463148 1.8499480917
O -0.4277229099 2.4479466510 -0.1842253584
Cl 3.0556233184 2.4599797487 1.4814655220
C 5.0933634645 0.6117238567 0.1212202202
F 5.8561695726 -0.2796290714 -0.5471078280
F 5.3500610568 0.4485706104 1.4353648590
F 5.5195888259 1.8425816322 -0.2335522309
N 1.6991378349 -1.7789838663 -2.4850927845
O 0.6292710958 -1.7483518129 -3.1063674053
O 2.5769366605 -2.6030029983 -2.6822575376
C -4.8754650719 -0.4051273955 2.1976342828
F -5.3796224529 -1.6634996989 2.2588873065
F -4.5447999193 -0.0448876184 3.4540581067
F -5.8843414258 0.3988875254 1.7887560279
H -4.9186720343 -0.3440559736 -0.5229492236
H -2.1877729046 -0.3002000065 2.8068587774
H -0.5199350290 -0.6930089258 -2.1252514401
H 4.0223784926 -1.1463370417 -1.6146211193
