20
CONF1
C -1.1526243875 -0.0724948704 -0.3341372321
C -2.3679829799 -0.3797774580 0.5233721698
I -4.0485938105 -0.9539953284 -0.7455986369
C 0.0271663578 0.2988283738 0.5439784852
C 1.2916777344 0.7014532112 -0.2735518003
C 2.6181771784 0.8002078654 0.5508535594
C 3.7572496239 1.6001119103 -0.1622029585
F 3.9171416124 1.1694759607 -1.4217723295
F 3.4855486518 2.9101390659 -0.1783957399
F 4.9042751882 1.4121272550 0.5058777939
F 3.0821403197 -0.4491840882 0.7803646641
F 2.3845607918 1.4050677004 1.7386305062
F 1.4852939989 -0.2193391344 -1.2513316677
F 1.0512565149 1.9026333347 -0.8603102340
F -0.2914719429 1.3510483892 1.3595890488
F 0.3799963100 -0.7475046152 1.3579986773
H -1.3499990371 0.7660674497 -1.0088368844
H -0.8689820941 -0.9395159131 -0.9353901357
H -2.2152428315 -1.2316961942 1.1833660424
H -2.7243604726 0.4838571885 1.0809261276
