65
CONF66
C -1.9912495114 4.7766032610 -0.0038062725
C -1.8218434669 4.1339247279 -1.3784691810
C -1.9433819691 2.6031362785 -1.3456481912
C -1.8036269055 1.9971043260 -2.7483815801
C -0.8627748361 2.0271917064 -0.4557997160
O 0.3293370493 2.1921081616 -0.6389929344
O -1.3733467933 1.2920719930 0.5513635768
C -0.4184377314 0.6597253441 1.4639517290
C -0.0491173955 1.6315186888 2.5720076571
C 1.0130942509 1.0072522837 3.4892531699
C 0.6774894085 -0.4212303507 3.7977756843
C -0.2532571871 -1.1516014752 3.1537807692
C -1.0930558108 -0.5835546658 2.0217435257
C -1.3713352553 -1.6729089612 0.9619043180
C -2.1428019111 -2.8208637275 1.6442618285
C -1.3864450025 -3.3100626432 2.8488307958
C -0.5131265832 -2.5363923830 3.5149642853
C -2.5097931672 -3.9618602098 0.6918463533
C -0.0683906594 -2.1176179448 0.2591720908
C 0.0220404956 -1.5721165998 -1.1675946998
C 1.3937428511 -1.6917854138 -1.8024965185
C 1.4104019830 -1.2533796936 -3.2541146441
C 2.8395044019 -1.1709598649 -3.7587422238
C 3.5807032011 -0.1269399487 -2.9329031646
C 3.3652054092 -0.2172117032 -1.4399214517
O 4.1003785454 0.3346365676 -0.6445192566
O 2.2953595967 -0.8777267490 -0.9638748420
O 2.9209761409 -0.8806145607 -5.1564160959
C 2.4298852974 1.1176098032 2.8966945046
H -1.9326707093 5.8669328892 -0.0708274240
H -2.9610616257 4.5149048559 0.4330197718
H -1.2098744811 4.4444514130 0.6895047880
H -2.5858604372 4.5137385767 -2.0670017149
H -0.8463288363 4.3978172438 -1.8042534378
H -2.9161200088 2.3296010123 -0.9230979915
H -0.8282926147 2.2508709584 -3.1749069702
H -1.8987188162 0.9068614106 -2.7237959399
H -2.5845119401 2.3966607065 -3.4020187426
H 0.4701387950 0.3926284514 0.8843744624
H 0.3266810717 2.5651287387 2.1408615201
H -0.9543998919 1.8626959845 3.1467310554
H 1.0150936452 1.5663287081 4.4357816505
H 1.2496812929 -0.8953957834 4.5954159920
H -2.0639849186 -0.2771646415 2.4423701735
H -2.0409876028 -1.2403370260 0.2072669936
H -3.0933507186 -2.3874898643 1.9971468287
H -1.5622773033 -4.3329237098 3.1777672282
H 0.0318145296 -2.9354750945 4.3684986698
H -3.1698083807 -4.6764274123 1.1942174239
H -3.0325496168 -3.5747177718 -0.1891229820
H -1.6262767178 -4.5111969129 0.3525582995
H 0.7971512519 -1.7768283982 0.8380278746
H 0.0071422130 -3.2090605124 0.2264515603
H -0.6939861759 -2.1010442285 -1.8096739679
H -0.2614680055 -0.5132499183 -1.1932854722
H 1.7713970791 -2.7196177470 -1.7167934820
H 0.9225108807 -0.2727716126 -3.3536027791
H 0.8393220455 -1.9824880244 -3.8377660659
H 3.3238276465 -2.1484251284 -3.6445090050
H 3.2165079406 0.8717837168 -3.2170118972
H 4.6576945360 -0.1407553858 -3.1181371692
H 2.4965433995 -0.0248695894 -5.3065436191
H 3.1651080679 0.6521467589 3.5608883642
H 2.7066211512 2.1680261767 2.7588179491
H 2.4891578895 0.6136039236 1.9267783274
