37
CONF23
C -0.6867098030 -1.4177075057 -5.5294634214
C -0.9561475262 -1.0234202967 -4.1113588510
C -2.2880929315 -0.7277233238 -3.7189049923
C -2.5149005783 -0.3674858995 -2.4173832980
C -3.8457826557 -0.0250131930 -1.8450775923
N -1.4491370532 -0.3160265509 -1.5811124916
C -0.1536611390 -0.6110520328 -1.9828282863
N 0.0704742428 -0.9681144961 -3.2815187148
N 0.8758748903 -0.5598131638 -1.1536587848
N 0.4902071093 -0.1879272251 0.1155270149
C 1.4425225783 -0.1062449969 0.9902905887
C 2.8794922197 -0.4238617928 0.6851995559
C 1.0329857719 0.2415795005 2.3709149778
C -0.0458288377 -0.4477514475 2.9447028184
C -0.4664292210 -0.1797744489 4.2417386059
C 0.1896090951 0.7970651664 4.9866065503
C 1.2483986838 1.4999456092 4.4193399247
C 1.6905417153 1.2423000518 3.1180715624
C 2.8035226378 2.0781203771 2.5423338345
H -1.0256588258 -0.6277315379 -6.2085311441
H 0.3759008431 -1.6036393438 -5.6877546189
H -1.2568512722 -2.3185780335 -5.7820661852
H -3.1060148001 -0.7826321487 -4.4257128081
H -3.8340976066 0.9946989839 -1.4450925840
H -4.0866744053 -0.7008372703 -1.0172924041
H -4.6199963076 -0.1020902258 -2.6083912146
H -1.5593856633 -0.0583349679 -0.6049382838
H 3.4825488833 -0.4435343393 1.5931095580
H 3.3112988254 0.3003335784 -0.0149153057
H 2.9363312806 -1.4028200050 0.1978711853
H -0.5411308680 -1.2150537757 2.3582869383
H -1.2966692445 -0.7335000786 4.6692857333
H -0.1262817207 1.0186901160 6.0014878787
H 1.7389113497 2.2830633073 4.9918169304
H 2.8739638428 3.0294536692 3.0754502347
H 2.6424682078 2.2872463511 1.4811509230
H 3.7743972930 1.5781723102 2.6328166845
