44
CONF85
C -5.4858489196 1.2477445953 -0.6871703106
N -4.0296273945 1.0628108889 -0.6571852828
C -3.6306504215 -0.2605679407 -1.1876601747
C -3.9849009960 -1.2749540778 -0.0638373318
C -3.9069967251 -0.4286975043 1.2335675452
C -3.5118131134 0.9871759270 0.7279532239
C -1.9890752731 1.1648181199 0.6607011492
C -1.3728465869 0.0327882901 -0.1480532602
C -2.1198488586 -0.2170434131 -1.4537943114
O 0.0123160767 0.4270700700 -0.4326828493
C 0.9037756571 -0.5478352024 -0.6768026505
O 0.6450016945 -1.7345684144 -0.6592317540
C 2.2938489334 0.0047058983 -0.9507650457
C 2.2997259967 1.4601585712 -1.4430300408
O 1.5395469584 1.6375673336 -2.6392999762
C 3.1501886656 -0.1388431470 0.2933412815
C 2.7349475128 0.4067503582 1.5127389952
C 3.5408989797 0.3017375576 2.6428816037
C 4.7720516456 -0.3471151697 2.5678457861
C 5.1923289869 -0.8907494417 1.3562792151
C 4.3847982443 -0.7882282656 0.2258972505
H -6.0533359792 0.4689138870 -0.1505411994
H -5.7334906383 2.2157544149 -0.2392962939
H -5.8254817755 1.2569259211 -1.7281047758
H -4.1613162438 -0.4660264187 -2.1226920987
H -4.9913170156 -1.6750137937 -0.2123722318
H -3.2950549869 -2.1241842182 -0.0569729562
H -3.1782051580 -0.8188778840 1.9504224699
H -4.8752456915 -0.3965223359 1.7400460789
H -3.9469653904 1.7869082029 1.3353905521
H -1.5591362560 1.1780118089 1.6683862075
H -1.7649399769 2.1226270494 0.1777520519
H -1.3289390086 -0.8841785588 0.4464211556
H -1.9031777941 0.5990100718 -2.1532749282
H -1.7835695197 -1.1567250230 -1.9037049221
H 1.9502624991 2.1303412035 -0.6473707353
H 3.3323379371 1.7294896691 -1.6861392789
H 1.7754650181 0.9122829898 1.5815289254
H 3.2055878176 0.7264680531 3.5840981083
H 5.3996422770 -0.4295627754 3.4496972682
H 6.1494748114 -1.3989155699 1.2897098068
H 4.7134330035 -1.2149966735 -0.7175626975
H 2.7131647403 -0.6319795472 -1.7368414690
H 0.6052866116 1.6158662600 -2.3929694158
