48
CONF4
C -5.6024320836 0.2440987132 0.0881772179
C -4.3027687850 -0.2670900466 -0.5575978423
C -4.0456194086 0.5297718835 -1.8439330439
C -4.4768039515 -1.7567521452 -0.8906363733
C -3.1661513164 -0.0018326808 0.4557914332
C -1.7240757153 -0.1307600193 -0.0700696413
N -1.3720985730 -1.4714698404 -0.5291198427
C -1.2800585964 -2.6188954462 0.1780749519
N -0.9766191192 -3.6263233975 -0.6297788860
C -0.8973603324 -3.0234445794 -1.8503043221
N -1.1238145480 -1.7174271651 -1.8420095130
O -0.9079655914 0.2257049466 1.0375878136
C 0.4323979611 0.4775218884 0.8379032440
C 1.0689838322 0.4617180225 -0.4015386702
C 2.4287216911 0.7555388485 -0.4678352446
C 3.1744064594 1.0604624330 0.6753115534
C 2.5065737876 1.0630689732 1.9097843294
C 1.1542257225 0.7748154741 1.9949356361
C 4.6167272067 1.3670775687 0.5883567727
C 5.5037791758 0.9382302018 1.5865553930
C 6.8619376739 1.2277127873 1.5058420692
C 7.3636660430 1.9500637084 0.4250190142
C 6.4932207785 2.3810595280 -0.5742041122
C 5.1344675080 2.0942459472 -0.4933890115
O -3.3534708219 -0.8445242810 1.5898952729
H -5.5305953862 1.3128649317 0.3193382206
H -5.8246745915 -0.2960874361 1.0125192652
H -6.4387843754 0.1003403202 -0.6032600395
H -3.2023590772 0.1255879811 -2.4121835004
H -4.9314626318 0.4804667520 -2.4850591883
H -3.8468923137 1.5854751589 -1.6244295052
H -3.6393850542 -2.1573991867 -1.4671006467
H -4.5972276506 -2.3547082024 0.0165164275
H -5.3791703120 -1.8783755878 -1.4991546470
H -3.2427020136 1.0565555767 0.7533034742
H -1.5662926053 0.5434525402 -0.9174884284
H -1.4313072514 -2.6649427732 1.2469134528
H -0.6620003853 -3.5534878152 -2.7645986052
H 0.5408348573 0.2113741156 -1.3130132248
H 2.9192728384 0.7183350110 -1.4355200447
H 3.0481363348 1.3174459507 2.8154653927
H 0.6391138463 0.7905270069 2.9499009670
H 5.1293769402 0.3530061471 2.4209814446
H 7.5324046078 0.8792498448 2.2855635153
H 8.4235855632 2.1752993512 0.3619685139
H 6.8719798910 2.9522928793 -1.4163637331
H 4.4632854982 2.4578961208 -1.2655814821
H -2.7850037314 -0.5156427005 2.2984637712
