32
CONF3
N 5.1082534280 0.6146391470 -0.0474381926
C 3.8990136386 0.3768695805 0.4975859998
C 2.7871762496 0.0123307084 -0.2819723676
N 2.6255760317 -0.1870882086 -1.6361422993
C 1.3601769986 -0.5154440709 -1.7617081742
N 0.6702104124 -0.5267932776 -0.5611113133
C -0.7202498623 -0.9252846757 -0.3401041884
O -1.3923097936 -0.8013326750 -1.5757723408
C -2.7791293104 -0.4089836127 -1.3385308452
C -3.0574699733 0.8166587152 -2.1895209914
O -2.2466034300 1.9288284653 -1.8269456122
C -2.9174914427 -0.2063349906 0.1720635356
O -3.4630328185 -1.3946479570 0.7301703226
C -1.4731055732 -0.0063298935 0.6434317795
O -1.3603748909 -0.3668908669 1.9969117778
C 1.5911151484 -0.1968210112 0.4071553100
N 1.4128846067 -0.0869951118 1.7321410039
C 2.5442771843 0.2605794132 2.3594974587
N 3.7481972935 0.4928811995 1.8304291180
H 5.2391032337 0.5127381365 -1.0382304342
H 5.8804157060 0.8518608787 0.5501787334
H 0.8577472567 -0.7546657780 -2.6883215179
H -0.7423991019 -1.9641585716 0.0267311941
H -3.4328977047 -1.2342869671 -1.6488728535
H -4.0987875794 1.1236213022 -2.0447201675
H -2.9236165259 0.5550937075 -3.2499591119
H -1.3335480563 1.6842304229 -2.0236167650
H -3.5392164420 0.6685260292 0.4089611166
H -3.1407606225 -1.4375511901 1.6424212779
H -1.1700153238 1.0352457319 0.4565216807
H -0.4065512190 -0.2878275198 2.2229170763
H 2.4734127998 0.3673333371 3.4406928880
