35
CONF2
C -4.4089311380 -2.1408986395 0.8434556572
C -3.1377269806 -1.4448521877 1.2711033179
O -2.9233118989 -0.2581448756 0.4465690000
P -1.9374929279 -0.2469210043 -0.8022308770
S -1.3201152359 -1.9233682788 -1.5357105940
O -2.7292424770 0.7669133432 -1.7441075954
C -2.4113316890 0.8844499764 -3.1629110919
C -1.1151962970 1.6283678399 -3.4007549029
O -0.7192220745 0.7756849247 -0.3235517136
C 0.2642680246 0.3369320460 0.4883155477
N 0.0500507968 -0.4778413072 1.5528227074
C 1.2722134221 -0.5835994118 2.0417608034
N 2.1644318664 0.1306248889 1.3261956932
N 1.5105176881 0.7357088577 0.2937894428
C 3.6135336295 0.3035308189 1.4903990175
C 3.9357986857 1.7774472794 1.7185559709
C 4.3432992906 -0.2777675582 0.2826827291
Cl 1.6955986993 -1.5122714761 3.4249091161
H -5.2624823858 -1.4592915303 0.8918533867
H -4.6015784703 -2.9887838322 1.5090431698
H -4.3121505480 -2.5189301160 -0.1780019037
H -2.2658882652 -2.0997647278 1.1963413980
H -3.1985010783 -1.0596544650 2.2918453250
H -2.3848382147 -0.1218560331 -3.5953850071
H -3.2667050787 1.4271083126 -3.5724455340
H -1.1271541782 2.6008014604 -2.9014036293
H -0.9887073585 1.7880212337 -4.4765548151
H -0.2571358588 1.0583898483 -3.0352116037
H 3.8693131412 -0.2711648204 2.3862887228
H 3.3960372423 2.1674163145 2.5857478734
H 5.0087600659 1.8935227630 1.8942826238
H 3.6586889537 2.3662455779 0.8404197568
H 4.0709034579 0.2697800984 -0.6231615475
H 4.0911388596 -1.3322946193 0.1422783132
H 5.4231575273 -0.1935410026 0.4327712317
