33
CONF4
C 1.1814426532 -1.5798215397 -1.3078804850
N 1.1923925447 -0.7478128929 -0.0733945633
C 0.6174028343 0.5537755406 -0.2421082389
C -0.8188059502 0.7172708579 -0.0590692137
O -1.3798830154 1.8008104153 -0.3469847737
N -1.4773507630 -0.3633018533 0.4441472251
C -2.8420433734 -0.5339615364 0.7081070143
C -3.8274259499 0.4034289211 0.3757621699
C -5.1427766852 0.0906764761 0.6891866153
C -5.4406969102 -1.1176545023 1.3119346497
C -4.3873597683 -1.9784205676 1.5961148727
N -3.1120483888 -1.7035575418 1.3051402765
C 1.3856822429 1.6402483297 -0.6067791818
O 0.8749090225 2.8462334942 -0.8491933140
C 2.8145404858 1.5164996415 -0.7006968130
C 3.5576431821 0.4800777972 -0.1737119737
C 4.9448910477 0.5528467598 -0.4044825053
C 5.2402983195 1.6863412242 -1.1179785777
Cl 6.7996954655 2.1917383286 -1.6272586316
S 3.8474652817 2.6584810824 -1.5068646536
S 2.6679584507 -0.7348281551 0.7681731576
O 2.4010630453 -0.1920857068 2.1051046258
O 3.3055600172 -2.0471270810 0.6200541823
H 1.5196310932 -2.5885746891 -1.0708468881
H 0.1459153670 -1.6242263890 -1.6534597120
H 1.8052823441 -1.1409540692 -2.0967466670
H -0.1228631232 2.7271615012 -0.7541095149
H -0.8988253389 -1.1498826798 0.7191613741
H -3.5695516813 1.3342369655 -0.1068536031
H -5.9318335975 0.7945180713 0.4442166618
H -6.4582071333 -1.3884230920 1.5695120965
H -4.5700919110 -2.9358214986 2.0801643121
H 5.6779898007 -0.1678911146 -0.0676384199
