29
CONF9
C -2.0808461771 1.8414333478 -2.9648266962
C -0.6405026622 1.5312558750 -3.3020960577
O -0.0939566347 0.4625808644 -2.4557407693
P 0.1989952288 0.7102162461 -0.9102288813
S 0.9553756215 2.4138239119 -0.3826255447
O -1.1373026987 0.2263376137 -0.1906350013
C -1.6675820695 0.8336682091 1.0385004601
C -2.4217150378 -0.2394685681 1.7822934689
O 1.2112201309 -0.5986256098 -0.7934394712
C 1.6920597510 -1.0472968815 0.3896976081
N 1.2059477488 -0.5674415913 1.5194754024
C 1.6595922457 -1.0078541310 2.6768351280
C 2.6520211893 -1.9826466587 2.7685886442
C 3.1736669822 -2.4968428615 1.5843567723
C 2.6939477899 -2.0265185721 0.3743738351
Cl 3.3179153291 -2.6378960960 -1.1258930164
Cl 3.2452504720 -2.5621672647 4.2935564328
Cl 0.9489016591 -0.3081587695 4.1096420976
H -2.1735684803 2.2820476146 -1.9675088858
H -2.4624711437 2.5650335023 -3.6920296231
H -2.6972148227 0.9396227697 -3.0152695038
H 0.0031635111 2.4105256019 -3.1990839802
H -0.5398731643 1.1298762529 -4.3119719791
H -2.3178614270 1.6579421740 0.7306483479
H -0.8368936037 1.2274168146 1.6280200953
H -3.2327688659 -0.6460065920 1.1720021597
H -1.7494453587 -1.0515176124 2.0734181443
H -2.8539659155 0.1952264203 2.6888873337
H 3.9479106881 -3.2545663061 1.6111559786
