39
CONF82
C -2.8500823478 -0.2489723010 -3.0883552040
C -1.5474965837 0.5399171873 -3.1904229158
C -1.0079287958 0.9707832939 -1.8253314204
N -0.6773937806 -0.1858907692 -0.9672330439
C 0.4738696952 -0.9979913105 -1.3927865870
C 1.4892249973 -1.1901182246 -0.2894965833
O 2.0051802706 0.1253379472 0.0631921557
C 2.8494050612 0.1131471991 1.1269810910
C 4.2363294268 0.0281228895 0.9524669156
C 5.1225105488 0.0656482522 2.0214247940
C 4.5958787387 0.1849424857 3.3005650062
C 3.2301618914 0.2743026830 3.5352519675
C 2.3770250532 0.2361782941 2.4400448627
Cl 0.6551773635 0.3632050578 2.7037455411
Cl 5.6930485826 0.2305535029 4.6661196715
Cl 4.8678418138 -0.1171643679 -0.6684183224
C -1.5291411013 -0.7770203543 -0.1009699215
O -1.4573771588 -1.9422769183 0.2726917945
N -2.5632930046 0.0646980165 0.4428800688
C -3.8544362416 -0.3646758783 0.6964299688
C -4.4626577361 0.6699501512 1.3483733807
N -3.5749135231 1.7169807057 1.5332879815
C -2.4486126765 1.3258432126 0.9810426987
H -3.2382877970 -0.4876741211 -4.0826555937
H -2.7032275123 -1.1963360948 -2.5578919662
H -3.6146869656 0.3242674618 -2.5521618784
H -1.7052217358 1.4558961382 -3.7722023290
H -0.7915403903 -0.0443909907 -3.7279355671
H -0.0968939929 1.5677992073 -1.9349320014
H -1.7513224957 1.5923084552 -1.3270505111
H 0.9494759041 -0.4815929123 -2.2298822680
H 0.1471754261 -1.9848181678 -1.7409359073
H 2.3110581216 -1.8163329588 -0.6573945728
H 1.0462195968 -1.6558531915 0.5960583450
H 6.1907371351 0.0014818919 1.8560952666
H 2.8369786594 0.3728589320 4.5393826765
H -4.1986747021 -1.3363488121 0.3783454008
H -5.4853124874 0.7245791304 1.6944893087
H -1.5187972413 1.8786557010 0.9571876972
