39
CONF216
C 2.4377931706 1.4151614515 -2.1272153700
C 3.2728845849 0.5306579218 -1.2016498165
C 2.5606561951 -0.7367583279 -0.7223864779
C 1.4070212337 -0.5158548967 0.2343261993
C 0.8628288345 -1.8035559202 0.8537561386
O -0.5567131233 -1.5767414761 0.9704657137
C -0.8586693649 -0.3267940785 0.3548814305
C -2.1214752801 -0.5288032210 -0.4995219729
N -1.8739267925 -1.4478941504 -1.5927138592
C -1.7928849366 -2.7929390168 -1.5585813832
N -1.4429556103 -3.2621955531 -2.7507682624
C -1.3110254102 -2.1255088390 -3.4921961391
N -1.5577684366 -1.0004647196 -2.8345070588
O 0.2410796348 -0.0177537594 -0.4670656932
C -1.0940203374 0.7447905552 1.4278935205
C -1.2149835677 2.1105471331 1.1451374250
Cl -1.1219817586 2.7358949228 -0.4968797896
C -1.4147763096 3.0586814345 2.1434335888
C -1.5038679788 2.6244488864 3.4585096205
Cl -1.7546965286 3.8134991144 4.7243011298
C -1.4006487790 1.2813000392 3.7897804952
C -1.1992428988 0.3627169303 2.7675183549
H 2.0857977165 0.8452672131 -2.9948124975
H 1.5596918033 1.8144471082 -1.6137027438
H 3.0307381937 2.2585911204 -2.4954303154
H 3.5968699710 1.1090478232 -0.3264777561
H 4.1869463593 0.2256809398 -1.7250656971
H 3.2829475930 -1.3733967820 -0.1948985461
H 2.1892859897 -1.3186308823 -1.5769676826
H 1.6824453724 0.2055401410 1.0191782332
H 1.2848580390 -2.0052002062 1.8429628538
H 1.0265880485 -2.6633515593 0.1918534183
H -2.9013505662 -0.9382041320 0.1483660869
H -2.4668593321 0.4155401672 -0.9204381232
H -2.0032959683 -3.3692492307 -0.6679776035
H -1.0340890092 -2.1235329696 -4.5390485467
H -1.4985018356 4.1096975646 1.8957297721
H -1.4731735011 0.9548201976 4.8204401306
H -1.1115252189 -0.6895001445 3.0097710911
