47
CONF177
C -7.1526449148 -0.1170856909 -1.0888986833
O -6.8687785074 0.3082622476 0.2627144568
P -5.3550840506 0.6142182355 0.6976038723
S -4.2611932749 1.6252539343 -0.5321762417
O -5.5710994431 1.2154363843 2.1687918600
C -5.8242486636 2.6295873842 2.3339778258
O -4.8592189010 -0.8870290680 1.0646927836
C -3.5309036717 -1.1255048654 1.4286193560
C -2.6169403935 -1.4959563991 0.4500511007
C -1.3124223010 -1.7907032361 0.8186667419
C -0.9212627365 -1.6864796422 2.1565428553
C -1.8519966940 -1.3069783959 3.1252571747
C -3.1673098192 -1.0350172300 2.7636134065
S 0.7321296316 -2.1049151261 2.6886022445
C 1.7443585181 -1.3299588173 1.4365845462
C 1.4828504196 -0.0382875293 0.9715017503
C 2.3278052367 0.5494473270 0.0425286977
C 3.4452467010 -0.1450961419 -0.4080996001
C 3.7255507310 -1.4257094359 0.0522126473
C 2.8645525331 -2.0184390717 0.9701236963
O 4.2214107272 0.4832412663 -1.3732809887
P 5.8633553115 0.4499166058 -1.3752769397
S 6.7259990766 0.6662964218 0.3240813285
O 6.1124502692 1.5398807011 -2.5294489388
C 5.9345560424 2.9408514519 -2.2232454842
O 6.2484789147 -0.9039946187 -2.1393263033
C 5.6329072264 -1.2252083962 -3.4121870349
H -8.2396124952 -0.1586421297 -1.1650800774
H -6.7284754438 -1.1098458817 -1.2697875597
H -6.7463627107 0.6017731832 -1.8064627309
H -5.0298206058 3.2142523682 1.8616376421
H -6.7939765883 2.8931012727 1.9007622297
H -5.8373220238 2.8039774577 3.4102787769
H -2.9347614934 -1.5529391365 -0.5845864284
H -0.5918672873 -2.0923796167 0.0662455985
H -1.5451595246 -1.2162449486 4.1619066404
H -3.9038349824 -0.7373939512 3.5010922501
H 0.6182535931 0.5060853237 1.3356886475
H 2.1386226529 1.5504415429 -0.3290193913
H 4.5982930538 -1.9605443248 -0.3059105055
H 3.0642584539 -3.0254484769 1.3209466234
H 4.8832448939 3.1484498132 -2.0003596984
H 6.5630638088 3.2239517151 -1.3736485473
H 6.2408518349 3.4839806952 -3.1177457777
H 5.9460737437 -0.5080632376 -4.1751158019
H 5.9877090350 -2.2242945749 -3.6667502003
H 4.5422730115 -1.2262452033 -3.3212718018
