52
CONF104
C 1.4502686140 -2.5297154655 -1.7785583729
C 1.5702270162 -1.0384263601 -1.5599464902
C 2.6415496177 -0.3821567043 -2.4331129567
C 2.7759227193 1.1002243300 -2.0975296224
C 3.0086450574 1.2958399063 -0.5896424846
C 2.0614798388 0.4615839602 0.2755054248
O 1.9170714248 -0.8584087435 -0.1590994045
O 0.7986157848 1.1725978573 0.3032357482
C -0.0905441010 0.7438801575 1.2553061830
C -1.2880782802 0.1866498610 0.8773501472
O -2.1912182548 -0.2275050296 1.8106828128
C -1.9356838689 -0.1210481152 3.1464206337
C -2.9011102797 -0.6158442920 4.0059644734
C -2.6682545068 -0.4894088151 5.3758142326
C -1.5112356664 0.1194732707 5.8793177828
C -0.5606012755 0.6068249574 4.9953988488
C -0.7542215827 0.4869567507 3.5925901951
C 0.2195167181 0.9705342989 2.6492441219
O 1.2790827460 1.5489352363 3.0166322153
O 0.5542709824 1.1906301888 5.4667298792
O -3.6236765687 -0.9844794259 6.1995994998
C -1.7599197108 -0.0481495202 -0.4801224119
C -1.3333488472 0.7688382959 -1.5385406993
C -1.6955091965 0.4731248805 -2.8390043195
C -2.5440330464 -0.6129855302 -3.1093739568
C -3.0126329600 -1.3942827430 -2.0555337152
C -2.6215408461 -1.1229258123 -0.7522668532
O -2.9033350195 -0.9228078414 -4.3805748129
O -1.2528807721 1.1857551429 -3.9202039402
O 4.3193708470 0.8442350123 -0.2384406464
O 1.5723034398 1.7468820642 -2.5416434108
O 2.3618648795 -0.5648871915 -3.8203154756
H 0.6879491712 -2.9453295104 -1.1130446857
H 1.1564414304 -2.7309312728 -2.8111364916
H 2.4056903965 -3.0268516868 -1.5797890792
H 0.6068863397 -0.5517258924 -1.7515155531
H 3.6026790420 -0.8714694747 -2.2384429919
H 3.6395084957 1.5139956407 -2.6393271442
H 2.8728776869 2.3554686112 -0.3306134776
H 2.4597928603 0.3929557925 1.2913734342
H -3.8042362217 -1.0798643364 3.6291152397
H -1.3517537112 0.2112651064 6.9491762293
H 1.0772246902 1.4618679440 4.6563378759
H -3.3641577624 -0.8534869855 7.1225018078
H -0.6791375515 1.6109272997 -1.3578330869
H -3.6618408266 -2.2351397718 -2.2770076227
H -2.9634255643 -1.7637826331 0.0515804387
H -2.4563543541 -0.3146718104 -4.9893755993
H -0.4481859018 1.6675578217 -3.6710861286
H 4.9594500873 1.4248406346 -0.6698764547
H 1.7335137468 2.6987735154 -2.5577519339
H 1.6447124250 0.0456657495 -4.0451894195
