22
CONF2
C -0.7694976553 -0.0153598298 0.0087863098
C -1.4825726099 0.7831899471 0.9039254722
C -2.8795771021 0.7852057827 0.9128312129
C -3.5733382915 -0.0277497342 0.0080395159
C -2.8719295952 -0.8345512634 -0.8963769072
C -1.4750012600 -0.8201172218 -0.8867590787
Cl -0.5821602931 -1.8087856633 -1.9956985938
Cl -3.7262804577 -1.8366492176 -2.0134995811
Cl -5.2999400279 -0.0353052708 0.0074932922
Cl -3.7433811342 1.7797617605 2.0294426431
Cl -0.5991684900 1.7797361222 2.0133897529
C 0.7119656856 -0.0088979100 0.0094125345
C 1.4247804973 -0.9012573497 0.8112914019
C 2.8217823796 -0.9042208773 0.8203778338
C 3.5157962593 0.0037962761 0.0112433126
C 2.8146548764 0.9055137256 -0.7987934099
C 1.4177268951 0.8898234270 -0.7915855696
Cl 0.5251817518 1.9959017163 -1.7837396919
Cl 3.6693112246 2.0269353948 -1.7958103028
Cl 5.2423977665 0.0115122845 0.0122706074
Cl 3.6852872539 -2.0177679268 1.8186273072
Cl 0.5410639091 -2.0154341603 1.8022764836
