49
CONF7
C -4.5955948838 0.6376565766 -1.0852019073
C -3.8518922601 0.7727336249 0.2253729642
C -2.7185598182 1.7465799880 0.3659900397
C -2.4121052892 0.2616225335 0.2015524015
C -1.7445992351 -0.4040342924 1.3304790125
O -1.7967335003 -0.0961199495 2.5008213177
O -0.9821842191 -1.4422938484 0.8638892565
C -0.0618581560 -2.0049905760 1.8375481610
C 0.2200099878 -3.3630394492 1.3761046550
N 0.4785621830 -4.4345675659 1.0324922658
C 1.1969471140 -1.1677818240 1.9135651940
C 1.9464192909 -0.9742240989 0.7501519016
C 3.0766571709 -0.1637980374 0.8052117804
C 3.4559610457 0.4483215866 2.0035291714
C 2.6977629745 0.2435078245 3.1460884097
C 1.5627061958 -0.5675808698 3.1122906478
O 3.8589605356 0.1194280311 -0.2874288760
C 3.6732998395 -0.6226591933 -1.4526901326
C 3.1903383229 0.0353840845 -2.5756915210
C 3.0634621958 -0.6738289891 -3.7687075470
C 3.4113996708 -2.0211323235 -3.8256832634
C 3.8964712629 -2.6632901068 -2.6868083874
C 4.0344299216 -1.9652200223 -1.4907439602
C -2.2769583681 2.6878138294 -0.7079851663
C -0.9138312430 3.3491231949 -0.4505196864
Br -0.3732243604 4.4576054352 -1.9849031296
Br 0.4384404921 1.9127445108 -0.2387666610
Br -0.8962778931 4.4423235179 1.1819430353
Br -3.6771542254 4.1015194404 -0.9337605586
C -4.7161267360 0.5448484983 1.4440862476
H -5.4236127105 1.3520632192 -1.1219143071
H -5.0123593901 -0.3716999108 -1.1620228366
H -3.9553866351 0.8053817573 -1.9546188834
H -2.5755612708 2.1171476124 1.3779544769
H -2.0622439889 -0.0551382126 -0.7749403212
H -0.5446325307 -2.0615444361 2.8192705187
H 1.6456123651 -1.4436587911 -0.1805894075
H 4.3386369666 1.0787860851 2.0180143993
H 2.9917219045 0.7219035898 4.0745401988
H 0.9656509562 -0.7213425087 4.0046597959
H 2.9239624763 1.0850400327 -2.5093408834
H 2.6893012002 -0.1687667373 -4.6535190078
H 3.3090868802 -2.5701483573 -4.7559683244
H 4.1757363802 -3.7112565257 -2.7289090753
H 4.4143933412 -2.4493506047 -0.5966023365
H -2.2248688283 2.2105647408 -1.6883203355
H -5.1572574823 -0.4568285181 1.4087891610
H -4.1518144993 0.6456479303 2.3722331306
H -5.5310940554 1.2762097678 1.4490587691
