27
CONF101
C 3.1756646304 -0.2742450925 -0.5492971649
C 4.4864188434 0.2476693139 0.0449276648
C 4.7339965214 -0.1537740401 1.4944764360
O 4.6658136726 -1.5738437371 1.7018987160
C 1.9489056767 0.2482876945 0.2052027588
C 0.6609352225 -0.1783495678 -0.4514104991
C -0.6114445639 0.3786243664 0.2443141009
C -2.0119286496 -0.1802799611 -0.1873680852
C -2.3882776283 -0.1500787330 -1.7005207521
F -1.6958903682 -1.0685336537 -2.3840034381
F -2.1617936825 1.0607372072 -2.2263072336
F -3.6947255271 -0.4319478795 -1.8221508007
F -2.9373963543 0.5697876295 0.4648702486
F -2.1272714142 -1.4600535589 0.2344311774
F -0.6324073486 1.7251940196 0.0747235156
F -0.5216048287 0.1213159291 1.5774670797
F 0.5500298099 -1.5472043553 -0.4776933363
F 0.6091298513 0.2487926656 -1.7572622370
H 3.1198306762 0.0359601969 -1.5974426505
H 3.1759650528 -1.3686655376 -0.5330371900
H 5.3182532245 -0.1182561332 -0.5707400535
H 4.5114713503 1.3442177844 -0.0117058310
H 3.9750194901 0.2746874464 2.1572492402
H 5.7099204823 0.2358595311 1.8183673899
H 5.3335972886 -1.9821618535 1.1361073159
H 1.9588239055 1.3434428670 0.2480251657
H 1.9306448810 -0.1259460029 1.2324864018
