59
CONF76
C 6.9941405012 -2.6430503955 -0.6364304588
C 5.9691901213 -3.4363336036 0.1792103060
C 4.9771799821 -2.3559500170 0.6350005484
C 4.9568581135 -1.2891692634 -0.5087586758
C 6.1009742052 -1.7164475411 -1.4658170854
C 5.1924316273 0.1161251112 0.0436255103
C 4.0890472165 0.5872797033 0.9532255485
O 4.2852781761 1.3683626315 1.8733361002
N 2.7993055992 0.1151666395 0.6891652874
C 2.4784938280 -0.7243449450 -0.3825749541
O 1.3128623175 -1.0115271821 -0.6175493391
C 3.6121016060 -1.2476141506 -1.2274745960
C 1.6935545020 0.6250943569 1.5222081767
C 1.1444441914 1.9381618193 0.9709581510
C 0.0212930768 2.5134487779 1.8365384190
C -1.1633870204 1.5642126105 2.0439156466
N -1.6428890068 0.9496131944 0.8021003078
C -2.2322496092 1.9393635921 -0.1050407030
C -2.6829329709 1.2715641121 -1.4014076308
N -3.6387503991 0.2023854317 -1.1115026690
C -3.0704517641 -0.7875487929 -0.1958216782
C -2.6176280779 -0.1066811964 1.0927935560
C -4.9877702753 0.4065228626 -1.1979491925
N -5.7995146867 -0.5314981877 -0.6507454964
C -7.1086555616 -0.3434185885 -0.8023064238
C -7.6497814914 0.7476379978 -1.4727921821
C -6.7303595142 1.6557697911 -1.9852297428
N -5.4130467798 1.5110341921 -1.8595275105
H 7.6429123407 -3.2722466501 -1.2532411127
H 7.6333552585 -2.0571598978 0.0365949404
H 5.4661822064 -4.1608514047 -0.4735306195
H 6.4056250320 -3.9881339645 1.0171141621
H 5.3378431900 -1.8945698236 1.5620807141
H 3.9801879848 -2.7592752283 0.8410595122
H 6.6277372027 -0.8529880732 -1.8844116163
H 5.6768084533 -2.2837704149 -2.3036603204
H 6.1286197415 0.1872860209 0.6041094191
H 5.2487016246 0.8372963777 -0.7849521663
H 3.6774846494 -0.5958653253 -2.1112976060
H 3.3111650334 -2.2378058867 -1.5832117911
H 2.0790951985 0.7603284085 2.5354844666
H 0.9191194180 -0.1430756987 1.5302956858
H 1.9599737852 2.6676537362 0.9082620338
H 0.7789955591 1.7631774468 -0.0470413500
H -0.3179209239 3.4570019460 1.3948407738
H 0.4141768112 2.7676932499 2.8292621908
H -1.9763699049 2.1115416831 2.5613916516
H -0.8627781591 0.7484148931 2.7133383055
H -3.1002537318 2.4499284962 0.3611933001
H -1.4855132793 2.7028361546 -0.3465931793
H -1.8145107157 0.8218013515 -1.9000335490
H -3.1347604834 2.0023498121 -2.0703196383
H -3.8063347994 -1.5613526334 0.0174714788
H -2.2036938444 -1.2452703712 -0.6898532398
H -3.5078955603 0.2939702196 1.6200200345
H -2.1469234500 -0.8505669333 1.7468945355
H -7.7556237034 -1.1016352574 -0.3616732243
H -8.7180569557 0.8849849261 -1.5826363114
H -7.0656745004 2.5446717126 -2.5191736948
