47
CONF118
C -5.1210236908 3.8108982746 -2.5764195508
O -4.4060692175 2.9945536504 -1.6352237443
C -3.5758967947 2.0937612102 -2.1812467468
C -2.7860444319 1.2924441167 -1.4379732224
C -2.7813029323 1.3328569578 0.0368992861
C -3.9509263930 1.1232658772 0.7755506327
C -3.9507128358 1.1856959264 2.1628992412
C -2.7733625447 1.4779307579 2.8461706104
C -1.5998760213 1.7042425585 2.1369854588
C -1.6143319624 1.6177525672 0.7507447187
O -0.4768822206 1.9466549285 0.0187955854
C 0.6700753968 1.2489458434 0.1940001604
C 0.7433611968 0.0447131449 0.8881548073
C 2.0126441076 -0.5120557884 0.9469960884
N 3.0942016919 0.0227222148 0.3996134927
C 2.8776241700 1.1678688934 -0.2578802983
N 1.7278656415 1.8168185449 -0.3905197608
O 2.1328468419 -1.6890587985 1.6376162750
C 3.3742894791 -2.3002686087 1.6765854038
C 4.0811247197 -2.2914272977 2.8665499283
C 5.2887561131 -2.9764074592 2.9524738993
C 5.7881338838 -3.6676088996 1.8514933403
C 5.0772459018 -3.6816902074 0.6606729357
C 3.8583451961 -2.9984864724 0.5619576577
C 3.1146710178 -3.0235166974 -0.6479110788
N 2.5151532437 -3.0583821125 -1.6379749406
C -1.9253395405 0.3647068916 -2.2006012328
O -1.7846487192 0.3629419902 -3.4071698111
O -1.3187023777 -0.5230527064 -1.3781467219
C -0.4131574450 -1.4407099368 -2.0309058333
H -5.7475934529 3.1909756145 -3.2276506746
H -4.4232032604 4.4019170458 -3.1797610187
H -5.7502258149 4.4762810310 -1.9852101580
H -3.5435176432 2.0272973185 -3.2683771367
H -4.8667677093 0.8998921985 0.2390550000
H -4.8700927753 1.0109802777 2.7115187432
H -2.7678830536 1.5430924491 3.9291218589
H -0.6763039354 1.9587812018 2.6463501657
H -0.1155347155 -0.4410791834 1.3298673994
H 3.7474614659 1.6196411259 -0.7327780210
H 3.6767919158 -1.7449888632 3.7109520651
H 5.8427925945 -2.9670344409 3.8850982819
H 6.7306338526 -4.1988218022 1.9215436163
H 5.4487921816 -4.2184773923 -0.2047366616
H -0.0505846242 -2.1037748315 -1.2475081268
H 0.4217162939 -0.8962324432 -2.4791200933
H -0.9345430534 -2.0045587811 -2.8077534544
