51
CONF197
C -0.4595319727 2.9002922305 -0.4299058037
C -1.5738073085 1.9214413033 -0.2012663180
C -2.2494453431 1.8859478950 0.9569204890
C -3.3834281938 0.9758680303 1.2433911285
C -3.1567963164 -0.4804461394 1.7460358353
C -3.7858562429 0.5878830741 2.6309849981
C -3.0438232592 1.1419181577 3.8260635046
C -5.2672602478 0.3937221664 2.8852350845
C -1.7723400774 -0.9574158001 1.8664815384
O -0.8362476341 -0.3907272437 2.3993167916
O -1.6436179511 -2.1555550558 1.2321172138
C -0.2800242180 -2.6765716540 1.1119668093
C 0.4602236121 -2.0049476821 0.0089007261
C 0.4673690691 -2.3939675971 -1.2963010642
O 1.2222624225 -1.5365966824 -2.0444878307
C 1.7104993674 -0.5738813935 -1.1905032112
C 1.2714903294 -0.8215409961 0.0722855067
C 2.5877508129 0.4631072027 -1.7931544015
C 3.8453455406 -0.1261006662 -2.4013903268
C 4.0417384324 -0.1247704456 -3.7825022116
C 5.1911199563 -0.6874954339 -4.3361335879
C 6.1563061194 -1.2584750052 -3.5113518356
C 5.9667021192 -1.2638424198 -2.1294497417
C 4.8180684504 -0.7033919786 -1.5800284879
C -1.8380879945 0.9789608624 -1.3384163292
H -0.6627895892 3.5229847025 -1.3103554557
H 0.4783283180 2.3673037991 -0.6345647704
H -0.3079423277 3.5533973414 0.4333879579
H -1.9636275308 2.5834120304 1.7422082171
H -4.1967867055 1.0105047933 0.5201779727
H -3.8378313350 -1.2132579876 1.3262015609
H -3.1565671836 0.4657468500 4.6805620888
H -1.9800026385 1.2737740355 3.6360554640
H -3.4788084772 2.1091708318 4.1027663810
H -5.7297894045 1.3511909153 3.1503283662
H -5.7775905245 0.0001454771 2.0012732791
H -5.4272692173 -0.3026839501 3.7158030922
H 0.2331629815 -2.5586949014 2.0690570101
H -0.4248285553 -3.7364906319 0.8972779971
H 0.0134267765 -3.2180381616 -1.8261763219
H 1.4868288782 -0.2309460042 0.9497191393
H 2.8473497953 1.1700002440 -0.9983517456
H 2.0368206223 1.0208929748 -2.5603561045
H 3.2898020329 0.3198090743 -4.4289900241
H 5.3307744286 -0.6789772335 -5.4129144007
H 7.0519542013 -1.6964519491 -3.9407623248
H 6.7164378056 -1.7048497896 -1.4794592025
H 4.6700969758 -0.7126732144 -0.5029478969
H -0.9301016412 0.4000731697 -1.5551950728
H -2.0824778008 1.5334319390 -2.2530931952
H -2.6471783465 0.2778105303 -1.1247538847
