52
CONF278
C 0.5894655251 -5.0813063904 -1.6060089919
C -0.3545689777 -4.4205814468 -0.6007843066
C 0.1354456887 -3.0592793487 -0.0970734285
C 1.4108622563 -3.1363034962 0.7464693780
C 1.8863396429 -1.7703872400 1.2718652016
C 2.7712110872 -1.8889604711 2.5199666594
C 1.9905483554 -2.2517809764 3.7820670027
C 2.6229628255 -1.0582545559 0.1485616779
O 2.9508606779 0.3300564751 0.5178309032
P 2.0455986840 1.5436497658 0.0607191967
O 2.4634214249 2.8282390619 0.6591516202
O 2.0986326603 1.4200850989 -1.5425759369
C 1.2976503231 2.2564055865 -2.3412669313
C 0.1629462376 1.7122077106 -2.9259648192
C -0.6069923100 2.5168163756 -3.7617786937
C -0.2401205732 3.8404647031 -3.9975460884
C 0.9042306745 4.3630269875 -3.3989077070
C 1.6872494610 3.5698356875 -2.5631487215
O 0.4994145641 1.1300873537 0.3091017365
C -0.1865254862 1.3604765891 1.5027172992
C 0.4421990413 1.3289352945 2.7428070665
C -0.3285530762 1.5206971874 3.8876762092
C -1.7014237349 1.7320663130 3.7919841985
C -2.3107876539 1.7541290544 2.5387865869
C -1.5550033255 1.5700927080 1.3851251104
H 0.7799513674 -4.4138385100 -2.4544513266
H 1.5543221273 -5.3309728364 -1.1539681021
H 0.1596533045 -6.0085504569 -1.9979965703
H -0.5058212985 -5.0882211202 0.2581552230
H -1.3384248680 -4.2883268914 -1.0674252622
H -0.6517550217 -2.5966865089 0.5131798990
H 0.2872334020 -2.3961842174 -0.9598536378
H 1.2232829253 -3.8022208717 1.5970236545
H 2.2273618200 -3.5966814485 0.1732745778
H 0.9981236138 -1.1773704323 1.5325517815
H 3.2827524785 -0.9331781893 2.6838055271
H 3.5544087666 -2.6358403463 2.3280864102
H 2.6561791010 -2.3172376054 4.6481902156
H 1.2327157144 -1.4893991096 3.9961968405
H 1.4782755099 -3.2141512885 3.6849825029
H 2.0483160750 -1.0526238333 -0.7821089716
H 3.5925501207 -1.5294740506 -0.0395698022
H -1.4964095779 2.1053820925 -4.2281245547
H -0.8441993304 4.4632549418 -4.6490431733
H 1.1951857153 5.3922660138 -3.5827116939
H 2.5840320458 3.9559736872 -2.0913902087
H 1.5101193464 1.1548663616 2.8235312912
H 0.1546061172 1.4983512091 4.8592359617
H -2.2936296347 1.8779730878 4.6891261064
H -3.3802263667 1.9183506755 2.4538537571
H -2.0097340091 1.5862550754 0.4002973016
H -0.1038217734 0.6799300588 -2.7262442553
