111
CONF205
C 2.9981101274 -1.2635746922 1.1926597709
N 2.0727038108 -1.9391775653 2.1126644520
C 2.4620934712 -3.1533547162 2.8041258757
C 0.7862808596 -1.7666367111 1.6275483178
C -0.3628911516 -2.4863885099 1.9458931390
C -1.5702518808 -2.0723340841 1.3691504421
O -2.7488058281 -2.7271403608 1.5925380586
C -2.7411142562 -3.8790947526 2.4429326573
C -1.6483166721 -0.9645940835 0.5008501801
C -0.4585979233 -0.2928290875 0.1883680581
C 0.7438904838 -0.6924418369 0.7330031044
C 2.1249642968 -0.0829510949 0.6690993762
C 2.2352732334 1.1347415511 1.6630364368
C 2.6679648100 2.3112742096 0.7876048733
N 3.4112116040 1.6602790789 -0.2905660784
C 3.6998747558 2.5409509871 -1.4132282982
C 4.1899353382 1.7529222389 -2.5886725890
C 3.9851433840 0.4431297792 -2.7057655588
C 3.1752597966 -0.3771277432 -1.7281829872
C 2.0657371014 -1.1168655343 -2.5346456450
C 1.2717567388 -0.2396244123 -3.5016722295
C 4.1325731678 -1.4156827603 -1.0941884262
O 5.2938998354 -0.7057926443 -0.5975106717
C 6.5191436450 -1.2064778466 -0.8687893612
C 7.5853213588 -0.3208953376 -0.3028440535
O 6.7099706272 -2.2276859453 -1.4995428238
C 3.5232211620 -2.2260576422 0.0892986302
O 2.4669902898 -3.0318981260 -0.3921133136
C 4.6143851819 -3.1884908907 0.6036058825
O 4.6637126500 -4.3455077686 0.2292653468
O 5.4834030820 -2.6312279368 1.4427717574
C 6.5584945732 -3.4971131462 1.9046146237
C 2.5374551615 0.5433107815 -0.6781003724
C -3.0176809405 -0.4972651339 0.0024036880
C -3.8859654369 0.0251310121 1.1733054453
C -3.2456097554 1.0676372969 2.1251061884
C -2.4358648100 2.2058482200 1.4898917422
N -3.2551262629 3.2419948343 0.8552415698
C -4.0873180661 3.8820229543 1.8815360432
C -4.7424150424 2.9321290554 2.8658339533
C -5.8293001818 3.5576797160 3.6983474185
C -6.4365495034 2.6816010798 4.7887268364
C -4.3393686889 1.6606909059 2.9762733553
C -4.1095454292 2.7103963357 -0.2357363822
C -3.3709280760 1.8472985975 -1.2119382042
C -2.9225564262 0.5360519232 -1.1091325941
N -2.3096934134 0.1827242324 -2.3003648716
C -2.3285755216 1.2366144377 -3.1754942343
C -1.8480977091 1.3402396366 -4.4812526477
C -2.0155780995 2.5584024088 -5.1264970733
C -2.6491949801 3.6420730721 -4.4882002960
C -3.1360001875 3.5287273429 -3.1937330120
C -2.9823250112 2.3095575817 -2.5158680049
C -3.7962374025 -1.6719279555 -0.6424611809
O -4.9965387910 -1.8272572550 -0.5727163873
O -2.9865535154 -2.4644905907 -1.3650172458
C -3.6374387494 -3.5528983413 -2.0680908382
H 3.8696673487 -0.8826066685 1.7295225441
H 3.4649764825 -3.0273021917 3.2211637485
H 2.4510499674 -4.0395951699 2.1498342253
H 1.7764352627 -3.3340628050 3.6377969251
H -0.3211319563 -3.3439045812 2.6041268570
H -3.7726957414 -4.2318657908 2.4681579733
H -2.0924747528 -4.6637238699 2.0364267709
H -2.4161307724 -3.6175663035 3.4565994564
H -0.4882150486 0.5489985970 -0.4963213685
H 2.9843255063 0.9283416703 2.4326280754
H 1.2816114880 1.3244405612 2.1607372439
H 3.2922658206 3.0401623394 1.3157394799
H 1.7801410115 2.8428663406 0.3892040217
H 4.4584451434 3.2751877025 -1.1110255911
H 2.8021474846 3.1266721465 -1.7119533601
H 4.7270100822 2.2965390416 -3.3622768035
H 4.3692690233 -0.0988207315 -3.5697259745
H 1.3784600342 -1.5910424989 -1.8327634756
H 2.5436924123 -1.9275954512 -3.0983027851
H 0.5018626596 -0.8478178381 -3.9870117193
H 0.7584093972 0.5820351707 -2.9920107845
H 1.9024603488 0.1928157619 -4.2836275897
H 4.4501583665 -2.1273658874 -1.8638139402
H 7.6259265335 0.6017197035 -0.8920985752
H 7.3441666518 -0.0452783646 0.7265898152
H 8.5502608248 -0.8243061379 -0.3507420648
H 2.8663373167 -3.8754597573 -0.6637003810
H 7.1611441678 -2.8744351592 2.5634774585
H 7.1438847181 -3.8440132086 1.0503757656
H 6.1391126344 -4.3478699603 2.4457618378
H 1.6130421590 0.9589410503 -1.1274664656
H -4.8200217583 0.4028512659 0.7578669757
H -4.1611404002 -0.8375255050 1.7842495880
H -2.5536563447 0.5139824196 2.7770397010
H -1.7133401471 1.8243991410 0.7683460750
H -1.8610982590 2.6961253183 2.2870005513
H -3.4689242709 4.5975224227 2.4478117837
H -4.8619476444 4.4807179592 1.3823439564
H -5.4246548604 4.4769282284 4.1485176573
H -6.6228081654 3.9029855365 3.0190012137
H -5.6753379037 2.3514308905 5.5031039532
H -7.1993233603 3.2384611314 5.3407301877
H -6.9122668862 1.7900816700 4.3672826610
H -4.8314092307 0.9915789699 3.6800852930
H -4.4993995173 3.5763284011 -0.7841157347
H -4.9921950233 2.1894711798 0.1642778250
H -1.8928404549 -0.7180623040 -2.4788294041
H -1.3637791437 0.5027764609 -4.9721340410
H -1.6521514326 2.6766769751 -6.1426071388
H -2.7598907232 4.5805668007 -5.0227297433
H -3.6263117859 4.3719364570 -2.7160639509
H -4.3708417043 -3.1597043362 -2.7761185273
H -2.8380263872 -4.0756171031 -2.5914514406
H -4.1285819892 -4.2166251628 -1.3525617738
