33
CONF28
C 4.7213848413 0.8481839974 -1.0531005886
C 5.0157001315 0.9125233528 -2.5563033849
O 4.8072683358 2.2059406253 -3.1245625262
C 3.2464078537 0.8217331712 -0.7338267939
C 2.9450309823 0.6932912034 0.7865820540
C 1.4621841832 0.8628644056 1.2847021169
C 0.3753752966 -0.0601575994 0.6407616955
C -0.9502291155 -0.1328315752 1.4850680750
C -2.1807214459 -0.6351553268 0.6490689739
C -3.3629585134 -1.1461191464 1.5425504035
C -4.7324981597 -1.2332072666 0.7900327891
F -5.2360663922 -0.0139547961 0.5723701880
F -4.5812194641 -1.8632942970 -0.3832917383
F -5.5964195594 -1.9241496726 1.5451287947
F -3.5267251878 -0.3123126618 2.5954356370
F -3.0635805102 -2.3812197195 1.9970446742
F -2.6263626599 0.3839033109 -0.1197741939
F -1.7863006808 -1.6514752805 -0.1511409795
F -1.2391281596 1.0953331226 1.9689365422
F -0.7567308259 -0.9825710824 2.5188675144
F 0.0765627278 0.4225113698 -0.5879292699
F 0.8658454434 -1.3132167593 0.5237553771
F 1.0985663085 2.1504182976 1.1012145194
F 1.4862001950 0.6067679211 2.6200290261
F 3.4017009247 -0.5091266858 1.2142353585
F 3.6424783561 1.6652129873 1.4359253609
F 2.6159376064 1.9585773209 -1.1821601563
F 2.6373966756 -0.2369907788 -1.3582661703
H 5.1621298313 -0.0664305255 -0.6412709761
H 5.1785424592 1.7038163820 -0.5488173887
H 4.4448650284 0.1449242880 -3.0943573029
H 6.0783390200 0.6928062747 -2.6892868134
H 3.8586130190 2.3493841541 -3.2226554219
