48
CONF127
C 3.4492585363 -2.1470220174 -3.2925692158
C 2.5188255001 -2.1081270536 -2.0834784170
C 2.6216266949 -0.7944052616 -1.3088308485
C 1.6029332899 -0.8001293152 -0.1585789806
O 1.8701787943 -1.2451646372 0.9506462482
N 0.3760089853 -0.3168845377 -0.5012147593
C -0.7355618254 -0.3372080603 0.3949449424
C -2.0152515705 -1.1641777428 0.0266881614
N -2.7753423794 0.0938949829 0.0459293558
C -1.6862209746 0.8813725054 0.4025056984
O -1.5858445523 2.0630882163 0.6326023681
C -4.1014873725 0.0800493783 0.6220015363
C -4.0405533166 -0.9359546338 1.8237284062
S -2.8248038016 -2.2570767785 1.2668174389
C -3.4999729367 -0.2125903114 3.0574715545
C -5.3786823318 -1.5978460185 2.1342790219
C -5.1858247968 -0.2607595060 -0.3885926309
O -6.3156049861 0.1686785651 -0.3166117672
O -4.7567833877 -1.1008327428 -1.3441159238
O 3.9484194160 -0.7155168140 -0.7973233070
C 4.3612067598 0.4540595671 -0.2161519467
C 3.5724926892 1.5990589018 -0.0854419337
C 4.1148884751 2.7339912592 0.5194389516
C 5.4225310964 2.7393757056 0.9916903664
C 6.2002083958 1.5880328825 0.8556536083
C 5.6774457943 0.4502385169 0.2571328674
H 3.3290518663 -3.0899967092 -3.8334170777
H 3.2235232436 -1.3274738761 -3.9829250769
H 4.4954828161 -2.0604620332 -2.9885707328
H 1.4773970602 -2.2251145072 -2.4040420749
H 2.7406402251 -2.9299997054 -1.3926917798
H 0.2318471974 0.0349330705 -1.4376816811
H -1.9766147719 -1.6644448441 -0.9442286314
H -4.3388198091 1.0744191644 1.0125592868
H -2.5525465492 0.2942974662 2.8536064216
H -3.3335734855 -0.9290680965 3.8657514671
H -4.2287180452 0.5335913405 3.3945500859
H -5.2653537744 -2.2831793690 2.9787511905
H -6.1085012913 -0.8314024372 2.4147393599
H -5.7673419958 -2.1617888301 1.2824539834
H -5.5009019848 -1.2942948338 -1.9410327637
H 2.5490022821 1.6288594610 -0.4396601377
H 3.4958304542 3.6203452429 0.6197289670
H 5.8330025244 3.6269593508 1.4613347696
H 7.2229550201 1.5748851150 1.2198458133
H -0.3831479766 -0.5610571985 1.4062403912
H 2.4290644567 0.0503458193 -1.9871757939
H 6.2718361579 -0.4509491833 0.1461991170
