44
CONF50
C -4.9054320341 -1.2386450428 1.7101928071
C -3.4822941179 -0.7210329458 1.7823778811
C -2.4233046546 -1.7608553063 1.4280991614
O -2.3281985063 -1.6260463717 -0.0022470699
C -2.4250426780 -0.2364791262 -0.2522115888
O -3.2734937256 0.2966647291 0.7611968432
C -3.1334173380 -0.0661647013 -1.6086875373
N -2.2985182100 -0.5147668088 -2.7086108945
C -2.0831152732 -1.7734598528 -3.1411385682
N -1.1695885576 -1.7776427873 -4.1049253938
C -0.8467199139 -0.4579813516 -4.2169349261
N -1.5011704486 0.3468845711 -3.3897924538
C -1.0417545938 0.4186324854 -0.2272916567
C 0.0960552258 -0.3907132492 -0.2813439129
C 1.3834366173 0.1272104972 -0.3116375309
C 1.5491255883 1.5085263476 -0.2890259290
C 0.4450748096 2.3544191996 -0.2491011306
C -0.8272776143 1.8006185490 -0.2294214241
Cl -2.1666235152 2.9464777782 -0.2303388837
O 2.7763693493 2.1251005779 -0.3736168110
C 3.8972535499 1.4553819552 0.0940419149
C 5.0047514013 1.3984814600 -0.7423553281
C 6.1807199233 0.8115659873 -0.2844269496
C 6.2145510683 0.2874933250 1.0016994933
C 5.1089717288 0.3426550986 1.8440183451
C 3.9394156232 0.9377136393 1.3855913969
Cl 7.6973556510 -0.4627249142 1.5841925707
H -5.0857533231 -1.9448673312 2.5271903847
H -5.0796168817 -1.7481820912 0.7570202386
H -5.6155101185 -0.4124838405 1.8046826585
H -3.2795942581 -0.2549435915 2.7522195082
H -1.4570957316 -1.5373061552 1.8990577543
H -2.7239995380 -2.7863931478 1.6487883403
H -4.0507423772 -0.6603783121 -1.5866749818
H -3.3797290070 0.9832800181 -1.7727907306
H -2.6100859281 -2.6287033477 -2.7392513320
H -0.1205931582 -0.0780875266 -4.9246342708
H -0.0394794937 -1.4658540935 -0.3107615972
H 2.2393228068 -0.5359607457 -0.3614066068
H 0.5880523186 3.4285464562 -0.2427527475
H 4.9469191942 1.8127918431 -1.7430316178
H 7.0530602850 0.7603666845 -0.9257896749
H 5.1587180490 -0.0629546924 2.8480354730
H 3.0689968010 0.9998163111 2.0302743805
