39
CONF5
C -1.3814599795 0.8295474709 3.1725282838
O -2.0553711707 -0.1489524340 2.3687896608
C -1.7087367715 -0.2226661301 1.0548803775
C -0.7490270596 0.5864404236 0.4430450778
C -0.4721715059 0.4267633121 -0.9148059654
C -1.1392154048 -0.5422291809 -1.6641149068
C -2.1023281388 -1.3533388949 -1.0529170522
C -2.3853396457 -1.2023792909 0.3112587443
O -3.2914640631 -2.0345876480 0.9255576051
C -4.6335035312 -1.5043620079 0.9183858135
O -2.8094938223 -2.3245374400 -1.6923288370
C -2.5483274224 -2.5174538028 -3.0894936853
C 0.5578536122 1.3221943763 -1.5839196811
C 1.8088267005 1.5219822275 -0.7767225001
C 2.1922950388 2.7539596152 -0.2863302930
N 3.3024509848 2.9808105614 0.4355488523
C 4.0575854918 1.8918677112 0.6686444316
N 3.8012482819 0.6382049055 0.2563795484
C 2.6829733820 0.4506169837 -0.4596746775
N 2.4414610662 -0.8086384965 -0.9149767404
N 5.1735984743 2.0643533161 1.4450978253
H -0.3023172481 0.6393241241 3.1999283366
H -1.5697247401 1.8426275532 2.7989396104
H -1.7988324571 0.7235883381 4.1741414132
H -0.2101981399 1.3375237266 1.0077468831
H -0.9073802578 -0.6527484134 -2.7168879998
H -4.6719570925 -0.5487118940 1.4540948685
H -4.9862953597 -1.3669934529 -0.1105330801
H -5.2601678924 -2.2386338358 1.4283533122
H -2.7775940835 -1.6109339795 -3.6613317421
H -1.5050385554 -2.8084546383 -3.2575903710
H -3.2098100598 -3.3258148270 -3.4019777383
H 0.1091557964 2.3057821023 -1.7717757772
H 0.8023749266 0.9002913447 -2.5674110102
H 1.5659927061 3.6235986933 -0.4895339769
H 2.9864578712 -1.5543452234 -0.5090133038
H 1.5026078765 -1.0485880129 -1.1958502416
H 5.5203054262 3.0075427549 1.5253528937
H 5.8742827835 1.3412347200 1.3946648907
