47
CONF3
C -6.5614799377 -1.2383390241 2.8055754132
O -6.0257133485 -0.3223816503 1.8066616742
P -5.0685922170 -0.8703588259 0.6513518407
S -3.6084951998 -2.0423555991 1.1728809050
O -6.1304961594 -1.4381959410 -0.3987416579
C -5.6728026386 -2.1335175046 -1.5936749211
O -4.6389638120 0.5183900866 -0.0686017448
C -3.4793023024 1.2071346640 0.2997205671
C -2.4057315853 1.1944025887 -0.5821732287
C -1.2608475918 1.9127794561 -0.2653048688
C -1.1876984900 2.6118412640 0.9433147255
C -2.2750803703 2.6118681983 1.8188355803
C -3.4355691336 1.9160303576 1.4913907350
S 0.2477613615 3.5898872323 1.3726543369
C 1.6013888495 2.5059240464 0.9323268770
C 1.5845767438 1.1458477828 1.2548629942
C 2.6727188607 0.3427053685 0.9395943901
C 3.7784891455 0.9157635641 0.3211161789
C 3.8208641819 2.2664279129 0.0114904713
C 2.7210552654 3.0642161057 0.3125081658
O 4.9083409995 0.1426437865 0.0379121094
P 4.8929708717 -1.0014184963 -1.1124643692
S 3.8510543316 -0.5916897983 -2.7008579185
O 4.4639824428 -2.2795711912 -0.2559056342
C 4.1924793713 -3.5473602466 -0.9210062653
O 6.4584243239 -1.2567082189 -1.3026289289
C 7.2481911823 -0.3628629924 -2.1381783365
H -7.1971220850 -1.9866766835 2.3252920015
H -7.1509589486 -0.6194359432 3.4809672008
H -5.7429131280 -1.7195668157 3.3462231410
H -5.1147090803 -3.0299230750 -1.3125774586
H -6.5767251255 -2.4034325491 -2.1385682998
H -5.0504592326 -1.4692519952 -2.1995882137
H -2.4759768521 0.6353480832 -1.5091779969
H -0.4230769559 1.9199030194 -0.9545987547
H -2.2187100597 3.1497917993 2.7594864643
H -4.2875924377 1.9124585118 2.1627028459
H 0.7233661958 0.7104446290 1.7505878272
H 2.6702063072 -0.7138888378 1.1849485384
H 4.6957187692 2.6820629465 -0.4767552809
H 2.7336174549 4.1178990044 0.0536300367
H 3.3755323558 -3.4252558788 -1.6363712900
H 5.0932575497 -3.9077153350 -1.4245281806
H 3.9028500899 -4.2354577974 -0.1277004734
H 6.8728300847 -0.3833460767 -3.1641343142
H 7.2132990583 0.6539777479 -1.7377882998
H 8.2660397997 -0.7490375109 -2.0976625980
