60
CONF17
C 6.4097317397 1.6714364201 3.1371359300
C 6.5277614590 0.7573979621 1.9206790460
N 5.5076225496 -0.2936025748 1.9030528252
C 5.8067904016 -1.5349086953 2.6101284969
C 6.3784434738 -2.6289803847 1.7053283260
C 4.2922273219 0.0192720270 1.3345759961
O 4.0480045556 1.1388631353 0.8929297635
N 3.3762256557 -1.0259374460 1.2934432295
C 2.0669790207 -0.9891397592 0.7843313210
C 1.3875878229 0.1828038648 0.4589131814
C 0.0681448809 0.1621600133 -0.0082676578
C -0.5911488985 -1.0791253479 -0.1813712827
C 0.0967180983 -2.2525000363 0.1454636915
C 1.3980973172 -2.2048833300 0.6204958649
O -1.8450101412 -1.0791370716 -0.6895977566
C -2.5076347791 -2.3401279808 -0.8570949370
C -3.8806366426 -2.1120950310 -1.4761397727
C -4.7061682108 -1.0206154791 -0.7526750659
N -4.3871626884 0.2816921194 -1.3324134663
C -5.3893527960 1.3604175559 -1.1757436109
C -6.6673244307 1.0077584667 -1.9441655059
C -4.7636009453 2.6144222919 -1.7959525651
C -5.7168654827 1.6293124111 0.3025689922
O -3.7869506944 -1.8143261430 -2.8546845389
C -0.6029297198 1.4687017327 -0.2545132388
O -1.8180532557 1.5988987159 -0.2253917665
C 0.2726035229 2.6790763198 -0.5132892920
H 5.4449008446 2.1842801799 3.1230282268
H 7.2037453247 2.4247965229 3.1261167607
H 6.4927384940 1.1062697808 4.0714702100
H 7.5078584474 0.2651886738 1.8986180434
H 6.4281756731 1.3426843317 1.0034423633
H 6.5336112852 -1.2971935552 3.3955615380
H 4.9150105795 -1.8894985968 3.1428568577
H 7.2971321478 -2.2838410598 1.2224630382
H 5.6771321265 -2.9069932680 0.9118226301
H 6.6122412516 -3.5264810105 2.2867424922
H 3.7088194293 -1.9490407728 1.5137516470
H 1.9009797476 1.1227689467 0.5849344249
H -0.3726514991 -3.2192565735 0.0237564995
H -1.9242902821 -2.9892273088 -1.5240851666
H -2.6173379405 -2.8269288636 0.1248604123
H -4.4064783328 -3.0739590905 -1.3718064552
H -5.7641908389 -1.2368738483 -0.9291922926
H -4.5303898407 -1.0867631633 0.3343827388
H -3.5007380184 0.6040626117 -0.9495202806
H -6.4287805118 0.7450156342 -2.9794849016
H -7.3440929194 1.8677995531 -1.9497013254
H -7.2097685758 0.1721921111 -1.4917613143
H -3.8320461713 2.8740115324 -1.2833478934
H -5.4510654252 3.4623197430 -1.7171614526
H -4.5396380857 2.4424384396 -2.8534718885
H -6.4139637678 2.4684448645 0.4020942237
H -4.8026995219 1.8742909766 0.8542408829
H -6.1800499369 0.7546684257 0.7716122102
H -3.8965545235 -0.8396421356 -2.8785457547
H -0.3570608503 3.4747088154 -0.9121744581
H 1.0918968879 2.4559362394 -1.2017057584
H 0.7206516879 3.0294981831 0.4235129949
H 1.9002602258 -3.1382661230 0.8648313123
