27
CONF189
C 3.2717646032 -0.9759097379 -0.2656960079
C 4.3978964527 -0.0461456316 0.1941814477
C 4.1827814894 0.5887834177 1.5631940543
O 3.9501885266 -0.3797819728 2.5985291024
C 1.9499567368 -0.2287791896 -0.4697907765
C 0.8405298682 -1.1486645235 -0.9073409202
C -0.5120361336 -0.4663140055 -1.2877159455
C -1.1150021313 0.4910436177 -0.2131924333
C -2.6239486465 0.8396495331 -0.4279785951
F -2.8482670307 1.2051479459 -1.6980897085
F -2.9543573071 1.8586936976 0.3782459914
F -3.4018056054 -0.2070910491 -0.1296333533
F -0.4188863570 1.6528671225 -0.2302260473
F -1.0009382535 -0.0650036687 1.0165170072
F -1.4260188546 -1.4382764699 -1.5515063623
F -0.3179809114 0.2522535291 -2.4229521311
F 0.5649460581 -2.0860603491 0.0556624952
F 1.1974892571 -1.8533290812 -2.0344531303
H 3.5683499869 -1.4492549628 -1.2065635338
H 3.1335279188 -1.7740444869 0.4709147054
H 5.3348568533 -0.6175265092 0.2155574189
H 4.5388526897 0.7612590299 -0.5369980866
H 3.2997626123 1.2362603295 1.5663661977
H 5.0500733911 1.2169980405 1.8126780149
H 4.7269931800 -0.9520686764 2.6407311503
H 2.0638320756 0.5567724708 -1.2254107550
H 1.6291197559 0.2497581254 0.4605781355
