53
CONF91
C 2.3737466953 -2.2787302684 -0.2754353282
N 2.7741750559 -0.8993484191 -0.5497109565
C 3.1188329820 -0.7796707267 -1.9745033404
C 3.6416845884 0.6088067523 -2.3127634956
C 2.5969853662 1.6579254761 -1.9508660673
C 2.1821421796 1.4931371062 -0.4920236179
C 1.7121461878 0.0658572162 -0.1941951106
C 1.3142279365 -0.0921162444 1.2784420772
C 0.2775062886 0.9277120511 1.7642237295
N -0.8423814420 1.0820044085 0.8324228207
C -1.4017140648 2.3565943044 0.6256860918
C -1.3373709550 3.3630176014 1.5946313103
C -1.8605690434 4.6264500357 1.3355204742
C -2.4933087123 4.8952554886 0.1278671279
C -2.6042054808 3.8886925108 -0.8272797175
C -2.0456215082 2.6385628754 -0.5884114753
S -2.0709516141 1.3915025149 -1.8582935633
C -2.2227728969 -0.0392558080 -0.8224309149
C -1.5603638154 -0.0464425348 0.4190280514
C -1.6262480488 -1.2030994397 1.2003429013
C -2.2875221743 -2.3223181719 0.7097007731
C -2.9465399531 -2.3216803918 -0.5123883445
C -2.9302598303 -1.1528742261 -1.2662200223
S -2.2628432008 -3.8277935859 1.6974200117
O -1.9665915323 -3.4543020212 3.0924727291
O -3.4504778525 -4.6270152256 1.3516815451
C -0.8078630505 -4.7025584439 1.0525273531
H 2.3497639993 -2.4793538883 0.7993028763
H 3.1107765358 -2.9586781597 -0.7133698891
H 1.3807715936 -2.5297158166 -0.7043073545
H 3.8817350961 -1.5336888531 -2.2007051794
H 2.2371755562 -1.0030039880 -2.6138494801
H 3.8906863987 0.6529486445 -3.3792464169
H 4.5652892346 0.7902923851 -1.7488493255
H 2.9758016261 2.6704137845 -2.1290119470
H 1.7119113134 1.5271862977 -2.5888769821
H 1.3728612843 2.1946868050 -0.2648239138
H 3.0287779289 1.7276709447 0.1682393085
H 0.8152429021 -0.1324216329 -0.8206949779
H 2.2085716637 0.0212854981 1.9044069266
H 0.9350481746 -1.1007983483 1.4520383528
H 0.7501070910 1.9093832118 1.8406182937
H -0.0587478876 0.6594853376 2.7787942981
H -0.8859918119 3.1583173599 2.5585322612
H -1.7866002281 5.3967104483 2.0958787335
H -2.9101161503 5.8764303109 -0.0701848572
H -3.1076739610 4.0753659264 -1.7703583290
H -1.1841705210 -1.2402962248 2.1884724279
H -3.4815479701 -3.2021810940 -0.8492690392
H -3.4528415309 -1.1070794068 -2.2160586375
H 0.0743773416 -4.0779843164 1.2079395665
H -0.7319473164 -5.6304597664 1.6254306469
H -0.9631023777 -4.9128284784 -0.0074921086
