52
CONF40
C -3.1600390878 3.6033131332 1.6808190141
C -1.8295088837 2.8963469550 1.9481454275
C -0.8756881686 3.8147943617 2.7122615138
C -1.1890863959 2.4517021197 0.6173922520
C 0.1629788075 1.7719052233 0.7672248174
C 1.2745965598 2.2580641299 0.0784176166
C 2.5173778255 1.6418562948 0.1951688693
C 2.6347583043 0.5274890633 1.0152644510
C 1.5444737145 0.0155249724 1.7090194917
C 0.3095629850 0.6393750097 1.5727753539
Cl 4.2030824456 -0.2504612179 1.1874089933
C -2.0644603349 1.4605765810 -0.1199474157
O -2.7340267676 0.5851452733 0.3741687295
O -1.9498785721 1.6345946477 -1.4696387217
C -2.5215150320 0.5893375591 -2.2937438410
C -3.9748352202 0.5238065497 -2.1169404844
N -5.1272515625 0.5024719754 -2.0513072987
C -1.8169772879 -0.7423005912 -2.1035568349
C -0.4317566907 -0.7234071348 -1.9534482184
C 0.2541618550 -1.9241005391 -1.8106415171
C -0.4186941710 -3.1449229430 -1.8434090198
C -1.7997869057 -3.1440728999 -1.9975466145
C -2.5079036775 -1.9507108201 -2.1211634123
O 1.6266076682 -1.8310591677 -1.7207246076
C 2.3292840200 -2.7429458746 -0.9482565703
C 1.8629303454 -3.1796263129 0.2890015889
C 2.6643215895 -4.0248912128 1.0503664855
C 3.9168017457 -4.4243726846 0.5871625544
C 4.3678537089 -3.9742347817 -0.6517882780
C 3.5745541081 -3.1343129042 -1.4280966074
H -3.6259008933 3.9065122760 2.6232774155
H -3.8671638532 2.9589646824 1.1488849410
H -2.9968340454 4.5049665154 1.0788617260
H -2.0192513197 1.9982764074 2.5486579336
H 0.0619950008 3.3098276545 2.9620490476
H -1.3417414548 4.1499636793 3.6437941773
H -0.6363640342 4.7028099915 2.1149003869
H -1.0575445169 3.3296000545 -0.0241944883
H 1.1745395023 3.1322398003 -0.5581361292
H 3.3779445884 2.0267126261 -0.3401181014
H 1.6567297228 -0.8575073540 2.3412457665
H -0.5454092914 0.2341728473 2.1048305714
H -2.3468930818 0.9534364812 -3.3134241268
H 0.1237834807 0.2081743355 -1.9357831475
H 0.1280283143 -4.0763789022 -1.7488152945
H -2.3332480266 -4.0887543947 -2.0203851582
H -3.5873873415 -1.9694018861 -2.2266334030
H 0.8945156590 -2.8562563797 0.6548208859
H 2.3080235355 -4.3634381193 2.0183455111
H 4.5369498093 -5.0804138646 1.1888857115
H 5.3418406956 -4.2789624660 -1.0216604573
H 3.9114508370 -2.7721662378 -2.3937919141
