21
CONF2
C -3.7184111883 0.1346621456 -0.7119849985
C -2.2988490490 -0.1090481829 -0.2846528198
C -2.0090975630 -1.0420258258 0.7424072002
C -0.7200053769 -1.2908722330 1.1536767570
C 0.3513642490 -0.6070586947 0.5471064811
C 0.0743824820 0.3377114729 -0.4907821434
C -1.2551166188 0.5687026735 -0.8873951988
N 1.0895506985 1.0191146140 -1.1005381060
C 2.2989865752 0.7630200732 -0.6896403704
C 2.5740788194 -0.1827759369 0.3502205821
N 1.6305195795 -0.8495851028 0.9526834490
S 4.2700225869 -0.4102759200 0.7899215274
C 4.9363711176 0.7689597209 -0.3923467567
O 6.1137869789 0.9953617882 -0.4978810871
S 3.6915815551 1.5817371426 -1.4046841286
H -4.4195319584 -0.4430896648 -0.1064334878
H -3.8581479814 -0.1440280778 -1.7618770276
H -3.9736036362 1.1955468445 -0.6230653676
H -2.8321368114 -1.5711750296 1.2134982957
H -0.5052052069 -2.0061684378 1.9410025959
H -1.4405393628 1.2912866307 -1.6770459921
