33
CONF411
C 4.0982221717 -3.0104673335 -0.8615450702
C 4.9184024772 -2.0532926921 0.0147594585
C 5.2421324101 -0.7621658730 -0.6885570082
C 6.4617381334 -0.4650702367 -1.1502351551
C 4.1637853039 0.2452414757 -0.9126694276
O 4.2578704201 1.2451103779 -1.6002181935
O 3.0371069186 -0.0764770977 -0.2399123313
C 1.9304288195 0.8428229223 -0.3941934525
C 0.7954798962 0.2414021408 0.4215318794
C -0.4481047378 1.0918488311 0.3263027650
C -1.6143872032 0.5718044424 1.2206452571
C -3.0100039459 1.2233933126 0.9463199142
C -4.0512959160 1.0189110570 2.0949282013
F -4.1135076872 -0.2724341482 2.4501983654
F -3.7326268911 1.7531483995 3.1672501588
F -5.2589229352 1.4055750269 1.6590598939
F -2.8723537204 2.5571066105 0.7623178587
F -3.5315443236 0.6789963414 -0.1765649932
F -1.7423332984 -0.7655505968 1.0302218794
F -1.2789174932 0.7879987115 2.5190976968
F -0.9115725747 1.1411618686 -0.9650511535
F -0.1816817008 2.3815813777 0.7034862563
H 4.6550818056 -3.2734244023 -1.7663055918
H 3.1486833368 -2.5585848026 -1.1626552633
H 3.8777351035 -3.9317218446 -0.3142158264
H 4.3706609206 -1.8444024180 0.9396362592
H 5.8605806427 -2.5339517169 0.2957036208
H 6.6529198277 0.4681382036 -1.6693966499
H 7.2900363775 -1.1525609075 -1.0096602282
H 1.6724673221 0.9221166869 -1.4542525812
H 2.2253912809 1.8276427648 -0.0222263591
H 0.5590591555 -0.7606143764 0.0540342539
H 1.0842130282 0.1662053484 1.4748103718
