34
CONF73
C -2.5487758222 -2.4121610163 0.8496773090
C -3.5809171510 -1.3200382229 1.0084720327
O -2.9618213275 -0.0064000495 1.2428966228
P -2.2199407676 0.7845829229 0.0813901594
S -2.9151143901 0.7220934094 -1.7228811719
O -2.0787000696 2.1814399262 0.8270032552
C -1.6200187526 3.3880059725 0.1210740984
C -0.1253525098 3.3762663921 -0.1027648066
O -0.6746082374 0.1509831449 0.0090902868
N -0.0336709153 0.1263968728 1.2525694331
C 1.1903454114 -0.2849336707 1.1525148526
C 1.8505078587 -0.2682040286 2.4289734578
N 2.4105971110 -0.2737367647 3.4409920442
C 1.9799299931 -0.7207335037 -0.0117908701
C 3.3554710053 -0.4437856077 -0.0196210285
C 4.1412423265 -0.8345576053 -1.0952455077
C 3.5701559259 -1.5286925848 -2.1592568125
C 2.2094661606 -1.8294091927 -2.1436700351
C 1.4096678631 -1.4256348741 -1.0826003936
H -1.9756295948 -2.2921288172 -0.0740739547
H -1.8602253768 -2.4247239677 1.6993803002
H -3.0651600184 -3.3762444542 0.8064929376
H -4.2320615792 -1.2382977151 0.1325636881
H -4.1938825701 -1.4701938760 1.8987131431
H -1.9214313782 4.1987356648 0.7865245883
H -2.1774264392 3.4677098035 -0.8174429738
H 0.1721419718 2.5949291513 -0.8079737711
H 0.4090533751 3.2294720381 0.8401365770
H 0.1705066413 4.3434223203 -0.5213899931
H 3.8059674776 0.0900871039 0.8114568023
H 5.2010531304 -0.6027385185 -1.0984906335
H 4.1856382229 -1.8418702479 -2.9964030922
H 1.7654889468 -2.3838660966 -2.9638881714
H 0.3575032878 -1.6757731834 -1.0765167925
