45
CONF675
O -0.7794717717 -0.5490128330 -2.8400816266
C -1.9646211542 -1.3206899931 -2.6755364401
C -2.5830843849 -1.1788421156 -1.3010773049
O -1.6734770720 -1.7472622262 -0.3111397668
C -1.5298940344 -0.8721327192 0.7912595726
C -1.5276650454 -1.6898326330 2.0770481127
O -1.4410416119 -0.8238730089 3.2064453499
O -0.3384511328 -0.0783608369 0.6928601373
C 0.8743958644 -0.7667217724 0.4588674637
O 1.3765437007 -0.4624667031 -0.8385104469
C 1.6796080873 0.9389920690 -1.0525820315
C 2.1906791145 1.0479362122 -2.4800492912
O 3.3913655437 0.3042069334 -2.6953439386
C 2.7021223638 1.4177991978 -0.0241870613
O 2.8810817206 2.8184966490 -0.2367388457
C 2.2166659106 1.1314078655 1.3871267733
O 3.2652348122 1.5254471933 2.2761410328
C 1.9032302354 -0.3499121619 1.5175376733
O 1.4123794548 -0.5876498048 2.8426362801
C -2.7157857526 0.1046982395 0.6823695733
O -2.5466830562 1.3604453011 1.3069315937
C -2.8554710572 0.2464880363 -0.8275425889
O -4.1465710303 0.6452892903 -1.2716333793
H -0.1559874402 -0.7857594359 -2.1314250184
H -2.6866042887 -0.9666120353 -3.4197373489
H -1.7736958665 -2.3872885259 -2.8668674399
H -3.5235947361 -1.7483775227 -1.2742989725
H -0.7101200457 -2.4248301146 2.0643297453
H -2.4748209939 -2.2330726442 2.1439700137
H -0.5214942208 -0.5015341889 3.2183668293
H 0.7291490055 -1.8516688686 0.4601727103
H 0.7603807984 1.5357206593 -0.9581526018
H 2.4245206993 2.0951957581 -2.6875648233
H 1.3994071871 0.7262966425 -3.1698492665
H 3.1858402303 -0.6263248591 -2.5365942646
H 3.6492339759 0.8794188300 -0.1849475662
H 3.4714350539 3.1358523241 0.4597811822
H 1.3069325058 1.7184030205 1.5859124138
H 2.9356246653 1.4228415193 3.1784603837
H 2.8210232835 -0.9275955982 1.3471119056
H 1.6734895982 -1.4783038500 3.1105187681
H -3.6082277229 -0.4152910787 1.0665166655
H -2.3897730243 1.1881227364 2.2467848590
H -2.0810201806 0.9319684871 -1.1985280127
H -4.2227871876 1.5983886661 -1.1387607960
