70
CONF96
C -1.3072359175 -1.4772863208 1.4571370205
C -2.4927327220 -1.4331540816 2.4503726900
C -1.9731107264 -1.3231104701 3.8454635889
C -2.4414399302 -1.6874935592 5.0812743628
N -1.4942895692 -1.3466447787 6.0453307275
C -0.3997462318 -0.7730983509 5.4344811511
C 0.8179882138 -0.2775679446 5.9018435873
C 1.6979223819 0.2154993798 4.9441853687
C 1.3999810839 0.2286253125 3.5647648971
C 0.1838737977 -0.2544299891 3.0996430032
C -0.6937491618 -0.7513570976 4.0591583549
C -0.3232469756 -0.2872302181 1.6734277451
C 0.8106793532 -0.3233819172 0.6500603729
C 0.2279623581 -0.3555847683 -0.7680852017
C -0.6847021812 -1.5729047691 -0.8903125328
N -1.7908959749 -1.4431146000 0.0653047237
C -2.8539358635 -2.4171373663 -0.2514660492
C -2.4806101809 -3.8632240676 -0.0639133552
C -2.3638453265 -4.7381732892 -1.0585998736
C 1.3381104216 -0.4167127501 -1.8031692085
O 1.7825565702 -1.5118138540 -2.1515021875
N 1.8120019889 0.7875983922 -2.3023801657
C 1.2636920165 2.0716537008 -1.8299446313
C 0.0402997824 2.5412533715 -2.6212283934
C -0.7619218741 3.5579169690 -1.8095760710
N -1.3877309020 2.9430384635 -0.6304093010
C -2.6232446180 2.2469782280 -0.9849285164
C -1.6562489813 3.9320992433 0.4097310815
C 2.7707014012 0.9192315644 -3.3782479791
O 3.0402302919 2.0352513567 -3.8052363125
N 3.2993125370 -0.2238806625 -3.8565632393
C 4.3004695415 -0.1834408866 -4.9149840323
C 5.7002884674 0.1299858087 -4.3915619086
H -0.7298229739 -2.4035344565 1.6602178511
H -3.1225227425 -0.5698164744 2.1888666255
H -3.1127587851 -2.3282950918 2.3463384657
H -3.3667424944 -2.1635688268 5.3736508672
H -1.5910419087 -1.5218204601 7.0293355996
H 1.0807833542 -0.2758701176 6.9546658126
H 2.6575926157 0.6039586866 5.2700667995
H 2.1431712902 0.6228801718 2.8800070114
H -0.9037611117 0.6327403475 1.4922979302
H 1.4582407338 0.5500800228 0.7815297128
H 1.4306260851 -1.2158938913 0.8083625923
H -0.3899073755 0.5363623433 -0.8985390006
H -1.1061087467 -1.6196595216 -1.9018860639
H -0.0987484796 -2.4952261799 -0.7437164483
H -3.7388265233 -2.1770822967 0.3484076201
H -3.1376213009 -2.2532888206 -1.2981590231
H -2.2799551552 -4.1917139022 0.9558826913
H -2.5492376192 -4.4454978824 -2.0897767111
H -2.0816055512 -5.7715104027 -0.8831307117
H 2.0623487015 2.8105945208 -1.9174260110
H 1.0040974130 1.9801354358 -0.7751232328
H 0.3646082763 2.9859587986 -3.5676298037
H -0.5895341684 1.6811316004 -2.8787356075
H -1.5123191954 4.0573360820 -2.4521201098
H -0.0778264173 4.3432632812 -1.4613810906
H -3.0102417559 1.7095747008 -0.1130720768
H -2.4388668160 1.5026670004 -1.7652588856
H -3.4063534652 2.9407486839 -1.3495122203
H -2.0900033243 3.4365436643 1.2849764244
H -0.7222609755 4.4111472414 0.7208846858
H -2.3599774307 4.7224149651 0.0818602655
H 3.0203923110 -1.0890830761 -3.4027978514
H 4.2856343603 -1.1592966432 -5.4120023168
H 3.9984475317 0.5719476536 -5.6474352745
H 6.4204563102 0.1441323980 -5.2159182278
H 6.0226658621 -0.6216274562 -3.6646590599
H 5.7095948935 1.1107775513 -3.9091402507
