37
CONF181
C 1.3845697915 -2.8826831371 1.7716032968
C 0.6883714044 -3.0115124437 0.4391189102
O -0.6526946442 -2.4134448245 0.5442452787
P -1.0768031663 -1.2392417803 -0.4329708793
O -0.6359742805 -1.3056068802 -1.8437047715
O -2.6342565808 -1.1987238756 -0.1338114482
C -3.5341293951 -0.5760668073 -1.1109847011
C -3.4003302840 0.9307229725 -1.1286330485
O -0.5681017254 0.1273625340 0.3272726980
P 0.8305510896 0.8977331267 0.0425940925
O 2.0161749241 0.0131059713 -0.0468006103
O 0.4592318200 1.7796475583 -1.2233613844
C 1.5120965393 2.1664632881 -2.1710783902
C 1.5946363319 1.1622658392 -3.2959650011
O 0.8539403843 1.9766561993 1.2165136852
C 1.4087428958 1.6201463850 2.5242367144
C 0.3694345104 0.9581305406 3.4024541660
H 2.3548253972 -3.3869823716 1.7186623656
H 0.7949168378 -3.3449360482 2.5681833629
H 1.5597645419 -1.8308859113 2.0113572321
H 1.2499022873 -2.5140137993 -0.3563730196
H 0.5220886028 -4.0560548466 0.1622118551
H -4.5268915101 -0.8874182079 -0.7800280102
H -3.3296322736 -1.0127671180 -2.0934762212
H -4.1695243376 1.3453863695 -1.7881743962
H -3.5402309116 1.3459745805 -0.1267272786
H -2.4229618545 1.2424888543 -1.5080102973
H 2.4642680279 2.2587367507 -1.6381792441
H 1.2090634645 3.1548413770 -2.5246223151
H 0.6289712569 1.0675860531 -3.7993872537
H 2.3401956957 1.4975581828 -4.0244891599
H 1.8882542109 0.1808465140 -2.9162967695
H 2.2847508209 0.9810610973 2.3711585963
H 1.7360823168 2.5738790903 2.9445502596
H 0.7956886253 0.7924625199 4.3972521285
H -0.5131139180 1.5956258945 3.5042725235
H 0.0581239032 -0.0083439537 2.9973874211
