34
CONF1
C 2.2311795941 -0.5804645770 -0.5633618121
C 3.0876602137 -1.0331320877 0.5979326051
O 4.1316229934 -0.0109917937 0.7412864970
P 3.7677869003 1.5449588192 0.8381399874
O 3.0559089856 1.6038564039 2.2746670769
O 4.9280654741 2.4320073738 0.6230696052
O 2.6027958582 1.8127017248 -0.2546305211
C 1.6033631629 0.7717742984 -0.2667727719
C 0.5711270527 0.8947806837 -1.3831853916
O 1.1445877841 1.3119893146 -2.6130961331
C 0.1664521222 -0.5993102483 -1.5682476188
O 1.0860578945 -1.3988494909 -0.7856676778
N -1.1774107956 -0.9286766287 -1.1736024367
C -2.0818298387 -1.6511324307 -1.9301785978
N -3.2272177928 -1.8527177339 -1.3246041393
C -3.0733475337 -1.2385477076 -0.0935590201
C -1.8095751361 -0.6604554608 0.0267977041
N -1.3350048803 0.0092661034 1.0835493617
C -2.2409156634 0.0728356309 2.0666604451
N -3.4816153291 -0.4312471676 2.0950807066
C -3.9359920165 -1.1025753280 1.0132158831
N -5.1790036178 -1.6088131412 1.0314449094
H 2.8527988159 -0.5121219787 -1.4700937461
H 3.6174731266 -1.9668990489 0.4068104947
H 2.5082758892 -1.1056959560 1.5247589833
H 2.7402870740 2.4880675140 2.5219410202
H 1.0802493751 0.7360909502 0.6960127585
H -0.2860319715 1.5171297630 -1.1040339033
H 1.4329596681 2.2289144173 -2.5097832619
H 0.2629898893 -0.8525432838 -2.6307879892
H -1.8209317237 -1.9894308789 -2.9260663016
H -1.9301563727 0.6043205780 2.9656816006
H -5.5361154801 -2.1201834688 0.2420477939
H -5.7564952353 -1.4955594738 1.8485739637
