82
CONF172
C -3.5789746838 1.3228549054 -2.9817042424
C -2.3173858790 1.6266403277 -2.2187656445
C -1.2441564486 2.1303680615 -2.8400442806
C -2.3124095775 1.4180263536 -0.7200085737
C -3.0860194731 2.5411747981 0.0117429781
C -3.4009285219 1.9455388184 1.3825770091
C -3.7750054552 0.4787026355 1.0916705106
C -2.9682131697 0.1066300118 -0.1994073372
C -2.1445167211 -1.1937741873 -0.0221141433
C -1.3791984795 -1.6013970986 -1.2811170219
C 0.0328300180 -1.0382308633 -1.3520871877
C 0.8905325418 -1.4916120351 -0.1577350346
C 2.4411359319 -1.1659247265 -0.3062981255
C 2.8494875519 -1.1213020048 -1.7933603201
C 4.3535163521 -0.8660381785 -2.0035121890
C 4.9916248431 -0.0037935875 -0.9151632699
C 4.0002261656 1.0121925332 -0.3222736942
C 2.8167081069 0.2126160754 0.3517302276
C 1.5828474720 1.1087911797 0.4736628868
C 0.4650841068 0.5235219541 1.3376286126
C 0.2518303864 -1.0112947405 1.1873332207
C -1.2925853699 -1.4227273060 1.2781147883
C -1.9785379729 -0.7037469956 2.4736478522
C -3.4725937666 -0.4664892938 2.2643263210
C -1.4106699122 -2.9440301120 1.5536127846
C 0.9658689929 -1.6499421636 2.4009355030
C 4.7122349062 1.8136909723 0.7807586250
C 3.5598825884 2.0101101323 -1.4093161212
O 6.1541632480 0.6118102930 -1.5112634343
C 3.2340106692 -2.3368096615 0.3222559692
C -5.2683572578 0.3792760183 0.7383923164
O -6.1557122309 0.7295637922 1.8100465069
H -4.4669302300 1.7000065582 -2.4617189110
H -3.7203304471 0.2418013371 -3.0975204956
H -3.5450766076 1.7652940804 -3.9804097946
H -0.3271423358 2.3442734566 -2.2957122214
H -1.2528019769 2.3439875114 -3.9057282677
H -1.2725573690 1.4755365065 -0.3949107691
H -2.4988950275 3.4637428381 0.0612108837
H -4.0139278399 2.7735668511 -0.5243683877
H -2.5106735402 1.9946800083 2.0205158158
H -4.2068807783 2.4697414430 1.9070650255
H -3.7091577788 -0.1757033456 -0.9592268726
H -2.9513658172 -1.9318661547 0.0800139150
H -1.3111821989 -2.6965745900 -1.3260623238
H -1.9473395349 -1.2925458161 -2.1682410863
H -0.0069600245 0.0506334568 -1.4272253436
H 0.4776815931 -1.3930253662 -2.2850527993
H 0.8327119233 -2.5895087982 -0.1599220301
H 2.2818901443 -0.3388743308 -2.3018279749
H 2.5738495135 -2.0655876667 -2.2790811142
H 4.9054107696 -1.8094249101 -2.0768258390
H 4.4949260477 -0.3494266033 -2.9601728449
H 5.3391677742 -0.6318317214 -0.0834539217
H 3.1685360593 -0.0090122438 1.3687471099
H 1.8674012940 2.0798605549 0.8945721419
H 1.2082962090 1.3219391323 -0.5327654024
H -0.4518120007 1.0743371798 1.1268689514
H 0.6901380924 0.7386288444 2.3894983713
H -1.8405532070 -1.2990778686 3.3836274593
H -1.5080522725 0.2609434178 2.6765832659
H -3.9848667289 -1.4258741283 2.0994248822
H -3.8952600414 -0.0427483299 3.1849434384
H -0.9383535284 -3.2262723407 2.4959293389
H -0.9665528261 -3.5482377263 0.7565992588
H -2.4678209443 -3.2203189353 1.6284506994
H 1.1090386220 -2.7275417531 2.2932442481
H 0.3820749884 -1.4706305943 3.3099491542
H 1.9431004911 -1.1928806242 2.5643990799
H 5.4821922867 2.4711392001 0.3612170318
H 5.1855750304 1.1437222548 1.5084615069
H 4.0017616584 2.4499383666 1.3187194556
H 4.4504606391 2.4255829769 -1.8902228322
H 2.9999036287 2.8425607780 -0.9744785821
H 2.9392897870 1.5599939338 -2.1874873492
H 6.7026029853 0.9596637085 -0.7976748089
H 3.1111748904 -2.3992675674 1.4021873918
H 4.3046461932 -2.2627945349 0.1258021906
H 2.8927669080 -3.2842328134 -0.1112520863
H -5.5058267128 1.0704015592 -0.0786657228
H -5.4800492896 -0.6433411937 0.3864457561
H -6.0809492316 0.0502284064 2.4912667057
