63
CONF53
C -11.5464895972 0.4005660237 2.0201357415
C -10.5929417081 0.3718340510 0.8275416700
C -9.1263959646 0.4868715272 1.2417150549
C -8.1592586588 0.4583974728 0.0592564770
C -6.6949157606 0.5808681001 0.4777224881
C -5.7235773398 0.5443988215 -0.7011099072
C -4.2617825891 0.6872671282 -0.2792452567
C -3.2913533573 0.6155683873 -1.4589876908
C -1.8339135448 0.9098279550 -1.0929553387
C -1.2241370771 -0.0768393275 -0.0966705544
C 0.2646857647 0.1679737925 0.1473593551
C 0.8721070438 -0.8154424410 1.1482779670
C 2.3297562637 -0.5231220819 1.5146373393
C 3.3029267698 -0.6113453258 0.3383732531
C 4.7635151863 -0.4648883447 0.7632241119
C 5.7390299185 -0.5234214728 -0.4112022645
C 7.2013459669 -0.3957878558 0.0121293231
C 8.1749079264 -0.4525808947 -1.1648257537
C 9.6381116613 -0.3450056224 -0.7367036184
C 10.6159506908 -0.3407205135 -1.9062428415
O 10.6189330267 -1.5665241641 -2.6445874030
H -11.4414847982 1.3347895383 2.5823235241
H -12.5905680632 0.3158416047 1.7037191551
H -11.3366635179 -0.4251434039 2.7085708106
H -10.8384860264 1.1904821806 0.1383064079
H -10.7361054185 -0.5579894688 0.2615114548
H -8.8796770653 -0.3312989119 1.9329018136
H -8.9819733833 1.4180270287 1.8075692674
H -8.4088791549 1.2738421454 -0.6339448657
H -8.2999258111 -0.4750104864 -0.5035668247
H -6.4473407835 -0.2303292711 1.1765701650
H -6.5539294253 1.5175291995 1.0351143663
H -5.8528501034 -0.3988133202 -1.2503702198
H -5.9785574563 1.3466230491 -1.4077236789
H -4.1263299262 1.6442689671 0.2451430812
H -4.0229225455 -0.0981788971 0.4491398597
H -3.6161086537 1.3302791841 -2.2270062305
H -3.3566210364 -0.3800216552 -1.9200616658
H -1.2293475284 0.9050831118 -2.0098400690
H -1.7618551083 1.9270831798 -0.6830179724
H -1.7557209571 -0.0185294842 0.8617702045
H -1.3689234164 -1.1024501972 -0.4662411427
H 0.7970633023 0.1060107258 -0.8104734827
H 0.4097493781 1.1947403082 0.5136527902
H 0.2670360534 -0.8046615623 2.0647215395
H 0.7975794203 -1.8347203724 0.7438629994
H 2.3977110791 0.4770171317 1.9653798895
H 2.6499187540 -1.2310156319 2.2908324912
H 3.1677968248 -1.5752277479 -0.1732584233
H 3.0672602285 0.1645994887 -0.4011548425
H 4.8930007577 0.4868581275 1.2974503267
H 5.0142729742 -1.2560739215 1.4835588924
H 5.4954303955 0.2755738893 -1.1253995365
H 5.5990874624 -1.4700239059 -0.9518551668
H 7.4471245071 -1.1971610987 0.7224224028
H 7.3430970724 0.5489385589 0.5551591501
H 8.0123668666 -1.3968526047 -1.7038565113
H 9.8913993218 -1.1750178206 -0.0649998205
H 9.7815224145 0.5838425399 -0.1669682238
H 11.6404023826 -0.2231213243 -1.5387860194
H 10.4017998187 0.5116125009 -2.5721669978
H 9.7592932635 -1.6592715841 -3.0679823764
H 7.9395214992 0.3574880932 -1.8706333038
