15
CONF10
N -0.9083896335 1.7492431934 -0.0395739215
C -0.2307274773 0.4868539596 0.2816092221
C 0.7912726032 0.1800369073 -0.8084564893
S 1.6490726564 -1.4316636025 -0.5723091250
S 2.7395033531 -1.1453454555 1.1824591041
C -1.2207049262 -0.6565936615 0.4783829403
O -1.8079922054 -1.0226185628 -0.6796504108
O -1.5028503156 -1.1491791782 1.5518737387
H -1.5237234356 2.0143248565 0.7235621721
H -1.4953437066 1.6263373574 -0.8599767301
H 0.2870044943 0.6079098011 1.2382537098
H 1.5295957130 0.9839167079 -0.8653327235
H 0.3015407936 0.0805322577 -1.7851677500
H 3.8554486539 -0.6088770503 0.6424363439
H -2.4637068689 -1.7148775300 -0.4881098003
