45
CONF263
C 4.8467208973 1.6323412383 3.5998009706
C 5.0910413701 0.2987671320 2.8972895092
C 4.1626521630 0.0830707989 1.7022944902
C 4.3896386010 -1.2594967269 1.0066581636
C 3.5694213956 -1.4506341883 -0.2724240869
C 2.0580401833 -1.4350012914 -0.0442987787
C 1.2679207079 -1.7335164394 -1.3159894017
C -0.2607385938 -1.6856636225 -1.1301762383
C -0.8071708546 -0.3181079421 -0.8022072759
C -0.9942998326 0.0692048533 0.5226893546
N -1.4827326396 1.3232726635 0.7237135016
C -1.7792336217 2.1956706858 -0.3201382701
N -2.2356261777 3.3379517229 0.2088854875
C -2.1957599532 3.0974262435 1.5352009638
N -1.7507530202 1.8966875178 1.9254625320
N -1.6126368531 1.8429402124 -1.5944851787
C -1.1476845359 0.6176125231 -1.8211379681
C -1.0159000001 0.2159080523 -3.2742438812
C -1.2812542525 1.3392276850 -4.2683877845
N -0.7126896906 -0.6433919384 1.6434626904
H 5.5208994402 1.7679812938 4.4509137462
H 3.8188453222 1.6968837919 3.9725991604
H 5.0017368401 2.4710445488 2.9126385701
H 4.9574306593 -0.5251844820 3.6109514610
H 6.1342876336 0.2440864470 2.5592789685
H 4.3079514711 0.8973915855 0.9778042653
H 3.1223535272 0.1603097723 2.0447335774
H 4.1624671260 -2.0744310999 1.7085026582
H 5.4555776597 -1.3556088364 0.7613348774
H 3.8511764222 -2.4034741696 -0.7403495112
H 3.8311394344 -0.6635321630 -0.9931897837
H 1.7534722683 -0.4590442546 0.3496077770
H 1.8057762627 -2.1774836649 0.7283006444
H 1.5591275956 -1.0133801890 -2.0908504964
H 1.5435937547 -2.7267702870 -1.6944119460
H -0.7407212241 -2.0507497515 -2.0431637742
H -0.5457713375 -2.4088276158 -0.3533776978
H -2.5052556383 3.8277656418 2.2727512348
H -1.7125186534 -0.6146419091 -3.4597201929
H -2.2928626501 1.7342056369 -4.1579430487
H -0.5482115781 -1.6301849044 1.5596754089
H -1.1029563449 -0.2975819021 2.5074118514
H -0.5908952854 2.1716600172 -4.1126404066
H -0.0166532532 -0.2031559838 -3.4429335257
H -1.1571202395 0.9672668474 -5.2896870616
