26
CONF5
C 1.7414085919 1.2976778867 -1.1854815169
C 2.1570977479 -0.1215781904 -0.9224365052
C 1.7526975052 -0.8544968586 0.1242415413
C 0.8116462397 -0.4298512062 1.2265219724
C -0.5598198487 -0.9956561317 0.9840342418
C -1.7359097985 -0.3414056526 0.8620583273
C -2.9982310081 -1.1127614246 0.5744083422
C -1.8486388338 1.1065605390 0.9981425393
C -2.9850257300 1.8114418173 0.8830139342
C 3.0873007779 -0.6961611511 -1.9555165642
H 2.6221990014 1.9498133584 -1.2394454169
H 1.2463995602 1.3645892811 -2.1626881489
H 1.0606491363 1.6982169304 -0.4330916715
H 2.1027042453 -1.8852105742 0.1868295578
H 1.1902114186 -0.8350027343 2.1760186004
H 0.7943247320 0.6549234905 1.3367411866
H -0.5788089273 -2.0795833856 0.8655421400
H -3.4575727039 -0.7786493497 -0.3634119068
H -3.7431561642 -0.9617905537 1.3645015938
H -2.7920639329 -2.1823117482 0.4948389311
H -0.9347343175 1.6541179298 1.2133709357
H -3.9418761838 1.3432499370 0.6731766969
H -2.9798312318 2.8905808782 0.9992909103
H 3.3623797550 -1.7289312968 -1.7262729804
H 2.6223953414 -0.6704986658 -2.9493772489
H 4.0042538339 -0.0972830086 -2.0250093961
