53
CONF172
C -3.3952669130 -2.9829916153 -3.0148859161
O -3.1036799055 -2.0831461232 -1.9084264638
C -3.2988207449 -0.7864067225 -2.1502686187
O -3.6574503231 -0.3156084117 -3.2044872054
C -3.0682310508 0.0526910085 -0.8736301044
C -4.2630118295 -0.1951549926 0.0830592579
C -3.7308457702 -1.2477305628 1.0261689886
C -2.3320813407 -1.3365774340 0.9535318358
C -1.8762147359 -0.3912753641 -0.0487162360
N -0.7254766376 0.1809870050 -0.0575551201
N -0.5624519575 1.2055115960 -0.9444558058
C -1.6531763794 1.6088549510 -1.8519152334
O -2.9080728964 1.4200038416 -1.2129692689
C 0.5954425003 1.9477989705 -0.9253850490
O 0.8605720080 2.7488025984 -1.8082636746
N 1.4908879193 1.6676046367 0.1414680155
C 2.8703077124 1.4961378066 -0.1774199562
C 3.8468277309 2.1689262367 0.5552766951
C 5.1881522645 1.9947140932 0.2390380893
C 5.5214036624 1.1611388569 -0.8177695072
C 4.5640094336 0.5011303748 -1.5716326834
C 3.2251156060 0.6634258959 -1.2374553304
O 6.8807346817 1.0386659824 -1.1887679940
C 7.5740960781 0.0503189267 -0.5814483156
F 7.0538166526 -1.1769990946 -0.8142283700
F 7.6303591534 0.1956661008 0.7628564950
F 8.8237971145 0.0743010322 -1.0579089218
C 1.0698165482 1.5498855582 1.4712590308
O 1.6849538923 0.9505693786 2.3267527039
O -0.0602014543 2.2450964852 1.6676156721
C -0.7225154835 1.9861537651 2.9301998045
C -1.6177713875 -2.1889056520 1.7904536472
C -2.3196747692 -2.9772260801 2.6951425858
C -3.7112661144 -2.8868280685 2.7428132823
C -4.4414603956 -2.0276847463 1.9236061766
Cl -4.5804974372 -3.8991849831 3.8856224283
H -3.1895657742 -3.9805996532 -2.6311910449
H -4.4435983866 -2.8845634759 -3.3041045139
H -2.7469043607 -2.7491840815 -3.8616285159
H -4.4642441217 0.7386216613 0.6213272585
H -5.1761949337 -0.4944813745 -0.4375581276
H -1.5472464670 2.6716462583 -2.0672533343
H -1.5944350286 1.0246877671 -2.7796609640
H 3.5612956257 2.8300195945 1.3658934446
H 5.9639857108 2.5119703057 0.7919096288
H 4.8618479336 -0.1358127041 -2.3966384537
H 2.4583993521 0.1420309190 -1.8015260007
H -1.6331709339 2.5827631630 2.9015041178
H -0.0845827929 2.2931466738 3.7614386246
H -0.9620306409 0.9221633570 3.0094119909
H -0.5361049274 -2.2500362716 1.7325048438
H -1.7976403832 -3.6629018585 3.3523606644
H -5.5219366846 -1.9721353401 1.9959351674
