19
CONF4
C -2.0617624330 0.6374791499 -1.1472771245
C -1.7797839294 0.1034730381 0.2255904163
C -2.6695725372 0.1250538149 1.2234492120
C -0.4357368154 -0.4837169721 0.5125191127
O -0.0869397810 -0.9436514829 1.5845068727
O 0.3468237362 -0.4511373096 -0.5872485617
C 1.7109930498 -0.9282857670 -0.4603764125
C 2.6539798891 0.2426697730 -0.2750606867
O 2.3865806121 0.9931206417 0.9111468478
H -1.3570895749 1.4325427959 -1.4110496363
H -1.9543412998 -0.1463840899 -1.9038496855
H -3.0772922878 1.0360706713 -1.1953628077
H -2.4207125995 -0.2717765791 2.2017752655
H -3.6612241361 0.5404099092 1.0750548519
H 1.9347438418 -1.4425860309 -1.3991829985
H 1.7768458822 -1.6339171242 0.3722979559
H 3.6827589735 -0.1479255199 -0.2839551580
H 2.5470170558 0.9445634287 -1.1079529709
H 2.4647132532 0.3939973514 1.6649754120
