51
CONF51
C -1.6746297800 -2.3324611992 1.8330898443
N -1.7952643837 -2.6418559951 0.4105047786
C -0.9750052768 -3.8274663189 0.1224063279
C -1.0852657405 -4.2572951674 -1.3334604412
C -0.6560214272 -3.1130086259 -2.2461987233
C -1.4670252678 -1.8673814234 -1.9117946056
C -1.3762771160 -1.4996856997 -0.4278583195
C -2.2297469405 -0.2451108311 -0.1489441881
C -1.4956729918 0.8340802995 0.6517140018
N -0.2804807701 1.2680292550 -0.0410182221
C -0.3712414614 1.8032837214 -1.3386345830
C -1.5146664945 2.4776989339 -1.7804876900
C -1.5952001549 2.9585476377 -3.0833552037
C -0.5250125668 2.8087540908 -3.9580224405
C 0.6334736952 2.1734036076 -3.5208380710
C 0.7021479407 1.6553416880 -2.2318821462
S 2.1174290156 0.7126696170 -1.7128473640
C 2.1451724097 1.2125843638 -0.0078027860
C 0.9248245504 1.3978638698 0.6657306390
C 0.9501517223 1.7150174940 2.0238492455
C 2.1619836183 1.7924526653 2.7216259936
C 3.3661375515 1.6027149539 2.0443807088
C 3.3449935886 1.3389188821 0.6769572208
S 2.0343863811 2.1540277366 4.4558932517
C 3.7736509956 2.3036201187 4.9750900649
H -0.6452536008 -2.0345406068 2.1210790241
H -1.9457517328 -3.2163889332 2.4196013344
H -2.3578996293 -1.5290549930 2.1226205719
H -1.3111347694 -4.6364374317 0.7825013702
H 0.0931155213 -3.6346094100 0.3631233774
H -0.4635866532 -5.1454542164 -1.4955685263
H -2.1246485845 -4.5364060194 -1.5479342800
H -0.7800803349 -3.3825012033 -3.3011102687
H 0.4109201474 -2.9010073365 -2.0899556399
H -1.1160670601 -1.0076513608 -2.4959499659
H -2.5241173252 -2.0299046532 -2.1649126432
H -0.3129673485 -1.2536411637 -0.2133375322
H -3.1464206283 -0.5250355721 0.3816811164
H -2.5544419408 0.1800562692 -1.1037477327
H -2.1686577792 1.6753406243 0.8807096960
H -1.1746928934 0.4140010002 1.6073645319
H -2.3495164483 2.6212587169 -1.1042477893
H -2.4989516259 3.4634637332 -3.4080249988
H -0.5834399638 3.1897925756 -4.9715957497
H 1.4838949042 2.0566211249 -4.1850024121
H 0.0227900291 1.9196467682 2.5479508694
H 4.3188169090 1.6636112701 2.5538016383
H 4.2791539358 1.2004913724 0.1417229822
H 4.3087507247 1.3572884518 4.8602590821
H 4.2829049431 3.1000938073 4.4258783470
H 3.7444388790 2.5662235171 6.0349967015
