24
CONF94
C 2.2389626113 -0.2103723832 1.4672412371
C 0.8169127302 -0.7539343129 1.6039598813
C -0.0103371141 -0.7525864202 0.3083454485
C -0.2123057198 0.6432444966 -0.3137925512
C -1.1843659423 0.5690220448 -1.4788125344
O -2.1602482924 1.2997248484 -1.5021622365
C -0.9310985116 -0.4050254157 -2.6017569000
O -1.7827688488 -0.1872347657 -3.6974335135
O -0.7045591007 1.5696645572 0.6458458820
O -1.2719572609 -1.3726108314 0.5358906343
O 0.1055031438 -0.1027515741 2.6603131710
O 2.3043105884 1.1781731189 1.1593804759
H 2.7744357450 -0.4295884829 2.4026643996
H 2.7574806200 -0.7309438635 0.6527060618
H 0.9041679155 -1.8072349544 1.9069667713
H 0.5203905373 -1.3730961075 -0.4274143745
H 0.7565349772 1.0018176729 -0.6954636287
H -1.0703178455 -1.4166459131 -2.1799326232
H 0.1188099332 -0.3296614206 -2.9231234909
H -2.4796516735 0.4110246678 -3.3859584669
H -1.5442831261 1.9064039695 0.2849116848
H -1.5702916730 -1.0810098306 1.4092184124
H -0.2626730229 0.7149457104 2.2835852556
H 1.8873493298 1.6586750996 1.8848211101
