42
CONF649
C -3.1662394387 -1.0720262423 1.7404497362
C -2.5372475315 0.2360736654 2.1737857366
O -1.7588313453 0.7423067388 1.1046418559
C -1.1757541591 2.0065008146 1.3971471461
C -0.1651649567 2.3360343688 0.3292073687
O -0.8590196254 2.5338199297 -0.9005153338
C -0.0226829324 2.9185533213 -1.9812432149
C 0.9627982766 1.8498268831 -2.4243356783
O 2.1182517655 1.9144753751 -1.5954521035
C 3.0253078800 0.8338519775 -1.7812681467
C 2.5864877013 -0.4544784428 -1.1126745110
O 2.5500599628 -0.2314865649 0.2939243145
C 2.3108014764 -1.4010680266 1.0696500671
C 0.8635484138 -1.8516191275 1.1079614756
O 0.5410446764 -2.4926451874 -0.1271760970
C -0.7297258447 -3.1319645341 -0.1387179116
C -1.9147327864 -2.1994490628 0.0462226671
O -2.1866705464 -2.0622306484 1.4446474344
H -3.8219203365 -0.9016218305 0.8738169957
H -3.7820745390 -1.4533640764 2.5655452502
H -1.9033301702 0.0685285665 3.0621663175
H -3.3365392260 0.9464554470 2.4539984742
H -1.9575385899 2.7824163640 1.4468967445
H -0.6563931655 1.9728325728 2.3704630657
H 0.5680610620 1.5229028122 0.2525350327
H 0.3781789808 3.2531764054 0.6148626983
H 0.5359420478 3.8387962472 -1.7386493121
H -0.7054816156 3.1364977788 -2.8094815907
H 0.4679661259 0.8678581868 -2.3609372635
H 1.2501585717 2.0224215160 -3.4771020633
H 3.1866451998 0.6423511418 -2.8563343205
H 3.9727167383 1.1630225929 -1.3414790035
H 3.3195756808 -1.2437348995 -1.3563266557
H 1.6094203950 -0.7925399567 -1.4808903149
H 2.9473558013 -2.2315418166 0.7215859523
H 2.6131187326 -1.1392790198 2.0902775869
H 0.7290548407 -2.5595086995 1.9442243209
H 0.2064626704 -0.9876103780 1.2829093872
H -0.7981692274 -3.6066181185 -1.1231242919
H -0.7737824212 -3.9200624248 0.6319033147
H -2.7978923514 -2.6315563459 -0.4551094407
H -1.6937664818 -1.2242974986 -0.4099536955
