18
CONF1
Cl 3.6974241822 2.0665238491 0.1484704058
C 2.3141592238 1.0464561798 -0.0268832670
C 1.0358108457 1.5590800662 0.0882371804
Cl 0.8808465865 3.2194601860 0.5664864356
C -0.1078865381 0.7106947890 -0.0310292682
C 0.1080808795 -0.7106960988 0.0330397919
C 1.4232426010 -1.1930761860 -0.2489546389
Cl 1.6962964821 -2.8361176300 -0.7345067370
C 2.5015301477 -0.3295185493 -0.2912097732
Cl 4.0863998820 -0.9066567772 -0.6648903306
C -1.0091215532 -1.5343713427 0.3731766683
Cl -0.7896078530 -3.1341640160 1.0074063581
C -2.2954822549 -1.0293346316 0.3508637513
Cl -3.6434652837 -2.0161090349 0.7913312587
C -2.5203463739 0.3116826210 -0.0355733625
Cl -4.1411817351 0.8560784873 -0.2828394148
C -1.4497609374 1.1682281782 -0.2099193973
Cl -1.7869387012 2.7518398098 -0.8332057605
