33
CONF5
C -4.9676943041 0.0428276560 1.9895982785
C -4.0235940413 0.6715862847 0.9638437771
C -4.4696718387 0.3668567813 -0.4593455244
S -3.3613284246 1.0792916405 -1.7533579597
C -1.8600655189 0.1510086017 -1.4515602657
C -1.8301660601 -1.2373740671 -1.6853049902
C -0.6781286107 -1.9855883735 -1.4790512019
C 0.4711889485 -1.3189514458 -1.0547381569
C 0.4283122409 0.0785825961 -0.8424368272
C -0.7211139289 0.8349766607 -1.0204028551
N 1.7072029582 0.4174671615 -0.4348161841
C 2.4242913639 -0.7469842590 -0.4260610162
N 1.7392651207 -1.8109540744 -0.7857627211
N 3.7571355534 -0.8102120639 -0.0706145578
C 4.5283969575 0.2591268612 0.3128536973
O 4.1400802891 1.4113515477 0.3938103208
O 5.7780019762 -0.1598649557 0.5878929216
C 6.6873478762 0.8862772079 1.0061654011
H -4.6427231828 0.2677676175 3.0098558811
H -4.9979057726 -1.0464072167 1.8788431454
H -5.9886901362 0.4212274466 1.8700097306
H -3.0062051564 0.2900947761 1.1115760489
H -3.9789765797 1.7578367528 1.1030503693
H -5.4527290210 0.8059062015 -0.6662928560
H -4.5484404175 -0.7135128515 -0.6246541604
H -2.7296996511 -1.7281965282 -2.0420929461
H -0.6645502024 -3.0555800650 -1.6578249609
H -0.7484477371 1.9022830672 -0.8311304189
H 2.0821417792 1.3223987674 -0.1893473743
H 4.1773938132 -1.7282964008 -0.1048349402
H 6.7887715099 1.6356802477 0.2179745381
H 7.6363589004 0.3820360393 1.1824656175
H 6.3242427944 1.3573386561 1.9224113813
