31
CONF2
C 6.2905892962 1.5368620003 -0.2139321893
C 5.0114537358 0.7866274253 -0.0046888234
N 4.0046242222 1.4300436280 0.5658554602
C 2.8691928413 0.7478301640 0.7465429446
N 1.7145178298 1.1408876834 1.2868786584
C 0.9594844360 0.0346429781 1.1804187253
N 1.5005950963 -1.0547064023 0.6308152623
N 2.7369998890 -0.5960629237 0.3493129921
C 3.7572364237 -1.2659627288 -0.2358271548
C 4.9190473079 -0.5734526145 -0.4204366598
S -0.7177420579 -0.0484431421 1.8367720594
O -1.3816681985 -1.1907949294 1.2204968874
O -0.6197356890 0.1473425032 3.2827675287
N -1.3880352781 1.4094692048 1.2299216090
C -2.2916230900 1.3735149201 0.1562908916
C -3.5963867525 1.8534158160 0.2831940208
C -4.4975837535 1.8810732436 -0.7636382802
C -4.0954715206 1.3822410685 -1.9988524335
C -2.8074838305 0.8864187185 -2.1767603417
C -1.9318865945 0.9028097723 -1.1074851499
F -0.6743131721 0.4504022020 -1.2753363684
F -3.9664480641 2.3257745097 1.4947945763
H 6.5458488778 1.5700115546 -1.2787819251
H 7.1178564356 1.0365989615 0.3010650982
H 6.1942465916 2.5543539571 0.1640658282
H 3.5781862018 -2.2979636851 -0.5136129801
H 5.7668583509 -1.0629070491 -0.8837546910
H -5.4936523099 2.2733017499 -0.5971546483
H -4.7909081986 1.3823523376 -2.8301337564
H -2.4687593756 0.4972959851 -3.1293495518
H -1.6830340813 1.9848844430 2.0122408051
