36
CONF231
C -0.7549029709 0.7129983396 -4.8221689456
C -0.2165638636 -0.5016037078 -4.1085778711
O -0.2962208736 -0.2250787513 -2.6697418387
C 0.1551421593 -1.1863896919 -1.8626748138
O 0.5815490631 -2.2622423604 -2.2254510088
C 0.1126516308 -0.7089495768 -0.4158931553
S -0.0304882086 -2.2523342666 0.6334939669
P -0.7871508050 -1.4491183107 2.4123312231
S -0.9570063445 -2.8492627658 3.7555289663
O 0.1062880616 -0.1710791437 2.8202187683
C 1.4347896872 -0.3604529957 3.3745835007
O -2.1235750749 -0.7022123272 1.9255013053
C -2.9310826307 0.0229152249 2.9001906965
C 1.3468659050 0.1099580331 -0.1210047585
C 2.6220774248 -0.4523996283 -0.2212792387
C 3.7482331667 0.3210107183 0.0372945756
C 3.6104630590 1.6611394022 0.3971415188
C 2.3410569249 2.2253893530 0.4924350433
C 1.2121910850 1.4530066987 0.2325013239
H -0.1593919093 1.5999186595 -4.5892364514
H -0.7096552331 0.5403489907 -5.9012963555
H -1.7962148777 0.8999035268 -4.5461282644
H -0.8060789792 -1.3998943653 -4.3131004052
H 1.8478843934 0.6411700771 3.4940076446
H 2.0539652394 -0.9386686054 2.6820797163
H 1.3677602911 -0.8667142801 4.3410173247
H -2.3683689699 0.8722715628 3.2947849608
H -3.2334522791 -0.6478292312 3.7090209394
H -3.8061268804 0.3694887242 2.3513938943
H 2.7321155658 -1.4990369382 -0.4901937118
H 4.7354335714 -0.1236979701 -0.0389620323
H 4.4903977315 2.2619975275 0.6039552926
H 2.2267879311 3.2672422254 0.7748772107
H 0.8303066275 -0.7001606942 -4.3564508267
H -0.7856469735 -0.1067376859 -0.2649219020
H 0.2211079603 1.8891645383 0.3151079029
