35
CONF35
C -2.2342231841 0.0904352848 2.4469539717
C -1.2902831611 -0.0577418584 1.2541054076
C 0.0003159501 0.7125170011 1.5164233578
N 0.8018116002 0.8669699885 0.2976523576
C 2.2177891317 1.0639860120 0.5715095360
C 3.0361275430 1.1088981509 -0.6975174013
O 4.2228137871 0.8357092246 -0.7330879623
N 2.3636860089 1.5315129513 -1.8330391381
C 1.0527724694 1.9701742800 -1.8802089870
O 0.5641244700 2.3944576128 -2.9136763646
C 0.3025298382 1.9261264172 -0.5700274496
N -1.0804022845 -1.5128956142 0.9899383191
C -2.0773288245 -1.9988683283 0.0414237839
C -1.8184687592 -1.5500644405 -1.3910664420
O -2.6968745075 -1.4043496219 -2.2258838266
N -0.4840820000 -1.3454107577 -1.7104027186
C 0.6019429220 -1.6136349699 -0.8781855528
O 1.7394266835 -1.6429109340 -1.3197092576
C 0.2329905712 -1.9712499571 0.5474917402
H -1.7399583794 -0.2494179449 3.3633082666
H -3.1379235130 -0.5080105384 2.3050842794
H -2.5334699352 1.1356726008 2.5731532874
H -1.7769762547 0.4027397527 0.3774669986
H 0.5967373083 0.1858849005 2.2707477162
H -0.2608003054 1.6918339462 1.9539745514
H 2.4256655781 2.0049549539 1.1221868023
H 2.6077865211 0.2384319482 1.1738490393
H 2.8938681782 1.5621877938 -2.6984362157
H 0.3888021006 2.9321069451 -0.1082447302
H -0.7502588433 1.7669492726 -0.8138992147
H -3.0819784179 -1.6668809859 0.3160425118
H -2.0861443175 -3.0991387115 0.0377223325
H -0.2751982501 -1.0958133170 -2.6727852322
H 0.2386575181 -3.0715605007 0.6006214911
H 1.0365235829 -1.6336008585 1.2026090560
