47
CONF7
C 0.5536740032 -0.7223421102 -0.8522984423
C 1.5961392177 -1.8552933481 -0.8815954847
C 2.4921961666 -1.9491412364 0.3611059432
C 2.8626517851 -0.5647806192 0.9059676900
O 3.8141561844 -0.7800093836 1.9464376007
C 1.5671067024 0.1150284997 1.3526216520
C 0.9539526544 0.5129725271 -0.0024630772
C 2.1665470234 1.2137724485 -0.6580208241
C 3.3469124790 0.3754914439 -0.1993100562
C 4.6024196805 0.4574941831 -0.6302736591
C -0.3953062108 1.3096806242 0.1887918139
C -0.3531864801 2.6159083740 -0.5587947323
O 0.0041411561 3.6407680919 0.2440433059
O -0.5624360180 2.7512281831 -1.7472924868
C -1.5138185604 0.3832657003 -0.3391875480
C -2.6935778948 0.0465708097 0.5738147331
C -3.3783611229 1.1908035279 1.2993883021
C -3.7198576124 -0.7856950878 -0.2781313470
O -4.5672767578 0.0639774161 -1.0592409576
C -3.0552737125 -1.8063687092 -1.1717427917
C -1.7295196961 -1.9081039937 -1.2930993693
C -0.8746742277 -1.0044845735 -0.4545097099
O -0.9585065218 -1.5142741624 0.9467528878
C -2.0370906876 -0.9447820579 1.5372891618
O -2.3751173614 -1.2289556480 2.6622637498
H 0.4389980061 -0.3604287581 -1.8851358083
H 1.0999364795 -2.8158714266 -1.0572641572
H 2.2412745311 -1.6806875974 -1.7487212118
H 3.4107708655 -2.4878572440 0.1035389032
H 1.9964881284 -2.4972621369 1.1711124338
H 4.0869731758 0.0876277822 2.2741009493
H 1.7896597072 1.0305651170 1.9175074472
H 0.9405706833 -0.5370947182 1.9614524300
H 2.0883557532 1.2880345129 -1.7470952170
H 2.2758763267 2.2306218591 -0.2581031759
H 5.3771065971 -0.1752202914 -0.2056908141
H 4.8926099004 1.1581714911 -1.4084348970
H -0.5136882112 1.5273570345 1.2530486392
H 0.0737839019 4.4429383814 -0.3024110660
H -1.8334746796 0.7311551804 -1.3248204523
H -3.7596926450 1.9168815847 0.5784674743
H -4.2184273736 0.8151433945 1.8913383120
H -2.6840405173 1.6948656817 1.9767351021
H -4.4015640233 -1.2879453343 0.4201074924
H -4.0573234880 0.3903951792 -1.8135203953
H -3.7263665585 -2.4445818435 -1.7411469182
H -1.2637201715 -2.6395389280 -1.9475814453
