32
CONF5
C 1.8839255573 1.1043764925 -1.3193556531
C 1.4296047380 0.2715539199 -0.1260732447
C 0.9786907149 1.1149240079 1.1092560322
C -0.4073072294 0.5504491930 1.4657915233
C -0.1998439425 -0.8811844488 2.0063598494
C 0.1374422403 -1.6917935635 0.7216194375
C 0.1598991509 -0.6240441084 -0.3977325484
C -1.0295221445 0.2994021959 0.0668691303
C -1.2741819606 1.5839384121 -0.7368025153
C -2.3835986133 -0.4242515621 0.1087120999
C 0.0780874138 -1.2174403728 -1.7897610174
O 2.6122708772 -0.5134967808 0.1698154529
H 2.3339720629 0.4528330697 -2.0748401193
H 1.0672376160 1.6509827926 -1.7880678749
H 2.6420578845 1.8229167093 -0.9906254743
H 0.9358593607 2.1793864898 0.8608504808
H 1.6928830298 1.0078965168 1.9333308868
H -0.9941106527 1.1974966806 2.1257003593
H 0.6069985520 -0.9106786478 2.7464395771
H -1.1015701913 -1.2618489948 2.4951058467
H -0.6307678656 -2.4385144062 0.5038358463
H 1.0794967325 -2.2408433270 0.7865287929
H -2.1806825517 2.0707383199 -0.3603726160
H -1.4437809361 1.3531028745 -1.7948103534
H -0.4687467810 2.3144112030 -0.6743826333
H -3.1204878771 0.2146401624 0.6083563875
H -2.3670864529 -1.3807478009 0.6315754509
H -2.7456606351 -0.6049365227 -0.9098844670
H -0.8003411664 -1.8656480725 -1.8798695965
H 0.9641520055 -1.8275691007 -2.0011555261
H 0.0105494539 -0.4459689205 -2.5630292316
H 2.5345617160 -0.8600827065 1.0666153999
