54
CONF76
C -3.4554061523 1.4880544005 -0.9454489967
C -2.3956859245 0.4442993778 -0.5162005125
C -2.2179486160 0.5157269811 1.0120726663
C -3.4462752512 0.0193942652 1.7744987088
C -3.9255972230 -1.3405381465 1.3023661076
O -4.5733053508 -2.0795561389 2.0302974484
C -3.5997595109 -1.7120715415 -0.0755560231
C -2.9026682785 -0.9233279427 -0.9170403590
C -2.5273452225 -1.3725104605 -2.2919410886
C -1.0129899388 -1.6419259504 -2.2876807451
C -0.1914381247 -0.4054347287 -1.8449881627
C -1.0823245973 0.7694023937 -1.3419641569
C -0.2711596226 1.8567453415 -0.6514236174
O -0.5651503905 3.0301149269 -0.7824910331
C 0.8797935306 1.4320951877 0.2335768215
C 1.8125355283 0.4012336998 -0.4297781916
C 0.9975431317 -0.8056657568 -0.9594773241
C 0.7160984751 -1.6940289099 0.2765170826
C 1.7249904837 -1.2486243341 1.3592761550
C 2.7090375348 -0.3137226111 0.6422061479
C 3.4073802391 0.6568012897 1.5838255262
O 2.8123407977 1.2267793909 2.4825613134
C 4.8830870481 0.9251434925 1.3799704263
O 5.3497645278 1.9301441498 2.2389377020
O 3.6852121199 -1.0616091509 -0.1007315864
C 2.6270700992 1.0930803759 -1.5221489731
H -3.6775111626 1.4005214674 -2.0130665545
H -4.3898455208 1.3428004490 -0.3991753854
H -3.0773843644 2.4974118421 -0.7578754666
H -1.3685156086 -0.1063433912 1.3104884477
H -1.9849986372 1.5454216127 1.3086086787
H -3.2482359796 -0.0459031531 2.8481251013
H -4.2891441527 0.7131377171 1.6613953971
H -3.9670938468 -2.6825535589 -0.4013422070
H -2.7694746181 -0.5988783808 -3.0322953340
H -3.0735151472 -2.2787608712 -2.5677641816
H -0.6899655126 -1.9746655358 -3.2797278406
H -0.8359259609 -2.4764837898 -1.6021666802
H 0.2665073181 0.0065065376 -2.7532579769
H -1.4539273412 1.2573052174 -2.2486677345
H 1.4224950601 2.3328208661 0.5293227801
H 0.4391698794 1.0176963418 1.1467598291
H 1.6789012260 -1.3689622152 -1.6082163990
H -0.3128448326 -1.5954635175 0.6318109353
H 0.8506110232 -2.7493086049 0.0265001507
H 1.2418936201 -0.7046334194 2.1748218389
H 2.2568829383 -2.0885286602 1.8206118333
H 5.4268624184 -0.0214644848 1.5436517718
H 5.0563984147 1.1856431840 0.3245170435
H 4.6002451499 2.1548768120 2.8156467708
H 3.9828332909 -1.7942827974 0.4499505574
H 3.2055115093 1.9275989707 -1.1120989924
H 1.9610951542 1.5175159190 -2.2811942553
H 3.3111755657 0.3969755563 -2.0114465517
