65
CONF122
C 7.6021081579 0.5438242892 1.0974219861
O 6.6652131373 1.1040164418 2.0256829516
C 5.5531853541 0.3658160083 2.3182228932
C 4.6542695795 0.9500520135 3.2195436707
C 3.4943282285 0.2788261835 3.5745091209
C 3.1918087515 -0.9847361704 3.0492857661
C 4.1067806384 -1.5561553091 2.1669225185
C 5.2801193890 -0.8982142693 1.7921334562
C 1.8872185054 -1.6599736252 3.3729536851
C 0.6873453450 -1.1013822125 2.5863051725
N 0.8322621438 -1.2609379445 1.1309851418
C 1.3637484861 -0.0419014038 0.5069912749
C 1.6266011773 -0.2555969083 -0.9815068516
C 0.3736859299 -0.7199237952 -1.7251412599
C -0.2375435474 -1.9213331822 -0.9903561033
C -0.4385475378 -1.6341757894 0.4934259403
N -0.5685714409 0.4078416877 -1.8329686905
C -1.6753319241 0.3021844236 -2.6172297429
N -1.8501566943 -0.5722958585 -3.5985589415
C -3.0891847611 -0.2547350528 -4.1345443599
C -3.7863709967 -0.8485466257 -5.1853024080
C -5.0415123394 -0.3357570070 -5.5165589576
C -5.5956527939 0.7450542952 -4.8185981785
C -4.9114194479 1.3552103767 -3.7636876003
C -3.6629403131 0.8408972320 -3.4452909506
N -2.7295481450 1.1896077583 -2.4794742566
C -2.8556881770 2.2164955281 -1.4548653465
C -2.9667657191 1.6323540797 -0.0616931578
C -3.8043903113 0.5412441714 0.1845953908
C -3.9062949479 -0.0038044489 1.4596387309
C -3.1530004965 0.5622697290 2.4760767623
C -2.3130521422 1.6421839484 2.2744293904
C -2.2253485328 2.1732999110 0.9890699000
F -3.2359145177 0.0252051914 3.7209451406
H 7.1333961838 0.3698235326 0.1214960044
H 8.0208769456 -0.3956725763 1.4775136997
H 8.3968235219 1.2834199951 0.9953112417
H 4.8827752121 1.9286266613 3.6306880270
H 2.8017726551 0.7488439466 4.2687509096
H 3.9007024983 -2.5374840380 1.7477792629
H 5.9610152773 -1.3795996698 1.1005704059
H 1.9660213425 -2.7327185847 3.1652979802
H 1.6638968829 -1.5447540852 4.4412246981
H 0.5291834692 -0.0416103562 2.8555839252
H -0.2076062608 -1.6445202119 2.9130604052
H 2.2994029510 0.2321547671 1.0025372803
H 0.6663878210 0.8095382699 0.6640533721
H 2.0134730237 0.6671353798 -1.4274929223
H 2.3944361591 -1.0296162684 -1.0947567610
H 0.6377642769 -1.0111257324 -2.7464273296
H -1.1940436284 -2.1912950510 -1.4499165106
H 0.4412357426 -2.7755371080 -1.1043536007
H -1.2024460161 -0.8398827925 0.6228325466
H -0.8265530070 -2.5318173071 0.9879402808
H -0.6969228269 0.9382281188 -0.9816660421
H -3.3615977053 -1.6889174990 -5.7261070384
H -5.6017506529 -0.7846159796 -6.3310269739
H -6.5758011944 1.1177563125 -5.0985048969
H -5.3469503185 2.1897333667 -3.2235227905
H -1.9987729094 2.8987497040 -1.5089960761
H -3.7461785172 2.8059734993 -1.6945319941
H -4.3776461332 0.1047995485 -0.6284335466
H -4.5486861141 -0.8531734384 1.6651733306
H -1.7340189264 2.0470226973 3.0971346787
H -1.5616301927 3.0136223701 0.8049692782
