37
CONF18
C -2.7600596252 -1.5839463117 -1.9281064847
C -4.1418010252 -1.4525712880 -1.8296492507
C -4.6887257280 -0.4105766901 -1.0903506985
C -3.8567759818 0.4930090475 -0.4281124081
C -2.4631006359 0.3551719813 -0.5081696802
C -1.9292446989 -0.6789108596 -1.2786751740
C -1.4730565954 1.2793849672 0.1516360078
O -0.6869084876 1.9418356196 -0.5286079525
N -1.4943973978 1.2835889795 1.5013212617
C -0.5516942252 2.0523543629 2.2995944920
C 0.6694238539 1.2137236817 2.7321467810
C 1.4183389161 0.6757251750 1.5519187947
C 2.3519889334 1.4311176496 0.8276275142
C 2.9763273074 0.9081115410 -0.2909876117
C 2.6368564590 -0.3841403359 -0.6734831795
C 1.7104830574 -1.0909124408 0.0862263957
N 1.1224816057 -0.5752185735 1.1661560702
C 3.2894474499 -1.0319391341 -1.8572019806
F 4.3383207486 -1.8143367844 -1.4869968741
F 2.4286914670 -1.8319680234 -2.5298552040
F 3.7700263144 -0.1255494228 -2.7368197821
Cl 2.7358557121 3.0705473800 1.3085439510
C -4.4869831152 1.6188066208 0.3462306306
F -5.7641691617 1.8469535616 -0.0337119442
F -4.5276347423 1.3676752294 1.6858234004
F -3.8190020708 2.7884164332 0.1904841588
H -2.3273568639 -2.3885251632 -2.5135522103
H -4.7970424307 -2.1519026252 -2.3377438868
H -5.7646664316 -0.2934352339 -1.0358650515
H -1.0660684420 2.4157035270 3.1942857127
H -0.2342688253 2.9140371773 1.7080921083
H 0.3297643209 0.3688313491 3.3368820508
H 3.6954215642 1.4943822778 -0.8510786095
H 1.4302471611 -2.1064258141 -0.1845103104
H -0.8507002546 -0.7688437647 -1.3589666174
H 1.3138153596 1.8464357491 3.3494328708
H -2.0895577002 0.6202462912 1.9756753983
