40
CONF2
C -1.9219731026 -1.4542248188 2.5851976621
C -0.7294734429 -1.9484430607 1.7523905985
C -0.7209271373 -3.4866130617 1.7730168582
C -0.7724481557 -1.4904417642 0.2892448052
C -1.8976841493 -0.8824121541 -0.2724535002
C -1.8910202604 -0.4643410433 -1.6042353744
C -0.7622074226 -0.6522063599 -2.3933431550
C 0.3615173948 -1.2697840099 -1.8447864876
C 0.3541822020 -1.6848848806 -0.5195251808
N 0.5452160115 -1.5221828053 2.3732227328
C 1.0224329682 -0.2400509128 2.5438416151
O 1.9778716511 -0.0174536558 3.3015385124
N 0.3986656166 0.7498730043 1.8334674567
C 1.0022545204 2.0655989651 1.6349938254
C 1.0841467513 2.3806737534 0.1620950219
C 0.1387368243 3.2277285516 -0.4241531817
C 0.1513213688 3.5028185158 -1.7879416314
C 1.1259359383 2.9296657486 -2.5989131042
C 2.0809744418 2.0809742367 -2.0466803078
C 2.0431206992 1.8149992542 -0.6835298496
Cl 3.2544408979 0.7222873203 -0.0213262894
H -1.9997342457 -0.3634105695 2.5891617684
H -1.7903365877 -1.7935658502 3.6164520002
H -2.8614492169 -1.8696457971 2.2098919296
H 0.1399556323 -3.8787554031 1.2248158170
H -0.6832457014 -3.8507302195 2.8057513833
H -1.6343406913 -3.8623331321 1.3053930217
H -2.7854154948 -0.7113392529 0.3258195033
H -2.7724186399 0.0157870768 -2.0183498185
H -0.7529234701 -0.3161096100 -3.4254865864
H 1.2518595854 -1.4158108000 -2.4489778141
H 1.2424696930 -2.1401116707 -0.0933172563
H 0.9114861973 -2.1539181973 3.0713468361
H -0.2861226110 0.4808423582 1.1412854321
H 1.9918327865 2.0547941055 2.0988250755
H 0.4039673988 2.8408500097 2.1282614349
H -0.6188663126 3.6749991407 0.2134153547
H -0.5960447079 4.1637691478 -2.2142466296
H 1.1494269125 3.1370968000 -3.6638381037
H 2.8448149690 1.6260117445 -2.6672787751
