43
CONF1
C 3.4135018368 -3.3638405775 -0.4551864995
C 2.6858911772 -2.9157116531 -1.7052152982
O 1.9124242729 -1.7099055222 -1.4832199216
N 0.7874487468 -2.0256912662 -0.7310013398
C 0.0825220796 -0.9989878013 -0.4297218728
C -1.1564180133 -1.2003575523 0.3389179051
C -1.3254519681 -0.5103795874 1.5600277756
C -2.4202462951 -0.7675261624 2.3793487286
C -3.3539627257 -1.7215353453 1.9867202141
C -3.2172029289 -2.3817076921 0.7791764602
C -2.1348259437 -2.1205896452 -0.0781109730
O -2.1012436741 -2.7991630839 -1.2469062449
C -1.7540631530 -2.0981359701 -2.4646428094
Cl -4.4377992084 -3.5436031541 0.2896521711
O -0.3422698406 0.3756439535 1.8598518604
C -0.4832057744 1.1640138909 3.0517605000
O 0.5548068796 0.2626243566 -0.7215630098
C -0.3062933442 1.3354826429 -0.8217113254
O -1.4773350911 1.2142077461 -1.0975906420
C 0.3968584155 2.6117521936 -0.5932731717
C 1.7162207314 2.6625865445 -0.1270245561
C 2.3205057153 3.8936292220 0.0970566854
C 1.6180417084 5.0730161015 -0.1445535417
C 0.3039635593 5.0238716791 -0.6093230718
C -0.3076179089 3.7980549020 -0.8321476495
H 4.0677035107 -2.5698181216 -0.0829513769
H 2.7043816646 -3.6376639621 0.3308237215
H 4.0280029505 -4.2403434273 -0.6843572276
H 3.3867512815 -2.6245408126 -2.4928253095
H 2.0203242101 -3.6961753689 -2.0918913221
H -2.5520281966 -0.2530677711 3.3217607705
H -4.2064854483 -1.9354125914 2.6215254883
H -2.4712345359 -2.4331498891 -3.2173627320
H -0.7393879321 -2.3601306409 -2.7732870186
H -1.8377743545 -1.0166582501 -2.3274248166
H -1.4066883465 1.7523790503 3.0201673092
H -0.4718280780 0.5281198819 3.9436774898
H 0.3798719117 1.8299219229 3.0609855564
H 2.2588457154 1.7452538550 0.0666260768
H 3.3416138878 3.9337196014 0.4619001635
H 2.0948151928 6.0323656740 0.0303290991
H -0.2417882343 5.9426281115 -0.7972393979
H -1.3293445578 3.7448251380 -1.1917767680
