46
CONF26
C 6.3476261736 -3.1428766806 0.4261702379
C 5.0939995195 -2.5462672251 -0.1700060946
O 4.0832177574 -2.5822590780 0.8697314520
C 2.8717122665 -2.1081630737 0.5741021264
N 2.6509230408 -1.6135193235 -0.6450248971
C 1.3888212840 -1.1885455218 -0.8382519799
N 0.4001676007 -1.2759170054 0.0753724516
C 0.7833127063 -1.7416602129 1.2611697728
N 2.0041410613 -2.1789947507 1.5894375984
N -0.1438512386 -1.7708776455 2.2874841654
C -1.4660885733 -1.2974011817 2.3407209824
O -2.0145240550 -1.1349200841 3.4117307086
N -2.0497296550 -1.0994363910 1.0987270464
S -3.5435957329 -0.3021996018 0.9184727275
O -3.7477151893 -0.2601906884 -0.5326364817
O -4.5223675239 -0.9014925423 1.8143258376
C -3.2083982961 1.3751294652 1.4781303827
C -3.5485837742 1.7074150700 2.7835845804
C -3.3590619041 3.0139387503 3.2215530364
C -2.8579719516 3.9747871539 2.3501504117
C -2.5314904697 3.6350676500 1.0411056056
C -2.6859198960 2.3236611637 0.5937664721
C -2.2194943884 1.9796022595 -0.7878818521
O -1.2687462696 1.2655864831 -1.0284113276
O -2.9360645500 2.6302975269 -1.7130915424
C -2.5725484500 2.3383141960 -3.0817591903
N 1.0617694464 -0.6353713364 -2.0207978223
C 2.0452820121 -0.3543938685 -3.0517845233
H 6.1745246655 -4.1742371361 0.7441496656
H 7.1451693017 -3.1394892071 -0.3224594229
H 6.6810378180 -2.5636894921 1.2911684284
H 5.2411401887 -1.5083919456 -0.4869682861
H 4.7363676436 -3.1170180871 -1.0334412044
H 0.2294594239 -2.0195276239 3.1927946101
H -1.3900922897 -1.0151803434 0.3043806322
H -3.9585847201 0.9434249987 3.4336702802
H -3.6158199988 3.2800145105 4.2411273937
H -2.7242928815 4.9975158790 2.6867141298
H -2.1463355886 4.3855039721 0.3588162751
H -3.2570464625 2.9246927688 -3.6931072911
H -2.6989800694 1.2699696927 -3.2744979285
H -1.5360853981 2.6303811230 -3.2705278621
H 0.1764082105 -0.1473187895 -2.0322004557
H 1.5194433977 -0.0237798713 -3.9499673783
H 2.7548593357 0.4248744983 -2.7449481771
H 2.6140061658 -1.2570588619 -3.2878505922
