33
CONF165
C 4.4434323024 0.4544647775 0.6688960871
C 5.9044422566 0.7510409823 1.0148119874
O 6.0926467130 1.9712976508 1.7305363221
C 3.8026166940 1.4963968550 -0.2170560193
C 2.4608121286 1.0680850053 -0.8997223997
C 1.3468181450 0.5526164917 0.0702383406
C -0.0857266185 0.5341287735 -0.5727380899
C -1.0942438952 -0.3926589822 0.1954469810
C -2.5955732860 -0.0826467010 -0.1473648923
C -3.5644311699 -1.2594205787 0.2148899636
C -5.0713826197 -0.8421092857 0.2832653612
F -5.3170112443 -0.1067423044 1.3719986551
F -5.4103532923 -0.1405884046 -0.8076310435
F -5.8228067606 -1.9497962353 0.3364159353
F -3.2232682603 -1.7682019733 1.4214572060
F -3.4476049939 -2.2239891354 -0.7219847826
F -2.9766035957 1.0196031108 0.5363227366
F -2.7036557037 0.1616500023 -1.4731545826
F -0.9170253050 -0.2269244954 1.5253276598
F -0.8315007358 -1.6784417409 -0.1292777278
F -0.5729603202 1.7961926079 -0.5725207470
F 0.0089660836 0.0958490147 -1.8477386803
F 1.3086352413 1.3426152928 1.1673297851
F 1.6663349937 -0.7084539835 0.4536974416
F 1.9704141354 2.1362041351 -1.5832230456
F 2.7369154791 0.0815224510 -1.7883412124
F 3.5553800188 2.6629800073 0.4538802764
F 4.6296803523 1.8223840879 -1.2664871263
H 4.4038526272 -0.5097792998 0.1500322815
H 3.8463467272 0.3646403882 1.5826332385
H 6.4975801422 0.8394737291 0.1011163094
H 6.2877992648 -0.1056760416 1.5847619018
H 5.6478758857 1.8885350492 2.5838693068
