48
CONF18
C -5.7427031331 -1.6589401532 -1.4261122385
C -4.5277440733 -1.2304703087 -0.6174361858
C -4.5225779731 0.2898697865 -0.4252462210
N -3.3595534339 0.7132801066 0.3808676222
C -3.3478546937 0.0087265965 1.6700547658
C -3.3590023907 -1.5068524868 1.4862234428
N -4.5486198064 -1.8724208321 0.7059322379
C -2.1692419987 1.0212648219 -0.2366079327
C -2.1198450271 1.9243900928 -1.3384565588
C -0.9631920811 2.2899196506 -1.9614100531
C 0.2729940804 1.7923375737 -1.5119768354
C 0.2633413290 0.9298820774 -0.3957074373
C -0.9282069111 0.5582835670 0.2225295383
N 1.4848583407 0.4263265400 0.0696248050
C 2.6475136075 0.7797755935 -0.5127602989
C 2.7158180240 1.6356932103 -1.5833117602
C 1.5082781024 2.1858899800 -2.1491291063
O 1.5288941865 2.9654660723 -3.1452254850
C 4.0504271288 1.9556384078 -2.1422584149
O 5.0959613084 1.5087307671 -1.6940155793
O 4.0381142724 2.7826972631 -3.1904017984
C 1.5192922362 -0.4776698885 1.1824026568
C 1.1433747352 -1.8073611255 1.0083460782
C 1.1571457328 -2.7152494937 2.0508887129
C 1.5739218508 -2.2422662684 3.2858499413
C 1.9633752132 -0.9311687031 3.5092437392
C 1.9263013331 -0.0449725282 2.4395304442
F 1.5981019998 -3.1092004937 4.3188001089
F 0.7465283168 -2.2151715919 -0.2099213156
F -3.2714458465 2.5094986956 -1.7494497204
H -5.7630912293 -2.7474574700 -1.5424300892
H -6.6656793348 -1.3485709634 -0.9245529766
H -5.7177962865 -1.2104283070 -2.4238826395
H -3.6057830973 -1.4927266795 -1.1748086547
H -4.5125949294 0.7760084353 -1.3989554025
H -5.4334954373 0.5921841172 0.1077974041
H -4.2619717469 0.3064031256 2.1990353832
H -2.4958638609 0.3371388969 2.2697934139
H -2.4215389895 -1.8286653488 0.9960322177
H -3.4066047901 -1.9887223397 2.4690794848
H -4.5621446246 -2.8800129306 0.5774972198
H -0.9922891939 2.9969341346 -2.7827719947
H -0.8913866200 -0.1227900609 1.0599302674
H 3.5445908201 0.3404754342 -0.0894619241
H 0.8608873567 -3.7471080944 1.9031822822
H 2.2795727765 -0.6144195798 4.4959520351
H 2.2112115839 0.9933168306 2.5729841317
H 3.0580037915 3.0119004166 -3.3713891420
