42
CONF4
C -1.0633937383 0.0561504971 2.5631470025
C -2.5188214270 -0.2021645690 2.1804778482
C -2.7976093791 0.1826708057 0.7503349061
O -4.1429954723 -0.0824463525 0.4021827573
C -4.3740392559 0.7239877953 -0.7507143217
C -3.4777281360 1.9689736665 -0.5256640618
O -2.6402794490 1.5954401046 0.5727336002
C -2.6681670668 2.3696151430 -1.7513350969
O -1.9194745303 1.2830600560 -2.2979448346
C -0.6244445429 1.0650853173 -1.9037191296
C 0.0359887928 0.0529170888 -2.6075859087
C 1.3488686358 -0.2702230998 -2.3012426875
C 2.0075063155 0.4231946970 -1.2918194329
C 1.3610820640 1.4282605144 -0.5903637113
C 0.0403589426 1.7548654538 -0.8897195675
O 3.3394397743 0.1420850960 -1.0117472636
C 3.6108361818 -0.8949999147 -0.1472917281
C 2.6253803744 -1.6374550940 0.5009927316
C 3.0076482767 -2.6609014552 1.3654140741
C 4.3502163003 -2.9465060158 1.5851556861
C 5.3233707236 -2.1946607415 0.9281713235
C 4.9619850633 -1.1713919278 0.0633788367
H -0.8692338379 -0.2618802379 3.5908702976
H -0.8212474717 1.1192201695 2.4823725327
H -0.3787335492 -0.4919987901 1.9068991131
H -3.2035630485 0.3633576014 2.8215010836
H -2.7639327909 -1.2647593525 2.2876294496
H -2.1187615018 -0.3422015881 0.0491157835
H -4.0750521332 0.1901391319 -1.6638176841
H -5.4383638550 0.9660980263 -0.7935043734
H -4.0702516187 2.8404884979 -0.2128431720
H -2.0184321360 3.2240317751 -1.5279019237
H -3.3615910645 2.6744286396 -2.5455671277
H -0.4974506665 -0.4666851156 -3.3960853813
H 1.8696483786 -1.0549339616 -2.8398349507
H 1.8892762810 1.9479333763 0.2020777279
H -0.4639710426 2.5065722429 -0.2988934976
H 1.5775019818 -1.4199276328 0.3309403782
H 2.2391896330 -3.2384241931 1.8699563525
H 4.6375941339 -3.7455396986 2.2597167490
H 6.3756094886 -2.4067845143 1.0896565714
H 5.7060375838 -0.5766395531 -0.4551288557
