59
CONF172
C 1.9098295732 1.5453475903 3.8897559069
C 0.9798118477 1.2865040880 2.6685536397
C 1.7140930785 0.2426225071 1.8061844438
C 3.2043284313 0.4142854567 2.1610533011
C 3.1334930553 0.6306015889 3.6796238311
C 3.8118167658 1.6289891112 1.4579298201
C 3.9765270977 1.4638867313 -0.0318745718
O 4.0435578087 2.4301760960 -0.7794927588
N 4.0614925050 0.1625134986 -0.5371142545
C 4.1013303434 -0.9830769934 0.2672929791
O 4.1969964673 -2.0905210478 -0.2433356384
C 4.0481993458 -0.7866230961 1.7588716289
C 4.1040971266 -0.0387029577 -2.0014711163
C 2.7288579050 -0.3918768138 -2.5677298295
C 1.7390016457 0.7729601989 -2.5864672892
C 0.3358432625 0.3218601800 -2.9949778936
N -0.3494522311 -0.4000962894 -1.9099057211
C -1.3650464350 -1.3214031076 -2.4320546156
C -2.0179738575 -2.0942301762 -1.2892113459
N -2.6084131957 -1.1667421504 -0.3257021549
C -1.6299293342 -0.2086164964 0.1855602789
C -0.9812381940 0.5390110224 -0.9751743045
C -3.9533945622 -0.9602797470 -0.2357078019
N -4.7654165674 -1.8052394484 -0.9197055689
C -6.0752274903 -1.6149732469 -0.7758886412
C -6.6182637944 -0.6116043581 0.0185982951
C -5.6993089817 0.2046759029 0.6683458893
N -4.3811798344 0.0543178424 0.5573690089
H 1.4120316014 1.3315402923 4.8392930840
H 2.2167104302 2.5953657008 3.9191856560
H -0.0079788740 0.9276099197 2.9700691513
H 0.8229328317 2.2100983358 2.1024686898
H 1.5146282378 0.3535961443 0.7351553366
H 1.4078010087 -0.7711827711 2.0923774979
H 4.0607409702 1.0470435975 4.0869456223
H 2.9646900373 -0.3424241388 4.1571731442
H 3.2225505085 2.5382328761 1.6047937238
H 4.8129805935 1.8281792084 1.8667346888
H 5.0827458932 -0.6536477554 2.1085415672
H 3.6695658831 -1.7155732071 2.1941267153
H 4.8141552591 -0.8444587607 -2.1967751535
H 4.4840468235 0.8836597458 -2.4441738274
H 2.8751068945 -0.7536553936 -3.5935308577
H 2.3086628894 -1.2253628997 -1.9935899618
H 2.0904491756 1.5400682091 -3.2876277124
H 1.6959662387 1.2527553190 -1.6017770766
H 0.4200912018 -0.3558717167 -3.8542163310
H -0.2653039494 1.1874585335 -3.3293077163
H -2.1518462960 -0.7851363774 -3.0008649644
H -0.8821001282 -2.0318892612 -3.1128324416
H -1.2525042953 -2.6850380232 -0.7680799170
H -2.7839699791 -2.7671803306 -1.6709991262
H -0.8624268153 -0.7650417036 0.7399743565
H -1.7544516450 1.1473600154 -1.4873327598
H -0.2268262330 1.2272431742 -0.5788737188
H -6.7215395052 -2.2980583967 -1.3266705686
H -7.6869292878 -0.4718921509 0.1208341920
H -6.0359254249 1.0205696844 1.3075856865
H -2.1162379808 0.4901819712 0.8643360337
