41
CONF171
C 6.7117477943 0.1174894138 1.8974715026
C 5.4442885338 -0.4400976544 1.2839750877
O 4.2898734315 -0.1731306442 2.1268386921
C 3.7358470448 1.0650860698 2.0044643515
O 4.0904740916 1.9012995966 1.1858599715
N 2.7615786716 1.2307984100 2.9348411144
C 1.8522285461 2.3631198627 2.9153640168
C 0.5058768975 2.0309980880 2.2971749188
O 0.7342566280 1.6958316696 0.9223459678
C -0.3346561635 1.2999878557 0.1724647423
C -0.0436828769 0.9278961268 -1.1448133097
C -1.0599675267 0.5102873225 -1.9918501440
C -2.3689510428 0.4703161162 -1.5233446678
C -2.6697290966 0.8419387321 -0.2216764108
C -1.6529533588 1.2579667181 0.6364666242
O -3.3894037329 0.1136554885 -2.4032301667
C -3.9530862996 -1.1379934420 -2.2728156777
C -3.4215908691 -2.1398134395 -1.4615046813
C -4.0544077663 -3.3813728680 -1.4180007716
C -5.1993498216 -3.6275565031 -2.1702319430
C -5.7159225078 -2.6147325908 -2.9790017938
C -5.1000934871 -1.3703703388 -3.0336062668
H 6.8731752501 -0.2971266469 2.8968514923
H 6.6655981716 1.2074872572 1.9668427278
H 7.5676062119 -0.1520215642 1.2703484814
H 5.4789889104 -1.5301997158 1.2212728182
H 5.2611595577 -0.0286235366 0.2878844001
H 2.5165807626 0.4287949165 3.4966857591
H 2.3302654626 3.1727225053 2.3581234819
H 1.6788913953 2.7104258841 3.9402909683
H 0.0393959663 1.1821343009 2.8165810535
H -0.1575656150 2.9036121400 2.3740015431
H 0.9846978324 0.9699267662 -1.4885102129
H -0.8455359138 0.2157677166 -3.0140292421
H -3.6978240872 0.8063555869 0.1249279153
H -1.9046247508 1.5507320365 1.6481670054
H -2.5284935293 -1.9572876292 -0.8747407403
H -3.6393713968 -4.1616412559 -0.7872146786
H -5.6846470994 -4.5969222153 -2.1288282548
H -6.6083343992 -2.7920778144 -3.5713639177
H -5.4923387920 -0.5736626369 -3.6573232526
