34
CONF3
C 2.2638622737 -0.4434320323 -0.5917122668
C 3.3769748345 -1.1375576641 0.1607115508
O 4.5360449682 -0.2426493371 0.0581491378
P 4.4267372036 1.3002703665 0.4695768748
O 4.2089323743 1.1773075362 2.0539116427
O 5.5647674788 2.1159338165 0.0034541726
O 3.0219696638 1.8369474659 -0.1366349038
C 1.9413168622 0.9018349898 0.0397445718
C 0.6486273826 1.2792506118 -0.6801313681
O 0.8839757406 1.7900570991 -1.9820734345
C 0.0033158479 -0.1278191445 -0.8610455692
O 1.0090883125 -1.1130251995 -0.5135013711
N -1.1687431656 -0.3714829936 -0.0628825861
C -1.3186485468 -0.2137932094 1.3029974426
N -2.5065745480 -0.5615375361 1.7385202529
C -3.1806232633 -0.9788500537 0.6038272114
C -2.3699537738 -0.8755297625 -0.5260304831
N -2.6995205886 -1.1972513849 -1.7809488463
C -3.9560122645 -1.6535605484 -1.8500081879
N -4.8471052980 -1.8052209216 -0.8610602518
C -4.4856311807 -1.4705679529 0.3981103686
N -5.3760223049 -1.6102012023 1.3934955704
H 2.5717688923 -0.2958396647 -1.6385188675
H 3.6885845505 -2.0753295560 -0.3002577782
H 3.1214184538 -1.2968231669 1.2138299726
H 4.0923477455 2.0294067583 2.5044810663
H 1.7369099456 0.7680499688 1.1109797997
H 0.0090943047 1.9479933335 -0.0934314477
H 1.3087791347 2.6538213036 -1.8907254504
H -0.2915058055 -0.2468010671 -1.9097038143
H -0.5104502457 0.1599097326 1.9195478451
H -4.3038016872 -1.9416596486 -2.8416235041
H -5.1166149513 -1.4080399081 2.3443319992
H -6.2833098328 -2.0044653271 1.2046207629
