27
CONF271
C -3.3488123542 1.2552454969 0.3653989590
C -4.6366676477 0.4570428494 0.5317085670
O -4.6297017235 -0.1348612838 1.8286749712
C -2.1610893978 0.3966182961 -0.0200201532
C -0.8389967651 1.2105281153 -0.1016753014
C 0.4350566666 0.5293306372 -0.7207263875
C 0.9002283887 -0.8257295742 -0.0949195478
C 2.3776165320 -1.2028447446 -0.4634373517
C 2.7160706988 -2.7139921193 -0.2433184093
F 2.1231055043 -3.4788771150 -1.1659150295
F 2.3239279383 -3.1106637828 0.9753058297
F 4.0426654788 -2.8771638233 -0.3444745543
F 3.2183399419 -0.4803553264 0.3065282206
F 2.6154591821 -0.9208299338 -1.7649423570
F 0.8176030536 -0.7514200711 1.2511467997
F 0.0835365447 -1.8085913770 -0.5402872460
F 0.2174650352 0.3425611022 -2.0394872552
F 1.4460801567 1.4253069404 -0.5708394613
F -1.0676981427 2.3039483231 -0.8828650149
F -0.5311112799 1.6446413060 1.1443444764
F -2.3748918024 -0.1761353943 -1.2489982097
F -1.9663612055 -0.6162482856 0.8687391068
H -3.4767222585 2.0047563491 -0.4201635771
H -3.1245399431 1.7764225498 1.3013488016
H -5.4832017558 1.1517270925 0.4243483635
H -4.7185287894 -0.3010483273 -0.2606957185
H -5.3727312331 -0.7438019045 1.8884708439
