35
CONF12
C -5.8028161169 0.0747312500 0.7774569863
C -4.4714734257 0.1949494003 0.0461141538
C -4.2095679801 -1.0837808315 -0.7457490182
O -3.5173025715 -2.0028641947 -0.3747768935
O -4.8966000993 -1.0693464911 -1.9030177302
O -3.4687749376 0.3805388921 1.0390926361
C -2.2019568323 0.7148307531 0.6362978016
C -1.8134816022 0.9106447485 -0.6896312440
C -0.4932230619 1.2620941557 -0.9726953614
C 0.4130093892 1.4140999194 0.0604439939
C 0.0349668585 1.2270620140 1.3849621338
C -1.2738111469 0.8735035929 1.6711321465
O 1.7097710192 1.8538734612 -0.2416160504
C 2.7300184798 0.9573776238 -0.1888986901
N 2.4681028578 -0.3221988326 0.0273532472
C 3.5047297342 -1.1706088857 0.0645546145
C 4.8171330231 -0.7611929405 -0.1156254185
C 5.0737538373 0.5967606729 -0.3485930596
C 4.0170652296 1.4783424718 -0.3883637718
C 5.9554637669 -1.7236980514 -0.0554282316
F 6.8105589177 -1.4342042967 0.9643662511
F 5.5511538030 -3.0008447999 0.1210534429
F 6.7051796585 -1.6967321838 -1.1905102626
H -5.7811889760 -0.7774673219 1.4622372169
H -5.9837340589 0.9892091829 1.3467927976
H -6.6135836929 -0.0614567017 0.0586020359
H -4.4989025658 1.0490512489 -0.6429588058
H -4.7598410376 -1.9205045297 -2.3542783472
H -2.5075763566 0.7985647071 -1.5139079081
H -0.1745493580 1.4151782060 -1.9983076891
H 0.7610371786 1.3551039081 2.1809399826
H -1.5960141478 0.7211069631 2.6957520089
H 3.2655763814 -2.2152837225 0.2439810190
H 6.0895598201 0.9509563835 -0.4934662554
H 4.1573180025 2.5382990023 -0.5633078475
