41
CONF41
C 4.6494733473 3.2251725929 -0.9328707480
N 4.3796701364 1.7932447763 -0.8867631644
C 3.1771331524 1.1861449770 -0.9140636491
C 3.4096251466 -0.1847507920 -0.8726884463
C 4.8226622983 -0.2863018375 -0.8233897015
N 5.3958101372 0.9187611186 -0.8218988805
C 5.7274696366 -1.4636826640 -0.7336412321
F 5.3282374172 -2.3178634499 0.2727806401
F 5.7141673248 -2.2041658338 -1.9003151734
C 2.4274948248 -1.2835908081 -0.9130224024
O 2.7303119852 -2.4169075757 -1.2828719952
N 1.1647687563 -0.9228141785 -0.5095940251
C 0.0026246776 -1.7118859669 -0.4851556624
C -0.1628326952 -2.8804922134 -1.2508957857
C -1.3655143115 -3.5809591519 -1.2153433424
C -2.4442712293 -3.1560958453 -0.4335299994
C -2.2689022330 -2.0132617254 0.3276501819
C -1.0625020110 -1.2999380420 0.3141878346
C -1.2559087513 -0.0793190163 1.1966151980
C -2.2429663370 0.8623418457 0.4310529126
C -3.5848106886 0.0665535220 0.4460338299
C -3.2245353389 -1.2455848393 1.2188007519
C -2.2180890501 -0.6832875423 2.2020460429
C -2.1930254241 -0.6936932108 3.5233690552
Cl -3.4367160589 -1.4472674669 4.4931028558
Cl -0.9126995035 0.0406798435 4.4599363366
H 3.6957432444 3.7532383819 -0.9473083498
H 5.2185946133 3.4640721425 -1.8345320990
H 5.2204956768 3.5175479353 -0.0486447606
H 2.2618659227 1.7578376234 -0.9848443320
H 6.7619046368 -1.1622046339 -0.5402190353
H 0.6483341159 -3.2328307960 -1.8715685681
H -1.4601939843 -4.4796425678 -1.8172896039
H -3.3795992563 -3.7064534912 -0.4220288187
H -2.3403328246 1.8095570070 0.9682369060
H -1.8787913393 1.0695918143 -0.5781639213
H -4.3593972777 0.6138051440 0.9899233458
H -3.9581476174 -0.1625326209 -0.5549273020
H -4.0718439825 -1.8017055324 1.6152501236
H -0.3650825830 0.4045014770 1.5941428522
H 1.0769457342 -0.0151331351 -0.0772579008
