47
CONF115
C -4.6961426696 0.7308624993 0.8215486814
C -3.3742264398 0.4500852748 1.5027025213
C -3.2423677681 0.9347451135 2.9242609440
C -2.5225445247 1.6886761716 1.7857177261
C -1.0614614704 1.6574698618 1.6566885741
O -0.2888115426 0.8112937500 2.0545545425
O -0.6413872067 2.7724612541 0.9753465006
C 0.7829229320 2.8084824892 0.7056594355
C 1.0884368811 4.2124298122 0.4305393250
N 1.3642195238 5.3091406498 0.1970991828
C 1.1559188755 1.9289951347 -0.4695474710
C 0.4967957134 2.0819034154 -1.6899491413
C 0.8382405488 1.2539831219 -2.7537807894
C 1.8288593741 0.2855128967 -2.6153642015
C 2.4738391411 0.1464329460 -1.3879257433
C 2.1436290618 0.9636622007 -0.3098382647
O 3.5031092006 -0.7467409023 -1.1829685269
C 3.5002737291 -1.9491759977 -1.8789215502
C 2.3686249429 -2.7599223059 -1.9149803101
C 2.4431404856 -3.9893818772 -2.5626844066
C 3.6340779084 -4.4064749093 -3.1563374768
C 4.7582526485 -3.5858298023 -3.1002963083
C 4.6964654055 -2.3485138041 -2.4630774663
C -2.5001912946 0.1850043082 3.9383862107
C -2.7344460575 0.2303979588 5.2499748199
Br -1.7345175763 -0.8307853799 6.4784887814
Br -4.0607830666 1.3256297865 6.0674214117
C -2.7266373184 -0.8391654637 1.0563335162
H -5.1386240037 1.6669183375 1.1723838010
H -5.3979580862 -0.0841776022 1.0287402854
H -4.5564777141 0.7951316889 -0.2627581731
H -4.0929894079 1.4942424105 3.3007531108
H -2.9718436791 2.6362984412 1.5101475467
H 1.3388653884 2.5030915796 1.5993556196
H -0.2745171610 2.8366761215 -1.8054557438
H 0.3370293136 1.3676929966 -3.7094696697
H 2.0983612164 -0.3509309553 -3.4510033423
H 2.6511324123 0.8308081542 0.6400912101
H 1.4480452135 -2.4326040518 -1.4425282282
H 1.5658769868 -4.6280109077 -2.5940471179
H 3.6850925573 -5.3676663492 -3.6570267511
H 5.6894759759 -3.9037527234 -3.5584940093
H 5.5606450743 -1.6943533035 -2.4130395891
H -1.7008910957 -0.4730156041 3.6162027709
H -3.3813370757 -1.6784250385 1.3139510811
H -1.7475606122 -1.0126566038 1.5021590657
H -2.6056138349 -0.8264440838 -0.0319656678
