119
CONF34
C -6.6311704570 6.5135132242 -0.9280165128
C -7.5056142308 5.5342213887 -1.7142202467
C -8.9641292144 5.6533943532 -1.2711311931
C -6.9666357762 4.0910699425 -1.5953861750
C -7.8694458233 3.1170653033 -2.3786274668
O -7.8090379361 3.1079925249 -3.6051305411
N -8.7092746440 2.2924534631 -1.7002427634
C -9.6841628468 1.4968529347 -2.4801310788
C -10.6764367817 1.0380007780 -1.4308659798
C -10.8140062701 -0.4202162500 -1.0911159211
C -11.9319946593 0.3133773258 -1.7943092227
C -10.5988700036 2.0723719835 -0.3274488965
C -9.0864884541 2.3381782472 -0.2711978662
C -8.3968037552 1.2820865982 0.5525877974
N -8.9186424549 0.7265002840 1.6352852607
C -7.9616216200 -0.1336300147 2.0952848976
C -6.8371422811 -0.1071110499 1.2862391877
N -7.1445752587 0.8174265921 0.3028508066
C -5.5839686193 -0.8345676268 1.3590984965
C -4.4899349010 -0.5129615035 0.5296600808
C -3.3274733209 -1.2373915603 0.6591119162
C -3.1816330226 -2.2789086351 1.5854969434
C -4.2560891296 -2.6048157579 2.4063766993
C -5.4402093375 -1.8883265488 2.2817856653
C -1.8285436789 -2.8305058119 1.4744819581
C -1.1302029839 -2.1283821781 0.4800007300
C -2.0371776532 -1.0738752030 -0.1075715508
F -2.2145064514 -1.2380742406 -1.4679496588
F -1.5085466949 0.1965518637 0.0300861618
C 0.1724375852 -2.4229128730 0.1482660276
C 0.8341376478 -3.4601530518 0.8325848562
C 0.1329867311 -4.1595459993 1.8272840639
C -1.1872080037 -3.8590621176 2.1533168993
C 2.2365434255 -3.7938223555 0.5206193898
C 3.1451225843 -2.7747563513 0.2164158139
C 4.4531754072 -3.1456638784 -0.0598086258
C 4.8887434858 -4.4925288113 -0.0381448273
C 3.9749806008 -5.5039416307 0.2577870956
C 2.6664343507 -5.1415450612 0.5317030855
N 6.2412682299 -4.5654680236 -0.3257245087
C 6.6106250176 -3.3180612989 -0.5136551847
N 5.5812296827 -2.4190776821 -0.3720430215
C 7.9933576378 -2.8553205708 -0.8638058363
C 9.0413569185 -3.9791877077 -0.8685976863
C 10.3517308315 -3.4082143463 -1.4576865382
C 10.8833820063 -2.4688390012 -0.3281690526
C 9.7764941631 -2.5931750587 0.7350423713
C 9.3841240084 -4.0703683380 0.6290715713
N 8.5594987775 -1.9497488419 0.1805718151
C 8.2250643099 -0.6448494810 0.2264623964
O 7.3196627746 -0.1699207743 -0.4749485992
C 8.9506655010 0.2239257330 1.2539832088
C 8.3637983014 -0.0186886043 2.6737192908
C 9.1699209147 0.7662520094 3.7078162516
C 6.8769934648 0.3266430057 2.7495493963
N 8.8362734948 1.6071927736 0.8382620886
C 9.9481017031 2.3869438526 0.7150124141
O 11.0609796086 2.1090129418 1.1218597943
O 9.6301241254 3.5533958927 0.0881926565
C 10.7323503567 4.4683791183 -0.0461039321
N -5.6267473895 4.0582638696 -2.1754865931
C -4.9378036187 2.8872498166 -2.1966924439
O -5.2331129969 1.8950221668 -1.5401231103
O -3.8606904452 2.9579195769 -2.9991244230
C -3.0402590136 1.7660109377 -3.0149444978
H -6.9989185356 7.5361786236 -1.0563369308
H -6.6627987502 6.2777561696 0.1419106586
H -5.5860195254 6.4850427508 -1.2449245069
H -7.4638180787 5.7835993938 -2.7848893460
H -9.3289487732 6.6646429038 -1.4727325811
H -9.6161171505 4.9529689115 -1.8018852031
H -9.0659812484 5.4818198021 -0.1936642735
H -6.8826965548 3.8077414050 -0.5391508838
H -10.1428400501 2.1468971418 -3.2365206670
H -9.1899486225 0.6718871249 -3.0041440577
H -10.2327267890 -1.1302738838 -1.6710134042
H -10.9459077653 -0.6793360228 -0.0462662551
H -12.8286850536 0.5397797277 -1.2260256414
H -12.1037220689 0.0916993489 -2.8433090797
H -11.1166904817 2.9942087435 -0.6216176404
H -10.9841026637 1.7220430966 0.6308306982
H -8.8696489204 3.3269335108 0.1430373484
H -8.1234534610 -0.7253569109 2.9850639602
H -6.5387690408 1.1353242352 -0.4530024447
H -4.5465339088 0.2912736014 -0.1946780479
H -4.1843910753 -3.4092417727 3.1315886433
H -6.2816200271 -2.1532694724 2.9128209560
H 0.6751450757 -1.8824588080 -0.6475569599
H 0.6483604227 -4.9388810685 2.3794081499
H -1.6933331468 -4.4157545942 2.9357826823
H 2.8399494580 -1.7337716836 0.2355032835
H 4.2857691814 -6.5430621910 0.2615757433
H 1.9340628484 -5.9166161228 0.7316432898
H 5.7030417004 -1.4181141407 -0.4732991739
H 7.9579168388 -2.3127696295 -1.8182360035
H 8.6728804257 -4.8904482694 -1.3370337351
H 11.0577051257 -4.2181583137 -1.6606740796
H 10.1806936182 -2.8768805973 -2.3982899862
H 11.8380460051 -2.8190919565 0.0765817074
H 11.0184560256 -1.4343134573 -0.6553053331
H 10.0217556695 -2.2204024733 1.7294066619
H 10.2291198150 -4.7338116474 0.8313458617
H 8.5311936809 -4.3446556679 1.2530207085
H 10.0186733094 -0.0184717859 1.2792764229
H 8.4763684662 -1.0918114642 2.8814930617
H 10.2332599242 0.5112910080 3.6683090932
H 9.0793179282 1.8422249610 3.5280689760
H 8.7981917091 0.5590845824 4.7160568720
H 6.7141127805 1.3854188570 2.5227125669
H 6.5005912781 0.1399918072 3.7596569357
H 6.2802056708 -0.2694146751 2.0526052748
H 8.0321826284 1.8336976695 0.2682975288
H 10.3235634763 5.3382470077 -0.5606736778
H 11.1201553004 4.7508612373 0.9363890275
H 11.5379630456 4.0190224912 -0.6330014412
H -5.4762391063 4.6546831161 -2.9769031317
H -2.6196826407 1.5779653586 -2.0244516254
H -3.6280814430 0.9015507344 -3.3315613431
H -2.2484076989 1.9769971973 -3.7327033799
