36
CONF230
C 3.6488203114 2.0775994387 -2.1256797910
C 3.1982054424 0.6673840302 -2.5311572701
C 1.7083392813 0.5709218326 -2.6472474485
C 0.9277385370 -0.2048932648 -1.8924091707
C -0.5678336063 -0.2640570043 -1.9933642522
C -1.2862401953 0.3744189220 -0.7958716665
C -0.9074524189 -0.0954778961 0.6183937603
C -1.4372498469 1.0389431448 1.5153940752
C -1.0838623153 2.3077071878 0.7341082437
C -1.1420167910 1.8891733057 -0.7219467156
O -1.0840508698 2.6391813596 -1.6784875453
C -1.4561640171 -1.4733763412 0.9588306048
C -1.0086413203 -1.9688833375 2.3101006652
O 0.0279159811 -1.6583218358 2.8634914074
O -1.8936725541 -2.8405429643 2.8301033070
C -1.5215150031 -3.4319241627 4.1010906964
H 3.2943704184 2.8218798935 -2.8467223609
H 4.7403873105 2.1426093341 -2.0796851703
H 3.2459936877 2.3422474243 -1.1425664153
H 3.5595886716 -0.0664602986 -1.8012597001
H 3.6570355849 0.4148226952 -3.4969722971
H 1.2421026590 1.2142251484 -3.3970417952
H 1.3967242477 -0.8439393689 -1.1426027008
H -0.8947495098 -1.3084816276 -2.0756933623
H -0.8988646479 0.2506752606 -2.9020803409
H -2.3728364402 0.2141411311 -0.9171543477
H 0.1860424238 -0.1160817149 0.7035601624
H -1.0028161640 1.0172503057 2.5175505675
H -2.5264362909 0.9460468136 1.6123084725
H -0.0447244857 2.6105935099 0.9292445052
H -1.7181077389 3.1772566408 0.9264438197
H -2.5501113364 -1.4844174644 0.9071633293
H -1.0994028701 -2.2159964805 0.2307609334
H -1.4157074918 -2.6544968672 4.8613240523
H -0.5832828180 -3.9824896784 4.0000760870
H -2.3375255500 -4.1072376750 4.3549212602
