51
CONF10
C 2.8328690919 4.1182070408 0.5417278218
C 2.7021523361 2.6254904125 0.6676487538
C 2.6599447606 1.8088818278 -0.4677508034
C 2.4881559465 0.4339203112 -0.3570124668
C 2.3549845840 -0.1699997794 0.8955736309
C 2.4074654352 0.6375165861 2.0305267471
C 2.5805839997 2.0153886611 1.9183107033
C 2.1576558615 -1.6714426243 1.0184484822
C 3.3750565462 -2.4571168338 0.5361482277
N 0.9747946005 -2.1084733920 0.2673127863
C -0.2786070090 -1.8933540475 0.7151283881
O -0.5298750821 -1.4279581283 1.8302134114
C -1.4151977905 -2.2736923015 -0.2488704556
C -2.2261914509 -3.4564129674 0.3080172993
C -3.3341734555 -3.8625013562 -0.6650663908
C -1.3056768454 -4.6419710329 0.6033172506
N -2.2772491160 -1.1102642393 -0.4338262495
C -1.8069242695 -0.0297415319 -1.1216437815
O -0.8326702481 -0.0488449938 -1.8619477048
O -2.5925073853 1.0520624005 -0.9040937996
C -2.1510104627 2.3135007501 -1.5102331221
C -1.0766141227 2.9348196450 -0.6350984495
C -3.3953605615 3.1696999598 -1.6259540321
H 1.8428264601 4.5876650828 0.4864883322
H 3.3501633039 4.5459110174 1.4049295010
H 3.3771655994 4.3935546417 -0.3656872024
H 2.7550731336 2.2598563617 -1.4523638141
H 2.4445869093 -0.1715525205 -1.2585999827
H 2.6128200760 2.6267328763 2.8166209461
H 1.9686057898 -1.9032336039 2.0716789066
H 3.2218649232 -3.5310501979 0.6791459198
H 3.5654372220 -2.2663613593 -0.5254881928
H 4.2589628886 -2.1485935489 1.0999877021
H 2.3019359912 0.1851036121 3.0133493568
H -1.0067154383 -2.5516119661 -1.2274794063
H -2.6786053439 -3.1231970438 1.2528603702
H -2.9015704466 -4.1939931087 -1.6164134202
H -3.9126613746 -4.6929066040 -0.2485670247
H -4.0213132138 -3.0378047341 -0.8716331951
H -0.5496567243 -4.3958578220 1.3551653890
H -1.8912964486 -5.4864850438 0.9781193637
H -0.7899717340 -4.9658806612 -0.3086673292
H -2.9307346588 -0.9125885351 0.3123634884
H -1.7497998642 2.0811901231 -2.5012504938
H -0.7305927776 3.8699621336 -1.0867353610
H -1.4783710471 3.1573784355 0.3589166048
H -0.2177245115 2.2659883904 -0.5315048651
H -4.1495573437 2.6811475031 -2.2488725773
H -3.1344768278 4.1283319287 -2.0834696522
H -3.8222606929 3.3635393897 -0.6367972228
H 1.1022544429 -2.3828335269 -0.6962948851
