61
CONF106
C -6.5311383119 0.6456151263 -3.6171925168
C -5.5364094895 -0.2816319527 -2.9212162433
C -5.1060827370 0.2480050947 -1.5538967945
C -4.1525675746 -0.6808767184 -0.8081152619
C -2.8048003206 -0.9064168543 -1.5100925265
C -1.8898499935 -1.3023185181 -0.3449659248
N -2.2938878974 -0.3849800843 0.7196033893
C -3.7531554114 -0.1580261049 0.5894189170
C -1.8829116791 -0.8205481650 2.0519227866
C -0.4220366360 -1.1647553964 -0.7183307206
O 0.1961893670 -2.1022297490 -1.2559137180
N 0.1240033456 0.0264281957 -0.4436648484
C 1.4818347918 0.4296291327 -0.7696489791
C 2.4336308873 0.3020576815 0.4327329597
C 3.0080412473 -1.0971488872 0.6589998225
C 3.8756035945 -1.1075666251 1.9306986567
C 3.0937795621 -0.5208279763 3.1235096246
C 2.4489580266 0.8302002077 2.7798668531
O 1.7070799272 0.7757733863 1.5814802133
S 3.7509802052 2.1744897091 2.7921550166
C 2.7055890408 3.5707667970 2.2433192601
O 2.0737835418 -1.4258588648 3.5482186498
O 5.1251401318 -0.4580926033 1.7146038851
O 2.0173856454 -2.1115388645 0.8484816632
C 1.4398876910 1.8751207981 -1.3213255588
C 0.5813780183 1.9828637891 -2.5728894866
O 2.7663510349 2.3546919938 -1.5655348559
H -6.8252394665 0.2552465015 -4.5964538399
H -7.4389261161 0.7662891141 -3.0156498871
H -6.0967297346 1.6401805325 -3.7679266792
H -5.9815929065 -1.2778950721 -2.7970191653
H -4.6521496988 -0.4140014914 -3.5575566145
H -5.9992685161 0.4141694362 -0.9354082488
H -4.6220968354 1.2284549012 -1.6738935232
H -4.6368826962 -1.6590121945 -0.6888935649
H -2.8383538989 -1.6735094963 -2.2866477546
H -2.4456167507 0.0303027386 -1.9564358232
H -2.0521355458 -2.3640439687 -0.0832642026
H -4.3072362666 -0.6911815203 1.3766026701
H -3.9751640783 0.9127139121 0.6965961062
H -2.1549686829 -0.0598194636 2.7907604062
H -0.7944414949 -0.9476673305 2.0860891777
H -2.3556870766 -1.7757282950 2.3437304462
H -0.4671945974 0.6615169720 0.0845311888
H 1.8509302759 -0.2298328123 -1.5665445215
H 3.2845599262 0.9710748592 0.2385480031
H 3.6530498992 -1.3393451671 -0.1991716448
H 4.1129901569 -2.1496132713 2.1697079638
H 3.7782328916 -0.3900003564 3.9694390757
H 1.7213223862 1.0916039449 3.5543341437
H 3.3187899520 4.4718450003 2.3133793360
H 2.3848644381 3.4281596232 1.2101361571
H 1.8372303757 3.6670487097 2.9004451014
H 1.6395448988 -1.7546159647 2.7416993405
H 4.9703106740 0.4956137946 1.6083330538
H 1.5029506060 -2.2190932354 0.0225908663
H 1.0405110930 2.5305931715 -0.5363235705
H 0.9669006965 1.3177694908 -3.3552214615
H -0.4566345749 1.7067600880 -2.3704074484
H 0.6001965398 3.0106365742 -2.9449387018
H 3.1115790523 1.8904567674 -2.3406581284
