47
CONF17
C 3.5470904555 -3.2522021744 -3.3559354208
C 3.7233471988 -2.0541074531 -2.5127332341
C 2.8834574431 -1.3241496719 -1.7099035836
C 3.7198459805 -0.2945446710 -1.1785587299
N 4.9528148282 -0.3923200204 -1.6201092432
O 4.9508461210 -1.5041930782 -2.4792712050
C 3.3710521509 0.7813238401 -0.2353841258
C 3.3948615844 2.1184654405 -0.6366836952
C 3.0362986816 3.1668081369 0.1911541802
C 2.6353256931 2.8718473601 1.4889368547
C 2.5987137664 1.5574902112 1.9466702341
C 2.9662039342 0.5345715626 1.0841640109
Cl 2.9262845140 -1.1168102186 1.6655149405
F 3.7594907317 2.3929963256 -1.9053357855
C 1.4641348533 -1.6313013924 -1.4580557369
O 1.0196820620 -2.7745332596 -1.5732686123
N 0.6903753782 -0.5668895280 -1.0954590866
C -0.6531126079 -0.7122825460 -0.6371578341
C -0.9980965382 -0.2896146971 0.8341376061
N -1.9110246745 0.7166876502 0.2786923396
C -1.6811266718 0.3704460432 -1.0449156115
O -2.1462532067 0.7835684050 -2.0815718046
C -3.1630694810 0.9427171658 0.9620118510
C -3.6331339601 -0.4695954007 1.4758410546
S -2.0361312450 -1.3626766683 1.9110157373
C -4.3526184796 -1.1984101302 0.3412433045
C -4.5149209897 -0.4118278051 2.7184975327
C -2.9652126368 1.9418197538 2.0917093800
O -1.9339575665 2.0813407401 2.7109545430
O -4.0880007096 2.6399156875 2.3215146877
H 4.2556787810 -3.2372183023 -4.1868396302
H 3.7248320315 -4.1556670586 -2.7618624494
H 2.5246316949 -3.2953782660 -3.7330792602
H 3.0685827769 4.1836036331 -0.1827223976
H 2.3475114407 3.6760679352 2.1571810239
H 2.2917875379 1.3298595914 2.9604277827
H 1.1060861483 0.3532291589 -1.0518489181
H -1.0213116174 -1.7133547630 -0.8772458629
H -0.1586960532 0.1143598980 1.4056626074
H -3.9050946051 1.3321977517 0.2581944916
H -4.5825923742 -2.2228761241 0.6448065967
H -3.7470315296 -1.2424875978 -0.5682904486
H -5.2914328955 -0.6816483599 0.1111605499
H -4.7866483248 -1.4256248762 3.0251527058
H -4.0146417934 0.0791308211 3.5573106551
H -5.4374788995 0.1298785698 2.4867071958
H -3.9373494463 3.2313878676 3.0803700009
