47
CONF171
C -7.2099652568 -2.1800880045 -1.4241811058
O -6.1088105369 -1.7038507136 -2.2585883861
P -5.4432824016 -0.2812897554 -1.9833293305
S -3.9815511893 0.1066111296 -3.1918934481
O -6.7155653914 0.6850853507 -1.9702245182
C -6.5377089788 2.1139430904 -1.7594737116
O -5.0656684297 -0.2485540054 -0.3942650482
C -3.8533902374 -0.7443459870 0.0855710751
C -2.9912051738 0.1515896716 0.7069797505
C -1.8033547616 -0.3160587442 1.2517834726
C -1.4694043659 -1.6692465805 1.1419436041
C -2.3419696710 -2.5544938472 0.5068294929
C -3.5485673175 -2.0950214350 -0.0128126122
S 0.0179809503 -2.3304820148 1.8821171647
C 1.2656433806 -1.1410815075 1.4060973064
C 1.2970043088 -0.5707384916 0.1304331467
C 2.3175668397 0.3068803709 -0.2120942272
C 3.3122536653 0.5854567896 0.7173632322
C 3.3038009356 0.0209434206 1.9847460903
C 2.2663899400 -0.8389373611 2.3322875382
O 4.3076185385 1.5109732607 0.3792222003
P 5.7394206442 1.0247310266 -0.2065883449
S 5.7296581082 -0.1279465856 -1.7626752811
O 6.3927232815 0.4303307671 1.1348311845
C 7.6733278225 -0.2577147957 1.0696865664
O 6.4436727940 2.4270372380 -0.4962097262
C 6.5964192389 3.4112089695 0.5722617170
H -6.9316726714 -2.1320885008 -0.3680513518
H -7.3731363481 -3.2148964994 -1.7230866544
H -8.1035180213 -1.5822055816 -1.6140164987
H -5.8990424503 2.5289896210 -2.5435329876
H -7.5362919357 2.5456668577 -1.8165528395
H -6.1024485189 2.2961769414 -0.7733065885
H -3.2607791059 1.2003745674 0.7708360814
H -1.1329578265 0.3741059031 1.7529783618
H -2.0821935321 -3.6038244010 0.4141065847
H -4.2335492181 -2.7794784105 -0.5019153120
H 0.5262508291 -0.8066409643 -0.5955370302
H 2.3532989604 0.7637979625 -1.1948736981
H 4.0839910322 0.2676966765 2.6957216864
H 2.2352345401 -1.2676136387 3.3286549954
H 7.9026055655 -0.5464068527 2.0951470851
H 7.5889802994 -1.1423285548 0.4336797354
H 8.4452589905 0.4150856645 0.6855219831
H 5.6157033995 3.7762019368 0.8853848364
H 7.1303856482 2.9706838000 1.4177813847
H 7.1808425264 4.2217624018 0.1382884208
