39
CONF323
C 6.1471836193 3.3570135309 1.0133373809
C 6.8736752700 2.1915033002 1.6835743727
C 6.0507774546 0.8999171454 1.7272442690
C 5.7042978766 0.3509050768 0.3423607942
C 5.1316047215 -1.0750079979 0.3365262798
C 4.8174171349 -1.5262777315 -1.0975359198
C 4.4859857306 -3.0099319745 -1.2408411503
C 3.9313555932 -1.2148397196 1.2662592465
O 2.9169914958 -0.2282879217 0.9090170898
C 1.8005067132 -0.6749125768 0.3032455195
O 1.5321968971 -1.8295382242 0.0772913614
C 0.8904617471 0.4768782705 -0.0000510515
C 0.6620773741 1.4011213742 1.0140211979
C -0.2502691755 2.4295038850 0.8430016040
C -0.9420104831 2.5691245162 -0.3639222128
C -0.6912564601 1.6582556216 -1.4061341405
C 0.2229164304 0.6117342004 -1.2214121176
Br 0.6305722733 -0.5721547214 -2.6448143172
Br -1.5903185969 1.8531090943 -3.0596114497
Br -2.1860870603 3.9734680117 -0.5832743686
Br -0.5068140808 3.6193050299 2.3001761106
H 5.1790391922 3.5419668966 1.4926135276
H 6.7345687421 4.2776669629 1.0799089948
H 5.9607887535 3.1617115781 -0.0468413173
H 7.8201611157 1.9983371059 1.1614711948
H 7.1401176261 2.4742096237 2.7092883559
H 6.6115325176 0.1384187886 2.2874617184
H 5.1296830444 1.0916214001 2.2937640567
H 6.6107213757 0.3514939662 -0.2783409405
H 4.9884871371 1.0157172911 -0.1554220944
H 5.8938957269 -1.7543487318 0.7511754344
H 5.6880890048 -1.2863375446 -1.7204635629
H 3.9909786923 -0.9197064590 -1.4926114073
H 3.5503946489 -3.2667239490 -0.7369734646
H 4.3685569669 -3.2771995710 -2.2951607712
H 5.2866791093 -3.6328499939 -0.8264269439
H 4.2010043144 -0.9839971013 2.2997419214
H 3.4896916908 -2.2123924292 1.2219971131
H 1.1949940035 1.3033180445 1.9508786405
