94
CONF74
C 8.6873449742 -1.4319760640 -4.9653634460
C 7.7084950189 -1.8365505016 -3.8797408962
C 6.5632013059 -2.7051354768 -4.4122227126
C 5.5944436919 -3.0889187081 -3.3418656802
C 4.4244833383 -2.4529057600 -3.1373380715
C 3.5175886035 -2.7337194957 -2.0608372825
C 2.4108044795 -1.9898520121 -1.7975695455
C 1.5123938534 -2.2439140200 -0.7149088327
C 0.4523848575 -1.4520468469 -0.4050498320
C -0.4522744265 -1.7114239065 0.6795521681
C -1.4495097167 -0.8800589075 1.0363827534
C -2.3426313483 -1.1234342520 2.2076225163
C -2.0664537978 -0.1809878697 3.3820331666
C -2.1479294936 1.2912895954 2.9837866199
C -2.7118999774 2.1922040137 4.1018694117
C -2.6506183898 3.6610770775 3.6448103852
C -1.2280922416 4.0091143985 3.2262302089
C -0.7205053657 3.0460543900 2.1517529059
O -0.8196406526 1.7002354484 2.6462039120
C 0.7631397502 3.2463599331 1.8399102215
C 1.3165841022 2.2839854972 0.7882988177
C 2.8256132943 2.4574499125 0.6265563022
C 3.3766683057 1.6567678488 -0.5207370993
C 4.6493692969 2.0537355229 -1.1588420928
O 3.3709876029 2.2945867691 -1.8080962977
C 5.4978813052 1.0607859040 -1.8187754674
C 6.8364564662 1.0778674975 -1.7626375132
C 7.6835454280 0.0279322572 -2.3539381566
O 8.8238317297 -0.2003625765 -1.9826161435
O 7.0554357132 -0.6469471342 -3.3325456689
O 0.6368202616 2.4432660411 -0.4820247342
O -1.5330477257 3.2308235118 1.0082467583
O -3.1445096343 4.5434074744 4.6562787624
C -4.1460021263 1.8165609784 4.3726637786
O -5.0142519086 1.7636566993 3.5221284091
O -4.3764078281 1.5396818962 5.6708843764
O -3.7383868064 -0.8743538434 1.9027647905
C -4.3419775191 -1.6676029100 0.9299470756
C -5.8518674126 -1.5828676037 1.1805406444
C -6.5988856727 -2.2817725544 0.0413328418
C -6.1175063566 -1.7687270172 -1.3182697322
C -4.5990742416 -1.8961580772 -1.4251675127
O -4.0034407539 -1.1448616055 -0.3530343237
C -4.0440048757 -1.3447030864 -2.7207547668
O -6.7117967199 -2.5367962382 -2.3670564642
N -8.0607757529 -2.1708222041 0.0963470388
O -6.2871709096 -0.2258855300 1.2462020981
H 9.4723604448 -0.7884554135 -4.5616554841
H 8.1655969691 -0.9008969007 -5.7676655316
H 9.1548388865 -2.3268309674 -5.3871893455
H 8.2251559224 -2.3415135914 -3.0564424416
H 7.0190754211 -3.5946301980 -4.8633761636
H 6.0534543765 -2.1490228173 -5.2080050534
H 5.8944832279 -3.8835985898 -2.6580876143
H 4.1443515963 -1.6446711050 -3.8150169497
H 3.7549119613 -3.5764402131 -1.4106171440
H 2.1899047859 -1.1347047083 -2.4385577828
H 1.7056849991 -3.1256142709 -0.1025662982
H 0.2698097187 -0.5574741703 -1.0018556278
H -0.3019441307 -2.6340391960 1.2423901784
H -1.6031071336 0.0472861584 0.4882268581
H -2.2348356558 -2.1642138788 2.5472687020
H -2.8023947781 -0.4096803569 4.1615484417
H -1.0743032727 -0.3861191238 3.7956368084
H -2.8007271842 1.4079849253 2.1099137165
H -2.1121026892 2.0695046450 5.0120046619
H -3.3308433213 3.7870629473 2.7961410982
H -0.5647276202 3.9407406599 4.0973159582
H -1.1968777231 5.0336245437 2.8432749376
H 0.9106231222 4.2802598827 1.5037933479
H 1.3299794898 3.1157169876 2.7682728952
H 1.0970799620 1.2510358674 1.0801738888
H 3.3146776597 2.1372900649 1.5549897285
H 3.0700881360 3.5166622753 0.4723534059
H 3.1023027406 0.5994849993 -0.5535356633
H 5.1391404139 2.9520362311 -0.7813037308
H 4.9794791715 0.2690297850 -2.3552037133
H 7.3699228300 1.8381906154 -1.1986076335
H 0.9461549490 3.2675744089 -0.8853722504
H -1.0317182916 2.8724395132 0.2507439060
H -2.5399748915 4.5017563856 5.4098821321
H -5.3186497687 1.3153642355 5.7700459490
H -4.0054959099 -2.7204007191 0.9984569421
H -6.0660553124 -2.1021238276 2.1293468102
H -6.3402066416 -3.3495887203 0.0920840702
H -6.3840498615 -0.7038280214 -1.4250050124
H -4.3290969756 -2.9620287250 -1.3192734514
H -4.4536295916 -1.8957964392 -3.5704157117
H -4.3099571673 -0.2877476273 -2.8258789270
H -2.9542226106 -1.4381051281 -2.7342197635
H -7.6316372202 -2.6712778751 -2.0884378674
H -8.4193931099 -2.7032369183 0.8823467864
H -8.3092673956 -1.2007279225 0.2699682301
H -5.7426704431 0.2256628650 1.9091558211
