37
CONF13
C 1.0969012120 -0.3545290012 -2.0098279192
Si 0.3675058456 -0.2120264124 -0.2930398019
C -0.2540514036 -1.9512557456 0.2149692687
N -0.9825607261 -2.6079018152 -0.8635653973
C -0.6138354969 -3.6674160070 -1.6073453247
N -1.5212486760 -3.9096662464 -2.5506814738
C -2.4436710436 -2.9358051160 -2.3300269127
N -2.1595519394 -2.1172887255 -1.3206687465
C 1.6773910835 0.2659469667 0.9691057073
C 2.7966438952 -0.5603230464 1.1644772834
C 3.7993823600 -0.2287930754 2.0705070467
C 3.6657995302 0.9506309391 2.7849328759
F 4.6376512075 1.2844681463 3.6714936089
C 2.5864132994 1.8028866472 2.6318223695
C 1.5963508921 1.4487307423 1.7178292315
C -1.0479654710 1.0147469927 -0.2386127373
C -1.3444290590 1.8385959334 -1.3331312679
C -2.4034136229 2.7435411653 -1.2988723705
C -3.1641780162 2.8102753935 -0.1450449127
F -4.2011580192 3.6847295642 -0.0994057281
C -2.9153277409 2.0215629532 0.9665281480
C -1.8528873094 1.1253868063 0.9061716439
H 1.5284511276 0.5967363671 -2.3375560644
H 0.3363916626 -0.6588481167 -2.7375561389
H 1.8938351872 -1.1063954283 -2.0152790812
H 0.6041309351 -2.5867034685 0.4576763829
H -0.8927331369 -1.9051174891 1.1044692193
H 0.2989976843 -4.2202692846 -1.4278233341
H -3.3468755457 -2.8218334737 -2.9162957281
H 2.9013373866 -1.4832507648 0.5992490792
H 4.6653730570 -0.8638267649 2.2236551914
H 2.5270576951 2.7175940322 3.2119942227
H 0.7475386179 2.1143236350 1.5890610688
H -0.7474844914 1.7785669829 -2.2385153232
H -2.6383768675 3.3805260510 -2.1448202538
H -3.5409374524 2.1091688231 1.8483153937
H -1.6564654597 0.5028310517 1.7758105787
