63
CONF64
C 3.6172821459 0.1862891797 0.2564959326
C 2.9907594767 -0.6453130860 -0.8585624466
N 1.5773846546 -0.2989378854 -1.0514010054
C 1.4571580066 1.1115899911 -1.4378714591
C 2.0135305757 2.0253167396 -0.3494041133
C 3.4742841819 1.6711574711 -0.0753751249
N 4.0783858798 2.5321796104 0.9409567433
C 3.7206913449 2.6758915947 2.2795088778
C 2.7268256346 2.0944162632 3.0579737860
C 2.6463180431 2.4754874400 4.4008643966
C 3.5293734927 3.4066677019 4.9504699633
C 4.5304912278 3.9940470841 4.1729402845
C 4.6087569632 3.6162331882 2.8429048733
N 5.4685048149 4.0073891028 1.8334675403
C 5.1667662097 3.3545692612 0.6531075745
O 5.7399764798 3.4742925359 -0.4285726743
C 0.9882027414 -1.1875694916 -2.0634953699
C -0.5177577162 -1.0156717952 -2.2543443918
C -1.3099707417 -1.1267503765 -0.9542007368
C -2.8280076360 -1.0521765641 -1.1852615387
C -3.3226531527 -2.2327489500 -2.0061110042
C -3.2968499863 -3.5269934138 -1.4762017464
C -3.7208203190 -4.6206618556 -2.2238704800
C -4.1769299956 -4.3948348985 -3.5126949119
C -4.2265895637 -3.1333628244 -4.0764530219
C -3.7934012393 -2.0533831356 -3.3079132738
F -4.5926958433 -5.4594516370 -4.2520920223
C -3.6388866886 -0.9258293047 0.0950019473
C -4.9305990511 -0.3907977398 0.0235269232
C -5.7380430318 -0.2868461355 1.1509520415
C -5.2286961531 -0.7321047937 2.3598437255
C -3.9589270452 -1.2640216894 2.4818796398
C -3.1674058525 -1.3569973357 1.3369680028
F -6.0096376331 -0.6395497734 3.4710150467
H 4.6770642426 -0.0721160744 0.3587936760
H 3.1207945064 -0.0455784365 1.2049581563
H 3.0578069979 -1.7098640197 -0.6067519585
H 3.5662677630 -0.4926382181 -1.7954839776
H 1.9871584345 1.3067967967 -2.3938088254
H 0.4017128003 1.3521041600 -1.5970483135
H 1.4129303971 1.9051010817 0.5585747952
H 1.9366185668 3.0703289793 -0.6689928327
H 4.0508349813 1.8724677405 -0.9866175472
H 2.0306511743 1.3704802613 2.6541141208
H 1.8769108208 2.0331387662 5.0252095316
H 3.4397435827 3.6805620083 5.9965264619
H 5.2219943980 4.7186862814 4.5895469569
H 6.2263857855 4.6668601106 1.9141834574
H 1.1826869465 -2.2183632690 -1.7385940694
H 1.4921104335 -1.0582928273 -3.0427807444
H -0.7451326196 -0.0611164717 -2.7456604776
H -0.8422458885 -1.7973362909 -2.9526841587
H -1.0497934206 -2.0702143723 -0.4565897287
H -1.0185901332 -0.3190534155 -0.2728882951
H -3.0248668836 -0.1482126011 -1.7760518749
H -2.9440235843 -3.6882715069 -0.4613252415
H -3.7028000623 -5.6273581244 -1.8201025347
H -4.5922279259 -3.0004491270 -5.0890371052
H -3.8205381481 -1.0548804841 -3.7350609650
H -5.3134867217 -0.0501971915 -0.9350484489
H -6.7380000149 0.1304592495 1.0991361078
H -3.5965654746 -1.5969840611 3.4486338093
H -2.1702177756 -1.7725459016 1.4307989901
