64
CONF819
C 8.6446847348 3.5755511702 0.4066262560
C 8.6063309595 2.2476612886 -0.3194798985
O 9.3301065391 2.0439188595 -1.3049576985
N 7.7638150541 1.2945957100 0.1614573231
C 6.7912031450 1.4785198247 1.2352559699
C 5.3754573571 1.3328056868 0.6881279443
N 5.2106695090 0.0293079563 0.0208438460
C 6.1807129775 -0.1208791349 -1.0648514243
C 7.6004274577 0.0140247813 -0.5218235882
C 3.8682519954 -0.3096558911 -0.2841172013
C 2.9285218596 -0.3937081483 0.7526215691
C 1.6050881001 -0.7490649516 0.5135418151
C 1.1925033615 -1.0477412083 -0.7872931226
O -0.0836841135 -1.4142916889 -1.1329375809
C -1.0618256596 -1.4750734139 -0.0926768905
C -2.3785779243 -1.8234432834 -0.7688628640
C -2.9576431551 -0.6756957013 -1.5842112081
O -3.6786332810 0.0631280031 -0.5800216156
C -4.2674825761 -0.9124249756 0.2544547649
C -4.3386766949 -0.3365995919 1.6798641675
N -5.3546861177 0.6934471040 1.7951279875
C -5.2793495811 1.9847470695 1.3168884639
C -6.5193744674 2.5292880706 1.5301645862
N -7.3581982682 1.6033451183 2.1186523134
C -6.6262031723 0.5124403179 2.2550230095
O -3.3680215258 -2.0271572022 0.2615186887
C -5.6477487340 -1.3214537943 -0.2713754718
C -6.2702808737 -0.5120684934 -1.2253703886
C -7.5412887495 -0.7819405816 -1.7146443186
C -8.2128233894 -1.8938208475 -1.2268834529
Cl -9.8211389336 -2.2654437053 -1.8218275486
C -7.6468843276 -2.7238995012 -0.2698608179
C -6.3726013121 -2.4206833208 0.1993755984
Cl -5.7399792458 -3.4884010121 1.4459188269
C 2.1162771383 -0.9833303398 -1.8290077521
C 3.4331834014 -0.6108911492 -1.5841830768
H 9.4114487509 4.1923791283 -0.0610601199
H 8.8823087064 3.4498742076 1.4672886747
H 7.6819092305 4.0918716538 0.3373829204
H 6.9672292774 0.7140056859 2.0047367084
H 6.9019188780 2.4590181396 1.6965730122
H 5.1730998707 2.1581500402 -0.0201025119
H 4.6698661586 1.4163871184 1.5174279160
H 6.0719909743 -1.1157286141 -1.5089846328
H 6.0290120256 0.6313433654 -1.8619756598
H 8.3209670903 -0.0461024020 -1.3381390323
H 7.7990683419 -0.7956091651 0.1933810771
H 3.2360002077 -0.1977944450 1.7750136257
H 0.9193673106 -0.8069114263 1.3505113125
H -1.1507537921 -0.5062172249 0.4196656292
H -0.8023410524 -2.2492012370 0.6416271127
H -2.2808358366 -2.7448042060 -1.3520872713
H -2.2012882449 -0.0160103613 -2.0122928534
H -3.6384883004 -1.0353343521 -2.3660135105
H -4.5765612825 -1.1401583224 2.3796436965
H -3.3547111198 0.0729339843 1.9259943678
H -4.3711656633 2.3803488284 0.8892040730
H -6.8504620014 3.5329420280 1.3009430159
H -6.9482542148 -0.4293648302 2.6826334986
H -5.7370257245 0.3581783781 -1.5898547743
H -7.9970591169 -0.1369026573 -2.4564233877
H -8.1833747584 -3.5840232216 0.1112923275
H 1.7916388977 -1.2152164001 -2.8387712388
H 4.1143637833 -0.5531666164 -2.4246153899
