38
CONF2
C 1.7600894812 -2.4156218538 -2.5358670490
N 1.6968109775 -1.1937463633 -1.7326992043
C 2.9201575624 -0.4128400445 -1.9207839238
C 0.5039568609 -0.4229005101 -2.1031277949
C 0.2430264045 0.7871807708 -1.2098937353
C 0.1775561269 0.4277599173 0.2834171699
C -0.9151495727 -0.5853837983 0.5777791322
C -2.2556993248 -0.3074721994 0.2932596973
C -3.2555508677 -1.2381046919 0.5562160595
C -2.9005514007 -2.4617481849 1.1119651503
Cl -4.1603216584 -3.6516188882 1.4453381261
C -1.5808276425 -2.7710996443 1.4098278008
C -0.5963482494 -1.8234796106 1.1383761026
C 0.0123939220 1.6539595309 1.1631974459
C 0.7293850175 1.7560547076 2.3589413054
C 0.5466375185 2.8697282514 3.1682482565
C -0.3493971356 3.8535598567 2.7617050293
C -1.0191491057 3.6720252673 1.5571759012
N -0.8497750629 2.6023072319 0.7683306583
H 2.6313448751 -3.0097240448 -2.2404155771
H 0.8590791890 -3.0158074688 -2.3690674269
H 1.8389844552 -2.2062009883 -3.6206415709
H 2.9290887323 0.4584431545 -1.2589310531
H 3.0359485495 -0.0565752498 -2.9633008845
H 3.7884455116 -1.0320173639 -1.6732130639
H -0.3563181916 -1.1020461160 -2.0392127992
H 0.5654320379 -0.0796772555 -3.1561433565
H -0.7024596955 1.2411594959 -1.5223428645
H 1.0134848845 1.5537623461 -1.3522804893
H 1.1268482348 -0.0396086982 0.5614424932
H -2.5288797073 0.6507727708 -0.1367049494
H -4.2926530934 -1.0145114825 0.3320261383
H -1.3215486821 -3.7306931660 1.8429989483
H 0.4394702104 -2.0586139957 1.3656710961
H 1.4205307421 0.9684529666 2.6431702559
H 1.0958230943 2.9698335852 4.0994021554
H -0.5245149411 4.7420145001 3.3587242145
H -1.7253505487 4.4224775517 1.2049477191
