57
CONF69
C -4.2226924839 -1.3873957535 -2.5594379030
C -4.9612354895 -0.5987689264 -1.4801122620
C -3.9950524058 0.3382541427 -0.7621236837
N -2.8943543896 -0.4212973791 -0.1422597471
C -2.1233567452 -1.1121725115 -1.1866630732
C -3.0167995394 -2.0938561302 -1.9454156857
C -2.1167362985 0.4109044039 0.8163230631
C -1.5130391445 1.6837727075 0.1896970022
C -0.5013324865 2.4127543416 1.0777923984
N 0.5241712103 1.5005825136 1.5914852142
C -0.0970577311 0.4258260854 2.3651941536
C -0.9705474374 -0.4127290268 1.4398166124
C 1.5683149065 2.2025159946 2.3315877540
C 2.5151998117 2.9727071312 1.3937849267
C 2.6755037619 2.2800871022 0.0313165759
C 2.8494249271 0.7850052423 0.1593350470
O 3.5361880908 0.3151476792 1.0632274402
C 2.2318643694 -0.1235650498 -0.8536448219
C 2.1798691764 -1.4951887779 -0.5702203925
C 1.6112837145 -2.3901167429 -1.4642701853
C 1.1145393503 -1.8910991720 -2.6590870750
C 1.1626131718 -0.5480149612 -2.9911390400
C 1.7187519529 0.3356794105 -2.0730137410
F 0.5547046817 -2.7562387891 -3.5381412090
C -3.1034924586 0.7774220946 1.9606722664
O -3.2007840728 1.9135566603 2.4256083727
N -3.8090650042 -0.2703811260 2.4433988603
H -4.8908232285 -2.1094470894 -3.0423576292
H -3.8773143727 -0.6929411024 -3.3382611626
H -5.7765824959 -0.0095548695 -1.9155235671
H -5.4048045762 -1.2883908892 -0.7497769453
H -4.5248765507 0.8999304439 0.0164258469
H -3.6125559237 1.0771077755 -1.4917110680
H -1.3030071876 -1.6719163002 -0.7337384655
H -1.6764636779 -0.4010130150 -1.9087066443
H -2.4174466671 -2.5867064023 -2.7199008191
H -3.3592700302 -2.8709573068 -1.2496036060
H -1.0098660286 1.3816265648 -0.7372278304
H -2.3057127215 2.3889855554 -0.0769695682
H -0.0144423463 3.1953435718 0.4841932251
H -1.0242952948 2.9127292714 1.9103761552
H 0.6969952808 -0.2092396002 2.7753065232
H -0.6807656716 0.8174552139 3.2223050961
H -0.3137331007 -0.7690398327 0.6417653939
H -1.3723289417 -1.2850026143 1.9655646977
H 1.1487525638 2.8924535600 3.0881158266
H 2.1462069638 1.4460893674 2.8712804907
H 2.1510487062 3.9896140852 1.2132649894
H 3.4842081599 3.0703631164 1.8925279651
H 1.8188444116 2.5076677450 -0.6040742688
H 1.5472607293 -3.4512696678 -1.2491623573
H 0.7673206493 -0.2072185182 -3.9416737585
H 1.7583693386 1.3881513306 -2.3288459613
H -4.5317982568 -0.0959876253 3.1246537800
H -3.8441241560 -1.1187003545 1.8964208078
H 3.5651746919 2.6739589040 -0.4807546692
H 2.5805712577 -1.8502346495 0.3730054818
