48
CONF14
C -3.7252427473 -2.0520053992 -0.9143736656
C -3.7823554996 -0.5325410866 -0.6975604865
C -5.2335324853 -0.0534139231 -0.8605408284
C -2.9155808116 0.1628097876 -1.7566838555
C -3.3254570097 -0.1573426162 0.7334211068
C -1.8047288573 -0.3648248055 0.9660480941
N -1.4881526353 -0.5301585795 2.3884262442
C -1.4671903843 0.4091894121 3.3578427319
N -1.1794089745 -0.1525356355 4.5260579976
C -1.0383487559 -1.4692526180 4.2016930161
N -1.2168574782 -1.7480910294 2.9167226872
O -1.1622856375 0.7971725060 0.4889857383
C 0.1799341793 0.7373569982 0.1793901877
C 1.0074787464 -0.3528086469 0.4428720184
C 2.3467885268 -0.2927303003 0.0662212124
C 2.8860062637 0.8355322295 -0.5608690307
C 2.0306100720 1.9222637058 -0.8015067229
C 0.6939362932 1.8778274472 -0.4390722180
C 4.3088393783 0.8817071543 -0.9562877335
C 4.9571932647 -0.2637533865 -1.4414175293
C 6.2972212580 -0.2209289457 -1.8124793760
C 7.0177789133 0.9674976423 -1.7091730753
C 6.3850685446 2.1130607686 -1.2300416731
C 5.0455245984 2.0711307822 -0.8566991683
O -4.0738688711 -0.9509502697 1.6497352943
H -4.3766919853 -2.5796270823 -0.2134318512
H -4.0599985165 -2.2807170921 -1.9314243467
H -2.7087769650 -2.4453520732 -0.8067524856
H -5.5980551615 -0.3106886664 -1.8603586775
H -5.8898013914 -0.5233751612 -0.1231481663
H -5.3000291940 1.0340738817 -0.7424302769
H -1.8880728178 -0.2143638504 -1.7625713185
H -2.8836327908 1.2459480641 -1.6011839552
H -3.3455539721 -0.0298518938 -2.7450838480
H -3.5229955773 0.9134422272 0.8955969221
H -1.4481867044 -1.2722117787 0.4671675348
H -1.6515927663 1.4584182060 3.1677539730
H -0.7946793140 -2.2396787540 4.9224792340
H 0.6431398310 -1.2385774676 0.9488999142
H 2.9869916345 -1.1392709519 0.2937993748
H 2.4093226960 2.8055344982 -1.3060566470
H 0.0315226246 2.7126751123 -0.6435124152
H 4.4001178604 -1.1894491618 -1.5496964859
H 6.7776873981 -1.1171139375 -2.1933431040
H 8.0629927845 1.0006500055 -2.0000571190
H 6.9392917486 3.0421925516 -1.1374012054
H 4.5713255029 2.9648304052 -0.4624607362
H -4.0976936244 -0.4996013814 2.5025054500
