38
CONF10
C -6.0772497912 -1.9556753600 -1.2310900387
C -4.9571989103 -1.4062237589 -0.3588522186
C -5.5663777536 -0.6086524647 0.7961795050
O -5.8547451713 0.5593707221 0.7582089237
O -5.7855807211 -1.4234369516 1.8526939301
C -6.4407246489 -0.7901601206 2.9764029920
O -4.1678821294 -0.5654911675 -1.1866528355
C -3.0067913088 -0.0582060114 -0.6699708691
C -2.2917961298 0.7826436000 -1.5281891378
C -1.0934712327 1.3398254087 -1.1177081909
C -0.6124726783 1.0513929527 0.1524296073
C -1.3097540248 0.2304135504 1.0158119014
C -2.5186886869 -0.3318860858 0.6078763343
O 0.5598917572 1.6701091163 0.6161887465
C 1.7447319735 1.1956609263 0.1798102694
C 2.9073500117 1.8655479733 0.6158559101
C 4.1336677503 1.3979424995 0.1974323404
C 4.1755680787 0.2829020790 -0.6448461809
C 2.9806971432 -0.3102751515 -1.0224889174
N 1.7915411892 0.1420256133 -0.6146005191
C 5.5003238083 -0.2554255488 -1.0857516588
F 6.1681861025 -0.8442028158 -0.0599913248
F 6.3089026224 0.7263643717 -1.5561098873
F 5.3737995793 -1.1799140586 -2.0614133609
Cl 2.7926295771 3.2517087449 1.6594029482
H -5.6490701811 -2.5165136957 -2.0651007628
H -6.6763453816 -1.1311216754 -1.6257328338
H -6.7177499754 -2.6205061516 -0.6462167449
H -4.3529020950 -2.2295964841 0.0460711993
H -6.5389295951 -1.5682077378 3.7326090535
H -5.8331200127 0.0392398443 3.3466399695
H -7.4215226413 -0.4117574791 2.6777569835
H -2.6972176936 0.9887413137 -2.5122607307
H -0.9133720281 0.0309789347 2.0051594698
H -3.0556966330 -0.9702229045 1.2990561005
H 5.0438344408 1.8939752185 0.5157780376
H 2.9700012827 -1.1777306280 -1.6761201005
H -0.5299116194 1.9931557428 -1.7744136768
