41
CONF29
C 0.1904736724 -3.3731678763 -1.2995502761
C -0.3130051101 -2.0366066933 -0.8879570139
C -1.5338170596 -1.7032980412 -0.3698808995
C -1.5147899324 -0.3026214000 -0.0433974750
C -0.2351452346 0.1956681723 -0.3711690627
N 0.5118136544 -0.8899083217 -0.8811570242
C 1.8055796163 -0.8410020345 -1.4169168868
O 2.1375225316 -1.5554501873 -2.3522059834
C 2.7694939703 0.0745556217 -0.7569799754
C 3.7365559993 0.7095036072 -1.5406065049
C 4.6995857468 1.5169683185 -0.9517202019
C 4.6987951351 1.6538354971 0.4333174607
C 3.7636558666 1.0103531255 1.2379660770
C 2.7904977586 0.2266519188 0.6328956406
Cl 5.9186864688 2.6634604874 1.1884076071
C 0.0537760580 1.5481558631 -0.2621436250
C -0.9280959371 2.3977759373 0.2483589342
C -2.1875265464 1.8996287248 0.6213861059
C -2.4931951754 0.5473948363 0.4659396867
O -3.1896071392 2.6754604682 1.1357068588
C -2.9315330962 4.0740518655 1.2996238713
C -2.6906328635 -2.6066197773 -0.1266669225
C -2.8470128065 -3.0045094800 1.3265749483
O -2.0517916054 -2.7866761665 2.2139881139
O -4.0077245899 -3.6671155794 1.5215017098
H -0.5031934373 -4.1423797203 -0.9552693765
H 1.1720502543 -3.5768097649 -0.8613561643
H 0.2961196457 -3.4555741879 -2.3848054698
H 3.7236978841 0.5778763186 -2.6173054870
H 5.4406291414 2.0281162458 -1.5552049595
H 3.7949560464 1.1206753033 2.3156566050
H 2.0523062267 -0.2777279622 1.2476061138
H 1.0100495934 1.9628384518 -0.5548596218
H -0.6971436848 3.4507573332 0.3449848972
H -3.4818636028 0.1848106186 0.7296610993
H -3.8445826937 4.4952127805 1.7217751476
H -2.7181941465 4.5529643881 0.3364237255
H -2.0962053472 4.2442542407 1.9894878260
H -2.6158552309 -3.5338304091 -0.7055322782
H -3.6292371536 -2.1359148188 -0.4445940724
H -4.0560931734 -3.9217572166 2.4586573758
