51
CONF106
C 1.8631872858 0.4618637111 1.4307805238
C 2.6016078831 0.1872764224 0.1459623336
C 2.0753688572 0.6493818072 -1.0759781417
C 2.7156869897 0.3649095128 -2.2816263374
C 3.8858961113 -0.3851337895 -2.2994471686
C 4.4207249004 -0.8359862765 -1.1012670823
C 3.8036799214 -0.5482325368 0.1244097866
C 4.4621109026 -1.0342775288 1.3626209859
C 4.7971578369 -2.3871810256 1.4978438192
C 5.4476951015 -2.8483314445 2.6389063490
C 5.7816217102 -1.9625700537 3.6608124117
C 5.4615184408 -0.6122061354 3.5329837650
C 4.8064470187 -0.1524431179 2.3948474208
C 0.8092757534 1.4499504046 -1.1088145960
O -0.3118490468 0.5145905493 -0.9668800714
C -1.5377087117 1.0788167235 -0.9327406934
O -1.7305493493 2.2758048115 -1.0345864486
C -2.5743420024 0.0403876777 -0.7467557273
C -4.0182194709 0.3945642509 -1.1105741128
C -3.6342711657 0.1612705417 0.3389784616
C -3.6565907440 1.3667923390 1.2499719324
C -4.0298060235 -1.1251815417 1.0295833034
C -4.7978288955 -0.5822104640 -1.8688980496
C -5.7685019907 -0.3015764987 -2.7446019841
C -6.2038757667 1.1052117861 -3.0825358962
F -6.5160482012 1.8064620474 -1.9622601272
F -7.2782863346 1.1508131927 -3.8877442197
F -5.2101835661 1.7950833596 -3.7036299791
Cl -6.6025795308 -1.5775804891 -3.6030272004
H 2.1837189678 -0.2156838414 2.2230283685
H 0.7854465695 0.3450254734 1.2947689290
H 2.0409685381 1.4859729292 1.7810064451
H 2.2889653271 0.7354143773 -3.2095409877
H 4.3825818333 -0.6074333737 -3.2384185737
H 5.3468603806 -1.4032934932 -1.1003287389
H 4.5326767316 -3.0822545072 0.7061051783
H 5.6917531079 -3.9023586849 2.7304109333
H 6.2903579028 -2.3212402405 4.5501165943
H 5.7275417602 0.0870691506 4.3198317129
H 4.5720071533 0.9031842594 2.2956541285
H 0.6980810901 1.9762237495 -2.0604190464
H 0.7529013976 2.1782125734 -0.2949561404
H -2.2482961326 -0.9721990867 -0.9604128849
H -4.1456288437 1.4420415264 -1.3611876389
H -3.4097283265 2.2882783966 0.7216513055
H -4.6557550503 1.4703279957 1.6860304364
H -2.9420827823 1.2303011580 2.0695691926
H -3.3943105323 -1.2752399868 1.9083662134
H -3.9256679060 -2.0010695665 0.3863906300
H -5.0695086609 -1.0636659454 1.3691587774
H -4.5642198352 -1.6313349857 -1.7131577791
