47
CONF53
C 2.9838391670 -0.5655461488 -4.7101173596
C 3.2256739358 0.0323977861 -3.3812183695
C 2.3987112383 0.4202750121 -2.3587156019
C 3.3023335236 0.8900083794 -1.3546048754
N 4.5533943446 0.7949252874 -1.7320789996
O 4.5026063908 0.2586629748 -3.0292278942
C 2.9711683548 1.4184251404 -0.0178083702
C 2.9849376063 2.7939298969 0.2549161328
C 2.5834477897 3.3011017892 1.4857712562
C 2.1473955630 2.4241158298 2.4698920961
C 2.1179675827 1.0535251552 2.2421097957
C 2.5318279255 0.5699079000 1.0091333047
Cl 2.4715798615 -1.1528317367 0.7210210198
Cl 3.4676398172 3.9117707360 -0.9930959819
C 0.9342532613 0.2683819777 -2.3426823896
O 0.3361992800 -0.4630607240 -3.1263060689
N 0.2760367393 0.9822569364 -1.3779099774
C -1.0960422353 0.6881739370 -1.0711284943
C -1.3719592963 -0.6844160424 -0.3824467793
N -1.6421936832 0.0450663864 0.8734019786
C -1.5703766334 1.2982528901 0.2689400789
O -1.8232904425 2.3995635578 0.6798142497
C -2.7339341030 -0.4190410687 1.7087550652
C -3.2688037809 -1.7517516141 1.0615485519
S -2.9576755738 -1.5109588917 -0.7677364209
C -4.7633452513 -1.9189719320 1.3054454136
C -2.4941563180 -2.9755711952 1.5573617096
C -2.3880544651 -0.6474617431 3.1694334452
O -3.2271927932 -0.7607649826 4.0305728043
O -1.0591566531 -0.7436506896 3.4061709111
H 2.9415106252 -1.6570017899 -4.6259894490
H 2.0184616883 -0.2352770500 -5.0950121737
H 3.7887077106 -0.2976004843 -5.3980926267
H 2.5985372390 4.3703816650 1.6564740647
H 1.8163838160 2.8151067372 3.4257102993
H 1.7647739222 0.3649543911 2.9990125216
H 0.8043083612 1.5245084309 -0.7108649896
H -1.7665209267 0.8902893841 -1.9110980459
H -0.5234380018 -1.3725704942 -0.3459342419
H -3.5366657302 0.3287907939 1.7037307186
H -5.3273429181 -1.0727338660 0.9042374225
H -4.9518574032 -1.9890787116 2.3812382617
H -5.1243995706 -2.8368231568 0.8327193850
H -2.8146302887 -3.8605680894 1.0035760004
H -1.4147920882 -2.8592059353 1.4254908787
H -2.6951212435 -3.1471380494 2.6216457065
H -0.9707462536 -0.9227476901 4.3567442491
