57
CONF13
C -3.3881762845 3.5751364514 -1.2817995431
C -3.6675915278 2.1541395311 -0.7782247675
C -2.4297105713 1.4339861148 -0.2976628674
C -1.9649995307 0.2900315140 -0.8643917013
C -2.5291829987 -0.2591476528 -2.1241546995
C -2.9575293374 -1.5917685091 -2.1791033119
C -3.4740886072 -2.1256079946 -3.3528838303
C -3.5525347548 -1.3443027588 -4.5037296126
C -3.1080511484 -0.0260990063 -4.4700577893
C -2.6006225956 0.5103563407 -3.2911916687
C -0.8870174511 -0.5309631268 -0.2623907983
C 0.1238788947 -1.0695520784 -1.0632261011
C 1.1546774792 -1.8366571657 -0.5296689901
C 1.1722394215 -2.1073402717 0.8409646055
C 0.1518372014 -1.6014386596 1.6537768205
C -0.8560764958 -0.8283634271 1.1084119539
O 2.1034423747 -2.8707442509 1.4822977235
C 3.2528359848 -3.3229249830 0.7521432306
C 4.2926849550 -2.2379733299 0.4890309340
N 5.1661918642 -1.9750213183 1.6330529295
C 6.2858900923 -1.1338616081 1.2176355977
C 4.4445807559 -1.3324411420 2.7330712228
C -1.7395799340 2.0751015603 0.8487815951
C -0.3669715290 2.3501332753 0.7838850795
C 0.2870972317 2.9781047190 1.8351295940
C -0.4166020709 3.3478737543 2.9788632494
C -1.7823580839 3.0918032286 3.0536774013
C -2.4384692780 2.4714724984 1.9959235693
H -4.3163596879 4.0657828945 -1.5899192648
H -2.7092304497 3.5610178882 -2.1401049182
H -2.9222945549 4.1836503635 -0.5009884527
H -4.3723002345 2.2198677934 0.0621879157
H -4.1667417888 1.5678098199 -1.5526707978
H -2.8828709654 -2.2047924986 -1.2860387032
H -3.8143276053 -3.1562774873 -3.3718526029
H -3.9490762640 -1.7638315053 -5.4226742401
H -3.1489330845 0.5853235389 -5.3661815712
H -2.2369938349 1.5327786681 -3.2703798559
H 0.1120693723 -0.8741561440 -2.1315299949
H 1.9273472309 -2.2106374553 -1.1898197092
H 0.1663967640 -1.8373979049 2.7124416554
H -1.6405895931 -0.4451529944 1.7519802801
H 3.6946313654 -4.0999678465 1.3823818045
H 2.9332816042 -3.7865484240 -0.1900436175
H 3.7871036060 -1.3160303180 0.1353049477
H 4.9249737920 -2.5917110124 -0.3360749151
H 6.9552529247 -0.9692915746 2.0680910997
H 5.9647935298 -0.1429620462 0.8384564312
H 6.8573055639 -1.6330363170 0.4277720704
H 3.9849560176 -0.3698206440 2.4319426651
H 5.1419708653 -1.1381301218 3.5542178810
H 3.6495315163 -1.9828493230 3.1023480961
H 0.1825841131 2.0585317971 -0.1052541007
H 1.3505418906 3.1830040399 1.7607145878
H 0.0942237962 3.8361598089 3.8023670799
H -2.3408427932 3.3754038774 3.9403866374
H -3.5021989409 2.2693320312 2.0747792638
