32
CONF27
C 2.9537351212 1.8923215528 -2.6024340540
C 1.9825215012 1.4401697681 -1.5493611869
C 0.9730802587 2.2934290159 -1.0894577261
C 0.0882041438 1.8916955960 -0.0959460794
C 0.2007440113 0.6124210832 0.4455969391
C 1.2045824797 -0.2502250873 0.0100574549
C 2.0853677252 0.1658404434 -0.9812419001
N -0.7102741987 0.1390430040 1.4602251825
S -0.5351616134 0.7492320769 3.0506056673
C 0.3973667927 -0.6244145596 3.8366754755
F 1.6299766975 -0.7683127140 3.2906470004
Cl -0.4069258375 -2.2230128777 3.7402065503
Cl 0.5830923528 -0.0972855968 5.5482359090
S -2.3605849439 -0.1536034912 0.9161958303
O -2.9070812153 1.0851511898 0.3495953665
O -3.0265141309 -0.7875697039 2.0547965198
N -2.2299926469 -1.2537460855 -0.3110944225
C -1.7216934689 -2.5886910625 0.0375737290
C -1.8934163515 -0.7920352663 -1.6686363150
H 2.5280642039 2.6893694602 -3.2167957811
H 3.2474872227 1.0625785600 -3.2509720382
H 3.8665268701 2.2827858457 -2.1367674563
H 0.8798226848 3.2884575451 -1.5152418278
H -0.6895582381 2.5613733865 0.2548861481
H 1.2896031135 -1.2391436499 0.4480238378
H 2.8638312641 -0.5113186415 -1.3212601516
H -2.1277270000 -3.2925024021 -0.6946719416
H -0.6259475360 -2.6288179769 0.0022257975
H -2.0687297161 -2.8764933904 1.0305629478
H -2.2750890275 0.2161848700 -1.8280001860
H -0.8109136395 -0.8108402785 -1.8428697758
H -2.3843965668 -1.4720402113 -2.3713596986
