17
CONF8
C 2.1871305999 -2.4988400215 1.0353159969
C 1.7883355066 -1.2455021669 0.8345228625
C 0.4013997550 -0.8617687930 0.4458800881
S 0.4231954248 -0.1546152370 -1.2611713318
C -1.1537420209 0.8163386549 -1.2126536279
C -1.0643615864 1.9592055437 -0.2637764510
C -1.7708951692 2.0511331387 0.8619149507
H 1.5032782494 -3.3354993373 0.9189067376
H 3.2076805765 -2.7280936699 1.3228209611
H 2.4959746179 -0.4248993180 0.9399623915
H -0.2724742407 -1.7240697278 0.4799623865
H 0.0182320814 -0.0756588050 1.1090861971
H -1.2873749022 1.1616453910 -2.2436349766
H -1.9848952791 0.1475865676 -0.9646402797
H -0.3396431206 2.7311289212 -0.5166901790
H -1.6583626345 2.8946340240 1.5349275722
H -2.4934771543 1.2872748248 1.1389405078
