52
CONF49
C 3.3239257748 1.6623476293 0.7790718801
N 2.8637238818 0.3335647838 1.1941712246
C 4.0126106647 -0.3931888632 1.7635296797
C 3.6301419629 -1.7839473848 2.2482837591
C 3.0438221401 -2.5930551474 1.0956802144
C 1.8769882628 -1.8255511960 0.4834142489
C 2.2818591270 -0.4094295252 0.0567583986
C 1.0853727462 0.3302321798 -0.5591290834
C 0.0435393610 0.7772783313 0.4713649632
N -1.1863594148 1.2385254224 -0.1874916116
C -1.8837371722 2.3381272110 0.3582111066
C -1.6989747423 2.7676493452 1.6782356115
C -2.3762854551 3.8859030907 2.1586146587
C -3.2787553861 4.5714419025 1.3518697613
C -3.5100066109 4.1252773507 0.0528510412
C -2.8078176158 3.0308859123 -0.4414611875
S -3.0245456648 2.5188723635 -2.1337993619
C -2.8657211551 0.7666403699 -1.8823542335
C -1.9321067445 0.3101512876 -0.9349865695
C -1.7697063770 -1.0711381695 -0.7768913356
C -2.4890251853 -1.9401272819 -1.5820391333
C -3.4240920092 -1.4975570913 -2.5095094958
C -3.6177216085 -0.1253480016 -2.6423863011
S -2.2113608249 -3.7280800986 -1.3617080180
O -1.3813160217 -3.8918962404 -0.0860543354
C -1.0289855798 -3.9215470909 -2.7544585049
H 3.8046767556 2.1574055570 1.6289089300
H 4.0581839916 1.6119236812 -0.0481401396
H 2.4903589704 2.2913392655 0.4558448488
H 4.4082350831 0.2043887853 2.5934552772
H 4.8246644620 -0.4839093717 1.0113451683
H 2.8906806326 -1.6976135801 3.0552448101
H 4.5168283910 -2.2755064054 2.6645098778
H 2.7143651615 -3.5810969241 1.4361119901
H 3.8185954041 -2.7538514624 0.3328386304
H 1.4863506713 -2.3506932027 -0.3960581102
H 1.0631841401 -1.7723041314 1.2179087775
H 3.0462104222 -0.5116395097 -0.7443921120
H 1.4143832018 1.2125141705 -1.1182510897
H 0.6352754094 -0.3443362718 -1.2942477485
H -0.1671410946 -0.0046737272 1.2140703561
H 0.4476984274 1.6259094056 1.0233483424
H -1.0298081491 2.2299017072 2.3392841786
H -2.2038275148 4.2081589577 3.1805374166
H -3.8105554640 5.4383143049 1.7291637054
H -4.2228266789 4.6354095707 -0.5876111010
H -1.0852185611 -1.4841416495 -0.0450269795
H -3.9935332108 -2.1956154368 -3.1153492258
H -4.3452141245 0.2566559717 -3.3514552636
H -0.1873792996 -3.2452084020 -2.5811559310
H -0.7058455509 -4.9654056469 -2.7519145076
H -1.5438088345 -3.6819558344 -3.6887568580
