47
CONF86
C -2.0223000151 -0.0728036846 2.7648631632
C -2.1948021997 -0.3565340538 1.2900508429
C -3.5697656061 -0.3078277210 0.6641981640
C -2.5920025561 0.8423878116 0.4244361126
C -2.0250674612 1.0114762842 -0.9204750679
O -2.0393426564 0.2164289664 -1.8344408331
O -1.4189486836 2.2381937460 -1.0175427651
C -0.7147041951 2.4588967926 -2.2619306330
C -0.4715817971 3.9013505879 -2.3180982136
N -0.2403208535 5.0302309378 -2.3897714510
C 0.5878129437 1.6864667923 -2.3215211849
C 1.3923821184 1.6058928477 -1.1857672812
C 2.5762726329 0.8860803838 -1.2330264602
C 2.9506234004 0.2723367546 -2.4294500247
C 2.1630169603 0.3464231431 -3.5623474233
C 0.9680357669 1.0578926022 -3.5035897687
F 4.1078897703 -0.4173830135 -2.4626941042
O 3.3980887304 0.8479317882 -0.1311231755
C 3.5755072967 -0.3690826235 0.5136690232
C 4.6045142600 -0.4110392491 1.4510180082
C 4.8211142388 -1.5835003708 2.1656311113
C 4.0217776690 -2.7054782737 1.9467922034
C 2.9981207057 -2.6437142607 1.0058241996
C 2.7644654783 -1.4757927731 0.2816994956
C -4.7788318015 -0.0404206781 1.4465807322
C -5.9625223906 -0.6243962540 1.2580247878
Cl -6.2768721677 -1.8239059826 0.0344005148
Cl -7.3544408466 -0.2430156724 2.2388182648
C -1.2220321915 -1.3802340841 0.7531260026
H -0.9857363110 0.2191139553 2.9627394614
H -2.2365488995 -0.9774089215 3.3445879485
H -2.6727860935 0.7284652847 3.1207122688
H -3.6897290287 -0.9593814081 -0.1958790585
H -2.7611757849 1.7652246680 0.9688814790
H -1.3530516763 2.1813963893 -3.1091731411
H 1.1073043344 2.0841291057 -0.2540958912
H 2.4833835433 -0.1525391534 -4.4703524430
H 0.3314442544 1.1138372321 -4.3805628152
H 5.2183926442 0.4695128823 1.6083764482
H 5.6231021716 -1.6193763923 2.8962661076
H 4.1964257105 -3.6186432116 2.5056700610
H 2.3667993187 -3.5088131121 0.8280848805
H 1.9612471280 -1.4328740553 -0.4459274377
H -4.7246162146 0.6931659901 2.2451762776
H -0.1935288083 -1.0257362227 0.8852920998
H -1.3844817382 -1.5943631033 -0.3044117058
H -1.3325308038 -2.3125705699 1.3168913333
