63
CONF122
C -11.1802951745 -0.9196443725 2.6678248849
C -9.8080020200 -1.3035869135 2.1184422209
C -8.9614805997 -0.0884757501 1.7409252794
C -7.5866493663 -0.4574406921 1.1863986930
C -6.7448362549 0.7595905535 0.8059718288
C -5.3729202112 0.3940308105 0.2416918321
C -4.5376976794 1.6139923775 -0.1435492929
C -3.1735498805 1.2542997373 -0.7305573070
C -2.3479324203 2.4858077226 -1.1060213899
C -1.0392310069 2.1702936064 -1.8346550363
C -0.0280277423 1.3794931542 -1.0042482728
C 1.3024800113 1.1800008677 -1.7288041973
C 2.3277268651 0.3949379258 -0.9125733765
C 3.6528666759 0.1973214927 -1.6469072713
C 4.6884293007 -0.5781328148 -0.8337171430
C 6.0107032145 -0.7567561762 -1.5809284282
C 7.0427349371 -1.6251155320 -0.8549085312
C 7.5417599309 -1.0238836569 0.4597099029
C 8.5764548447 -1.8913595368 1.1830570644
C 9.8791543523 -2.0976634149 0.4158927152
O 10.5054168349 -0.8686860745 0.0342143623
H -11.0825736479 -0.2986337241 3.5648237525
H -11.7512618210 -0.3464139621 1.9293962471
H -11.7690495466 -1.8027131276 2.9341673049
H -9.9293363954 -1.9463349720 1.2366124176
H -9.2672212395 -1.9034108932 2.8623558723
H -8.8376863171 0.5553534963 2.6230645782
H -9.5033700702 0.5135695358 0.9978498206
H -7.7115633326 -1.1024006315 0.3053661362
H -7.0437931001 -1.0577346997 1.9299930736
H -6.6155413212 1.4026160197 1.6877617607
H -7.2913032499 1.3619334211 0.0666688821
H -4.8234334405 -0.2060723886 0.9805210290
H -5.5026711651 -0.2500319608 -0.6393388484
H -5.0957032055 2.2202947549 -0.8710107783
H -4.3961197405 2.2521700327 0.7400121791
H -3.3155149598 0.6276329038 -1.6228128023
H -2.6241935895 0.6386241740 -0.0067087054
H -2.9602693454 3.1370777103 -1.7440933594
H -2.1293273660 3.0656218977 -0.1982050738
H -1.2638404981 1.6148140895 -2.7562429182
H -0.5727362849 3.1125952577 -2.1519554913
H 0.1488356013 1.9029298914 -0.0535491840
H -0.4428218311 0.3975760114 -0.7422942925
H 1.1213830623 0.6613361724 -2.6808137327
H 1.7234256284 2.1607156671 -1.9917367914
H 2.5122516719 0.9160703511 0.0373666137
H 1.9088222491 -0.5858261690 -0.6468399246
H 3.4672838656 -0.3273000457 -2.5947072072
H 4.0674856809 1.1784754698 -1.9181808889
H 4.8586469367 -0.0540858560 0.1154392663
H 4.2823309955 -1.5660509660 -0.5723625609
H 6.4494809580 0.2303467165 -1.7830852124
H 5.8003628648 -1.2037408584 -2.5616886171
H 7.8951058877 -1.7790381471 -1.5272178575
H 6.6126387637 -2.6188381398 -0.6621273916
H 7.9753437198 -0.0360985624 0.2586992552
H 8.1483815667 -2.8806877320 1.3988682189
H 8.8095764115 -1.4408455964 2.1586861517
H 9.6984724147 -2.6312873037 -0.5223313868
H 10.5672504694 -2.7161363683 1.0135328382
H 10.6941222760 -0.3728731751 0.8388357179
H 6.6956940566 -0.8647085045 1.1382387196
