47
CONF84
C -8.0243073782 0.6224503644 0.8494157604
O -7.1708167511 -0.4518914905 0.3614586252
P -5.7198773517 -0.6728849175 0.9933245928
S -5.5693504768 -0.6264618500 2.9305874735
O -5.2490869143 -2.0040320603 0.2461434873
C -5.6916554071 -3.3061852103 0.7275336026
O -4.8626314678 0.4445994206 0.1894152967
C -3.6036971214 0.8675740552 0.6272886655
C -3.4714926622 2.1829853680 1.0460980765
C -2.2172521992 2.6507752346 1.4238752248
C -1.1148135237 1.7924720446 1.4053730041
C -1.2694824098 0.4659753668 0.9937696226
C -2.5155277769 0.0037863913 0.5881803870
S 0.4458014386 2.4317234855 2.0025560143
C 1.6452746596 1.5561728693 1.0058943834
C 1.5572962444 1.5446000933 -0.3894152379
C 2.5319446829 0.9020679506 -1.1403111725
C 3.5992403048 0.2941757301 -0.4890113014
C 3.7099018598 0.3067323592 0.8946409978
C 2.7197436204 0.9356395325 1.6445210519
O 4.5336745021 -0.3800149466 -1.2743701157
P 6.1000858281 0.0749751634 -1.3443287933
S 6.4073459979 1.9888596385 -1.3327168796
O 6.5654552749 -0.7746500360 -2.6131940586
C 6.1002620799 -0.4082113222 -3.9439436175
O 6.8455072242 -0.6688122252 -0.1488008314
C 6.7085754436 -2.1147061634 0.0277373270
H -7.5419370279 1.5896038074 0.6835929134
H -8.2359846418 0.4772637204 1.9115377065
H -8.9418402422 0.5541207867 0.2660227575
H -6.7790160641 -3.3853328320 0.6490294121
H -5.2123022925 -4.0356130010 0.0757160981
H -5.3699393322 -3.4502141557 1.7619111476
H -4.3381141164 2.8352214590 1.0606122195
H -2.1003227622 3.6845159582 1.7330295735
H -0.4204552809 -0.2089178285 0.9825357561
H -2.6415848948 -1.0210152965 0.2554987621
H 0.7287327447 2.0355037082 -0.8891837667
H 2.4803232639 0.8812822503 -2.2236636767
H 4.5443336184 -0.1834918223 1.3848531570
H 2.7836546587 0.9342066692 2.7274609544
H 6.4219313091 0.6087839023 -4.1825690411
H 6.5648582994 -1.1217102973 -4.6233919770
H 5.0114605171 -0.4894896664 -3.9955345775
H 5.6516919671 -2.3908600460 0.0653318015
H 7.2148992688 -2.6355535539 -0.7871328084
H 7.1894921858 -2.3360184015 0.9796680198
