45
CONF12
C 4.4963671372 -0.4248490926 0.5767884605
C 3.3258298264 -0.8004999069 -0.3180494729
C 2.0129856807 -0.3929540590 0.3565776904
O 1.4768007748 -1.1090393903 1.1911430075
N 1.5309930791 0.8286796201 0.0021282979
C 0.3356945755 1.3560541100 0.5842540541
C -1.0112492495 0.5714393545 0.4555471840
N -1.0512795547 0.4525961389 1.9261651274
C 0.1178481537 1.2044988633 2.1167755067
O 0.6404550745 1.6250700825 3.1089107070
C -2.3262378760 0.6639170450 2.5950213191
C -3.4164995764 0.7302069249 1.4726550369
S -2.5130520344 1.5331788199 0.0360457527
C -3.8958839067 -0.6629384245 1.0586208783
C -4.5888302361 1.6078266310 1.8898976814
C -2.6584477611 -0.4308994540 3.6167696701
O -3.6153018652 -0.3513613924 4.3438984927
O -1.8315952522 -1.4907450626 3.6345006864
O 3.5241111492 -0.1380609157 -1.5725514834
C 2.7390077194 -0.5242171483 -2.6357429074
C 1.7104022602 -1.4640327102 -2.5585757592
C 0.9781347697 -1.7628403894 -3.7073412510
C 1.2559984571 -1.1381558493 -4.9161275649
C 2.2848144300 -0.1992497592 -4.9776214221
C 3.0251606930 0.1101491750 -3.8463802197
H 5.4307514686 -0.7716906527 0.1294536053
H 4.5455081511 0.6597755660 0.7065418284
H 4.3701803887 -0.8919932934 1.5561594790
H 3.2924076031 -1.8879046701 -0.4598556213
H 2.0049296673 1.3363250528 -0.7294938234
H 0.2180049201 2.4045421307 0.2992089457
H -0.9470368754 -0.3807813899 -0.0781707970
H -2.3071184981 1.6132211424 3.1452894569
H -4.4428732511 -1.1331163312 1.8829055470
H -3.0655828053 -1.3189334341 0.7802644537
H -4.5669033833 -0.5812334377 0.2008422027
H -5.3316497840 1.6581233681 1.0887070446
H -5.0612651243 1.1724443244 2.7754819489
H -4.2598653430 2.6225469654 2.1300777036
H -1.0999690732 -1.3248576611 3.0103023100
H 1.4658951271 -1.9642418685 -1.6288801727
H 0.1796391594 -2.4952315690 -3.6446859035
H 0.6794430702 -1.3785742635 -5.8023752238
H 2.5155685183 0.2951266241 -5.9157966383
H 3.8337098072 0.8325543870 -3.8792866334
