47
CONF42
C 4.9164082172 -1.0338157782 2.7641394830
C 4.6210312832 -0.6131809187 1.3810071744
C 3.4689701938 -0.5128666637 0.6402495288
C 3.9168657211 -0.0360705443 -0.6303350185
N 5.2188889348 0.1244018391 -0.6607171539
O 5.6639886471 -0.2277782737 0.6247099340
C 3.1218638880 0.2303527214 -1.8417528861
C 2.5204700695 -0.8314729696 -2.5206334268
C 1.7363189911 -0.6716729311 -3.6457385260
C 1.5354800529 0.6199180687 -4.1224627882
C 2.1037103403 1.7171823579 -3.4837185383
C 2.8858472751 1.5127982598 -2.3530292328
Cl 3.5539504007 2.9041524844 -1.5279330607
F 2.7182187438 -2.0730883837 -2.0309862098
C 2.1199654942 -0.8632076392 1.1159980766
O 1.9437412185 -1.6112339732 2.0780194267
N 1.0875432217 -0.3099658388 0.4128082513
C -0.2775921377 -0.5997521994 0.7052981869
C -1.2067877950 0.5218599980 1.2892593184
N -2.0322898142 0.3993399738 0.0794240025
C -1.2682395029 -0.6166640754 -0.4813052318
O -1.3873818478 -1.2453903741 -1.5064648031
C -3.4690626927 0.4717926603 0.2229340632
C -3.8025731195 -0.2242755895 1.5961465166
S -2.3346558679 0.1748025719 2.7007445241
C -3.8988758913 -1.7342311807 1.3750404374
C -5.0719735117 0.3029111649 2.2560564689
C -4.0050424591 1.8920035072 0.1313090990
O -5.1021643121 2.1579401727 -0.3063666430
O -3.1417346780 2.8022397816 0.6092818395
H 5.1070138136 -2.1125833143 2.7933718039
H 5.8027704785 -0.5142844821 3.1348772126
H 4.0590056497 -0.8289721725 3.4058934499
H 1.2963432920 -1.5377039664 -4.1262694179
H 0.9225879196 0.7761156111 -5.0034709150
H 1.9379719717 2.7219102586 -3.8530863432
H 1.2868346440 0.3805503433 -0.2972220523
H -0.3449280972 -1.5233199387 1.2875009694
H -0.7257515590 1.4941040412 1.4219973386
H -3.9435019045 -0.0951205864 -0.5839174002
H -4.0039180831 -2.2458061949 2.3350346987
H -3.0121997006 -2.1325497976 0.8737384810
H -4.7774941979 -1.9589336946 0.7594680932
H -5.0121746239 1.3737314035 2.4671258495
H -5.9283394301 0.1183292988 1.5992368556
H -5.2469806810 -0.2246485497 3.1977126822
H -3.5521290471 3.6821529992 0.5398250780
