65
CONF135
C -1.0209245725 1.9038335978 -3.2807918895
C -2.3784014253 2.2299458707 -2.6635405597
C -2.2693784455 2.9172337471 -1.2964331675
C -3.6534670181 3.2835134448 -0.7370961656
C -1.5402073013 2.0771011154 -0.2674960570
O -0.6485063354 2.4877820603 0.4528254684
O -2.0329023919 0.8254340387 -0.2119675974
C -1.5436712633 -0.0558466188 0.8484049455
C -2.4082648043 0.1329637670 2.0834180413
C -1.9067170651 -0.7555273670 3.2307103322
C -1.6027177860 -2.1382236641 2.7364363589
C -1.4743889541 -2.4787429668 1.4400668298
C -1.6354549545 -1.4752613318 0.3124480776
C -0.6155032448 -1.7768929754 -0.8077769781
C -0.9224862627 -3.1827803752 -1.3626111636
C -0.9339016583 -4.1869417710 -0.2417987872
C -1.1686277908 -3.8427594390 1.0359192253
C 0.0029238350 -3.6056811542 -2.5065153201
C 0.8348342246 -1.6097135875 -0.2995216299
C 1.5163706562 -0.3621363564 -0.8638599974
C 2.8508128997 -0.0471040634 -0.2163266564
C 3.5774229671 1.1088211444 -0.8730364890
C 4.8003668542 1.4679385299 -0.0576973784
C 4.3429129307 1.9186405578 1.3240711155
C 3.2927117677 1.0455412103 1.9708006965
O 3.0480004617 1.0980897339 3.1604358345
O 2.5540721214 0.2235145503 1.2044822437
O 5.5035818980 2.5133626600 -0.7370471703
C -0.6861406531 -0.1500289197 3.9478961462
H -0.4139676532 2.8088470624 -3.3928328096
H -0.4605964192 1.1993328341 -2.6568764267
H -1.1378604801 1.4496399214 -4.2692981188
H -2.9348440462 2.9041314763 -3.3259205650
H -2.9790726952 1.3190417139 -2.5614589419
H -1.6734169062 3.8307047360 -1.4012907077
H -4.1540872481 3.9739768711 -1.4223451498
H -4.2740838557 2.3883254180 -0.6330440449
H -3.5729146826 3.7676466827 0.2409471833
H -0.5065112069 0.2139936133 1.0648460624
H -2.3994770386 1.1856299618 2.3868400835
H -3.4400338875 -0.1366028848 1.8259478106
H -2.7119238958 -0.8314052254 3.9750485699
H -1.4617600687 -2.9092659926 3.4940237351
H -2.6439126727 -1.6043778670 -0.1115735612
H -0.7876191504 -1.0605010696 -1.6218367081
H -1.9407369014 -3.1356968523 -1.7828883286
H -0.7337070399 -5.2274183453 -0.4922865370
H -1.1378341595 -4.5971202963 1.8199184756
H -0.3403183137 -4.5500151148 -2.9414084248
H 0.0079625656 -2.8476616388 -3.2969223062
H 1.0324608527 -3.7543843959 -2.1668700835
H 0.8355292878 -1.5590806315 0.7950794619
H 1.4398844003 -2.4857693078 -0.5548647249
H 1.6871185529 -0.4895654491 -1.9406414170
H 0.8721371868 0.5186999807 -0.7491444364
H 3.4928772344 -0.9386072553 -0.2125414031
H 2.9140041184 1.9803113689 -0.9536938041
H 3.8668646406 0.8017855429 -1.8832118672
H 5.4470773173 0.5812867027 0.0343467039
H 3.8812674594 2.9116680344 1.2279904390
H 5.1739917093 2.0153913369 2.0286116624
H 6.3070368408 2.7064406028 -0.2368799714
H -0.9418859155 0.8213515518 4.3838218868
H 0.1485577628 -0.0084928809 3.2537619620
H -0.3425553287 -0.8083166064 4.7522478184
