22
CONF6
C 2.3271215667 0.1577001109 -0.2040740724
C 0.8614107927 -0.2236210874 -0.0178890591
C -0.0725559233 0.9679234268 -0.2515992902
C -1.5787003974 0.6495441140 -0.3059714022
C -2.1957186718 -0.0117144545 0.9266497909
O -1.9085642472 -1.4122318353 0.9882970702
O -1.8648398289 -0.1290678869 -1.4769078521
O 0.2854121622 1.6167259379 -1.4779989522
O 0.6720473135 -0.6709619055 1.3388532212
O 3.1748410338 -0.9095165051 0.2528146808
H 2.5647708496 1.0251542983 0.4218540268
H 2.5294904544 0.4056501052 -1.2501938336
H 0.6127093773 -1.0407889359 -0.7170920043
H 0.1003056757 1.6965921444 0.5514880979
H -2.0774345539 1.6170423015 -0.4496430628
H -1.8657119787 0.5092198129 1.8360327498
H -3.2843359839 0.0758442452 0.8538845438
H -0.9665288707 -1.4714439392 1.2421551090
H -1.7977333147 -1.0571554357 -1.2019826763
H -0.0859719038 1.0700044339 -2.1872243723
H 1.4258912572 -1.2498830962 1.5354701252
H 3.1440953975 -1.6150158545 -0.4069227373
