44
CONF70
C -5.0862982879 1.5365295011 0.7687623997
N -3.7145930379 1.2234643601 0.3491698798
C -3.6531561512 0.8187271255 -1.0741492404
C -4.2126484648 -0.6311492383 -1.1098773722
C -3.9011211138 -1.1811023173 0.3064126004
C -3.1962372316 0.0083184647 1.0177743961
C -1.6763369539 -0.0241481071 0.8026741253
C -1.3722309732 -0.1230456641 -0.6876646383
C -2.1810139078 0.8715922097 -1.5063084756
O 0.0436260250 0.1792530865 -0.9296711871
C 0.9308607064 -0.8148874010 -0.7587922324
O 0.6361029089 -1.9535011191 -0.4545044734
C 2.3629150829 -0.3465032490 -0.9630604566
C 2.4936950635 0.9149982561 -1.8299907385
O 1.9268811615 0.7496948939 -3.1306134746
C 3.0123658852 -0.1301821621 0.3912513433
C 2.4416128079 0.7439598970 1.3227465549
C 3.0567827563 0.9638794765 2.5519500214
C 4.2499757196 0.3150437897 2.8642712704
C 4.8235313944 -0.5559471614 1.9410027333
C 4.2069200957 -0.7784036895 0.7118475168
H -5.0879820553 1.7851697043 1.8351157365
H -5.4398616492 2.4118270999 0.2139817471
H -5.8077596119 0.7176508981 0.6086986778
H -4.2395261764 1.5107555978 -1.6867220661
H -5.2890733413 -0.6211393530 -1.3000136295
H -3.7473382526 -1.2212932371 -1.9050408725
H -3.2638463943 -2.0703083668 0.2842607165
H -4.8194707839 -1.4529510079 0.8335053954
H -3.4146651166 0.0471758354 2.0895698325
H -1.2331988893 -0.8736133318 1.3330007369
H -1.2393994245 0.8992318405 1.1998376032
H -1.5477620048 -1.1424482946 -1.0421450870
H -1.7974003723 1.8839353384 -1.3369748266
H -2.0861009895 0.6394633023 -2.5730142696
H 2.0554789113 1.7780215260 -1.3130289957
H 3.5601353833 1.1118147921 -1.9779298343
H 1.5097272473 1.2515045426 1.0891161767
H 2.6022889539 1.6425450836 3.2672074840
H 4.7291702765 0.4868166844 3.8230047254
H 5.7520817352 -1.0663944073 2.1776560381
H 4.6552695885 -1.4598703956 -0.0055268545
H 2.8740090169 -1.1730642795 -1.4675444135
H 0.9658908453 0.7789212539 -3.0329418887
