46
CONF26
C 6.5051777133 -1.7969074082 0.8471412468
C 5.3698714146 -2.7819307570 1.0233699048
O 4.3986635704 -2.6651490106 -0.0606116408
C 3.4704057336 -1.7096323110 0.0105244385
N 3.4075432702 -0.9220027137 1.0751664388
C 2.4183351356 -0.0000280196 1.0263456083
N 1.5548846746 0.1411956864 -0.0024601592
C 1.7342222656 -0.7263042428 -0.9987699868
N 2.6682386847 -1.6774926661 -1.0687063838
N 0.8828999178 -0.6695156503 -2.0903856942
C -0.2133237495 0.1494435564 -2.3557097203
O -0.8808837129 -0.0151827045 -3.3656160166
N -0.4534107329 1.1314146357 -1.4177833515
S -1.8601134475 2.0772502382 -1.4434646608
O -1.8160356478 2.8036546148 -0.1665912143
O -1.9063095469 2.8171613671 -2.7060426327
C -3.2522010959 0.9393332521 -1.4105132257
C -3.9662680980 0.7637402183 -2.5896136634
C -5.1175741376 -0.0177126610 -2.5785565192
C -5.5565448900 -0.5929872498 -1.3911685668
C -4.8445936630 -0.3986418784 -0.2111207326
C -3.6733352653 0.3589775306 -0.2073761244
C -2.8806893997 0.4345465101 1.0587477141
O -1.7304687023 0.0592322894 1.1600898119
O -3.6217803360 0.9035409365 2.0668013879
C -2.9536478105 0.9581860430 3.3567833717
N 2.2884483053 0.8304441752 2.0665381962
C 1.2814678813 1.8811708552 2.1357944875
H 6.9892569310 -1.9354765253 -0.1237630523
H 6.1503806850 -0.7664085326 0.9264082268
H 7.2502437303 -1.9671236184 1.6307488741
H 5.7215666521 -3.8121012999 0.9370173221
H 4.8568165383 -2.6530751530 1.9790113558
H 1.0548941692 -1.3624377578 -2.8075217133
H 0.0695568054 1.0629291740 -0.5265611540
H -3.6281470738 1.2430691992 -3.5000114964
H -5.6738323827 -0.1635289711 -3.4980646548
H -6.4602491024 -1.1930266724 -1.3778961787
H -5.1857828810 -0.8479225391 0.7153330557
H -2.0871004885 1.6205036380 3.2950866020
H -2.6388089143 -0.0438277850 3.6560528417
H -3.6965944560 1.3551206167 4.0463189375
H 2.9501578283 0.7249853534 2.8194359715
H 0.2729888162 1.4630063365 2.0514390421
H 1.3801118374 2.3812584260 3.1000476791
H 1.4215626727 2.6182510673 1.3370487185
