48
CONF2
C -3.0465353375 2.2950763122 1.5667871172
Si -1.6465694857 1.3305470765 0.8466755956
O -0.9020655386 0.5346030989 2.0892574261
O -2.2040745817 0.2714383912 -0.2785248033
Si -2.1762584702 -1.3587418364 -0.5571194027
C -2.9004153011 -1.6497654456 -2.2428588516
C -3.1197168846 -2.2329452592 0.7902666516
O -0.6069088095 -1.8653168260 -0.5973029118
Si 0.7134554412 -2.2184251905 0.3205024642
C 0.2377065560 -3.1378208341 1.8654699434
C 1.8849263126 -3.1794877143 -0.7563464715
O 1.3946960967 -0.7869828914 0.8239434727
Si 2.3726264865 0.4166664301 0.2253411434
C 2.6822138332 1.5958414068 1.6316996302
C 3.9461031182 -0.2886855796 -0.4675237361
O 1.5705143688 1.1668299196 -1.0059467050
Si 0.4469306476 2.3677201493 -1.1810678092
C 1.2936464713 4.0233288939 -1.1613439335
C -0.4700648596 2.0432021688 -2.7655954154
O -0.5839435076 2.3446305116 0.1138278170
H -2.6825001450 3.0490201387 2.2717559510
H -3.7376869825 1.6327963058 2.0983207003
H -3.6048829102 2.8060519381 0.7759088598
H -0.0633964034 0.0940985054 1.8715460710
H -2.9200187499 -2.7201121651 -2.4745755667
H -3.9266290123 -1.2712982286 -2.2967016518
H -2.3078107582 -1.1447250645 -3.0133088923
H -2.7249095415 -1.9774848191 1.7790477022
H -4.1751557792 -1.9399844435 0.7599117821
H -3.0640539065 -3.3201064713 0.6689849627
H -0.3724637918 -2.5134578046 2.5265830509
H 1.1358458297 -3.4383605131 2.4163634218
H -0.3330408434 -4.0407857939 1.6244898503
H 2.8479142851 -3.3358134085 -0.2595933442
H 2.0644595017 -2.6637340792 -1.7053477624
H 1.4547161399 -4.1616347499 -0.9826425161
H 3.3335584655 2.4147238675 1.3076821555
H 1.7481927334 2.0308575098 2.0039064727
H 3.1734403293 1.0798104490 2.4638382345
H 3.7573264845 -0.8923517616 -1.3603500001
H 4.6257524034 0.5247739142 -0.7449723222
H 4.4526837992 -0.9174122473 0.2723095814
H 0.5689529412 4.8330034559 -1.2995237595
H 2.0352004914 4.0887486394 -1.9646005007
H 1.8075108841 4.1839988532 -0.2073325891
H -1.2821124835 2.7656503391 -2.9008474193
H 0.2057593003 2.1242908645 -3.6239254516
H -0.9029185357 1.0377241781 -2.7626282389
