65
CONF372
C -4.5883883401 -0.1545627136 -3.8730874403
C -3.2146179649 0.3169212332 -3.4004383793
C -3.0132249244 0.1583310418 -1.8893945755
C -2.9905512283 -1.3150893015 -1.4414738089
C -1.7096416503 0.7891888285 -1.4516336581
O -0.7148177955 0.8917336614 -2.1457304617
O -1.7668786845 1.1797472775 -0.1625999507
C -0.5426881299 1.7164962856 0.4320763312
C -0.4600952333 3.2118259374 0.1793502389
C 0.8587178504 3.7691283734 0.7351794641
C 1.1397332645 3.2101366899 2.0980756281
C 0.5040797637 2.1550356879 2.6435828907
C -0.6037055004 1.4090690645 1.9201470785
C -0.5340728151 -0.0994187607 2.2472695116
C -0.7239260659 -0.2674405830 3.7689671272
C 0.2775664131 0.5748095677 4.5112370436
C 0.8414346835 1.6693378801 3.9726135438
C -0.7062799635 -1.7266839154 4.2307701025
C 0.7677141481 -0.7295748452 1.7035976497
C 0.5207116593 -1.5906772119 0.4630778148
C 1.7834444253 -1.9723082398 -0.2800813847
C 1.5356062329 -2.9394858590 -1.4270664175
C 2.7381183708 -3.0485075867 -2.3780131757
C 3.9138846457 -2.1984363690 -1.8724502038
C 3.4443860527 -0.8027242302 -1.5785071507
O 3.9579660127 0.2178096176 -1.9944359790
O 2.3375377111 -0.7153011281 -0.8139550898
O 2.3014763181 -2.5705320798 -3.6619189317
C 2.0454445959 3.5143493361 -0.2124770251
H -4.7173039698 0.0513570021 -4.9398756750
H -4.7225209967 -1.2303240886 -3.7263507155
H -5.3881719943 0.3628134960 -3.3315148172
H -2.4255965773 -0.2353631705 -3.9238309222
H -3.0835387774 1.3738965568 -3.6617112654
H -3.8233454663 0.6697944117 -1.3553879392
H -2.8136509654 -1.3966204992 -0.3650440073
H -3.9463114236 -1.7948559090 -1.6651073542
H -2.1979036358 -1.8593762165 -1.9667719075
H 0.3062808867 1.2078551237 -0.0332580086
H -0.5346003771 3.4158527823 -0.8938431896
H -1.3099798586 3.6957735423 0.6761560751
H 0.7528448977 4.8589951861 0.8307642180
H 1.9309175390 3.6938512400 2.6712519499
H -1.5676100709 1.7850132225 2.2986562843
H -1.3876924180 -0.5872823569 1.7591921878
H -1.7285277022 0.1235712401 4.0003686262
H 0.5476453001 0.2695011518 5.5208251257
H 1.5799782976 2.2377600209 4.5350752438
H 0.2807411118 -2.1833942388 4.1086159066
H -0.9704820442 -1.7908027969 5.2913526607
H -1.4307956635 -2.3189439959 3.6619430859
H 1.4862506463 0.0623113124 1.4607636836
H 1.2534910017 -1.3451783771 2.4672701059
H 0.0036979652 -2.5151831171 0.7496698973
H -0.1396043357 -1.0741268515 -0.2439259025
H 2.5267582733 -2.3779738355 0.4193019825
H 0.6696693949 -2.5942124518 -2.0028507895
H 1.2836250359 -3.9158550922 -1.0034945127
H 3.0723107267 -4.0894055377 -2.4663752460
H 4.7205792607 -2.1595198574 -2.6070496399
H 4.3125589411 -2.6442497407 -0.9517264844
H 3.0262047072 -2.7018999941 -4.2875802227
H 2.1925346779 2.4416816443 -0.3775300269
H 2.9713910149 3.9170018796 0.2104440548
H 1.8712218255 3.9943596397 -1.1811034392
