74
CONF7
C -0.8804550217 -1.7554859682 -0.9508263044
C -0.5049491668 -3.1588086454 -1.4153226747
O -1.5007380551 -4.0213693309 -0.7902905976
C -2.0612267594 -3.4061849790 0.2942719980
O -2.8571088573 -3.9670888295 1.0004811041
C -1.4510513188 -2.0284855982 0.4311256293
C -2.2968598257 -0.8495164289 0.9188682077
C -3.6243578482 -0.7208260683 0.1761872555
C -4.6896059219 -1.5354324301 0.5607967547
C -5.8826582185 -1.4857171015 -0.1509411873
O -6.9896081120 -2.2523292594 0.1121266343
C -6.8461087097 -3.2820094996 1.0923090606
C -6.0469914869 -0.6134022703 -1.2321027865
O -7.2173171264 -0.5578956169 -1.9257527112
C -4.9846631808 0.2179374014 -1.5997425381
O -5.2303276047 1.0457293553 -2.6557932480
C -4.1765785576 1.9108510941 -3.0580448296
C -3.7786389410 0.1569373603 -0.8986609850
C -1.4593931018 0.4155268429 0.7781839457
C -1.9084564033 1.5534134020 1.4763595833
C -1.2476593508 2.7387881810 1.2740727058
C -0.1793800623 2.8397910513 0.3914911472
O 0.2855730790 4.1302467062 0.3608764716
C -0.5398562319 4.8685984774 1.2804645065
O -1.5054550516 3.9592185857 1.8392111159
C 0.2764207039 1.7529748825 -0.3091622095
C -0.3662414080 0.5116843095 -0.0984685664
C 0.1929885230 -0.6926821308 -0.8340006312
O 1.2861224443 -1.3373468168 -0.1184808789
C 2.3039400233 -0.5349421844 0.3539673693
O 3.0121205181 0.0133326679 -0.7743710364
C 4.0775704421 0.8492461931 -0.3411672398
C 4.7570404874 1.4999428083 -1.5338914411
O 5.8902710998 2.2319821118 -1.0588103137
C 6.8129862178 1.4062444776 -0.3690005947
C 7.9614076363 2.2649999167 0.0879218533
O 6.2188514210 0.8066516911 0.7823022522
C 5.1087840344 -0.0026270140 0.3936001201
C 4.4671795637 -0.6156996966 1.6175881206
O 5.3280618914 -1.5291477664 2.2964929547
C 3.2327195889 -1.4114745071 1.1951312606
O 2.4984803310 -1.8481913670 2.3285646699
H -1.6817418663 -1.3645633956 -1.5912994754
H -0.5805501991 -3.3092321824 -2.4942837332
H 0.4849885035 -3.4604050011 -1.0604590817
H -0.6076599665 -2.1576568614 1.1284737483
H -2.5231576007 -1.0008614031 1.9813293579
H -4.5610202033 -2.2247832781 1.3841701842
H -6.0129623471 -3.9490341546 0.8410128002
H -6.6855426806 -2.8541733056 2.0896156465
H -7.7853649805 -3.8363727300 1.0817712876
H -7.8072978093 -1.2128060644 -1.5272121544
H -3.2935634226 1.3443441987 -3.3843311231
H -4.5691215722 2.4846410480 -3.8988283183
H -3.8889042640 2.5967486323 -2.2495981889
H -2.9592141714 0.8085183792 -1.1732750378
H -2.7721484997 1.4934696876 2.1297822541
H 0.0861590621 5.2722650859 2.0860702684
H -1.0649873484 5.6646187272 0.7381102013
H 1.1111660252 1.8291179810 -0.9980486809
H 0.5727226112 -0.3801315737 -1.8155381362
H 1.9203625349 0.2984642203 0.9702017110
H 3.7084409741 1.6381669174 0.3375060261
H 4.1026575985 2.2165077001 -2.0370036310
H 5.0624990668 0.7241320302 -2.2554213194
H 7.1384909545 0.5932399008 -1.0480644562
H 8.6921970449 1.6546112347 0.6225886575
H 7.5874646702 3.0461330659 0.7541900824
H 8.4420702459 2.7300988476 -0.7749976575
H 5.4504488923 -0.8073601222 -0.2822432149
H 4.1526346023 0.1920632901 2.3002074125
H 6.1162706937 -1.0395474285 2.5604508934
H 3.5529817736 -2.2641464253 0.5740942059
H 3.1268493068 -2.2934999536 2.9109383366
