39
CONF19
N 1.9782701998 -0.1195876453 2.1330949358
C 2.6276821773 -0.7199213663 1.0976255702
N 3.3730236902 -1.7962133157 1.3854977296
C 4.0474584596 -2.3593601264 0.3682076092
N 4.7666015896 -3.4882260289 0.6612774856
N 4.0474620783 -1.9529225295 -0.9144108190
C 3.2908285269 -0.8718617008 -1.1633387291
C 2.5525372624 -0.1908087033 -0.2160599101
C 1.7313625965 1.0235269079 -0.5445355063
C 0.2405669896 0.8425591753 -0.3115464955
C -0.3890550698 -0.3246281940 -0.7438812995
C -1.7612473096 -0.4876813449 -0.5421500126
O -2.4722309892 -1.5824003340 -0.9256695436
C -1.7530869799 -2.6366691655 -1.5789493762
C -0.4880626391 1.8435863953 0.3304943805
C -1.8636955810 1.6817030950 0.5338148007
O -2.6646685492 2.5947227542 1.1474949359
C -2.0495867634 3.8032875392 1.6121409675
C -2.5042483820 0.5114473474 0.1056917608
O -3.8430199580 0.3251157200 0.3552058516
C -4.6850246535 0.8055201344 -0.7129275703
H 1.9158840327 -0.6419855660 2.9939716691
H 1.1955437872 0.4823758771 1.9243761663
H 5.4715861217 -3.7557046267 -0.0074674276
H 4.9952031764 -3.6392921642 1.6311451809
H 3.2782954896 -0.5229407065 -2.1968525755
H 1.9013654367 1.2790327231 -1.5980649500
H 2.0759711398 1.8848659125 0.0425759705
H 0.1996349555 -1.0947719510 -1.2275051722
H -2.4949219725 -3.4047852024 -1.7990405846
H -1.2984632796 -2.2837393132 -2.5118953836
H -0.9780169361 -3.0491341727 -0.9225055562
H 0.0206366923 2.7411049324 0.6624639151
H -2.8527878355 4.3856517860 2.0643122558
H -1.6088419247 4.3659641649 0.7809602323
H -1.2809757312 3.5893241104 2.3639089068
H -4.4642655778 0.2728494796 -1.6453065528
H -4.5428523948 1.8828481309 -0.8583009510
H -5.7148634683 0.6071480883 -0.4095911068
