26
CONF85
C -2.7860081595 -1.2356691185 0.5269443429
C -1.2975450155 -0.9545030961 0.6665002797
C -0.8142394870 0.1049959868 -0.3346777622
C 0.6165248179 0.6046086008 -0.0995542613
C 1.6522557660 -0.5396169480 0.0219443239
C 3.0526313288 -0.1124364998 -0.3860894188
O 3.5045984881 1.0059982310 0.3895144776
O 1.6563930698 -1.0161168466 1.3863440647
O 0.9578853444 1.5334214343 -1.1333185345
O -0.8298984298 -0.4590207720 -1.6618372521
O -1.0856617701 -0.5271912772 2.0170710902
O -3.5864764659 -0.0803552820 0.7947587208
H -3.0142046331 -1.5476590969 -0.4965372065
H -3.0507839969 -2.0590419957 1.2058175723
H -0.7606261893 -1.8950396560 0.4653461695
H -1.4793861258 0.9769145850 -0.2881847745
H 0.6427637999 1.1752861922 0.8354772887
H 1.3588163634 -1.3951755622 -0.5979797856
H 3.0833176843 0.1067335699 -1.4598336285
H 3.7442838496 -0.9351505798 -0.1780964636
H 2.1924486386 -0.3822287037 1.8881289628
H 0.6936232444 1.1184701114 -1.9686948412
H -1.6648108405 -0.2262574482 -2.0834528121
H -0.1305215807 -0.6228689841 2.1725114591
H 3.0310494938 1.7811204303 0.0574475278
H -3.3685898574 0.2102497002 1.6900387825
