45
CONF2324
O -0.5180621322 -0.9185068648 -2.8344607515
C -1.8532258095 -1.3957357752 -2.6681856213
C -2.4519898652 -1.0614251964 -1.3200002910
O -1.6532160927 -1.7015055973 -0.2774240230
C -1.5152427507 -0.8474990174 0.8403668924
C -1.7057545818 -1.6885537379 2.0983604332
O -1.3859657651 -0.9598243929 3.2853683814
O -0.2416980219 -0.1847233944 0.8767307204
C 0.9167244247 -0.9166632409 0.5096104579
O 1.3834513149 -0.4833731292 -0.7562234576
C 1.7358352547 0.9264967743 -0.7919184171
C 2.0660705876 1.2738271012 -2.2322102985
O 0.9097450110 1.5205523467 -3.0310399191
C 2.8956315332 1.1517107551 0.1820812862
O 3.2445681196 2.5394378397 0.2614077960
C 2.4712388467 0.7358849038 1.5886918697
O 3.5664724261 0.8305500241 2.4991150195
C 1.9802764915 -0.7069480307 1.5929595801
O 1.4926108240 -1.1246522011 2.8591848977
C -2.5349377297 0.2869074515 0.6179982278
O -2.2772812792 1.4701241443 1.3446857806
C -2.5072959944 0.4108744454 -0.9117715235
O -3.5829708803 1.1317850332 -1.4828440777
H 0.0017170358 -1.1605483249 -2.0481578385
H -2.4663529948 -0.9302509785 -3.4469423045
H -1.8870373510 -2.4853067750 -2.8098785184
H -3.4694461002 -1.4824628232 -1.2866420217
H -1.0283478835 -2.5487680826 2.0666079266
H -2.7390531309 -2.0593739199 2.1172867409
H -1.9247992034 -0.1561306769 3.3056372355
H 0.6920463606 -1.9819051241 0.3980366323
H 0.8741776322 1.5294631371 -0.4712192191
H 2.6906413621 0.4732675975 -2.6586020496
H 2.6458708211 2.2016719814 -2.2441984899
H 0.3509912259 0.7209715446 -3.0245062675
H 3.7624792651 0.5496110638 -0.1284045418
H 3.9588152129 2.7155960887 -0.3623287130
H 1.6517291370 1.4015537962 1.9093168517
H 3.9087811061 1.7319765574 2.4226357254
H 2.8296067629 -1.3596901781 1.3553935859
H 0.6015753296 -0.7481158543 2.9883223147
H -3.5286084524 -0.0619170849 0.9287018622
H -1.3580209184 1.7214419626 1.1697967476
H -1.5900793768 0.9288448340 -1.2186044856
H -4.4116687762 0.7113311238 -1.2127339348
