32
CONF10
C 4.8463922721 -1.6712370303 1.5509962228
O 3.6826009692 -1.5319594931 0.7021921602
C 3.0716006591 -0.3591995806 0.7502925535
N 3.4413544527 0.6373486542 1.4975524476
C 2.7305282377 1.8005712505 1.4629095096
C 1.6338878727 1.9736939752 0.6676925101
C 1.2146988322 0.9077869188 -0.1527246980
N 1.9731329685 -0.2586965959 -0.0732446572
N 1.4608836786 -1.2018227685 -0.9025068212
C 0.4345696391 -0.5381953113 -1.4285667376
N 0.2257203895 0.7359111326 -1.0221665546
S -0.7184222767 -1.3785582939 -2.5413520844
O -0.0765153019 -2.5943581619 -3.0207681444
O -1.3051409681 -0.3622087820 -3.3996985652
N -1.9503920002 -1.9062394038 -1.4582528024
C -2.6705888258 -0.9028058808 -0.7663659855
C -2.3358025891 -0.5008287352 0.5284032728
C -3.0279211938 0.4686805695 1.2256869864
C -4.1010111060 1.0895975673 0.5929365448
C -4.4778393956 0.7282780127 -0.6954840715
C -3.7680199802 -0.2640223209 -1.3514034879
F -4.1526984989 -0.6390861613 -2.5746310452
F -1.2790058290 -1.1116122910 1.1160058316
F 0.9465656577 3.1192781008 0.6493100661
H 5.1999739076 -2.6845979535 1.3680885540
H 5.6049826327 -0.9355095072 1.2740115879
H 4.5675810537 -1.5359392902 2.5985933099
H 3.0727651842 2.6068741175 2.1048365193
H -1.5562455640 -2.6177718330 -0.8472604862
H -2.7174316356 0.7341202739 2.2289616332
H -4.6534560692 1.8632068745 1.1142341287
H -5.3167471839 1.1941452457 -1.1982771202
