22
CONF235
C 1.8930173215 -0.4813209837 -0.7976438101
C 1.3449150076 -0.3944226105 0.6238582977
C 0.0203316097 0.3738234469 0.7434086073
C -1.0812591037 -0.1593990098 -0.1710796065
C -2.4263115461 0.4914666860 0.1303672378
O -3.4644493795 -0.1215854959 -0.6489032008
O -1.1616335432 -1.5727209868 0.0334599780
O 0.2281187575 1.7775146871 0.5272638322
O 2.3253017333 0.2210209839 1.4756333819
O 3.1690887817 -1.1274659253 -0.8066976199
H 1.9721933150 0.5256069067 -1.2395908102
H 1.2284373201 -1.0838742861 -1.4242006864
H 1.2045182633 -1.4082719872 1.0122219777
H -0.3111262557 0.2915551645 1.7863410474
H -0.8140078595 0.0554895934 -1.2226447224
H -2.6888741395 0.3151686899 1.1794881486
H -2.3777190291 1.5720449498 -0.0490936103
H -3.3614977658 0.1728678314 -1.5634268335
H -1.9972954476 -1.8528100946 -0.3686590109
H 0.3447966238 1.9322395973 -0.4205759852
H 2.2673702081 1.1746832879 1.3080341917
H 3.6860853397 -0.7016104396 -0.1075606930
