43
CONF9
C 2.8107019312 3.7890305519 -2.7675622129
O 3.0861316023 2.5908043468 -3.5018652992
C 2.8702955476 1.4023827788 -2.8678189766
C 2.4092400181 1.2956647893 -1.5572846422
C 2.2414681003 -0.0033653559 -1.0786171179
C 2.5153033110 -1.1596572976 -1.8449658390
C 2.9821619154 -1.0194220188 -3.1560317370
C 3.1527694253 0.2589778117 -3.6523377253
N 2.2553130513 -2.3038949765 -1.1001893457
C 1.8280654513 -1.8395844146 0.0462958387
N 1.8129235765 -0.4768436965 0.1408555925
S 1.3053525683 -2.8319328372 1.4595259852
O 1.1408049253 -1.8129751260 2.5858841381
C -0.4266746246 -3.2455543333 0.8065130163
C -1.2169342892 -2.0095164731 0.5492080291
N -1.1063955667 -1.5050289983 -0.6897230860
C -1.7281742815 -0.3573724765 -0.9639531233
C -2.4668066095 0.3726173468 -0.0350447044
C -3.1347256980 1.6651348891 -0.3921733001
C -2.5730411268 -0.1763154394 1.2469259677
O -3.3300923546 0.4937382570 2.1795878870
C -2.5369051356 1.2530215961 3.1175926793
C -1.9700944090 -1.3986237869 1.5680645817
C -2.1734996768 -2.0388078358 2.9125327402
H 3.0408632439 4.6116062227 -3.4450871987
H 1.7547571328 3.8359682369 -2.4751158698
H 3.4446588710 3.8577243364 -1.8752967356
H 2.1868758064 2.1554189032 -0.9390110771
H 3.2008395724 -1.8892304486 -3.7665793908
H 3.5092336882 0.4158924744 -4.6649704686
H 1.5016954592 0.0488304951 0.9458041468
H -0.2410158097 -3.8175269473 -0.1066387917
H -0.8380668229 -3.8922886084 1.5845273386
H -1.6304259410 0.0170690859 -1.9829055703
H -2.9198031343 1.9326726962 -1.4293716683
H -2.7951884259 2.4802195614 0.2547519204
H -4.2199806299 1.5905022189 -0.2683244898
H -1.9690842547 2.0312243820 2.5940584119
H -3.2403496368 1.7117835529 3.8140535049
H -1.8449443241 0.6017465657 3.6635521383
H -2.5121918557 -3.0731621109 2.7946586937
H -1.2438177703 -2.0589495338 3.4878462078
H -2.9312441011 -1.5019777861 3.4843568812
