55
CONF40
C -7.1083822260 -0.3919385852 0.9191781914
C -6.4615267846 -1.6980394009 0.5109864456
O -5.4980164339 -1.4922268499 -0.5648679332
C -4.2686384093 -1.0714807362 -0.1874345285
O -3.9090468799 -0.9114810648 0.9669579515
N -3.5031093220 -0.8695490484 -1.3062526879
C -2.1576878577 -0.4853713344 -1.3513957926
C -1.5063851315 0.1279787186 -0.2781310209
C -0.1547297168 0.4420621483 -0.3861649688
C 0.5250657261 0.2732461514 -1.5946371285
C -0.1425915100 -0.2947225063 -2.6794816729
C -1.4610116754 -0.6999598895 -2.5502129460
S 2.2180467515 0.8004940627 -1.7327528673
C 2.1195768317 2.2315766431 -0.6759766872
C 2.8645297859 3.3769190031 -0.9585284548
C 2.7705541228 4.4796721650 -0.1164966947
C 1.9117213824 4.4554074798 0.9821934730
C 1.1583569490 3.3190095735 1.2558559515
C 1.2822328372 2.1967409972 0.4416856943
N 0.5567880616 0.9946647933 0.7213103327
C 0.8308742209 0.3099367320 1.8999176946
O 1.5941991549 0.7878818195 2.7340643379
C 0.1922475365 -1.0420758030 2.1370151408
C 1.2711966426 -2.1280085704 2.1909590093
N 1.9376946898 -2.3122680183 0.8969349259
C 3.1725838180 -3.0914223592 1.0719702199
C 3.8614059399 -3.2903866872 -0.2663580510
O 3.0088850534 -3.9796363155 -1.1888730776
C 1.8029251732 -3.2305881327 -1.3750095525
C 1.0723011564 -3.0184886891 -0.0602206902
H -7.8667889814 -0.5907822086 1.6829732213
H -7.5973252676 0.0818347307 0.0632486589
H -6.3709942818 0.2981033665 1.3373854153
H -7.1895346703 -2.3879638989 0.0796775684
H -5.9561496112 -2.1838584444 1.3494743523
H 2.0291166297 -1.8351760390 2.9255008540
H 0.3738155368 -0.4307005778 -3.6240799424
H -1.9661350929 -1.1644784919 -3.3914772838
H 3.5061514249 3.4025569377 -1.8335083274
H 3.3541198329 5.3684509313 -0.3331908240
H 1.8246930263 5.3247029680 1.6254385798
H 0.4869937501 3.2855205465 2.1065356024
H -0.2917927818 -0.9877272437 3.1180796660
H -0.5745121493 -1.2967760284 1.4089431671
H 0.8103473145 -3.0687315179 2.5459597614
H 3.8456040523 -2.5490679276 1.7468881428
H 2.9616445244 -4.0818282105 1.5217959858
H 4.1470067529 -2.3130820625 -0.6893686196
H 4.7583159410 -3.9045532022 -0.1463430015
H 2.0437473877 -2.2568157738 -1.8309025347
H 1.1782698718 -3.8023737637 -2.0673450320
H 0.7558252665 -4.0003060553 0.3444862418
H 0.1693751485 -2.4292719101 -0.2582930903
H -2.0298259973 0.3333810635 0.6446617706
H -3.9274050948 -1.1351240424 -2.1842068943
