41
CONF47
O 8.7659634774 0.1577264662 -1.7731523465
N 8.1602754031 -0.2835534848 -0.7922079067
O 8.7245207658 -0.8179901490 0.1667998563
C 6.7135872266 -0.1683823340 -0.7652932174
C 6.0593488444 0.4453163035 -1.8346303939
C 4.6825533861 0.5506351725 -1.7982816951
C 3.9482685636 0.0457538142 -0.7087200086
C 4.6345502994 -0.5683574771 0.3608278104
C 6.0095148958 -0.6742826378 0.3326094145
N 2.5633038943 0.2154353710 -0.7870792037
N 1.9149621526 -0.3056340684 0.1854819745
C 0.5492471899 -0.1505131565 0.1601408086
C -0.1879810409 0.5407621781 -0.8314148262
C -1.5529769015 0.6340782411 -0.7552785310
C -2.2800496503 0.0389911038 0.3220274242
C -1.5306840304 -0.6551235795 1.3135917746
C -0.1629268804 -0.7397908122 1.2262413778
N -3.6310136037 0.1331235662 0.3906261403
C -4.4041630905 -0.5610819802 1.4183856129
C -4.5383083231 0.2837462659 2.6912704508
O -5.3121514274 -0.3977651341 3.6787814075
C -4.4156190451 0.9102588665 -0.5787413247
C -4.7846636591 0.0957563625 -1.8161103139
H 6.6262517442 0.8305819471 -2.6725129950
H 4.1455830529 1.0241453753 -2.6135253700
H 4.0775237326 -0.9537146042 1.2055490383
H 6.5459918301 -1.1422795860 1.1486382421
H 0.3342398671 0.9955614236 -1.6651371174
H -2.0793792371 1.1569275621 -1.5431097035
H -2.0259313204 -1.1095369271 2.1613773885
H 0.3982410728 -1.2650372776 1.9933094226
H -5.4014092456 -0.7590446558 1.0098670000
H -3.9550551322 -1.5306618166 1.6529040565
H -4.9764027637 1.2605226670 2.4418571284
H -3.5521756919 0.4567837027 3.1333847472
H -6.2259193303 -0.4327180318 3.3680663615
H -5.3229307367 1.2385123671 -0.0626890232
H -3.8670840919 1.8161642472 -0.8500849998
H -5.3639653136 -0.7896091205 -1.5371718633
H -3.8908711984 -0.2315164447 -2.3549440563
H -5.3922653457 0.7058094698 -2.4910125622
