45
CONF178
C 4.4056901860 3.0744513443 -1.5627164961
C 3.7394408813 2.4169852535 -2.7710530903
C 3.0934836443 1.0626112252 -2.4631117727
C 1.9394103021 1.1331169804 -1.4618001424
C 1.2711533401 -0.2254199376 -1.2504037259
C 0.0081342731 -0.1867995095 -0.3688104344
C 0.3129011623 0.3189460376 1.0559718542
C -0.8705841212 0.2434558818 2.0238905981
C -2.0678036689 1.0938166882 1.5999869597
C -3.2231610343 1.0778187269 2.6054195336
C -3.8635043877 -0.3004429536 2.7723605483
C -0.6635102109 -1.5435005690 -0.3534014581
C -0.0516701395 -2.6437872145 0.2561117082
C -0.6692748778 -3.8890416255 0.2706151876
C -1.9156980084 -4.0607288513 -0.3266714209
C -2.5342926168 -2.9769436488 -0.9399473120
C -1.9107164234 -1.7318302949 -0.9509627639
H 5.1394873950 2.4003078120 -1.1065080972
H 3.6758601292 3.3417218446 -0.7927344354
H 4.9284140214 3.9915026108 -1.8510385496
H 2.9783476081 3.0927255656 -3.1834759038
H 4.4869997954 2.2782371225 -3.5617365287
H 2.7245199563 0.6220656942 -3.3987810391
H 3.8602384781 0.3738402875 -2.0807652278
H 2.3098897678 1.5165701905 -0.5047623686
H 1.1913247671 1.8563559817 -1.8189652787
H 1.9956166223 -0.9257091025 -0.8118234242
H 0.9938234180 -0.6460755093 -2.2261512453
H -0.6922697614 0.5174338237 -0.8381813016
H 1.1521240977 -0.2608592919 1.4641609594
H 0.6587795712 1.3580081589 0.9928971792
H -1.1765350989 -0.8037497864 2.1282310853
H -0.5358266454 0.5713500809 3.0175576682
H -2.4468872268 0.7407476334 0.6317943830
H -1.7336287911 2.1291451762 1.4445635352
H -3.9877440203 1.7915842011 2.2746991633
H -2.8650342401 1.4393716062 3.5787741653
H -4.1667832572 -0.7087465997 1.8013916383
H -4.7516450736 -0.2488287437 3.4096682111
H -3.1735566935 -1.0168772536 3.2274906548
H 0.9170685102 -2.5239998067 0.7329170265
H -0.1777838835 -4.7292094605 0.7515791413
H -2.3994572328 -5.0320573179 -0.3135311767
H -3.5052523560 -3.0984847557 -1.4102162073
H -2.4000871464 -0.8890765943 -1.4326569964
