45
CONF3
C 1.8944196207 2.6041097711 -1.6399342621
O 2.7581086547 2.6088850903 -0.4771831595
C 2.8460086707 1.4831884116 0.2379496044
C 3.6992689945 1.4730541378 1.3338306513
C 3.7577452664 0.2716059462 2.0371480542
O 4.5762848090 0.2224530614 3.0950840006
C 4.6491522953 -1.0199138109 3.8329940380
N 3.0455831259 -0.8103006566 1.7062916082
C 2.2597858737 -0.6695665288 0.6368016216
N 1.5199939109 -1.8059456913 0.3191610973
C 0.5608828162 -2.0320270800 -0.6560396388
O -0.0342712806 -3.0998049261 -0.7164845684
N 0.3419835352 -0.9867620749 -1.5338837847
S -0.9999180522 -0.9921632061 -2.5643126419
O -1.0997002161 0.3909940444 -3.0348209566
O -0.8640710614 -2.0849693253 -3.5253401022
C -2.3880025838 -1.3350277659 -1.5094195366
C -2.9688089912 -0.5034104392 -0.5465879760
C -4.0869088468 -1.2312946185 -0.1076196880
N -4.1846312483 -2.4036153346 -0.7362703986
N -3.1507988151 -2.4613766385 -1.5844684108
C -2.9799284012 -3.6565652077 -2.4098654156
C -2.5444355805 0.7802332962 -0.0391684926
N -3.3790600546 1.6238127747 0.5841584992
N -2.5659107691 2.6140822227 0.9129496966
C -3.0115243088 3.8095067940 1.6164425242
N -1.3099145771 2.4272861407 0.5331111489
N -1.2757892397 1.2637112575 -0.0722050132
N 2.1221387423 0.4154895675 -0.1247718648
H 1.9888920028 3.6040416812 -2.0616818742
H 0.8590645878 2.4105760666 -1.3480382200
H 2.2296183343 1.8540165725 -2.3615171439
H 4.2842147825 2.3373110020 1.6174936457
H 5.3637680379 -0.8274617667 4.6325665714
H 5.0043887956 -1.8281423545 3.1891432731
H 3.6716588361 -1.2775152942 4.2478131896
H 1.6635846770 -2.5955105273 0.9351124752
H 0.7394174506 -0.0690474352 -1.2768091162
H -4.8075958465 -0.9491997811 0.6473422790
H -3.1287705368 -3.4138704384 -3.4635998025
H -1.9783239666 -4.0624191682 -2.2643791265
H -3.7333624889 -4.3700112146 -2.0784519120
H -2.1381251627 4.4395056793 1.7807295748
H -3.7489024497 4.3331630109 1.0041603577
H -3.4572096389 3.5188951477 2.5699337761
