24
CONF2
O 4.7208924848 1.2532135918 0.3037088003
S 3.7413712051 0.1937477916 -0.4294730868
O 3.7853988779 0.3729501009 -1.8750879260
O 3.9730101899 -1.0842298368 0.2249086977
C 2.0490523216 0.8519258102 0.1970667825
F 2.1804289108 1.1676383617 1.4917711031
F 1.7621118160 1.9570729592 -0.5129198971
C 0.9288632795 -0.2224154640 0.0146418400
F 1.1064623197 -0.8204102582 -1.1850715866
F 1.0597337345 -1.1416235719 0.9944249083
C -0.5181958040 0.3838396844 0.0672138980
F -0.7676547953 0.9971367269 -1.1105207802
F -0.5646869327 1.2980911293 1.0623374861
C -1.6278120283 -0.6960486730 0.3257665116
F -1.6209588669 -1.0139753220 1.6394155195
F -1.3385451198 -1.8015622502 -0.3971741894
C -3.0636204477 -0.2091859143 -0.0694419078
F -3.2315801955 1.0701775011 0.3381288831
F -3.1895056746 -0.2675925100 -1.4117785029
C -4.2173662305 -1.0619183132 0.5550103833
F -4.3226802060 -0.8363002348 1.8683670017
F -3.9951834890 -2.3672770377 0.3479732680
F -5.3712247076 -0.7193546347 -0.0324043850
H 4.8441857266 2.0441759565 -0.2574774385
