40
CONF54
C 1.5790454601 3.9206982215 -0.8807552971
C 0.5142648180 2.8519892824 -0.9411392720
O 1.0852215468 1.5913978143 -1.4287977677
P 1.6803582642 0.4750597291 -0.4680314565
S 1.7343133758 0.7865222850 1.4470733926
O 3.0677997629 0.2018073545 -1.2067385359
C 3.9871366159 -0.8276823367 -0.7057884491
C 5.2153443282 -0.7920272071 -1.5806784402
O 0.9000000363 -0.9076075036 -0.9307955361
C -0.4076219483 -1.1680332515 -0.6283778191
N -1.1805880387 -0.1775196686 -0.2246799796
C -2.4590303018 -0.4970743802 0.0518053211
N -2.9921264097 -1.7135286445 -0.0676773378
C -2.1841958907 -2.7086663791 -0.4946474836
C -2.7989499620 -4.0648306832 -0.6279721237
C -0.8479109903 -2.4774773406 -0.7886417224
C -3.3478517756 0.6264480765 0.5261414883
C -3.5344397701 1.6663579304 -0.5867176762
C -2.7802833622 1.2734972370 1.7951812754
H 2.0443350906 4.0625706491 -1.8600528769
H 2.3514904180 3.6597840787 -0.1515885538
H 1.1191028916 4.8656099261 -0.5739611497
H 0.0506307206 2.6749249055 0.0333003917
H -0.2645914046 3.0897470927 -1.6687672011
H 3.4801120866 -1.7968544923 -0.7575780400
H 4.2228874118 -0.5972721908 0.3380775863
H 5.7010344662 0.1860745380 -1.5278644777
H 4.9597454492 -1.0088850755 -2.6212981527
H 5.9225893551 -1.5501566977 -1.2315309207
H -3.6270429277 -4.0265223796 -1.3432878234
H -3.2178871461 -4.3790670793 0.3333540089
H -2.0701102014 -4.8047954247 -0.9625005807
H -0.1798765192 -3.2618544948 -1.1222438835
H -4.2236540348 2.4480546632 -0.2526147441
H -2.5771047614 2.1345405639 -0.8358457669
H -3.9433098194 1.2095451319 -1.4934920658
H -2.6435627862 0.5345543062 2.5910843077
H -1.8118595975 1.7398800881 1.5886999836
H -4.3189891022 0.1771217128 0.7568979449
H -3.4658224318 2.0465232357 2.1560700480
