28
CONF95
O -3.1656324928 2.2211528798 0.6215700476
C -2.5711936129 0.9986577243 1.0687307938
C -2.1046745622 0.2226128233 -0.1338361887
O -0.9997336662 0.9073992090 -0.7809274097
C -0.0766950647 -0.0313049920 -1.2959377097
C -0.6475824242 -1.4200848263 -1.0155081555
C -1.5629712732 -1.1676146611 0.1858156840
O -2.6502573069 -2.0751428902 0.3053970959
N 1.2519232782 0.1775702047 -0.6287702815
C 1.3850549159 0.8407322678 0.5567988334
C 2.5795461971 1.0099250031 1.1725424035
C 3.7777484342 0.4836809520 0.5784015826
O 4.9195152981 0.5708305637 1.0318733229
N 3.5539497485 -0.1788331246 -0.6375896121
C 2.3492065719 -0.3765378822 -1.2786668298
O 2.2483783616 -0.9928908025 -2.3338210306
H -3.4798977293 2.6973372929 1.3995107499
H -1.7233599250 1.1922605151 1.7420456270
H -3.3022019241 0.3726653217 1.6021929872
H -2.9306436886 0.1282429540 -0.8551280670
H 0.0953162016 0.1567684833 -2.3584828949
H 0.1280689277 -2.1660810042 -0.8358030785
H -1.2612910219 -1.7362709727 -1.8655325360
H -0.9804572826 -1.1355234837 1.1194516276
H -2.3074529205 -2.9050635323 0.6595754392
H 0.4642854592 1.2371135649 0.9671041399
H 2.6482470779 1.5454161267 2.1094838608
H 4.3628050367 -0.5770171058 -1.1004904064
