26
CONF313
C -2.4191078379 -0.0925416300 -0.2024245281
C -1.6140794317 -1.1740776473 0.4979962171
C -0.2091652151 -0.7345462799 0.9308782747
C 0.6614287672 -0.2022341430 -0.2050940463
C 2.0663453768 0.1976343344 0.2988750866
C 3.0708093284 0.3189771024 -0.8337625113
O 2.5789878895 1.1233452804 -1.9147175567
O 2.0177674927 1.4821529994 0.9368718663
O 0.7204201341 -1.2511720322 -1.1735363905
O -0.2913697354 0.2981314822 1.9205335415
O -2.3630900389 -1.5164447401 1.6863626855
O -3.7252286070 -0.5629365283 -0.5461698513
H -2.4799925962 0.8000465140 0.4374291106
H -1.9313721971 0.1839538041 -1.1410443287
H -1.5323932719 -2.0479372363 -0.1591696859
H 0.2947632859 -1.6187518651 1.3586444378
H 0.1979033868 0.6993350519 -0.6319815220
H 2.4355752204 -0.5695468106 1.0008373802
H 3.2868308951 -0.6668350258 -1.2530553082
H 4.0045952699 0.7330932351 -0.4277589587
H 1.2921524538 1.4458581686 1.5789006461
H 1.0603736558 -0.8612107816 -1.9896382349
H -0.9237841500 -0.0062318914 2.5876190014
H -2.1189684830 -2.4127114363 1.9497205126
H 2.3467185206 1.9846916027 -1.5429261772
H -4.1082807598 -0.9205745470 0.2661986717
