31
CONF22
C -1.9604273252 -0.7249994404 -1.0833101690
C -3.2091878254 -0.1202087988 -1.1314445603
C -3.8284779781 0.2393733296 0.0600250937
C -3.2356951085 -0.0020855955 1.2932487340
C -1.9915319792 -0.6185678133 1.3295792498
C -1.3350844431 -0.9778023435 0.1448818849
C -0.0132995922 -1.6295031035 0.1878850911
N 1.0343242473 -1.3675103895 -0.5104177477
O 0.8487009367 -0.3489467865 -1.4130623299
C 2.1106795833 0.1032724222 -1.9377422143
C 2.6842053526 1.2247900547 -1.0845618860
O 1.7531231611 2.2931135832 -0.9179561212
C 1.2828417131 2.2364839361 0.4430215604
C 2.4856237396 1.6674808790 1.1693620675
O 3.0045626678 0.7286391997 0.2089431781
C 0.2125047407 -2.7372770568 1.1983929565
F 1.2660930961 -3.5176876842 0.9054475256
F -0.8759875674 -3.5375318031 1.2865011575
F 0.4281856500 -2.2335668907 2.4458408372
Cl -5.4038148559 1.0138420001 0.0048583179
H -1.4805385658 -1.0178899239 -2.0088501706
H -3.6932346949 0.0649161906 -2.0834213461
H -3.7335210581 0.2847969634 2.2122517423
H -1.5298262298 -0.7995101971 2.2935129624
H 1.8897604289 0.4878853658 -2.9371568690
H 2.8169231828 -0.7303279166 -2.0055393310
H 3.5785873748 1.6329318772 -1.5838558443
H 1.0180113440 3.2493973702 0.7537482382
H 0.4109511844 1.5732798209 0.5241496567
H 2.2335166281 1.1195743759 2.0800318820
H 3.2320330866 2.4436385917 1.3865893564
