46
CONF69
C 6.8949000401 -0.4893157549 -1.1094699375
C 5.4639858350 -0.9480982611 -1.2638967472
O 4.7209063207 -0.3670851115 -0.1600019455
C 3.4194737432 -0.6374423017 -0.0751346414
N 2.8582084200 -1.4189161837 -1.0012873238
C 1.5425773246 -1.6146337903 -0.8180817572
N 0.8074344637 -1.0931095475 0.1876364171
C 1.5089905045 -0.3467601167 1.0459898772
N 2.8171709399 -0.0735892414 0.9743455908
N 0.8697203492 0.2204665991 2.1290675559
C -0.4657498075 0.1782117472 2.5666575239
O -0.8017908326 0.8034551807 3.5533904448
N -1.2999019714 -0.6049079373 1.8047932347
S -2.9955855226 -0.6116632189 2.0071251209
O -3.4741716549 -1.2807307766 0.7931982649
O -3.3008080806 -1.1317383481 3.3347161957
C -3.5087768770 1.1183004023 1.9706079555
C -3.8053201332 1.7034732229 3.1968162956
C -4.3375757124 2.9866942291 3.2306647987
C -4.5998897761 3.6627313706 2.0439052157
C -4.3137092291 3.0661192994 0.8224905577
C -3.7416289449 1.7944116566 0.7674676378
C -3.4358426877 1.2656495185 -0.5970221785
O -4.2171052153 1.2914813283 -1.5170270877
O -2.1550900276 0.8535163016 -0.6945852064
C -1.8061576061 0.2886684923 -1.9766789784
N 0.8853294612 -2.3821653785 -1.7125911554
C 1.5559784562 -3.1001953218 -2.7845794775
H 7.4998390934 -0.9039910690 -1.9209691162
H 6.9611295898 0.6009524645 -1.1496277256
H 7.3118639431 -0.8285263144 -0.1577664078
H 5.0214256654 -0.6094761502 -2.2065415972
H 5.3726458817 -2.0382412644 -1.2173493465
H 1.4643640182 0.7809298238 2.7235530308
H -0.9416072721 -0.9440407021 0.9059238752
H -3.6208972302 1.1462962114 4.1066676002
H -4.5595217041 3.4487533014 4.1864509655
H -5.0332262977 4.6570854223 2.0669814117
H -4.5253658817 3.5776414703 -0.1102633501
H -2.4082495220 -0.6061721723 -2.1598010509
H -0.7471877337 0.0419437044 -1.9048609122
H -1.9856505589 1.0139772229 -2.7741090168
H -0.0654037144 -2.6169212874 -1.4780383248
H 2.2223369203 -3.8811016289 -2.3988788097
H 0.7960407465 -3.5608002084 -3.4186638207
H 2.1518919649 -2.4111372792 -3.3882809485
