52
CONF10
C 1.8170579162 0.6128601770 -0.1963291557
C 2.9412420370 1.3373890731 -0.9548497228
C 4.2424812367 0.6636479855 -0.4514114091
C 3.8045967081 -0.4956507652 0.4933100010
O 4.7301331669 -1.5790506696 0.3367056298
C 3.8127060184 -0.0550150237 1.8886444299
C 3.8566600699 0.2812868164 3.0455198705
C 2.3514512374 -0.8155293099 -0.0024397039
C 2.4634478813 -1.5994801500 -1.3172880146
C 1.4375088480 -1.5460497257 0.9786587361
C -0.0150983215 -1.5385754051 0.4782089384
C -0.5401773636 -0.1205995578 0.1832617817
C 0.4004398966 0.6650154670 -0.7583625835
C -0.0860153361 2.1053632655 -0.8948207794
C -1.5125971190 2.1443995473 -1.4374309643
C -2.4686149647 1.3197182354 -0.6264030295
C -3.7148638215 1.7767118927 -0.3797327482
C -4.6427069115 0.9010675429 0.2654808490
C -4.3144219429 -0.2985587097 0.8234501475
C -2.8866837392 -0.7155103204 0.8944151774
C -2.0371697337 -0.1104783369 -0.2671682976
C -2.2786237868 -0.9549114011 -1.5386128268
C -5.5515123179 -0.7857768769 1.2967323158
N -6.5491505658 0.0381327848 1.0413346060
O -5.9647255190 1.1340349911 0.3755357022
H 1.7686168912 1.0571143060 0.8114133863
H 2.9377752485 2.4132782183 -0.7624796973
H 2.8235655101 1.2021428078 -2.0361405160
H 4.9018392801 1.3547182731 0.0764007336
H 4.8204699237 0.2185637383 -1.2652114940
H 4.6520019303 -2.1467753442 1.1125844082
H 3.8987288659 0.5873263967 4.0631023394
H 3.1342421544 -1.1192605852 -2.0331202339
H 1.4891945467 -1.7084462948 -1.7979365178
H 2.8612030397 -2.5982214918 -1.1212497935
H 1.4841912981 -1.0451251174 1.9532195295
H 1.7696317287 -2.5818604376 1.1292170750
H -0.0956709284 -2.1610973751 -0.4192624919
H -0.6433637322 -2.0133210121 1.2383586161
H -0.5195237741 0.4313707751 1.1386335353
H 0.3945673867 0.2039555513 -1.7574410481
H 0.5758012292 2.6705084634 -1.5606432716
H -0.0470812231 2.5924906798 0.0898338526
H -1.8837879978 3.1722547679 -1.5056548975
H -1.4970908432 1.7520281637 -2.4660112685
H -4.0340317047 2.7609687525 -0.7082182019
H -2.7967994451 -1.8058271826 0.8718423918
H -2.4660058667 -0.3836522653 1.8562705333
H -1.6900971372 -0.5974107509 -2.3874348448
H -3.3368086567 -0.9045697596 -1.8139150773
H -2.0268436322 -2.0051292730 -1.3657371274
H -5.7700879506 -1.7104650446 1.8171880238
