39
CONF172
C -3.5296857929 -1.0347703647 2.0456003162
C -3.0578938941 0.0869530038 1.1230898344
C -1.6988791158 -0.2556637183 0.5140187349
N -1.2022307538 0.7687770275 -0.4210117980
C -0.6425486274 1.9922630733 0.1701895140
C 0.8649990917 1.9508358650 0.3101024256
O 1.1969975576 0.9203309597 1.2859644054
C 2.4984326407 0.5340961491 1.2647908330
C 2.9367578866 -0.5045174440 0.4324707139
Cl 1.7818986952 -1.2752884365 -0.6269678543
C 4.2527629917 -0.9481434634 0.4309005159
C 5.1505975750 -0.3295010800 1.2909479899
Cl 6.8162720831 -0.8716562042 1.3071991347
C 4.7722334616 0.7006690132 2.1416120990
C 3.4478946983 1.1187418541 2.1117284399
Cl 2.9413589596 2.4083198174 3.1734695713
C -1.0103403271 0.6139613923 -1.7477613380
O -0.3921587679 1.3990558968 -2.4581463046
N -1.5739943794 -0.5671710713 -2.3526643972
C -0.9157990092 -1.3010938754 -3.3261703962
C -1.8132256848 -2.2409806489 -3.7464803463
N -3.0193045834 -2.0912088114 -3.0847283013
C -2.8453043107 -1.0843752355 -2.2588171476
H -4.4933145426 -0.7884224338 2.4995118670
H -3.6454403978 -1.9727873612 1.4917678966
H -2.8095032895 -1.2065957277 2.8527370582
H -3.7915319295 0.2574429272 0.3271418793
H -2.9843945220 1.0251141756 1.6851357816
H -0.9533938023 -0.3582703625 1.3102857747
H -1.7435827673 -1.2167953271 -0.0029650782
H -1.1018013088 2.1337235620 1.1519709581
H -0.9028405327 2.8511862381 -0.4554419645
H 1.3423634887 1.7136346081 -0.6452970414
H 1.2300150153 2.9198533560 0.6722350782
H 4.5635136996 -1.7545857124 -0.2213643176
H 5.4845028824 1.1687838392 2.8094555934
H 0.1041407452 -1.0833352659 -3.6016329366
H -1.6631689862 -3.0158584551 -4.4851056423
H -3.5944042635 -0.6627213619 -1.6035115805
