24
CONF5
O -0.8141283431 1.3053996355 -1.6590208145
C -1.6053194654 0.5952374953 -0.8181106097
C -1.1532056302 0.4135480697 0.4965187793
O 0.0267794633 1.0179639775 0.9058017504
C 1.2081704348 0.5078029346 0.4371641371
C 1.3197010149 -0.7285826329 -0.1937481949
C 2.5565430981 -1.1957304207 -0.6224342930
C 3.6848561394 -0.4158256499 -0.4088920010
Cl 5.2540696310 -0.9948142198 -0.9474739554
C 3.6063107275 0.8190587125 0.2231539426
C 2.3622800296 1.2724012042 0.6397497354
Cl 2.2385347407 2.8251195539 1.4324567214
C -1.9098348180 -0.2906232423 1.4171818071
C -3.1377589761 -0.8371447458 1.0518899279
C -3.5700814051 -0.6587567771 -0.2551876943
Cl -5.1141200365 -1.3432763330 -0.7471715757
C -2.8294948500 0.0455385113 -1.1967922733
H -1.2199401135 1.3476935497 -2.5361347276
H 0.4318065353 -1.3314937819 -0.3505352168
H 2.6340193025 -2.1582498131 -1.1140522291
H 4.4900138332 1.4235024560 0.3876156755
H -1.5300774273 -0.4079580190 2.4266387362
H -3.7350076715 -1.3885283907 1.7674198372
H -3.1941155999 0.1777178254 -2.2103440726
