52
CONF5
C 1.8538324278 0.4249048618 -0.1538401812
C 3.0530785328 1.0344266032 -0.8971343072
C 4.2753593435 0.2377831128 -0.3705331665
C 3.7028071366 -0.8820146514 0.5620554814
O 4.4068175018 -2.1281841225 0.4482939297
C 3.7454697628 -0.4387277979 1.9587049307
C 3.8330868615 -0.0706158154 3.1048302073
C 2.2417522991 -1.0511340977 0.0448616281
C 2.2885876548 -1.8379339417 -1.2757212669
C 1.2444635285 -1.6897008157 1.0087041379
C -0.1898738831 -1.5425527503 0.4783294047
C -0.5688728383 -0.0788844986 0.1841370539
C 0.4582316176 0.6148264994 -0.7380786666
C 0.1155554358 2.0960392793 -0.8729472347
C -1.2910374742 2.2743865782 -1.4413293542
C -2.3352505045 1.5414680677 -0.6532454979
C -3.5357987730 2.1204534596 -0.4242587922
C -4.5521238186 1.3314948598 0.1972916139
C -4.3511593143 0.1018213196 0.7532962366
C -2.9719247492 -0.4512816816 0.8480160008
C -2.0492490572 0.0760494940 -0.2947298692
C -2.3421882171 -0.7349278266 -1.5778988982
C -5.6341092703 -0.2728342771 1.2006613704
N -6.5492119432 0.6422901276 0.9360325764
O -5.8503759257 1.6894703016 0.2846051792
H 1.8315593427 0.8722326393 0.8532603848
H 3.1513417593 2.1067599989 -0.7096667613
H 2.9396289606 0.9004850919 -1.9788855398
H 4.9834834277 0.8671694176 0.1732426671
H 4.8220418523 -0.2516184795 -1.1812560180
H 5.2937050034 -1.9959539964 0.8083257495
H 3.9039067750 0.2477240844 4.1198887243
H 1.3285917022 -1.7879918967 -1.7928547133
H 2.5098134944 -2.8895303196 -1.0760698845
H 3.0526000913 -1.4599440570 -1.9591331006
H 1.3175101258 -1.1910729074 1.9830609633
H 1.4765037090 -2.7504741762 1.1651591064
H -0.3089012258 -2.1492846463 -0.4252947331
H -0.8740377030 -1.9613383644 1.2228322673
H -0.5122537420 0.4636306192 1.1432236044
H 0.4245358207 0.1623389538 -1.7396737973
H 0.8372976873 2.5984701189 -1.5264151304
H 0.1832378420 2.5724597876 0.1155221840
H -1.5618400680 3.3327799609 -1.5126781224
H -1.2946759427 1.8791210170 -2.4685691761
H -3.7506198889 3.1323511413 -0.7541409371
H -2.9885412271 -1.5443166312 0.8225544877
H -2.5415161253 -0.1626371444 1.8187799609
H -3.3807549596 -0.5738508509 -1.8855672854
H -2.2075279651 -1.8049916413 -1.3971740593
H -1.6918611404 -0.4401478200 -2.4051738171
H -5.9410942568 -1.1789916956 1.7106173374
