41
CONF786
C -3.7754465569 -0.7852476922 2.9455601692
C -3.1743462427 -0.9056806889 1.5487213138
C -2.2472727071 -2.1168248580 1.4647959532
N -2.4330851360 0.3358023700 1.2448871673
C -2.1594411025 0.5147171269 -0.1826848351
C -1.3646016147 1.7969901908 -0.4408580554
O -1.1834732719 1.9838663471 -1.8508237348
C -0.0236604722 1.8282108977 0.2717457876
O 0.7188469123 0.7060288591 -0.2318154669
C 2.0651016193 0.6592890725 -0.0321834114
C 2.7502664169 1.4947808046 0.8511892243
C 4.1318353136 1.3602190125 0.9909315037
C 4.8251720273 0.4011836088 0.2616781246
C 4.1251160305 -0.4313880882 -0.6128944766
C 2.7470967588 -0.3215322810 -0.7770650171
C 1.9880512688 -1.2058483837 -1.7374886061
C 1.4863286277 -0.4683775765 -2.9497374587
C 0.2480648047 -0.5541510060 -3.4353661429
H -2.9818252325 -0.6514931022 3.6895969695
H -4.4582335086 0.0692504887 3.0099869727
H -4.3369804087 -1.6890242844 3.1994987044
H -4.0002616666 -1.0486313478 0.8254504976
H -1.4326373972 -2.0153197813 2.1908936062
H -1.8091692013 -2.2322611159 0.4691408296
H -2.8030409119 -3.0322299234 1.6913170783
H -3.0092117517 1.1180620816 1.5468469816
H -1.5696687458 -0.3333627803 -0.5492970300
H -3.0791398557 0.5596723801 -0.7935787358
H -1.9415056375 2.6631412798 -0.0910122518
H -0.5723200996 1.2900427352 -2.1508600808
H -0.1537236224 1.7470241839 1.3574736439
H 0.5003168345 2.7610612757 0.0284524909
H 2.2202649334 2.2383365199 1.4347984536
H 4.6598574260 2.0125062563 1.6799111341
H 5.8995210017 0.2961639686 0.3717183243
H 4.6588536339 -1.1853564271 -1.1858533187
H 2.6691185361 -1.9989365307 -2.0721543823
H 1.1434850944 -1.6907897636 -1.2341642782
H 2.2218383381 0.1557344451 -3.4585909140
H -0.5066468222 -1.1702958935 -2.9499502875
H -0.0434431044 -0.0246919778 -4.3382164413
