76
CONF7
C 1.9863301295 2.1555484115 -2.6923587570
C 2.7615543896 2.4507467304 -1.3939366447
C 3.9782259232 3.3370076566 -1.7231916611
C 1.8317603679 3.2244864585 -0.4505634936
C 3.2527207512 1.1380353718 -0.7778224092
C 2.9851765087 0.7753289992 0.5461109656
C 3.4090720232 -0.4455298877 1.0643063351
C 4.1319000431 -1.3473679673 0.2835196979
C 4.4447149473 -0.9726244383 -1.0242063710
C 4.0107871940 0.2428717453 -1.5444706918
C 4.4931261931 -2.7205275574 0.8130637545
C 3.2431658711 -3.5976306935 0.9584538821
C 2.5755763144 -3.9252648444 -0.3858240270
C 1.0566205761 -4.0841786909 -0.3011697762
N 0.3627592111 -2.8846640029 0.1856361570
C 0.5237761389 -1.7442808357 -0.7226190086
C -0.1399877692 -0.5023276644 -0.1434255226
C -1.6334078185 -0.7304080942 0.0863782223
C -1.8047582889 -1.9711492410 0.9680197253
C -1.0661903371 -3.1666146421 0.3700371057
C -2.3354384905 0.5226514210 0.6821855225
C -3.8238538012 0.2410978863 0.8873462439
C -4.6324553337 -0.0436382860 -0.2182408779
C -5.9846486760 -0.3255925631 -0.0578216655
C -6.5561863590 -0.3221558394 1.2140564671
C -5.7599071940 -0.0339508646 2.3177187124
C -4.4024719825 0.2454895597 2.1574392928
C -2.1961331697 1.7665194635 -0.2105996130
C -2.0630213406 1.6904824927 -1.6004163436
C -1.9626971486 2.8462807679 -2.3719211105
C -1.9985276797 4.1007553058 -1.7695464069
C -2.1422306624 4.1884392400 -0.3869265643
C -2.2405654221 3.0328901256 0.3829080701
O -1.7863703444 0.8056016954 1.9768298081
O 5.2150852549 -2.6470228403 2.0589448180
H 1.6157975826 3.0923687994 -3.1233063975
H 1.1252721562 1.5085402420 -2.4925466992
H 2.6161249961 1.6662358734 -3.4406874509
H 4.5447124668 3.5674743243 -0.8145993955
H 4.6496536475 2.8395192916 -2.4297805455
H 3.6454956101 4.2794618750 -2.1725373486
H 1.4851455642 4.1330248589 -0.9535980037
H 0.9492733015 2.6332340376 -0.1789447490
H 2.3442354325 3.5263270273 0.4686827082
H 2.4109689752 1.4343524933 1.1869943833
H 3.1471680352 -0.6966960721 2.0895216434
H 5.0198822845 -1.6496980368 -1.6514576567
H 4.2656013293 0.4895232459 -2.5706853800
H 5.1920183976 -3.1924681055 0.1116190422
H 3.5278968016 -4.5220444034 1.4746592956
H 2.5314603629 -3.0656163833 1.6029089967
H 2.9873870849 -4.8589190734 -0.7857797897
H 0.6744323404 -4.3860391914 -1.2974024082
H 0.8190574584 -4.9024453639 0.3923245727
H 0.0909628375 -1.9674241856 -1.7215190873
H 1.5884364607 -1.5373899321 -0.8626579172
H 0.3556727221 -0.2686258510 0.8074472853
H -2.1022170877 -0.9496933708 -0.8821484033
H -2.8650690648 -2.2264787869 1.0747600299
H -1.4111123571 -1.7621716666 1.9695669040
H -1.1657267398 -4.0335994580 1.0342661649
H -1.5401710815 -3.4392881633 -0.5968335646
H -4.2074928011 -0.0410227224 -1.2172920692
H -6.5943760988 -0.5451600426 -0.9290586771
H -7.6121184545 -0.5399698088 1.3406540962
H -6.1925887252 -0.0268315087 3.3138441462
H -3.7919972124 0.4636322879 3.0249034545
H -2.0250947644 0.7280870815 -2.0991040220
H -1.8481241641 2.7612494690 -3.4484203699
H -1.9149993777 5.0004948318 -2.3711722205
H -2.1767256846 5.1600484984 0.0969451947
H -2.3528888072 3.1118060345 1.4589790878
H -0.8781356452 1.1075886179 1.8452737355
H 2.8220277070 -3.1543493665 -1.1234986183
H 4.5853818964 -2.4100362423 2.7524763364
H 0.0360096321 0.3438598981 -0.8140342192
