24
CONF3
C -1.7300988082 0.4900897602 -1.7709460949
N -1.7557175568 0.0666103698 -0.3783179247
C -0.6675577216 0.0353342598 0.4856271750
C -1.1279686125 -0.4567131835 1.6981192357
C -2.5073221956 -0.7307702488 1.5787000384
C -2.8592444271 -0.3889348932 0.2864517896
Cl -4.3951595654 -0.4780749350 -0.4681567974
Br -3.6545397887 -1.4017187431 2.8936182025
Br -0.0808626198 -0.6638172918 3.2404467202
C 0.6511614689 0.4876177564 0.1103741473
C 1.0996944429 1.7628888828 -0.2016755843
C 2.4845931196 1.7009884870 -0.4652082876
C 2.8524504881 0.3781664722 -0.2997442249
N 1.7519419208 -0.3572664912 0.0407516864
C 1.7325523750 -1.7960405787 0.2618592816
Br 4.5473132559 -0.3921501894 -0.4712296394
Br 3.6151905178 3.1169310089 -0.9264486933
Br 0.0309253622 3.3046025713 -0.2091194696
H -2.3027976043 1.4125683730 -1.9023891105
H -0.6918136520 0.6736278024 -2.0501735590
H -2.1501526057 -0.2926942493 -2.4082652312
H 2.1704292894 -2.3121278296 -0.5967274290
H 0.6943249447 -2.1059430541 0.3870734034
H 2.2926572633 -2.0531744581 1.1653806408
