47
CONF85
C -2.9252021562 2.9732971924 -1.0403179592
C -2.1524966592 1.8598068338 -0.3358813783
C -2.7107241062 1.5053698001 1.0448054817
C -4.0798608407 0.8501232743 1.0354091647
O -3.9715962946 -0.5322108527 0.5603159486
C -4.3578957419 -0.8176990485 -0.6835966883
O -4.8292190021 -0.0349557035 -1.4834951958
C -4.2246361435 -2.3104832228 -0.9988427306
C -5.5611381055 -2.9955584244 -0.7502137424
O -3.2622098951 -2.9750905073 -0.1764543433
C -1.9613586307 -2.5482987604 -0.2370310855
C -1.4466681116 -1.7392013463 -1.2518555133
C -0.1149544392 -1.3344076177 -1.1979211869
C 0.6807790040 -1.7397103677 -0.1409913779
C 0.1895689386 -2.5718619285 0.8556148513
C -1.1368068270 -2.9769094887 0.8065116539
O 2.0276234769 -1.3487345813 -0.0983465217
C 2.3149484027 -0.1222401585 0.4148504136
N 1.3372674466 0.6194010044 0.9199000789
C 1.6632539880 1.8158638854 1.4175236002
C 2.9653237061 2.3016101855 1.4273800176
C 3.9827657712 1.5056421254 0.8938531704
C 3.6587349320 0.2683291888 0.3754293768
C 3.2319057379 3.6520162720 2.0073064645
F 2.8506144736 3.7300235782 3.3114212432
F 2.5452082073 4.6311592385 1.3578853486
F 4.5396963305 3.9888031414 1.9581339367
H -2.4644488290 3.2193246913 -2.0020733220
H -2.9396318623 3.8834974848 -0.4302148795
H -3.9612851910 2.6812010341 -1.2376843682
H -1.1060497728 2.1642621198 -0.2123720695
H -2.1308832130 0.9624846108 -0.9654045416
H -2.7983883213 2.4192762892 1.6479786014
H -2.0154919542 0.8422945977 1.5750524835
H -4.4729830188 0.7531679487 2.0498790122
H -4.8016406568 1.3837312967 0.4132604714
H -3.9564898244 -2.3956942983 -2.0590143130
H -5.4806231636 -4.0529085393 -1.0135756417
H -5.8436240888 -2.9074094778 0.3024600942
H -6.3332935078 -2.5344272986 -1.3701528653
H -2.0607390037 -1.4060800875 -2.0800582725
H 0.2937643458 -0.6885417387 -1.9681388848
H -1.5528060975 -3.6112438756 1.5820410349
H 0.8462782311 2.4084128459 1.8263971392
H 5.0103654621 1.8504333133 0.8836669528
H 4.4070826102 -0.3885366452 -0.0516020844
H 0.8352758645 -2.8803320085 1.6710540690
