110
CONF48
C -2.9059670074 -0.1786032203 -1.2046009351
N -3.7333888647 -0.6780772142 -2.3249199996
C -3.1035321392 -1.9250131818 -2.8109200427
C -2.2730752886 -2.4383578874 -1.6189433361
C -2.5789542277 -1.4734536427 -0.4445191989
C -1.4312456813 -1.3449011295 0.5204419634
C -0.1267406112 -0.9493208468 0.2910463394
C 0.8171227689 -0.9436307403 1.3241938072
C 0.3812606412 -1.3333125444 2.6090330438
O 1.3166905663 -1.2549732628 3.6036922077
C 0.9846868116 -1.7531842509 4.9050331613
C -0.9235991539 -1.7712606381 2.8525369589
C -1.8270814418 -1.7600852755 1.7890591276
N -3.1620806245 -2.1132429579 1.8230691092
C -3.5744698914 -3.2090549052 2.6933603430
C -3.7531832043 -1.9916098514 0.4778485083
C -5.0195049650 -1.0725054204 0.4611659327
O -5.7422973798 -1.2588445395 -0.7504149091
C -4.6287104489 0.3977327800 0.6495264361
O -5.8043409811 1.2049653242 0.7304267409
C -3.6162837098 0.9450304901 -0.4262419814
C -2.5894770157 1.8119053898 0.3595702099
C -1.5675398347 2.5816459745 -0.4708307180
C -4.3122216379 1.8492406235 -1.4190338836
C -4.4388421829 1.5996669835 -2.7216710163
C -3.9795910014 0.3243236436 -3.3527892442
C -5.9612115283 -1.4688871676 1.6222245890
N -6.9506934769 -2.3149470725 1.2698319145
O -5.7859868722 -1.0780694495 2.7755146835
C 2.2551252958 -0.4501703681 1.0746464598
C 2.6900984025 -0.7914188374 -0.3863390091
C 4.1904919422 -0.7283168199 -0.7050610823
C 4.7179762148 0.7093211490 -0.6883814006
N 4.0957677116 1.4172027535 -1.7826758857
C 4.5717885675 1.0010148054 -3.0754295320
C 4.1647385512 -0.4648712609 -3.3322558788
O 4.9927577332 -0.9026046989 -4.4349394973
C 2.6809040328 -0.5818636030 -3.7215815199
C 2.3354635130 -0.0710964883 -5.1204355944
C 4.5256554104 -1.3201578905 -2.0930015348
C 3.4045883727 2.6599587172 -1.5511920318
C 2.0503018042 2.4681651156 -0.8254787338
C 2.1353147121 2.1985565893 0.6503518949
C 2.2674732560 1.0365203437 1.4060692718
N 2.2686658859 1.3830095418 2.7485051594
C 2.1726704930 2.7372139619 2.8962455292
C 2.1532026367 3.5248102710 4.0470269074
C 2.0419617838 4.8993705357 3.8770053106
C 1.9538495795 5.4690989147 2.5925864798
C 1.9765030619 4.6781247238 1.4512687095
C 2.0883629510 3.2860164285 1.5906089734
C 3.2654896983 -1.2231511906 1.9421505985
O 4.1692423132 -0.7383097550 2.5902070037
O 3.0936501397 -2.5465468339 1.7857041021
C 4.0175671988 -3.3817061617 2.5211175129
H -1.9580649975 0.2202794473 -1.6052631683
H -2.4568491892 -1.7209896466 -3.6770616940
H -3.8809080253 -2.6288002282 -3.1289028628
H -1.2059787233 -2.3767730155 -1.8507452323
H -2.4958792040 -3.4743604641 -1.3535954183
H 0.1681185900 -0.6485538416 -0.7094813106
H 0.1687035071 -1.1734019260 5.3511435598
H 0.7074093322 -2.8123200790 4.8578350849
H 1.8891218402 -1.6339154610 5.5026184014
H -1.2343919002 -2.0861181755 3.8398381313
H -3.5137868871 -2.9107980141 3.7447011583
H -4.6122483331 -3.4737170324 2.4884023444
H -2.9458433531 -4.1006406776 2.5393445915
H -4.0927122249 -2.9767863827 0.1267348848
H -5.0745038932 -1.0599209953 -1.4935868707
H -4.1583366217 0.4718823169 1.6342917801
H -6.2969344480 1.0532060101 -0.0898481489
H -3.1762312343 2.5217421497 0.9573158409
H -2.0689407714 1.1598660400 1.0707441530
H -2.0514290325 3.2653641598 -1.1755076438
H -0.9143492627 1.9151208552 -1.0408993462
H -0.9238907387 3.1727635240 0.1888657604
H -4.6692264132 2.7964805160 -1.0220987228
H -4.8885836576 2.3382407417 -3.3805068819
H -3.0687485441 0.5080242821 -3.9572767105
H -4.7424318533 -0.0534162884 -4.0468901247
H -7.1108582959 -2.5164054933 0.2954686399
H -7.6314079272 -2.5913349450 1.9600197738
H 2.1671068792 -0.1176283303 -1.0589385791
H 2.3286407745 -1.8035446860 -0.5900524557
H 4.7470374440 -1.3295714192 0.0266980912
H 5.8202232274 0.6889948883 -0.8014476481
H 4.4928484857 1.2060975277 0.2579569338
H 4.1591651046 1.6460220872 -3.8579901993
H 5.6772396052 1.0546311785 -3.1486292079
H 4.7190102481 -1.7998666213 -4.6664429450
H 2.3781693957 -1.6342797110 -3.6322426655
H 2.0911435005 -0.0265095625 -2.9859401270
H 1.2562064861 -0.1444049832 -5.2875338041
H 2.8380437760 -0.6523490347 -5.8978272662
H 2.6184877105 0.9782147128 -5.2519204262
H 5.6154006844 -1.4485823473 -2.1269818171
H 4.0804908513 -2.3184569978 -2.2030960043
H 4.0123541777 3.3818901790 -0.9731522756
H 3.2023692881 3.1205266251 -2.5252164006
H 1.4789048184 1.7010966229 -1.3557503880
H 1.4815457967 3.3987891201 -0.9448739878
H 2.3655905315 0.7165065480 3.4975923110
H 2.2206689375 3.0802183657 5.0353411374
H 2.0226015902 5.5450046910 4.7495745513
H 1.8682506354 6.5471601864 2.4959979911
H 1.9116967868 5.1362129590 0.4683985886
H 5.0445760291 -3.1822193233 2.2049760047
H 3.9178539043 -3.1937971231 3.5935287695
H 3.7342031583 -4.4062177708 2.2829002387
