126
CONF6
C -4.8716133128 -0.4854356984 4.2918548240
C -4.3861419437 0.2895283440 3.0647750999
C -3.1566390841 -0.3809010565 2.4336812229
C -3.5085850441 -1.6265984433 1.6197014120
C -4.0176817560 -1.2288619297 0.2163225158
C -5.0647232407 -2.1556944398 -0.4058889971
C -5.4142760200 -1.6558340126 -1.8056104255
C -4.1568673345 -1.5200203327 -2.6706764498
C -3.1573539160 -0.6006952323 -1.9506338083
O -2.8685471708 -1.1062520203 -0.6376024688
C -1.7415347294 -0.6226010974 -2.5793753683
O -1.2085520333 0.3908869272 -2.9845919243
C -1.0538910828 -1.9744376569 -2.7968789758
O -1.4247377301 -2.5884585932 -3.8024598800
N -0.0805987035 -2.3620816962 -1.9529816835
C 0.7428555244 -3.5362751807 -2.3015565053
C 1.1966574683 -4.2832266434 -1.0553795844
C 1.8917234552 -3.3327273346 -0.0846101876
C 0.9263277660 -2.2200378509 0.3110608400
C 0.3967272927 -1.4539519117 -0.9126064848
C 1.4387640187 -0.4949905036 -1.4896143670
O 1.9485039532 -0.5884942463 -2.5841866018
O 1.6788414502 0.4873944921 -0.6064993704
C 2.5726688962 1.5561482722 -1.0340711272
C 2.1650080423 2.8242599290 -0.2752717536
C 0.7308955530 3.3249548600 -0.5889025648
C -0.4041958080 2.5826366427 0.1504783892
C -1.7302222812 3.2787858141 -0.0466032121
O -2.4232719218 3.0394715822 -1.0312706777
C -2.2478570772 4.2160725820 1.0372241002
C -2.6415924345 3.2925258058 2.1673871244
C -3.8201062566 2.6612496836 2.2921875569
C -4.0779040978 1.7490440872 3.4612342531
C -4.9486442207 2.7944452520 1.3094945020
C -1.2545684235 5.2946152877 1.5096432253
C -1.0350291275 6.3563724833 0.4751682973
C -1.1974421320 7.6609311462 0.6876797591
O 0.4891216678 3.3811578817 -1.9961636997
C 2.4339508443 2.7369859914 1.2261085660
C 4.0267377150 1.1933970645 -0.8294842361
C 4.3913929086 0.0841316059 -0.1789385968
C 5.7796282055 -0.4064821393 0.0953168784
C 6.0267299067 -1.7482215166 -0.6172282444
C 7.4086963216 -2.3139898907 -0.2881997798
C 7.5864626878 -2.4730240072 1.2130597161
C 7.3752802413 -1.1408684671 1.9185091289
C 5.9877886276 -0.5814687486 1.6119205461
O 7.5635306103 -1.3951799644 3.3193720977
C 7.8661847698 -0.2233520801 4.0756034654
O 8.9044178669 -2.9812215019 1.4629309765
C 4.9781964294 2.2044670416 -1.4097838634
O -3.6663335222 0.6897927048 -1.9294380104
C -4.4832955704 -1.0318916088 -4.0790312850
O -6.1886233811 -2.1073296678 0.4770743681
C -7.1093122593 -3.1798245372 0.2776546483
O -2.3425466925 -2.4528847393 1.6034840950
C -2.5331302848 -3.7542965569 1.0525156420
H -5.0729225376 -1.5349471613 4.0547563462
H -5.7933663645 -0.0486431224 4.6898108224
H -4.1124477129 -0.4580076917 5.0825316247
H -5.2010240734 0.3053344921 2.3276446386
H -2.4625438777 -0.6671486625 3.2333515976
H -2.6265025071 0.3287905341 1.7836597205
H -4.3257582449 -2.1783227156 2.1094343425
H -4.5004016119 -0.2442033269 0.3085321492
H -4.6853408518 -3.1868463170 -0.4616399393
H -6.1040133035 -2.3483226629 -2.3002010383
H -5.9189946924 -0.6854890637 -1.7174089343
H -3.6780893112 -2.5034625016 -2.7328222964
H 1.6155074294 -3.1887428319 -2.8704381731
H 0.1411415656 -4.1730253075 -2.9523908703
H 1.8685027158 -5.0890505506 -1.3678474431
H 0.3298085611 -4.7442995803 -0.5649342626
H 2.7882044861 -2.9097196524 -0.5592644333
H 2.2224310420 -3.8667943596 0.8119415835
H 0.0614423836 -2.6467409666 0.8284359554
H 1.3910629305 -1.5003704009 0.9908315582
H -0.4490773719 -0.8452625745 -0.5725182023
H 2.4012681305 1.7171626290 -2.1050075314
H 2.8113562854 3.6073745391 -0.6925844702
H 0.7224575101 4.3699580780 -0.2591445396
H -0.1582726879 2.5265193378 1.2136045993
H -0.4934879092 1.5657434256 -0.2419568259
H -3.1324806502 4.7072147765 0.6214624302
H -1.8680827750 3.1076226040 2.9127607530
H -3.2193136621 1.7574400170 4.1445818544
H -4.9438149708 2.1355160876 4.0177905764
H -5.9136044531 2.7316013718 1.8232482111
H -4.9215823996 1.9770808334 0.5772583224
H -4.9078803738 3.7282522082 0.7452151496
H -0.3035309049 4.8181617880 1.7857290849
H -1.6532087024 5.7486112369 2.4237565542
H -0.7410642745 6.0185179395 -0.5199553724
H -1.5017344207 8.0404542554 1.6606987337
H -1.0293738636 8.3877765748 -0.1013473080
H 0.1398946030 2.5265070914 -2.2849876265
H 3.5080013210 2.6686347462 1.4185205231
H 2.0532113577 3.6287598228 1.7350696282
H 1.9571424341 1.8582004578 1.6708697092
H 3.6097284513 -0.5696682553 0.2069614666
H 6.5209890849 0.3159930320 -0.2661575347
H 5.2503178432 -2.4603885833 -0.3040338211
H 5.9220530428 -1.6156915795 -1.6996543660
H 8.1891205343 -1.6388136481 -0.6642277200
H 7.5542397041 -3.2853958346 -0.7736631299
H 6.8351349611 -3.1840054781 1.5990629074
H 8.1526623283 -0.4364367224 1.5744652185
H 5.2337093729 -1.2772598622 2.0059853557
H 5.8456487442 0.3802494812 2.1167633327
H 8.7612938036 0.2782430448 3.6809924139
H 7.0303895774 0.4885719855 4.0789007371
H 8.0578758970 -0.5474955388 5.1011261880
H 9.0379397892 -2.9235878300 2.4195835252
H 4.5852434534 2.6111849600 -2.3482618151
H 5.1176153160 3.0519822747 -0.7266245068
H 5.9601588994 1.7735754912 -1.6104265470
H -2.9759608078 1.3295544185 -1.6610208568
H -5.0143317650 -0.0765642485 -4.0458528585
H -5.1210093154 -1.7635064701 -4.5844381070
H -3.5766829880 -0.9036981077 -4.6792293668
H -7.8754516013 -3.0864031953 1.0506383565
H -7.5905704239 -3.1293274415 -0.7078421046
H -6.6065959917 -4.1521395430 0.3809558999
H -3.4562618327 -4.2153206820 1.4335603226
H -1.6779566739 -4.3596600278 1.3658000432
H -2.5661851097 -3.7305097434 -0.0448963999
