38
CONF53
C 2.8863988769 2.1404535064 0.9781324694
C 1.4535204885 2.1079467529 0.4537428883
C 1.3619170050 1.6744695072 -1.0028775574
O 1.9949829715 0.4053717053 -1.2794485005
C 1.3889991670 -0.6958702131 -0.6243775983
C -0.0465625001 -0.9246514452 -1.0720418527
N -1.0818505737 -1.0179781956 -0.3324659545
C -1.0185940468 -1.0333274398 1.0580545461
C -0.2997842898 -2.0175307413 1.7491716804
C -0.3135976086 -2.0770475375 3.1352892158
C -1.0577141014 -1.1421414928 3.8435763722
C -1.7984190891 -0.1645559516 3.1941973217
C -1.7889070148 -0.1184409797 1.8035789046
C -2.6117690350 0.9181108747 1.0925780003
F -3.2169455350 1.7682974607 1.9530652813
F -1.8699478580 1.6831701182 0.2503486398
F -3.5972830532 0.3595777106 0.3425767852
Cl -1.0761172573 -1.2009836813 5.5980460286
N -0.2540137475 -0.9865517844 -2.4619580337
C -1.4876553445 -0.9749086234 -3.1054355556
C -1.2072711431 -1.0924725838 -4.4323625973
N 0.1637414706 -1.1872953456 -4.6403936540
C 0.7053374439 -1.1169460905 -3.4503836542
H 3.3337235694 1.1417089438 0.9641953177
H 3.5118922275 2.7962238940 0.3624956286
H 2.9169347534 2.5086698955 2.0076730989
H 0.8292485723 1.4659688516 1.0875586460
H 1.0036355992 3.1071172834 0.5093510440
H 0.3126459372 1.6450207279 -1.3330287590
H 1.8993219573 2.3828772117 -1.6410711692
H 1.9926108859 -1.5780022878 -0.8669817257
H 1.3935462916 -0.5785124821 0.4644893974
H 0.2611932629 -2.7551169699 1.1843861251
H 0.2500137049 -2.8437429726 3.6546677369
H -2.3776904011 0.5511136578 3.7636892136
H -2.4099285325 -0.8788594177 -2.5567578811
H -1.9068237329 -1.1133411772 -5.2562710147
H 1.7612099652 -1.1578203713 -3.2274743188
