60
CONF9
C -5.5355260778 1.1623485793 3.1626848918
C -5.6220946766 1.2711792251 1.6418520707
C -5.0173617996 2.5737068672 1.1232178726
C -5.0999126782 2.7127616025 -0.4104360578
C -4.3875084725 1.6162871456 -1.1088406357
C -3.0614933672 1.2514320046 -1.1644536825
C -3.0081648415 0.0204459187 -1.9284119350
C -2.0058958694 -0.8331760177 -2.4032810295
C -2.3800848222 -1.9327976050 -3.1675954581
C -3.7238983839 -2.1907758824 -3.4757145309
C -4.7376840511 -1.3446234660 -3.0319245085
C -4.3367494961 -0.2616678414 -2.2724284361
O -5.1727021708 0.7034965860 -1.7559674441
C -1.9722776925 2.0311638220 -0.5663699827
O -2.0288198084 3.2592008400 -0.4847417874
C -0.7894624857 1.2997028884 -0.0354348458
C -0.9014866799 0.0012785134 0.4730153996
C 0.2133599262 -0.6266147625 0.9923795668
C 1.4820312991 -0.0186371586 1.0022412376
C 1.5382076634 1.3253321109 0.5878205263
C 0.4320357359 1.9696956512 0.0612709686
I 3.2860274801 2.4903459354 0.8858256346
O 2.5244854711 -0.6876323338 1.5438264974
C 3.6699108882 -1.0243554966 0.7052164708
C 3.3307266623 -2.0272633372 -0.3819562070
N 2.3783647837 -1.5129365536 -1.3631468445
C 2.9953104031 -0.5386078424 -2.2728321822
C 1.9836500293 0.1808178606 -3.1556429675
C 1.6567509103 -2.5946025539 -2.0508409515
C 2.4916381190 -3.4874873821 -2.9751774978
I 0.0088505598 -2.5796724257 1.7746014285
H -4.4923210441 1.1989736736 3.4953781387
H -6.0696436201 1.9884683754 3.6448537730
H -5.9711181987 0.2245278242 3.5207170976
H -6.6697688074 1.2043891792 1.3201399251
H -5.1002567992 0.4196435041 1.1842675868
H -3.9683261929 2.6445632665 1.4353651452
H -5.5395701728 3.4289887423 1.5688456413
H -6.1470332699 2.6964169351 -0.7291258963
H -4.6656328954 3.6695949447 -0.7133560590
H -0.9618736660 -0.6465506931 -2.1794689606
H -1.6131414992 -2.6066812834 -3.5365118248
H -3.9797933534 -3.0589131573 -4.0739366339
H -5.7815351234 -1.5182944244 -3.2684711374
H -1.8593451608 -0.5051407962 0.4667454205
H 0.4929073991 3.0012473442 -0.2656674330
H 4.1146359395 -0.1129704235 0.2987418519
H 4.3828455269 -1.4663428171 1.4050198329
H 2.9012534813 -2.9197481033 0.0870902036
H 4.2974176676 -2.3294187997 -0.8339348984
H 3.5053670162 0.2125878463 -1.6596967087
H 3.7781922796 -1.0059092052 -2.8995903083
H 1.5208968455 -0.4861428012 -3.8891040110
H 1.1914917484 0.6266377022 -2.5440995951
H 2.4835695847 0.9830380865 -3.7067531124
H 0.8371029049 -2.1496112457 -2.6255439121
H 1.1870281215 -3.2104374222 -1.2744280444
H 3.3150605522 -3.9666982026 -2.4357492100
H 2.9117927718 -2.9231624676 -3.8133027710
H 1.8580345717 -4.2777415408 -3.3906490133
