41
CONF49
C 5.2877699326 -1.9754405673 0.7542808828
C 4.4460620135 -2.9978906102 0.0330371005
O 3.1986621926 -2.3248551556 -0.3317812544
C 2.3056138318 -3.0460520059 -0.9767405209
N 2.4693642148 -4.3035506353 -1.2951196546
C 1.4784266394 -4.9205530610 -1.9521117573
C 0.2847137046 -4.3737158470 -2.3375821090
C 0.1132464427 -3.0234272066 -1.9937270366
N -0.8753885781 -2.1514964827 -2.1744337111
C -0.3818882239 -1.0380209836 -1.5899413541
N 0.8293242764 -1.0892489331 -1.0524790819
N 1.1549177926 -2.3856402194 -1.3098706245
S -1.2945931551 0.5220057271 -1.6461323794
O -2.7196391932 0.2173175254 -1.6797097740
O -0.6324102473 1.3348261833 -2.6668926717
N -0.8868393363 1.2431521240 -0.1426908888
C -1.8805207024 1.4719313979 0.8202838781
C -2.2301653890 2.7898601480 1.2111634163
C -3.2111304407 2.9960985682 2.1866406019
C -3.8597412228 1.9263604094 2.7788323982
C -3.5161139174 0.6286956391 2.4202401831
C -2.5305902140 0.4096853470 1.4693523156
Cl -2.0742105918 -1.2392004264 1.1294986955
C -1.5351559673 3.9564487437 0.6156894040
O -0.4858385305 3.9115002917 -0.0061060714
O -2.1850301354 5.1125414909 0.8460752162
C -1.5415598068 6.2889146698 0.3076723479
F 1.7289822684 -6.2032006128 -2.2376696824
H 6.2362221543 -2.4348017925 1.0467320224
H 4.7821658437 -1.6189966765 1.6549863591
H 5.5005697433 -1.1197171667 0.1090389415
H 4.9187500214 -3.3611475347 -0.8844855093
H 4.1989247409 -3.8589855784 0.6612335720
H -0.4765174657 -4.9281838252 -2.8670161380
H -0.3537925627 2.0973349792 -0.3386349765
H -3.4563030047 4.0105287230 2.4728694228
H -4.6231814583 2.0947034117 3.5298531413
H -3.9939736905 -0.2237835836 2.8887490143
H -1.4441738076 6.2021232773 -0.7770615443
H -2.1946549435 7.1191671068 0.5738870816
H -0.5503036356 6.4153532258 0.7500702267
