45
CONF105
C -4.0884100620 2.2636951943 -2.3794287722
C -3.8523167030 1.8099653177 -0.9749708704
C -3.6059375006 0.5453491384 -0.6140834222
C -3.4066813774 0.1423452955 0.7862206496
C -2.3070771341 -0.8686231692 1.2123919986
C -3.7926411924 -1.2046650998 1.3273982646
C -4.4229289979 -2.2434325515 0.4290464751
C -4.3171476873 -1.2417348041 2.7478200225
C -1.4213304337 -1.4774048437 0.2130015191
O -1.6984304426 -1.8176925984 -0.9210770206
O -0.1669448187 -1.6113773802 0.7457461204
C 0.8706168357 -2.1384295681 -0.1218159459
C 2.0293840074 -1.1908425273 -0.0807309527
C 1.9423872884 0.0570117505 -0.6912029542
C 2.9886315633 0.9633610453 -0.6495073755
C 4.1788920389 0.6727696818 0.0106878638
C 4.2693348744 -0.5766978452 0.6121350833
C 3.2176183071 -1.4830135230 0.5778720170
F 3.3708830027 -2.6677775674 1.1949326732
F 5.3959059796 -0.9287509485 1.2559807762
C 5.3234666735 1.6414391804 0.0174597912
O 6.0679100083 1.4422789345 -1.1862797396
C 7.1820153391 2.3361093945 -1.2501610821
F 2.8421036254 2.1495780330 -1.2648196793
F 0.8113131740 0.3924461278 -1.3378474002
H -3.3521670116 3.0210852390 -2.6754420933
H -5.0744075630 2.7338242268 -2.4801177839
H -4.0292410286 1.4293220238 -3.0842467442
H -3.8899148799 2.5796400658 -0.2023168599
H -3.5594048189 -0.2245203376 -1.3792248378
H -3.4881762276 0.9643288212 1.4948761080
H -1.8102247860 -0.6291851894 2.1460545822
H -5.5033774555 -2.0676496826 0.3817730212
H -4.2622984146 -3.2428382915 0.8479004458
H -4.0233758894 -2.2302272487 -0.5837465533
H -4.1250064092 -2.2204071445 3.2014722859
H -5.3997202052 -1.0721646267 2.7492859849
H -3.8476945490 -0.4736577767 3.3689319882
H 1.1543309132 -3.1219640970 0.2551230304
H 0.4815160840 -2.2327254628 -1.1380552805
H 5.9592407316 1.4668663983 0.8958860585
H 4.9419084239 2.6712055033 0.0648278592
H 7.8687742554 2.1693706098 -0.4081954989
H 7.7005988692 2.1304791216 -2.1885931220
H 6.8480243820 3.3833108844 -1.2382935094
