26
CONF59
C -3.0057185931 0.1998258079 0.1166342532
C -1.6321124795 0.5400826441 0.6833094415
C -0.5128333389 -0.3775425285 0.1524123820
C 0.8636541548 -0.0046243807 0.7369614065
C 1.9584195924 -1.0327592645 0.4221325527
C 2.2710047610 -1.1783721069 -1.0666146293
O 2.9247477002 -0.0208464612 -1.6020761434
O 3.1482207850 -0.7144848917 1.1528303408
O 1.3043163671 1.2679880281 0.2353819303
O -0.8393007503 -1.7418595199 0.4303316454
O -1.3363424911 1.9234384615 0.4072797639
O -3.0836695694 0.5402537098 -1.2760150125
H -3.2404234453 -0.8563297084 0.2872062234
H -3.7551465171 0.8165212192 0.6224369491
H -1.6677519288 0.4424430757 1.7776145324
H -0.4645374715 -0.2941277655 -0.9414324063
H 0.7706594707 0.0426219086 1.8368845708
H 1.6195322364 -2.0045906851 0.7941193402
H 1.3508364279 -1.4107684459 -1.6229216796
H 2.9652508374 -2.0138884563 -1.2006884527
H 3.5726014820 0.0158922189 0.6804496017
H 0.5301213515 1.8586932147 0.2865905842
H -0.8827067758 -1.8535939642 1.3905441833
H -1.6362421517 2.0811864929 -0.5029427900
H 2.3694758071 0.7374340982 -1.3569322331
H -2.6724679088 -0.1687684640 -1.7858069846
