32
CONF20
C -1.1900755721 -2.5002540657 -3.3496663866
C -2.4030911463 -2.3176723112 -2.4649230791
O -2.0289183601 -2.0868891757 -1.0731835128
P -1.4436841329 -0.6861973405 -0.5836419676
S -2.0459814017 0.9138102846 -1.4885606089
O -1.6587748339 -0.7799242114 0.9976555874
C -2.4091849800 0.2166526946 1.7578208345
C -1.4713941320 1.2633860122 2.3135305153
O 0.1601905557 -1.0215149026 -0.6925981431
C 1.0822115936 -0.1565683537 -0.1271244371
C 1.5021191879 0.9679436441 -0.8325404462
C 2.4566415213 1.8010456723 -0.2679452228
C 2.9675327420 1.4850414598 0.9858375763
C 2.5574828322 0.3592466332 1.6913955915
C 1.6007716619 -0.4699571673 1.1265949967
N 3.9813118940 2.3720692793 1.5872688942
O 4.3290578538 3.3542204518 0.9429077463
O 4.4075904210 2.0743561845 2.6971544692
H -1.5177923894 -2.7690598555 -4.3590095128
H -0.6084754165 -1.5764723533 -3.4156648659
H -0.5452784507 -3.2962690444 -2.9679556877
H -3.0266599104 -1.4814119154 -2.7991037018
H -3.0114087241 -3.2240796765 -2.4213966777
H -3.1717609286 0.6620598194 1.1115477190
H -2.8981821045 -0.3571505414 2.5492717434
H -0.9942144920 1.8205833734 1.5020697241
H -0.6954719707 0.8034855293 2.9314852099
H -2.0357912368 1.9691823826 2.9313908416
H 1.0719778329 1.1803719316 -1.8036105757
H 2.8083432657 2.6860564160 -0.7825733544
H 2.9858442033 0.1491700726 2.6631805797
H 1.2450652209 -1.3552609427 1.6403866486
