63
CONF89
C -11.5155115224 1.4766387157 0.2539374988
C -11.1258373415 0.6099086325 1.4511026246
C -9.6847670730 0.8218327693 1.9251431839
C -8.6217698134 0.4361715779 0.8959267507
C -7.1984985376 0.5570992067 1.4388711620
C -6.1275258472 0.1874753814 0.4138011474
C -4.7055228448 0.3077444408 0.9593591784
C -3.6325990926 -0.0627654547 -0.0633372599
C -2.2114834741 0.0616714429 0.4836027170
C -1.1368632936 -0.3108608619 -0.5365540835
C 0.2834962013 -0.1841117684 0.0118048916
C 1.3592794264 -0.5575098013 -1.0067864669
C 2.7792435644 -0.4279856948 -0.4580632947
C 3.8554310083 -0.8013001808 -1.4762086087
C 5.2755121909 -0.6736662510 -0.9266989956
C 6.3462342345 -1.0314313549 -1.9582503259
C 7.7734287757 -1.0320563596 -1.4041995632
C 8.2417269788 0.3380544091 -0.9052308501
C 9.7409122505 0.4033009203 -0.5969331179
C 10.1658998071 -0.5331265945 0.5283090271
O 11.5541866757 -0.4147943031 0.8502143734
H -11.3440095708 2.5376501393 0.4682668492
H -10.9364925956 1.2198146209 -0.6381196036
H -12.5739037956 1.3529374759 0.0049140059
H -11.2704521617 -0.4493683572 1.1999130501
H -11.8064547459 0.8228236381 2.2846908911
H -9.5201343589 0.2349338954 2.8386120785
H -9.5483887705 1.8753258368 2.2079139353
H -8.7168523098 1.0679664338 0.0035436675
H -8.7985323766 -0.5966005541 0.5623613165
H -7.0906652355 -0.0850452784 2.3242607416
H -7.0289170256 1.5861426100 1.7859525805
H -6.2979869865 -0.8408813431 0.0652958801
H -6.2334312672 0.8310843618 -0.4707148781
H -4.5356445477 1.3364639825 1.3070955146
H -4.6001518511 -0.3348050706 1.8447374597
H -3.7387172531 0.5781024236 -0.9498345179
H -3.8005452534 -1.0924458639 -0.4090796931
H -2.0435176690 1.0918349737 0.8279340609
H -2.1063424934 -0.5776378065 1.3713542398
H -1.3036848252 -1.3415376365 -0.8798427600
H -1.2421772041 0.3276059187 -1.4248802975
H 0.4501607869 0.8468355436 0.3544437124
H 0.3883300329 -0.8217327574 0.9008006454
H 1.1938090324 -1.5890371727 -1.3481262287
H 1.2538160850 0.0790211891 -1.8964945655
H 2.9442802602 0.6036757890 -0.1168412339
H 2.8849369436 -1.0643911141 0.4317142509
H 3.6892158503 -1.8320623775 -1.8194543601
H 3.7517378961 -0.1632287551 -2.3651081874
H 5.4277973885 0.3530130899 -0.5692000925
H 5.3874551601 -1.3250488253 -0.0479059048
H 6.2837381487 -0.3305513916 -2.8026598212
H 6.1238473533 -2.0256474514 -2.3680590603
H 8.4622250822 -1.3767127743 -2.1875296598
H 7.8364437969 -1.7687544873 -0.5923270693
H 8.0034994673 1.0921064804 -1.6671263479
H 10.0030710238 1.4325529428 -0.3123767218
H 10.3242829466 0.1655886447 -1.4955209791
H 10.0297758407 -1.5784463496 0.2349027806
H 9.5388749963 -0.3568533523 1.4190817562
H 11.7207850674 0.5011419660 1.0983436213
H 7.6786150784 0.6213909837 -0.0065256691
