53
CONF251
C -4.9449359827 1.4905760238 -1.6264825359
O -4.0096926791 0.5426006494 -1.0368276221
C -3.5287868499 -0.3868294130 -1.8614426268
O -3.7777523104 -0.4752112941 -3.0417873485
C -2.6499462153 -1.4018642436 -1.0966704484
C -3.5891276121 -2.3123195246 -0.2640968167
C -3.5469721968 -1.6801302941 1.1064579569
C -4.3862102107 -1.9195085919 2.1821785777
C -4.0982586260 -1.2610401854 3.3762073521
C -3.0136006488 -0.3952959433 3.5218063239
C -2.1788426187 -0.1633584886 2.4345494538
C -2.4594169356 -0.8015458930 1.2297982798
C -1.7589604269 -0.7780856801 -0.0407966319
N -0.5074278025 -0.5281091565 -0.1924170191
N 0.0152526380 -0.7723260141 -1.4302292996
C -0.8296021957 -1.2787685160 -2.5289799568
O -1.8413267415 -2.1286302532 -2.0077567055
C 1.3666206414 -0.6394673962 -1.6391788646
O 1.8518529436 -0.6739705399 -2.7602976921
N 2.1502787197 -0.3869515711 -0.4811896896
C 3.1205726422 0.6557911503 -0.5533418198
C 2.7484221811 1.8965656752 -1.0685170780
C 3.6885099664 2.9154706337 -1.1654967085
C 4.9783459294 2.6729322456 -0.7203123515
C 5.3678769498 1.4453123823 -0.2064076489
C 4.4288546857 0.4245483940 -0.1310249129
O 5.9514863750 3.6893725309 -0.8659924285
C 6.1016372326 4.5213223759 0.1879022893
F 4.9745642644 5.2118208544 0.4787963198
F 7.0639028602 5.3995490533 -0.1169761412
F 6.4606088780 3.8758231500 1.3217523710
C 2.0075452833 -1.1198734218 0.7021656558
O 2.3534282188 -0.7193553991 1.7935527871
O 1.5027759161 -2.3338656017 0.4428961427
C 1.0796486070 -3.0825743056 1.6102639123
Cl -5.1465568005 -1.5337637272 4.7602021289
H -4.4502772919 2.0485965419 -2.4238767203
H -5.2322077373 2.1506865452 -0.8102046004
H -5.8119880243 0.9561169184 -2.0198658823
H -3.1503995202 -3.3168424162 -0.2377022318
H -4.5963385784 -2.3885729990 -0.6812354189
H -5.2299961176 -2.5962738887 2.1063597198
H -2.8336299767 0.0953603901 4.4712940110
H -1.3349708346 0.5125324788 2.5252260157
H -0.2074802500 -1.8746330588 -3.1961650005
H -1.2692978241 -0.4323962396 -3.0727040767
H 1.7271385856 2.0683048596 -1.3933570804
H 3.4225342272 3.8852651555 -1.5704692973
H 6.3922608821 1.2860271018 0.1107518814
H 4.7150238075 -0.5494354772 0.2499821720
H 1.9380465953 -3.3032030653 2.2478779517
H 0.3314527752 -2.5099617215 2.1649675266
H 0.6453603028 -4.0004112078 1.2168129369
