38
CONF5
C 0.8661813353 -1.1706332046 -3.2499546676
C 1.5644900673 -0.2121010699 -2.3454627893
N 1.4472817311 -0.4429521696 -1.0251895947
C 2.0401601986 0.4545700052 -0.2390901162
N 2.7668357603 1.5037107616 -0.6591925534
C 2.8395584625 1.5990346484 -1.9846805207
N 2.2494122405 0.7936068134 -2.8827066580
O 3.5503529228 2.5853365493 -2.5286174144
C 4.2164527220 3.4939876929 -1.6290447041
N 1.9148117153 0.3448040819 1.1275191036
C 1.1057371209 -0.4966566067 1.9215279866
O 0.9782082926 -0.2591229750 3.1055363841
N 0.5345111388 -1.5542530395 1.2486620934
S -0.7032453765 -2.4863444847 1.9644949826
O -0.1911359913 -3.0936027411 3.1868255875
O -1.2264817145 -3.2950783050 0.8683204023
C -1.9285164204 -1.2752661235 2.4761341027
C -2.6954272572 -0.4778958896 1.6458015596
S -3.8270593243 0.4444936539 2.5920010619
C -3.2474629272 -0.2437167415 4.0595627787
C -2.2380424231 -1.1428299617 3.8475658613
C -2.6180630388 -0.2967628208 0.1918092159
O -1.7145867234 -0.6905395650 -0.5135930876
O -3.6848224274 0.3977500032 -0.2669347473
C -3.6707021897 0.6575749656 -1.6865114412
H 0.9121794542 -0.8270400404 -4.2826446628
H 1.3393773427 -2.1554183872 -3.1716068918
H -0.1709827313 -1.2897394949 -2.9225154750
H 4.9285819969 2.9574629454 -0.9968766529
H 3.4901524221 4.0124418089 -0.9977760784
H 4.7343334614 4.1994879329 -2.2782201165
H 2.3449865864 1.0874687922 1.6608943471
H 0.5233191583 -1.4984010235 0.2187306706
H -3.6760637322 0.0557849708 5.0065021922
H -1.7189827844 -1.6892122032 4.6227747938
H -3.6749703176 -0.2839169830 -2.2414662477
H -2.7825502493 1.2343069546 -1.9580568169
H -4.5778297924 1.2271966441 -1.8845219032
