94
CONF294
C 9.5387086452 -1.1025457039 -3.1437787180
C 8.4941094134 -1.1892286716 -2.0477466502
C 7.6956854849 -2.4967389191 -2.0943992025
C 6.6636011834 -2.5687724412 -1.0168379334
C 5.3615642951 -2.2852196962 -1.2158569170
C 4.3675991470 -2.2428003405 -0.1810337967
C 3.0924627154 -1.8171083400 -0.3823442531
C 2.1009560064 -1.7410954612 0.6450342022
C 0.8523018835 -1.2384222592 0.4584505872
C -0.1460454855 -1.1657449150 1.4883365865
C -1.3531735989 -0.5939284039 1.3178133481
C -2.3668213680 -0.4693073306 2.4064986484
C -2.5593983341 0.9668098907 2.9000129323
C -2.9025167597 1.9390868707 1.7732297053
C -3.8454009898 3.0750114125 2.2212755610
C -4.0401834346 4.0631719649 1.0523886607
C -2.6848570671 4.5382898555 0.5575191404
C -1.7883061371 3.3610573312 0.1782631352
O -1.6645385824 2.4843512572 1.3104774854
C -0.3592630533 3.7992616070 -0.1449873150
C 0.5824847830 2.6477661026 -0.5000010734
C 2.0144353743 3.1480243505 -0.6810268611
C 2.9363116497 2.0794767528 -1.1988874094
C 4.1779431561 2.4514759264 -1.9092966599
O 3.0199724748 1.9421246424 -2.6270830158
C 5.3380602328 1.5595098549 -1.9057018117
C 6.6035450129 1.9921803813 -1.8213242540
C 7.7619026505 1.0867661584 -1.7354909960
O 8.8367621883 1.4168594371 -1.2580881736
O 7.4962324487 -0.1334297462 -2.2311085285
O 0.1264129289 1.9390323890 -1.6798712438
O -2.3983516766 2.6972936634 -0.9136629207
O -4.7740524102 5.2224524991 1.4668940371
C -5.1750006605 2.4853719179 2.6148973100
O -5.8355647068 1.7470819687 1.9066024733
O -5.5724784778 2.8690686771 3.8426451994
O -3.6971314029 -0.8527819746 1.9682395028
C -3.8815085905 -2.1622678484 1.5308152787
C -5.3744129498 -2.4682117797 1.6928516325
C -5.6943770633 -3.8221468217 1.0528090151
C -5.1506783107 -3.8888142651 -0.3765688886
C -3.6605354616 -3.5536570750 -0.3898980613
O -3.4885195958 -2.2356156571 0.1602364468
C -3.0632944760 -3.5397022486 -1.7806134589
O -5.3247846865 -5.2064678285 -0.9034626855
N -7.1165040326 -4.1828063226 1.0363369079
O -6.1735167562 -1.4644223409 1.0647844261
H 10.0632024610 -0.1451051487 -3.1055585116
H 9.0679496059 -1.2150250365 -4.1254833857
H 10.2705477424 -1.9056655436 -3.0147559945
H 8.9489695648 -1.0502655641 -1.0611614310
H 8.4182446543 -3.3161032808 -1.9994571491
H 7.2258384344 -2.5748379784 -3.0819592702
H 7.0102709761 -2.7963098770 -0.0082642743
H 5.0286260352 -2.0376600398 -2.2252726231
H 4.6728226530 -2.5427458668 0.8220841003
H 2.7992196032 -1.4972710627 -1.3837048256
H 2.3794430635 -2.1024079209 1.6358807426
H 0.5799935343 -0.8563576052 -0.5264096335
H 0.1078470779 -1.5938314809 2.4593299023
H -1.6131005540 -0.1581086833 0.3552389235
H -2.0786651667 -1.1053334380 3.2563258205
H -3.3613879554 0.9468860595 3.6467382830
H -1.6510170177 1.3100016431 3.4045687452
H -3.3972434836 1.4041912184 0.9531533008
H -3.4056646014 3.6110984059 3.0696113704
H -4.5753167642 3.5472545621 0.2440333889
H -2.1939483236 5.1117798585 1.3518175427
H -2.8176653382 5.1898614675 -0.3112301490
H -0.3939998987 4.5123513161 -0.9778140529
H 0.0442673167 4.3259956428 0.7266410793
H 0.5574469636 1.8916180081 0.2922871311
H 2.3846002017 3.5014936362 0.2893035733
H 2.0324778559 4.0005229955 -1.3724513790
H 2.9260206245 1.1251813986 -0.6665693438
H 4.3689806055 3.5145051097 -2.0591331322
H 5.1216300747 0.4943464940 -1.9539471955
H 6.8350246308 3.0500694740 -1.7309325566
H 0.3000033512 2.5007135749 -2.4497489468
H -1.6944469289 2.1764974668 -1.3469942184
H -5.7154618388 5.0076300673 1.4633508490
H -6.4376705486 2.4610894047 4.0256434386
H -3.2811133030 -2.8778582741 2.1243224289
H -5.5949800745 -2.5146208409 2.7716891805
H -5.1604856196 -4.5870959822 1.6352620695
H -5.6775004681 -3.1527165876 -1.0067898442
H -3.1312438339 -4.2864578959 0.2445993772
H -3.5859458015 -2.8110152207 -2.4091473227
H -2.0040625106 -3.2706805701 -1.7334723542
H -3.1530046930 -4.5270089043 -2.2397065651
H -6.2033076626 -5.4840144753 -0.5979788237
H -7.4356335748 -4.3719241016 1.9810216841
H -7.6545650041 -3.3861325842 0.7067053784
H -5.8958318668 -0.6068234134 1.4209930982
