21
CONF17
C 0.9488279748 -1.2275845429 0.3923689365
C 0.1493526431 0.0303775410 0.0402501903
C 1.1247559074 1.1371604839 -0.3970008002
O 0.4807802344 2.3726303547 -0.7390245236
C -0.8383784182 -0.3080715715 -1.0902813958
O -1.7645462361 0.7617631778 -1.3642156794
C -0.6005888223 0.4991183035 1.3022893213
O -1.8060995572 -0.2309521285 1.5687197666
O 1.5471678670 -1.7682914617 -0.7936086330
H 0.2773124715 -1.9723889300 0.8487399368
H 1.7202653302 -0.9661768832 1.1323535803
H 1.8162644605 1.3620923841 0.4254509299
H 1.7175445909 0.7682906685 -1.2459731126
H -0.3524628851 2.1408719461 -1.1819758036
H -0.2894225325 -0.4719078139 -2.0210094276
H -1.3854835259 -1.2280550156 -0.8477525033
H -2.3800730300 0.8026885080 -0.6192764865
H 0.0815198381 0.4588322031 2.1647088680
H -0.9120649922 1.5388251441 1.1738710277
H -1.5737982050 -1.1414611385 1.7897264419
H 2.0391271935 -2.5577609380 -0.5383606387
