49
CONF3
C 1.1455387132 3.6796425789 -2.6606016662
C 0.8265019111 2.7164996408 -1.5219924137
C 2.1046424686 2.3315959578 -0.7557980859
C 1.8341603744 1.4135133301 0.4078248999
C 1.2639911130 1.9032775335 1.5900989844
C 0.9820481401 1.0648992134 2.6575656056
C 1.2628831669 -0.3046304545 2.5680792259
C 1.8141701858 -0.8177471994 1.3940773404
C 2.0953062640 0.0459759729 0.3360282411
O 0.9503793934 -1.0442335240 3.6693158266
C 1.2322732688 -2.4465981861 3.6202697871
N 0.2026471705 1.4907339404 -2.0305611808
C -1.2142500052 1.6207386467 -2.3657825017
C -1.7325612154 0.2536795344 -2.8216122517
C -1.5721496903 -0.8164290418 -1.7441936443
C -1.7815214400 -0.5315606027 -0.3979609177
C -1.6265695010 -1.5006242371 0.5957609372
C -1.2719429893 -2.8150425959 0.2410747999
C -1.0833858231 -3.1000355528 -1.1131082517
C -1.2153914812 -2.1226278015 -2.0866017744
O -1.0391261773 -3.8006400366 1.1381669589
N -1.7425956071 -1.0545325549 1.9411484101
C -2.1604664491 -1.7177663548 3.0406462154
O -2.5187276511 -2.8951084024 3.0860791988
O -1.0826493261 -0.1229923150 -4.0325299556
H 0.2431499736 3.9739663667 -3.2036118494
H 1.8307545337 3.2064180278 -3.3711726448
H 1.6130630876 4.5905221247 -2.2735211681
H 0.1502135649 3.2276548504 -0.8061144574
H 2.7967333440 1.8507352389 -1.4573662854
H 2.5837710864 3.2525864263 -0.4040191604
H 1.0543157690 2.9660478485 1.6819841464
H 0.5703616133 1.4528225072 3.5844363315
H 2.0222730050 -1.8748818003 1.2860086794
H 2.5289449171 -0.3657113810 -0.5716194641
H 0.8997598181 -2.8476482372 4.5783969078
H 2.3086663075 -2.6236725904 3.5022302461
H 0.6830701136 -2.9366226939 2.8070105255
H 0.2748645148 0.7784687384 -1.3064348549
H -1.3380404265 2.3154397097 -3.2038395550
H -1.8242692551 2.0121859647 -1.5296069709
H -2.7971785554 0.3478513716 -3.0746196781
H -2.0607791787 0.4719139028 -0.0866499255
H -0.8083399844 -4.1163275227 -1.3750070024
H -1.0452650142 -2.3642963541 -3.1292078423
H -1.6181239222 -3.6421043658 1.9297991959
H -1.4467746906 -0.0995347476 2.0972502931
H -2.1501765461 -1.0796655432 3.9405196128
H -0.1441990901 0.0738639811 -3.8905780985
