41
CONF23
C -1.0087951162 -3.7119297248 0.1579879916
C -0.8821134965 -2.2400780468 0.4919349905
O 0.3916935234 -1.7107594851 0.0381889892
C 1.4336759253 -1.9002730393 0.8901936585
O 1.3607183272 -2.4536467803 1.9726545631
N 2.5827648229 -1.3933708967 0.3550510777
C 3.7645399964 -1.2461077867 1.1924545097
C 3.6204250152 -0.2024847807 2.2977036315
O 3.3820360233 1.1020025584 1.7504785667
C 2.0991319115 1.4457317321 1.4023386402
C 1.9799410116 2.3294321043 0.3266308887
C 0.7271301137 2.7494247297 -0.0988583107
C -0.4080079314 2.2815755735 0.5509737222
C -0.2988385765 1.4263362349 1.6375762509
C 0.9546089661 1.0113525758 2.0751183169
O -1.6653322130 2.7013176344 0.1332684415
C -2.2862582591 1.9608711313 -0.8485749759
C -3.5518046654 2.4035221587 -1.2347381758
C -4.2470809730 1.7127800709 -2.2171067162
C -3.6930888573 0.5834425267 -2.8189070467
C -2.4309588875 0.1541791860 -2.4248197164
C -1.7164511633 0.8343874495 -1.4403418843
H -2.0026637882 -4.0696551470 0.4455899085
H -0.2615221725 -4.2957975458 0.7008525163
H -0.8817875203 -3.8766096024 -0.9158360284
H -0.9728508426 -2.0647896660 1.5676885198
H -1.6255223524 -1.6393482161 -0.0382318335
H 2.4725014409 -0.7644250912 -0.4251837132
H 4.5999409652 -0.9743492654 0.5396357240
H 3.9939871230 -2.2123069556 1.6567176913
H 2.8414384640 -0.4990899299 3.0048054196
H 4.5653674608 -0.1209184063 2.8437949700
H 2.8824871986 2.6732433807 -0.1673755384
H 0.6201276811 3.4237590486 -0.9419665056
H -1.1992100707 1.0851345957 2.1378801417
H 1.0194752259 0.3388942308 2.9214818360
H -3.9685473835 3.2831626914 -0.7564354603
H -5.2313838945 2.0601887585 -2.5148548621
H -4.2401563809 0.0476339647 -3.5868071692
H -1.9851654756 -0.7218837986 -2.8865014385
H -0.7344501595 0.4894519179 -1.1373030923
