42
CONF23
C 1.1627019553 -3.4684299425 1.6139385771
C 0.0787167119 -2.6974656450 0.8661341096
C 0.6502671647 -1.7667200640 -0.2001213117
C -0.4906592893 -1.1623164947 -1.0256435553
O -0.9820242209 -1.8110726664 -1.9516596796
N -0.9142048138 0.0536570879 -0.6321454526
C -2.0361818993 0.7463711952 -1.2492300271
C -3.2977586804 0.6995333356 -0.4146174017
C -4.1094402229 1.8304232838 -0.3127442260
C -5.2965603920 1.7871714141 0.4156300956
C -5.6809828376 0.6114373288 1.0550945954
C -4.8723066495 -0.5203198837 0.9612952802
C -3.6887643868 -0.4766940908 0.2302478730
O 1.4297534345 -0.7719481249 0.4863317294
C 2.2915713494 -0.0048592354 -0.2486503204
C 3.0750941271 0.8813126692 0.4939713814
C 3.9819568653 1.7142539985 -0.1483004318
C 4.0935783304 1.6477713986 -1.5360887524
C 3.3253343669 0.7791055132 -2.2821145047
C 2.4130878837 -0.0547682549 -1.6386891473
F 4.9752426559 2.4580000109 -2.1664552775
C 4.8345070607 2.6760689151 0.6250671474
F 6.1583809521 2.4440399144 0.4369004167
F 4.6070219483 2.6045246029 1.9538836511
F 4.6089774369 3.9624268386 0.2541803288
H 1.7604486141 -4.0682630844 0.9197205863
H 1.8347540945 -2.7902307871 2.1464511679
H 0.7117201957 -4.1440026000 2.3461194848
H -0.5258071957 -2.1011012677 1.5605410175
H -0.6001280909 -3.3899080986 0.3569651115
H 1.2900160090 -2.3378246605 -0.8851457973
H -0.4741526764 0.4746781153 0.1741596785
H -1.7544122219 1.7877828313 -1.4357559716
H -2.2130551205 0.2680102065 -2.2187276145
H -3.8090027617 2.7515996058 -0.8052949833
H -5.9168256309 2.6752892232 0.4891019954
H -6.6031684392 0.5770590242 1.6267021915
H -5.1653140615 -1.4404307900 1.4577657028
H -3.0642109466 -1.3629759209 0.1610900957
H 2.9659259515 0.9077440398 1.5715855932
H 3.4346674518 0.7558732259 -3.3606225928
H 1.8112357824 -0.7248027810 -2.2401784767
