29
CONF4
C -0.5447075303 1.6390443487 -1.3571224154
C -0.4576458236 0.5580665801 -0.2986892609
C -0.7381075942 1.0524669756 1.1386577674
C -0.1295323769 -0.0561637568 2.0462687757
C 0.3857060816 -1.0859470901 1.0226074484
C 0.9130136995 -0.1826332553 -0.1282494819
C 2.0638205999 0.7412876393 0.2828924222
C 1.3853791443 -0.9629556097 -1.3610292709
C -0.8577108974 -1.7443453807 0.3888781354
C -1.4041548663 -0.6450972304 -0.5541402669
O -2.7905932040 -0.3992761489 -0.2656051189
H -0.3398234412 1.2369717520 -2.3559603215
H 0.1694318467 2.4456669891 -1.1579301384
H -1.5464134871 2.0861557599 -1.3753001176
H -1.8110609356 1.1846182857 1.2981818306
H -0.2624514538 2.0234381372 1.3086048831
H 0.6826646641 0.3341548466 2.6668781743
H -0.8700334207 -0.5012049860 2.7183087867
H 1.1131173670 -1.7973029167 1.4260474953
H 2.9289624715 0.1425877768 0.5909442940
H 2.3757169825 1.3569936100 -0.5681650058
H 1.8105131466 1.4133786946 1.1043558991
H 2.3181914535 -1.4884152650 -1.1260820477
H 0.6712906225 -1.7064026705 -1.7195455597
H 1.5963862366 -0.2752105647 -2.1876478715
H -1.6070206545 -2.0013465519 1.1444480678
H -0.6143839059 -2.6583237430 -0.1601428523
H -1.3249415358 -0.9479808266 -1.6068397990
H -3.1156131785 0.2377740874 -0.9146245467
