25
CONF901
C -0.7076946299 0.5343565013 1.6072302037
C 0.2424771886 1.6235180565 2.0822172392
O 1.5761003718 1.1208861442 2.2325129458
N -0.2715613120 -0.0345733712 0.3211137130
C -0.6293565998 0.8278896538 -0.8130649797
C 0.3680745795 0.6653738434 -1.9493983754
O -0.0873779771 1.4808069601 -3.0388243775
C -0.7725263978 -1.4108511112 0.1453257581
C 0.1671824206 -2.4152365702 0.7925104035
O 1.4640376806 -2.3744803324 0.1820497287
H -0.7073716278 -0.2661769058 2.3550461261
H -1.7368009311 0.9340139659 1.5499096385
H -0.0776081064 1.9813077587 3.0659053670
H 0.2345693013 2.4820198902 1.3940636204
H 1.7620657976 0.6425914650 1.4106640323
H -1.6507262838 0.6178302308 -1.1776724309
H -0.6132103632 1.8741614001 -0.4905571102
H 0.4356637346 -0.3882340992 -2.2569811474
H 1.3624973541 0.9853868722 -1.6046224432
H 0.5373871323 1.3766317922 -3.7660107787
H -0.8225324790 -1.6334916356 -0.9259559610
H -1.7920968522 -1.5284540123 0.5531904926
H 0.2486008175 -2.2319505438 1.8746691526
H -0.2204867435 -3.4291399467 0.6505527742
H 1.6906937346 -1.4341864084 0.1206711053
