45
CONF18
C 7.8805984070 0.1187752314 -1.7937139794
C 6.5427876777 -0.5348456706 -1.4518988548
C 5.6015431663 0.4063618856 -0.7004871094
C 4.2630696355 -0.2378491260 -0.3431889680
C 3.3213730605 0.7076036649 0.4013709394
C 1.9934455929 0.0539124357 0.7815056072
C 1.0588506475 1.0079666447 1.5221654185
C -0.2935621764 0.3877952734 1.9200901109
C -1.1609343562 0.0022942475 0.7452167797
C -1.1519913939 -1.3152657500 0.2694834000
N -1.9551147373 -1.5699048823 -0.8035417203
C -2.7406277113 -0.5963589660 -1.4033489634
N -3.4003713248 -1.1622758690 -2.4293671206
C -2.9792247194 -2.4458737220 -2.3938025111
N -2.1040711675 -2.7678071709 -1.4376536591
N -2.7714737356 0.6590482074 -0.9659940412
C -1.9933196373 0.9400263304 0.0912188386
C -2.1242418679 2.3517026911 0.6009896150
C -3.3011874753 2.4702315107 1.5822594444
N -0.4795525708 -2.3623779751 0.7857731058
H 8.4009641636 0.4404547540 -0.8846170314
H 7.7327897610 1.0035037439 -2.4230595361
H 8.5391790795 -0.5703252451 -2.3319116006
H 6.7149550086 -1.4327950923 -0.8436079701
H 6.0515265384 -0.8751812185 -2.3731490001
H 5.4229420851 1.3027257545 -1.3113036126
H 6.0947769662 0.7526762054 0.2189155830
H 4.4431130974 -1.1299649092 0.2732608169
H 3.7717671330 -0.5900386455 -1.2611849684
H 3.1248554212 1.5912861610 -0.2216895778
H 3.8177636675 1.0736519964 1.3110979270
H 2.1961937401 -0.8233769696 1.4128771005
H 1.5011110565 -0.3155173474 -0.1288402303
H 1.5543240487 1.3647094148 2.4342776934
H 0.8812526573 1.8904917076 0.8942976998
H -0.1156876621 -0.4828934551 2.5624530128
H -0.8400263082 1.0975453445 2.5476636159
H -3.3212394795 -3.1964394860 -3.0967431665
H -2.3012398387 3.0038311693 -0.2591399078
H -3.1535738872 1.8256831383 2.4546717411
H -4.2355214913 2.1757370823 1.0955207320
H 0.2758678139 -2.1920498389 1.4273326045
H -0.4349617097 -3.2115406121 0.2423954953
H -1.2043305470 2.6860366859 1.0843935124
H -3.4030782945 3.5018113120 1.9314069002
