46
CONF47
C -0.5435994147 -1.6174842648 -1.0665783338
C -2.0041614658 -1.3503475080 -0.7951705132
C -2.7466060958 -2.1478729831 0.2504832158
C -2.4407112357 -0.6605253692 0.4969574296
C -1.4541851044 -0.2210635951 1.5015291043
O -0.5044168185 -0.8448048373 1.9263332562
O -1.7480950505 1.0519100332 1.8920986986
C -0.8407202762 1.6557096339 2.8348230560
C 0.2771332657 2.4095311198 2.1604307423
C 0.6894979265 2.0989641516 0.8696075463
C 1.7601424091 2.7876787661 0.3062852390
C 2.4171225158 3.7946493137 1.0014741863
C 1.9897901239 4.1092461831 2.2875691167
C 0.9305096837 3.4221909758 2.8679202757
O 2.1600014481 2.5473680792 -0.9946645081
C 2.3356814894 1.2443846257 -1.4164013351
C 2.7643345584 0.2276628822 -0.5649824502
C 2.9926684281 -1.0402065709 -1.0892044838
C 2.8025947165 -1.2966234658 -2.4441285746
C 2.3764138777 -0.2692529754 -3.2820602758
C 2.1366878242 1.0022835039 -2.7734671542
C -2.0981290390 -3.2053463486 1.0295884150
C -2.6528813858 -4.3831001922 1.3162077395
Cl -1.8171792674 -5.6023671138 2.2362132307
Cl -4.2552452084 -4.8597262245 0.8190654891
C -2.7890450007 -0.9606511820 -2.0282752982
H -0.4463152378 -2.4887876006 -1.7233073000
H -0.0947191318 -0.7622678717 -1.5835789354
H 0.0356426533 -1.7997944664 -0.1623123240
H -3.7941180890 -2.3259393001 0.0279868724
H -3.2897456376 0.0078279026 0.4036971413
H -0.4316542135 0.8757363457 3.4871131395
H -1.4552767094 2.3380154470 3.4279533563
H 0.1942301377 1.3270455210 0.2923133991
H 3.2416658911 4.3170114722 0.5298478157
H 2.4896280510 4.8981241573 2.8401146245
H 0.6052937355 3.6751089017 3.8730061516
H 2.9158139971 0.4258186942 0.4900441655
H 3.3257665584 -1.8329391922 -0.4269045043
H 2.9840476075 -2.2887310498 -2.8430342343
H 2.2241638379 -0.4567910760 -4.3402135339
H 1.8073650606 1.8159833979 -3.4103743923
H -1.0997517939 -3.0277236664 1.4113190878
H -2.7245835770 -1.7548847607 -2.7799498787
H -2.3797010209 -0.0441265122 -2.4673814199
H -3.8453537163 -0.7908929809 -1.8009694693
