47
CONF332
C -3.6212321303 4.6217905576 4.0232107754
C -3.3294494188 3.1898899102 3.5791941187
C -3.3013798528 3.0553750597 2.0556675145
C -3.0115225648 1.6310696151 1.6396428235
O -3.0033697326 1.5922317904 0.1762029193
C -2.7847184981 0.3980158888 -0.3820471909
O -2.5659057024 -0.6271740160 0.2271202680
C -2.9068572180 0.4945363928 -1.9031712323
C -4.3708477802 0.3757234892 -2.3031885714
O -2.2178272113 -0.5892819619 -2.5240810702
C -0.8506633892 -0.6204757682 -2.4439912938
C -0.2449885933 -1.7413471867 -3.0210622013
C 1.1359402438 -1.8711654616 -3.0071589690
C 1.9041050440 -0.8780168989 -2.4137251091
C 1.3200062328 0.2386463535 -1.8425969826
C -0.0676509094 0.3735409843 -1.8527026553
O 3.3031359178 -0.9722435367 -2.4691124861
C 3.9531706007 -1.5553889635 -1.4276150383
C 5.3506686841 -1.6184123015 -1.5328539409
C 6.0415158190 -2.1991457631 -0.4934204363
C 5.3256796258 -2.6935886172 0.6057049695
C 3.9439525926 -2.5832614425 0.6066985707
N 3.2601001052 -2.0201522334 -0.3993940303
C 6.0650059433 -3.3197665068 1.7399893907
F 6.7888946085 -4.4016254297 1.3411939024
F 5.2477816898 -3.7367721525 2.7318164257
F 6.9593707370 -2.4578643932 2.2979987136
H -2.8589383623 5.3107498755 3.6435845400
H -4.5936242204 4.9569596603 3.6463738136
H -3.6360721456 4.7026786361 5.1143359665
H -2.3652040296 2.8645385108 3.9901250166
H -4.0896675193 2.5129700902 3.9893992580
H -4.2669238884 3.3662478087 1.6378389079
H -2.5341524109 3.7192994413 1.6385789472
H -3.7787006590 0.9365397579 1.9975640892
H -2.0331911039 1.2919991583 1.9961078285
H -2.5005726305 1.4555294809 -2.2424820650
H -4.7790156678 -0.5802957644 -1.9635810328
H -4.4565255084 0.4386633416 -3.3905510895
H -4.9450085301 1.1902015288 -1.8557023534
H -0.8689475470 -2.5019248337 -3.4785023712
H 1.6170564365 -2.7366947682 -3.4505889404
H 1.9414374895 1.0020709492 -1.3862268080
H -0.5065270329 1.2553387238 -1.4014139095
H 5.8528108606 -1.2191084690 -2.4059360253
H 7.1241026816 -2.2712895812 -0.5269964842
H 3.3547479555 -2.9568110654 1.4397528609
