32
CONF6
C 2.9126423084 2.8118376086 1.0192053605
O 2.0913915551 1.6210994703 1.0486739102
C 2.5125150679 0.6122758696 0.3021407357
N 3.5765649500 0.6374935182 -0.4428402669
C 3.9098706212 -0.4672265635 -1.1701890217
C 3.1701673138 -1.6149087987 -1.1551307943
C 2.0104580174 -1.6655849093 -0.3558389441
N 1.7182213787 -0.5094897792 0.3663355767
N 0.5847573663 -0.6901271474 1.0911622946
C 0.2772590251 -1.9414836157 0.7599851686
N 1.0882817276 -2.5873950182 -0.1092685104
S -1.2695736847 -2.6814646020 1.3342197763
O -1.7369612707 -1.9031837535 2.4707018468
O -1.0951983871 -4.1261973406 1.3382490163
N -2.3279970227 -2.3426592025 0.0164133075
C -2.6355583037 -0.9802019833 -0.2108132541
C -3.6695341623 -0.3495443217 0.4885886929
C -3.9876958833 0.9840267590 0.2912556927
C -3.2680617137 1.7187348036 -0.6444043771
C -2.2403634165 1.1324602958 -1.3772675507
C -1.9429468200 -0.1942037376 -1.1348363626
F -0.9409222166 -0.7835593574 -1.8278486580
F -4.3853536060 -1.0668511595 1.3587278711
F 3.5123986829 -2.6858510619 -1.8760547426
H 2.9641779933 3.2104154153 0.0032923259
H 2.4102444164 3.5088337150 1.6880033724
H 3.9198659220 2.5839204145 1.3757869853
H 4.8068592204 -0.4039891908 -1.7790618177
H -1.9840226654 -2.8296730977 -0.8083517285
H -4.7972761496 1.4214589990 0.8629911134
H -3.5147599518 2.7614962629 -0.8096556875
H -1.6694502911 1.6843848180 -2.1141707328
