35
CONF120
C -0.4554512976 2.3714613708 1.2604429898
C -1.8026870891 1.7710185897 1.6073332436
C -2.6087652771 2.6081672117 2.5714564901
Br -1.7474967224 2.6145696085 4.3588760333
Br -2.9131051169 1.6294871200 -0.0447362358
O 0.2708033860 1.5698316947 0.3096987082
P 0.9783984466 0.2250170447 0.8084400484
O 1.4402045691 0.1681181659 2.2108075140
O 2.1018834132 -0.0088691391 -0.3147589486
C 3.4934041872 0.2429082129 -0.0422715741
C 3.9449884742 1.5902976088 -0.5712255528
C 3.4128205073 1.9598340374 -1.9336095106
Br 4.1209197620 0.6944117822 -3.2885873235
Br 3.3731380793 3.0628460121 0.6556920282
O -0.1362232579 -0.8504317713 0.3864790828
C 0.0076177281 -2.2186012524 0.8074871760
C -1.3695791807 -2.8323629379 0.9145260773
C -2.2736317839 -2.6040160766 -0.2729373170
Br -1.5263121391 -3.5265388753 -1.8625745738
Br -2.3316302395 -2.0518461848 2.4852723197
H 0.1327744871 2.4712890303 2.1807720304
H -0.5726159112 3.3512734128 0.7900766762
H -1.7065754622 0.7415558205 1.9599823917
H -2.6809665241 3.6502040674 2.2581112872
H -3.6006546491 2.1900500894 2.7274944959
H 4.0408868283 -0.5330768143 -0.5874857529
H 3.6980188742 0.1542157936 1.0288092745
H 5.0358684562 1.6323738464 -0.5419676958
H 2.3275627887 1.8841684557 -1.9795928959
H 3.7516003077 2.9448494145 -2.2461639801
H 0.5751714353 -2.7639603435 0.0422832770
H 0.5284395708 -2.2753086173 1.7688500482
H -2.3458781235 -1.5487894711 -0.5324805498
H -3.2590906221 -3.0373555362 -0.1176778209
H -1.2756195407 -3.8936302531 1.1524134629
