25
CONF5
N 4.2360737993 0.6820323476 -0.8932500958
S 3.3749711087 0.3322505734 0.5046802279
O 3.2877281704 1.5934541090 1.2537363394
O 4.0263726589 -0.8388412595 1.1065026108
C 1.6880939898 -0.1027415151 0.0618800045
C 1.3414247061 -1.2343930229 -0.6971848119
Cl 2.5704762595 -2.2890685467 -1.3564840371
C 0.0282914773 -1.5505769919 -0.9659292315
C -1.0216066089 -0.7354411246 -0.4900009560
N -2.3103460005 -1.0785026411 -0.7258285853
C -3.4369491345 -0.2091436849 -0.4000213834
N -3.2769298439 0.4357409948 0.9037754941
S -1.9321425646 1.4667599385 0.9178356511
O -2.2120104896 2.5442989048 -0.0422999835
O -1.6370538471 1.8004277656 2.3168787405
C -0.6574786980 0.4088914456 0.2628809847
C 0.6667344542 0.7094220730 0.5374305326
H 3.7970661667 1.4364678811 -1.4178500784
H 4.3546121779 -0.1430408253 -1.4774322861
H -0.2081459504 -2.4315615058 -1.5527696112
H -2.4936173577 -1.8990089847 -1.2827006452
H -4.3446270787 -0.8167468683 -0.3760402155
H -3.5628302012 0.5801313720 -1.1527439773
H -3.1913201350 -0.2395920441 1.6654679771
H 0.9132125233 1.5787816997 1.1376044358
