45
CONF59
C -1.3694441326 -1.4856908409 1.5038973618
C -1.8632584983 -1.3614181054 0.0988557356
C -1.6570098336 -0.2951495821 -0.6821155551
C -2.1815985488 -0.1901572212 -2.0531079208
C -1.3151018379 0.2732279090 -3.2627410883
C -2.4770211527 1.1143537398 -2.7374567947
C -2.2529208913 2.4340052457 -2.0340993562
C -3.6829988488 1.1378874342 -3.6556269186
C 0.1242476595 0.5550348839 -3.1637531405
O 0.9274633059 0.2092417476 -4.0122902859
O 0.4779682810 1.2170638317 -2.0326186492
C 1.8913603681 1.3353929943 -1.7296182705
C 2.1170032705 0.7018525631 -0.3896057141
C 2.0037915245 -0.6766631682 -0.2338077922
C 2.1736329358 -1.2875406331 0.9972684149
C 2.4762227655 -0.5526168776 2.1395070341
C 2.5754011826 0.8247938560 1.9866035411
C 2.3996643992 1.4392301464 0.7536302185
F 2.5082567646 2.7776414362 0.6816026750
F 2.8497092696 1.5953819105 3.0534865535
C 2.6378084955 -1.2085357715 3.4780609536
O 1.3552086555 -1.2432311168 4.1065346011
C 1.4349625018 -1.8549160032 5.3954983686
F 2.0434091711 -2.6229342199 1.0787069497
F 1.7105081533 -1.4345918695 -1.3045407859
H -2.2008994209 -1.6306319635 2.2049412404
H -0.8103737339 -0.5964589353 1.8106850457
H -0.7145259660 -2.3587158155 1.6163373556
H -2.4280831100 -2.2062133984 -0.2985313963
H -1.0884216632 0.5396577262 -0.2825521226
H -2.8329953894 -1.0158329918 -2.3337238431
H -1.5263908498 -0.2616195672 -4.1828313601
H -2.0629826345 3.2212748569 -2.7719526329
H -1.4206492741 2.4189483250 -1.3333975513
H -3.1625337809 2.7013705391 -1.4848379870
H -3.8297228601 0.1745958029 -4.1522989716
H -3.5638382236 1.9091674959 -4.4248273224
H -4.5856457769 1.3686054467 -3.0788929374
H 2.4737652386 0.8346290531 -2.5063101077
H 2.1398432488 2.3968325243 -1.7095176656
H 3.3490621603 -0.6378346136 4.0916040994
H 3.0301463403 -2.2271522233 3.3514924028
H 2.1085405005 -1.2921738687 6.0575861352
H 0.4261671908 -1.8483205730 5.8128385741
H 1.7922738325 -2.8917904315 5.3185860148
