63
CONF1437
C -11.5902726538 0.6331421538 0.1907069908
C -10.3678346411 0.3127955034 -0.6664079608
C -9.0493603693 0.6067801393 0.0491299363
C -7.8246572219 0.2809969657 -0.8062064357
C -6.4841129337 0.6688818819 -0.1739183680
C -6.1375938601 -0.1232304037 1.0879823121
C -4.7992868861 0.2697726852 1.7222259043
C -3.5748312058 -0.0294160729 0.8565905581
C -2.2558812357 0.2728814472 1.5669192171
C -1.0299188219 0.0043735543 0.6958654429
C 0.2918683324 0.3102651310 1.3984265849
C 1.5128850011 0.0560230909 0.5160249762
C 2.8378446173 0.3679764391 1.2097911299
C 4.0541700059 0.1248044946 0.3173792371
C 5.3789088469 0.4310536072 1.0167747692
C 6.6067371890 0.3088517737 0.1095086762
C 6.8421439602 -1.1059947344 -0.4253018598
C 8.1915178246 -1.2923763760 -1.1230022724
C 8.3577886687 -0.4349536443 -2.3788604827
C 9.6438103115 -0.7262754878 -3.1303964190
O 9.5905746878 -2.0792771064 -3.6023037233
H -11.5881435111 0.0429432775 1.1135880781
H -11.6024298023 1.6909405762 0.4751079347
H -12.5223461617 0.4188719708 -0.3410377372
H -10.4087187300 0.8907347888 -1.5991565229
H -10.3894574986 -0.7447522323 -0.9610308884
H -9.0212613181 0.0361452031 0.9864003610
H -9.0203816477 1.6682799464 0.3347971533
H -7.9239474965 0.7989323805 -1.7695477443
H -7.8187394576 -0.7938046647 -1.0366966546
H -6.4921223435 1.7421979049 0.0651669074
H -5.6944923943 0.5256022510 -0.9210087848
H -6.9292651328 0.0153003663 1.8339553023
H -6.1243339086 -1.1960392939 0.8470267473
H -4.8157113608 1.3411049765 1.9677957471
H -4.6908077907 -0.2607018869 2.6776988095
H -3.6165499463 0.5540691408 -0.0719899970
H -3.5929483733 -1.0869164080 0.5559928098
H -2.2500939603 1.3240760908 1.8880223330
H -2.1901527514 -0.3271515830 2.4854125144
H -1.0356694623 -1.0463481494 0.3735296248
H -1.0988941152 0.6050085170 -0.2220067577
H 0.2936137115 1.3587974294 1.7279322428
H 0.3685521049 -0.2969009041 2.3112780836
H 1.5125482100 -0.9929401394 0.1881017115
H 1.4319125667 0.6610613509 -0.3979621449
H 2.8353650560 1.4148900620 1.5445163439
H 2.9257706828 -0.2431753265 2.1190366364
H 4.0435686464 -0.9184786286 -0.0232099693
H 3.9715862289 0.7442185341 -0.5874584023
H 5.3359994157 1.4500077317 1.4244029530
H 5.4969099694 -0.2403424421 1.8790152987
H 7.4974784811 0.6268493648 0.6690982377
H 6.5002973633 1.0120080382 -0.7270629950
H 6.0412570443 -1.3795275341 -1.1243823582
H 6.7745417879 -1.8145077915 0.4117859193
H 9.0024366544 -1.0576792430 -0.4183789055
H 8.3544647070 0.6309015584 -2.1194959884
H 7.5101710054 -0.6017441916 -3.0571672774
H 10.5072714296 -0.5841580974 -2.4595699039
H 9.7498286093 -0.0278934280 -3.9752970644
H 10.4203159600 -2.2749898262 -4.0483705333
H 8.3127461156 -2.3444516492 -1.4015439798
