39
CONF14
C -2.0818176990 3.3100486921 -1.9751015792
C -1.4948292115 2.1154207605 -1.2881325011
O -1.5103648059 1.0130728929 -1.8303160133
C -0.9321314512 2.3470038599 0.0865835393
C -0.5177315245 1.1212599281 0.9171814604
C -1.6221931495 0.1010595799 1.1757916437
C -1.3019307099 -1.1147908710 1.7917958776
C -2.2903886391 -2.0345355759 2.1223972876
C -3.6283906798 -1.7559109425 1.8490045601
C -3.9615737697 -0.5460273793 1.2493781954
C -2.9674734053 0.3738017032 0.9180775781
C 0.8067312304 0.5137290351 0.4861237868
C 0.9592732186 -0.5043120726 -0.4293102197
O -0.0379368489 -1.0054784181 -1.1523427592
C 2.2476744360 -1.1224222125 -0.6355404319
C 2.4529135266 -2.2089676348 -1.5010937839
C 3.7150188054 -2.7603240920 -1.6393574877
C 4.7952173802 -2.2299117069 -0.9239982970
C 4.6170585051 -1.1503076659 -0.0714765565
C 3.3427027364 -0.6078862910 0.0662271655
O 3.2062937201 0.4616370350 0.9009742389
C 1.9690133271 1.0501357510 1.1478997610
O 1.9796950280 1.9917120090 1.9252773495
H -1.4632568565 4.1981940460 -1.8184611167
H -2.2232241888 3.1135826578 -3.0382454342
H -3.0570207915 3.5151164670 -1.5146547760
H -0.0595108128 3.0030378143 -0.0391590243
H -1.6576336346 2.9615950078 0.6361143097
H -0.2913006524 1.5483037841 1.9023942183
H -0.2629255751 -1.3435396133 2.0116606451
H -2.0144202146 -2.9718363367 2.5960185009
H -4.4017832097 -2.4738375788 2.1031947431
H -4.9995550444 -0.3115068017 1.0337171330
H -3.2636767797 1.3094543070 0.4557284631
H -0.7541003330 -0.3132448892 -1.2465985853
H 1.6095940269 -2.6073593785 -2.0528311933
H 3.8679215615 -3.6025761778 -2.3054020327
H 5.7841973925 -2.6622298505 -1.0360350298
H 5.4418641720 -0.7211600534 0.4867774572
