40
CONF95
C 3.2964649617 -1.0307458290 -1.3394540750
O 4.0354645311 -0.0765656579 -0.5329559244
C 4.4722515298 -0.5340653027 0.6512744667
O 4.3139719278 -1.6727118326 1.0429654890
C 5.1406288069 0.5633200734 1.4368599077
S 3.9436835118 1.2420016321 2.6738962552
C 2.6400304790 1.8188383575 1.6004951374
C 1.4535626515 1.0858981580 1.5450694223
C 0.3739461942 1.4706441006 0.7421127725
C 0.5358182000 2.6506195044 0.0030632661
C 1.6916715839 3.4074118221 0.0283824434
C 2.7431503752 2.9875431173 0.8335482124
Cl 4.1945864312 3.9637738798 0.8594671796
F -0.4950586320 3.0878119361 -0.7530875371
N -0.8154481989 0.7499896155 0.7636663887
C -1.2869123460 0.2397539288 -0.3149629794
N -2.5203117826 -0.3620000612 -0.3698216472
N -2.7008704015 -1.1556762193 -1.5183152999
C -1.7961328379 -0.9634235851 -2.5148648444
O -1.8536084200 -1.4077616918 -3.6456410888
S -0.4651529408 0.1050728350 -1.8982838485
C -4.0933166037 -1.5360033465 -1.8146404269
C -4.7131197656 -2.1946781283 -0.5911925731
C -4.5753427514 -1.2740001825 0.6183010242
C -3.1132636409 -0.9290929340 0.8610641993
H 3.0073254118 -0.4856308215 -2.2366997540
H 2.4126542393 -1.3712985795 -0.7946836233
H 3.9332790743 -1.8819725778 -1.5905360161
H 5.5112594321 1.3630094544 0.7936126295
H 5.9541463156 0.1439507472 2.0335313418
H 1.3595844645 0.1789189578 2.1326031162
H 1.7558998944 4.3139536558 -0.5623239749
H -4.6513651237 -0.6322483249 -2.0967619109
H -4.0522969491 -2.2124459568 -2.6695278179
H -5.7658429713 -2.4009717375 -0.8053958971
H -4.2144769921 -3.1516219067 -0.3964205983
H -5.1475206230 -0.3528057640 0.4556700852
H -4.9659679057 -1.7552767203 1.5197472240
H -2.5399324146 -1.8214997706 1.1512888367
H -3.0034399060 -0.1700149455 1.6356554487
