25
CONF7
C -1.4718357365 -1.8201368244 0.2880912324
Si -1.4088490745 0.0292361114 -0.0125569761
C -2.5282571738 0.5103101599 -1.4316540295
C -1.8926697627 0.9453605182 1.5500142314
O 0.1296528572 0.4737754058 -0.4415278571
Si 1.6691684237 0.1555744947 0.0404639463
C 2.2446073549 -1.4776223918 -0.6414581874
C 2.7182411855 1.5938853364 -0.5165179551
O 1.7388288239 -0.0272009641 1.6932533377
H -0.8086780345 -2.1035861596 1.1130894725
H -1.1624109189 -2.3773813729 -0.6028904140
H -2.4856802588 -2.1434373841 0.5490418585
H -2.4709018212 1.5862958582 -1.6273123515
H -2.2421184171 -0.0122321333 -2.3505695470
H -3.5731316377 0.2628557585 -1.2151794159
H -1.2572879370 0.6417471888 2.3892457538
H -2.9319590121 0.7374049243 1.8276487598
H -1.7921129343 2.0283690154 1.4197088312
H 2.1369605915 -1.5070910212 -1.7303891072
H 1.6578739516 -2.3006587233 -0.2207724539
H 3.2962660823 -1.6577767164 -0.3967169257
H 2.6768270284 1.7061751367 -1.6049857122
H 2.3612752563 2.5325067950 -0.0781749800
H 3.7654520065 1.4595419344 -0.2274678308
H 1.6307389669 0.7640851539 2.2276162193
