88
CONF41
C 1.7411787402 0.9331374758 1.1755591745
C 0.2479992203 1.1698054179 0.9362251353
C -0.5809666480 0.1073033946 1.6443943624
O -1.9844026089 0.2785500168 1.3258562602
C -2.6787966690 1.1571372754 2.0995294648
O -2.1823447497 1.7867969871 3.0141831290
C -4.0887212386 1.2624421927 1.7177670856
C -4.6462927240 0.6140684686 0.6776798435
C -6.0313742812 0.6735253850 0.2451400399
C -7.0143280518 1.3711709006 0.9601755519
C -8.3250214124 1.3974706882 0.4991200814
O -9.3556324561 2.0048293203 1.1525524792
C -9.0605857160 2.6554097582 2.3859603848
C -8.6774553842 0.7511053949 -0.7023824740
O -9.9475518285 0.7129990269 -1.1815110815
C -10.6126625258 1.9706251365 -1.3981279015
C -7.6908951669 0.0404599547 -1.4087452355
O -8.1190187798 -0.5680202327 -2.5456668012
C -7.1622899383 -1.3212998568 -3.2839529764
C -6.3828202058 -0.0018728702 -0.9321355386
C -0.2155172509 -1.3057454225 1.2102305618
O -0.8818246081 -2.2671310368 2.0267121144
C -1.9904060276 -2.9036289681 1.3990110679
C 1.2833851090 -1.5416540362 1.3963589895
C 1.6448339428 -2.9194954903 0.8852666446
O 1.0491806514 -3.5404936170 0.0346011027
O 2.7888193735 -3.3574809523 1.4624197928
C 3.2440246476 -4.6494318134 1.0081967823
C 2.1719760367 -0.4710161876 0.7200906004
C 2.1599116588 -0.5551584907 -0.8080119413
C 3.0023626332 0.5487760172 -1.4507565285
N 2.5782114067 1.8775044106 -0.9643180886
C 3.3999125451 2.9233035536 -1.5915844561
C 4.8987574593 2.8738184945 -1.2117565722
C 5.3577046807 1.4533544726 -1.1689400114
C 4.4855079101 0.4014888920 -1.2600463058
N 5.1896521944 -0.7915714982 -1.1730878402
C 6.5291878949 -0.5145932389 -1.0016251888
C 6.6704953901 0.9015772172 -0.9950505036
C 7.9483554194 1.4382380609 -0.8347622694
C 9.0410554519 0.5919541977 -0.6838534241
C 8.8678027756 -0.8047510780 -0.6931167290
O 9.8954147158 -1.7015484594 -0.5494243566
C 11.2069991191 -1.1813065252 -0.3809162151
C 7.6067293012 -1.3759969619 -0.8534186383
C 2.6285755697 1.9774730377 0.4997344829
H 1.9255095308 1.0078053029 2.2572209168
H -0.0389191728 2.1544376416 1.3196500424
H 0.0200813387 1.1596217404 -0.1348126761
H -0.4630099874 0.1883992160 2.7315757025
H -4.6520169804 1.9358006620 2.3546840340
H -3.9979001959 -0.0209850938 0.0783829478
H -6.7529553422 1.8644413550 1.8859857164
H -10.0090095028 3.0618746873 2.7393204906
H -8.6698597096 1.9452888991 3.1256454848
H -8.3424176591 3.4732190297 2.2445893819
H -11.3257594296 1.7945383446 -2.2065623815
H -11.1382404763 2.2984117100 -0.4976837336
H -9.8943728578 2.7390823706 -1.7047131215
H -6.3441289290 -0.6851779406 -3.6467488222
H -7.7055952786 -1.7325937434 -4.1354866200
H -6.7506746395 -2.1425129269 -2.6829677216
H -5.6139148715 -0.5374536621 -1.4747255589
H -0.4893885132 -1.4517271428 0.1554689010
H -2.3704255591 -3.6382476531 2.1131250536
H -2.7885695591 -2.1866609072 1.1650484890
H -1.6738935534 -3.4216452976 0.4830314575
H 1.4927364474 -1.5180869515 2.4732902577
H 3.4159396449 -4.6388511338 -0.0717962230
H 2.4998551599 -5.4156355439 1.2401193269
H 4.1725422260 -4.8375032779 1.5467289230
H 3.2028556605 -0.6349375449 1.0622370494
H 1.1392977032 -0.4658634175 -1.1920215611
H 2.5185557450 -1.5349022364 -1.1461984714
H 2.7849068843 0.5319884762 -2.5310049107
H 2.9760160706 3.8999463312 -1.3290760634
H 3.3012013433 2.8052083067 -2.6781793812
H 5.0699982408 3.3624074073 -0.2415140161
H 5.4712104623 3.4541715908 -1.9468004672
H 4.7849427142 -1.7107244541 -1.1724278435
H 8.0966754965 2.5139112286 -0.8257007715
H 10.0264806849 1.0221750718 -0.5595908899
H 11.5198908218 -0.5872018091 -1.2501473357
H 11.2838104473 -0.5676475327 0.5267640248
H 11.8614367597 -2.0492167227 -0.2844866338
H 7.5041131375 -2.4558076500 -0.8577592637
H 2.2885095832 2.9848140147 0.7730657502
H 3.6553604330 1.8567105522 0.8908963574
