49
CONF52
C -1.4385629963 -1.2951325071 -1.3643489792
C -2.6523121014 -0.9626858488 -0.5225022382
C -2.4762164843 -0.2098195600 0.8181549567
C -2.9047071577 -1.6906607730 0.7641221609
C -4.3268160651 -1.9649557824 1.2162222700
C -1.9568458370 -2.7756507282 1.2310040863
C -1.1666345200 0.2253844048 1.2977086894
O -0.0969124432 -0.3445593712 1.2263577544
O -1.2835390756 1.4638660004 1.8964929415
C -0.0493279525 2.1126207718 2.2977773712
C 0.7268870367 1.2881146942 3.2288687848
N 1.3386733634 0.7118444770 4.0211737830
C 0.7467145245 2.6082521730 1.1083728995
C 1.8424710099 1.9072411245 0.6139178251
C 2.4921774706 2.3825636779 -0.5215325172
C 2.0807458863 3.5549991207 -1.1484977345
C 0.9964513269 4.2566123004 -0.6311053484
C 0.3226298582 3.7876793112 0.4916716620
O 3.6048258711 1.7510332789 -1.0386919975
C 3.6536278848 0.3640475620 -1.0217698721
C 4.8819072414 -0.2195708548 -0.7313750505
C 5.0001342982 -1.6064135591 -0.7740958583
C 3.9004213348 -2.3992014577 -1.0948847201
C 2.6772659384 -1.7965352792 -1.3850534522
C 2.5458348290 -0.4115582787 -1.3567789003
C -3.8154476291 -0.4978028684 -1.3772160381
H -1.1815870889 -0.4395132574 -1.9988665825
H -1.6794566311 -2.1382519286 -2.0221231227
H -0.5592482263 -1.5525716087 -0.7773981885
H -3.2732890158 0.4884171994 1.0513197152
H -5.0117258916 -1.1443291403 1.0004056054
H -4.7055991596 -2.8679323102 0.7233529610
H -4.3422616414 -2.1406899476 2.2970509504
H -0.9179349300 -2.5931508590 0.9654023806
H -2.2674531525 -3.7310188091 0.7924476705
H -2.0138440768 -2.8745915027 2.3204918471
H -0.4024654040 2.9738121005 2.8747795316
H 2.1770047408 0.9943012226 1.0921880740
H 2.6113485093 3.9036317988 -2.0280551290
H 0.6733884870 5.1738353530 -1.1124552427
H -0.5285127547 4.3320018934 0.8888975203
H 5.7264350120 0.4123393747 -0.4772493142
H 5.9567452667 -2.0666810318 -0.5474109392
H 3.9954088794 -3.4796597612 -1.1207394672
H 1.8166899137 -2.4056467530 -1.6442253061
H 1.5962698296 0.0602308727 -1.5864394451
H -3.4900159356 0.3158417247 -2.0340761097
H -4.1620169967 -1.3225778696 -2.0109529075
H -4.6613243503 -0.1375078044 -0.7906674697
