49
CONF40
C -5.5122102813 -0.5896080643 -2.3860409116
C -4.1816061756 -1.1574459540 -1.8835011826
C -3.2242601696 -1.3901989114 -3.0562871690
C -3.5503915407 -0.2129019018 -0.8590618871
C -4.3301031600 0.0283042196 0.4677782521
C -4.2560954580 -1.3787527937 1.1312659087
C -2.8416732068 -1.8851523916 0.7292614953
C -2.2683912302 -0.7135685252 -0.1267834325
C -2.0557053600 0.4353123075 0.8250002090
C -3.3332619554 0.8935707949 1.1955442767
C -3.4999961131 1.9618472020 2.0603863360
C -2.3556069853 2.6056055908 2.5457481455
C -1.0867905609 2.1688994512 2.1818681842
C -0.9249125841 1.0699055593 1.3230471832
N 0.3933236767 0.7150026404 0.9296121143
C 0.9290148522 -0.5349268570 1.0092497697
O 0.2912741511 -1.5220272488 1.3807178346
C 2.3467181842 -0.6658775411 0.6035377326
C 2.8919286773 -1.8816001874 0.2141113203
N 4.1945507643 -1.6695980115 -0.0566029479
N 4.5600269767 -0.3947489898 0.1438255055
C 3.4465778486 0.2290098654 0.5390103743
C 3.5724452503 1.6657834835 0.8891210026
F 2.7685319851 2.4502396163 0.0672158803
F 3.1184903714 1.8989984580 2.1715592447
C 5.1736508473 -2.6436704758 -0.5209611904
H -5.9519220424 -1.2465154009 -3.1438619668
H -5.3596256946 0.3965910545 -2.8413597333
H -6.2374466584 -0.4796464138 -1.5739504357
H -4.3829102077 -2.1272932100 -1.4122568802
H -2.2896829501 -1.8568807360 -2.7301031547
H -3.6827259205 -2.0427704323 -3.8067525235
H -2.9768055384 -0.4385699031 -3.5425927602
H -3.3495238684 0.7476604726 -1.3546696456
H -5.3356124541 0.4453919265 0.3924819686
H -5.0446714349 -2.0273151729 0.7373937615
H -4.3886663310 -1.3121618944 2.2144202508
H -2.8975954343 -2.7987474362 0.1294888739
H -4.4905122674 2.3117495221 2.3363716500
H -2.4533223510 3.4600464547 3.2083771367
H 2.4314926679 -2.8531431433 0.1118927001
H 4.5998362522 2.0297481443 0.8047671514
H 5.5464157519 -2.3515694260 -1.5057719731
H 4.6856251805 -3.6164077615 -0.5854320672
H 6.0049042173 -2.6934638697 0.1862429523
H -2.1991008271 -2.0844156984 1.5870565266
H -1.4100820858 -0.9794333781 -0.7430488559
H 0.9993460930 1.4802555176 0.6706204395
H -0.2040906838 2.6783169967 2.5579949883
