21
CONF3
C 2.4266585072 -1.1811006577 -0.0933542684
C 1.0365018993 -0.6293359498 0.0769360581
O 1.1222042151 0.7927019985 0.1981087722
C -0.0862451815 1.4269822025 -0.2277515491
O -1.1836799494 0.5462396733 -0.0346485758
C -1.0977933733 -0.5579230304 -0.9271587593
O 0.2679163945 -0.9731347673 -1.0655621845
C -1.9828263333 -1.6598255920 -0.3948109945
C -0.3014975552 2.6689133281 0.5950464088
H 3.0528078770 -0.8565327597 0.7409148202
H 2.8556123486 -0.8112037841 -1.0276567513
H 2.3935732535 -2.2730215380 -0.1159014027
H 0.5514351353 -1.0287511843 0.9832190338
H -0.0003937785 1.6589398383 -1.3049192846
H -1.3997300224 -0.2460347489 -1.9406120294
H -3.0139559831 -1.3049886025 -0.3160816067
H -1.6418676613 -1.9731211072 0.5958665699
H -1.9474648514 -2.5154079243 -1.0730409351
H -0.4537818814 2.3921417304 1.6411393614
H 0.5788912265 3.3114767951 0.5216631482
H -1.1763646830 3.2129860694 0.2307933608
