54
CONF14
C -2.7927236741 1.5554059463 -1.5616511550
C -2.5370717860 0.6150133307 -0.3548485771
C -3.0605911038 1.2818116722 0.9316864682
C -4.5841705858 1.3392461285 0.9912884680
C -5.1985121230 -0.0350608051 0.8044141372
O -6.2815394752 -0.3316062837 1.2875476739
C -4.4603220285 -0.9640300972 -0.0562614482
C -3.2743525867 -0.6782921626 -0.6265604211
C -2.6638620929 -1.5855735381 -1.6526049956
C -1.1848699268 -1.8490151898 -1.3717465362
C -0.3705936628 -0.5529879689 -1.3025655153
C -0.9961035451 0.4226603758 -0.2526017821
C -0.3865739129 -0.0322082262 1.0516982626
O -0.9438542830 -0.7175391011 1.8850052544
C 1.0788926972 0.3658058966 1.1743004323
C 1.8524770051 0.2483905362 -0.1769649927
C 1.1402205963 -0.8344649122 -1.0328821467
C 1.4751864888 -2.1390952887 -0.2693177834
C 2.8587911972 -1.9072917900 0.3821117877
C 3.2425545123 -0.4549879134 0.0568299144
C 4.0707659892 0.2225269393 1.1425637399
O 3.8436408822 0.0679642046 2.3303257905
C 5.2108701884 1.1260203214 0.7191990339
O 5.7739033952 1.7948224310 1.8159319386
O 3.9467136956 -0.3725286963 -1.1943185605
C 2.0322201165 1.5908437522 -0.8876681443
H -2.3525191054 1.1666589629 -2.4831666856
H -3.8638926406 1.6824943282 -1.7371585330
H -2.3556125857 2.5403082473 -1.3646916749
H -2.7132715261 0.7023594080 1.7895911554
H -2.6310779348 2.2885165953 1.0155859198
H -4.9347600711 1.7456196114 1.9438393026
H -4.9971321644 1.9844273633 0.2035392370
H -4.9674658296 -1.9007508837 -0.2752810545
H -2.7648818716 -1.1126466654 -2.6412583316
H -3.2215308306 -2.5257889003 -1.6953490035
H -0.7672507987 -2.5014954738 -2.1475102166
H -1.1109106568 -2.3866317473 -0.4212672280
H -0.4424049160 -0.0551372409 -2.2778090558
H -0.5685404871 1.4130262337 -0.4400297883
H 1.1067376446 1.4058709807 1.5264217962
H 1.5196888812 -0.2396166066 1.9665334663
H 1.6468833216 -0.8738144170 -2.0023363739
H 0.7411855470 -2.3354084381 0.5151865264
H 1.4705533348 -3.0057460833 -0.9345216513
H 2.8206625174 -2.0451305600 1.4650583258
H 3.6263882875 -2.5909190929 0.0023750003
H 5.9615137145 0.5005989702 0.2051299022
H 4.8503923956 1.8366787037 -0.0389982422
H 5.3442482968 1.4203776323 2.6033642203
H 4.5759819068 -1.1012855489 -1.2261541463
H 1.0778919325 2.0078929100 -1.2164804042
H 2.6626840748 1.4757366437 -1.7714346670
H 2.4953427500 2.3279752096 -0.2229377536
