30
CONF5
N 5.4984755981 -0.5656108669 0.7438128569
C 4.1707440713 -0.3030059138 0.6154781209
N 3.7290371784 0.7873079137 1.2947236864
C 2.4271642597 1.0558897992 1.2178651606
N 1.9351302184 2.1172883938 1.8745279632
C 1.5506338759 0.2213537231 0.4463870403
N 0.2408050543 0.5097919899 0.3377407711
C -0.5217625165 -0.2773259937 -0.3951540138
C 0.0545567215 -1.4566709901 -1.0090982400
N -0.7249791033 -2.3262634210 -1.6971425723
N 1.3536054642 -1.7343675746 -0.9213458604
C 2.1325975786 -0.8917665896 -0.2062286451
N 3.4549848449 -1.1573116206 -0.1287686977
C -1.9549007521 0.0681432742 -0.5127621873
C -2.6135504804 0.0738340499 -1.7503127269
C -3.9528735706 0.4429067591 -1.8334195305
C -4.6544102239 0.8044932369 -0.6856980086
C -4.0056454534 0.8067185726 0.5482985012
C -2.6662217911 0.4451298632 0.6347029499
H 6.0923190364 0.1535183236 1.1233148886
H 5.9123406111 -1.2367438985 0.1174873270
H 2.5535491001 2.7289974723 2.3813629539
H 0.9599134145 2.3508527676 1.7860251814
H -0.3214389583 -3.2181459482 -1.9409463421
H -1.7258836546 -2.2897999941 -1.5892449626
H -2.0702498673 -0.1807129647 -2.6551098473
H -4.4466663506 0.4552753774 -2.8000922437
H -5.7005401775 1.0861708307 -0.7523157490
H -4.5467377929 1.0870159652 1.4468266182
H -2.1599959381 0.4430375586 1.5947441073
