46
CONF58
C -3.4004078716 -0.2161313957 -1.8809251309
C -3.1845700069 -0.5511227667 -0.4233807378
C -1.9144036514 -1.2442414251 0.0173062142
C -2.1807129897 0.2173716597 0.4330378497
C -1.4159308142 1.4078702676 0.0094616262
O -1.2698762072 2.3801856050 0.7288509216
O -0.9005359229 1.3351730323 -1.2382793310
C -0.0917680477 2.4581953961 -1.6669092199
C 1.2553851058 2.4819218481 -0.9919947140
C 1.7831634425 1.3273476886 -0.4226299177
C 3.0254452515 1.3754294428 0.2031820926
C 3.7742768894 2.5475624102 0.2297971771
C 3.2484069386 3.6904691085 -0.3665482365
C 1.9901352739 3.6692603317 -0.9623387585
O 3.5905597627 0.2510258613 0.7755031661
C 2.7443304653 -0.6918575533 1.3445305253
C 1.7282571040 -0.3171629618 2.2217233560
C 0.9485819577 -1.3069171862 2.8124603633
C 1.1863339201 -2.6531254645 2.5383416690
C 2.2122311782 -3.0089972589 1.6663879848
C 2.9956737013 -2.0291226805 1.0609922770
C -0.8575263099 -1.6193355526 -0.9258790692
C -0.3436648688 -2.8454319345 -1.0327996556
Cl 0.9308132153 -3.2212062018 -2.1655797906
Cl -0.8732991226 -4.2174032107 -0.0992188309
C -4.4550142358 -0.9525148462 0.2952130020
H -3.8775625997 -1.0711976651 -2.3717972853
H -4.0744696167 0.6425655420 -1.9707218647
H -2.4789861432 0.0143610014 -2.4128347478
H -2.0398162406 -1.9310151611 0.8495237044
H -2.4687913046 0.3200821926 1.4741065904
H -0.6315430178 3.3920197376 -1.4876456076
H 0.0143301685 2.3090945686 -2.7452749181
H 1.2266847561 0.3972919200 -0.4417959691
H 4.7421829046 2.5578462760 0.7194877011
H 3.8189940417 4.6136700146 -0.3439565500
H 1.5760784056 4.5740012197 -1.3975131183
H 1.5513199962 0.7321084950 2.4346403504
H 0.1545949537 -1.0215072797 3.4957698213
H 0.5726785401 -3.4195997332 2.9996795731
H 2.4007899418 -4.0546783225 1.4441985857
H 3.7935847926 -2.2892099071 0.3731661661
H -0.4598964667 -0.8710917405 -1.6016606683
H -4.2633682728 -1.2001694251 1.3427185372
H -4.8994527994 -1.8270590979 -0.1922799232
H -5.1832348898 -0.1347548376 0.2589084243
