49
CONF76
C -3.0012403115 -1.4353638715 5.1635529241
C -3.2512669020 -2.4335004618 4.2246468013
C -2.7983784658 -2.2979132074 2.9159120554
C -2.0677103406 -1.1648961104 2.5639980882
C -1.8063735222 -0.1589556302 3.4945654809
C -2.2837641522 -0.2993995826 4.7932744129
N -1.5868922700 -1.0569280210 1.2277022513
C -0.6477466455 -1.9117769449 0.6798914619
O -0.4002664207 -3.0323313298 1.0884137646
C 0.0494489665 -1.1629093498 -0.4385520368
C -0.5755904663 0.2152053505 -0.4060999226
O -0.3875084803 1.1421435122 -1.1758822719
N -1.4741379734 0.2349778465 0.6469964181
C -2.5941205899 1.1119447986 0.7146052816
C -2.3583892806 2.4817666599 0.8123027606
C -3.4410256790 3.3549564715 0.8526135899
C -4.7439362624 2.8630158392 0.8239016372
C -4.9651649699 1.4892616387 0.7429603707
C -3.8934737725 0.6051062116 0.6808623689
C 1.5750988615 -1.1818471412 -0.2357775044
C 2.3044046722 -0.5619703991 -1.4172160685
S 4.1332188848 -0.6957298794 -1.1406581101
O 4.4571264711 -2.1922040582 -1.1661754746
C 4.6152423652 -0.0146116607 -2.7591034188
C 4.6034460329 1.3651765618 -2.9441474273
C 4.9919507094 1.8786582839 -4.1783445225
C 5.4002071315 1.0184857664 -5.1974900572
C 5.4200798390 -0.3586503894 -4.9870484010
C 5.0271895727 -0.8861842915 -3.7582721754
H -3.3685507564 -1.5389934180 6.1793008401
H -3.8164586827 -3.3167402237 4.5041909490
H -3.0110302903 -3.0556138037 2.1706325777
H -1.2380109998 0.7191575185 3.2080856767
H -2.0858088553 0.4819687504 5.5200033467
H -0.2004179493 -1.6240554219 -1.4033908506
H -1.3406876435 2.8511735040 0.8616284053
H -3.2621218499 4.4229618864 0.9237770892
H -5.5849960650 3.5470666444 0.8698329216
H -5.9780060220 1.1001598087 0.7203977350
H -4.0630023617 -0.4635203053 0.6056992127
H 1.8241116750 -0.6542578627 0.6924726861
H 1.8734997867 -2.2284429142 -0.1183092151
H 2.0897021603 -1.0855760366 -2.3559438961
H 2.0880269968 0.5046264085 -1.5308453867
H 4.2951469239 2.0302689914 -2.1421175870
H 4.9837816122 2.9517957671 -4.3404251667
H 5.7094283722 1.4242413512 -6.1554455594
H 5.7436892757 -1.0264177614 -5.7793299047
H 5.0412766603 -1.9553283678 -3.5719850538
