27
CONF2
C 2.2254816148 2.1054030989 0.9530899990
C 2.5952223985 1.3333141231 -0.2950435736
O 1.6923597775 0.2034687108 -0.4834515851
C 1.9906996450 -0.9088960318 0.2056851904
O 2.9551614167 -1.0649897985 0.9142662915
C 0.9801512327 -2.0185622875 -0.0357347090
N -0.2398698468 -1.6132005198 -0.7205063483
C -1.2306525987 -0.7586311389 -0.2414912127
C -2.2018308950 -0.4554412324 -1.2199335124
C -3.2837367131 0.3736613865 -0.9691222557
C -3.4146721964 0.9326097428 0.2957817925
C -2.4774808035 0.6533141818 1.2826409436
C -1.3970974701 -0.1865540673 1.0246642250
Cl -0.2919935275 -0.4814363120 2.3558517741
S -1.8519586602 -1.2466182610 -2.7448529285
C -0.3569344324 -1.9799490178 -2.0606301585
O 0.4128406626 -2.6810199284 -2.6741457729
H 2.3708472918 1.4920790173 1.8451665763
H 1.1819955491 2.4305008268 0.9114086813
H 2.8622746422 2.9918590386 1.0347726868
H 3.6208696400 0.9571194733 -0.2509476305
H 2.4597577504 1.9313621951 -1.1987234976
H 1.4651523119 -2.7551019986 -0.6857159762
H 0.7659013995 -2.5014739457 0.9178365111
H -4.0070258026 0.5796601319 -1.7499060996
H -4.2497657258 1.5866985030 0.5191194275
H -2.5756971368 1.0808239036 2.2732498644
