21
CONF5
C -1.9302780615 -0.0158593397 -0.6437305057
C -1.2126507863 0.5587732382 0.5790521073
C 0.0944546485 1.2703342328 0.2436361992
C 1.0586999616 0.3617341030 -0.5467015237
C 0.9869477007 -1.1039015603 -0.0608224101
C -0.4489207196 -1.5087570396 0.3009125053
O -1.3390334070 -1.3304306720 -0.7978735083
O -0.9171151389 -0.6448673920 1.3266488511
O 1.8217003952 -1.3040531780 1.0825819817
O 0.7265692724 0.4968819462 -1.9304579871
O 0.6729827497 1.6370071505 1.5017849395
H -3.0016926020 -0.1316224565 -0.4504355715
H -1.7691783623 0.5696690653 -1.5513443193
H -1.8482974072 1.1932579754 1.2002697726
H -0.1269950016 2.1595379612 -0.3646885858
H 2.0861498639 0.7148686161 -0.3663525678
H 1.3691128582 -1.7656413704 -0.8467697430
H -0.4972236783 -2.5420925239 0.6600915805
H 1.4836669442 -0.7183424240 1.7771275468
H 1.3301051223 -0.0630073298 -2.4354197798
H 1.4609955584 2.1665110082 1.3224905150
