22
CONF4
C 2.3015100453 -1.1254305873 -0.0183903212
C 1.2310099873 -0.1646462813 -0.5187293529
C 0.0822993348 -0.0045546262 0.4801914203
C -0.8576605169 1.1542151266 0.1125580792
C -1.9754604964 1.3511588126 1.1273723258
O -2.8588139240 0.2133624444 1.1850681860
O -1.4921965478 0.9889807146 -1.1606674008
O -0.5836587030 -1.2712409222 0.5471970244
O 0.7363270127 -0.6154141667 -1.7997622654
O 3.3789308899 -1.2357654331 -0.9522011142
H 1.8528201110 -2.1101637358 0.1802120621
H 2.7286333026 -0.7441806042 0.9149025339
H 1.6872242894 0.8143225241 -0.7062198215
H 0.5233866201 0.2532524704 1.4586409307
H -0.2410025117 2.0700119520 0.1238551352
H -1.5539778335 1.4720949633 2.1293855462
H -2.5431182951 2.2556858882 0.8725212346
H -3.2932616209 0.1583256140 0.3221427011
H -0.8532972949 0.5432843467 -1.7423459642
H -1.4870639823 -1.0911455621 0.8637244729
H 0.2325099251 -1.4257560087 -1.6205405543
H 2.9848610019 -1.4863967229 -1.7989148367
