27
CONF3
C -1.5857436289 -0.2663200395 2.2790012414
C -2.3658768967 -0.0997362227 0.9781039745
C -1.6583164670 -0.7139776981 -0.2353030555
C -2.4059299579 -0.4899389960 -1.5468216353
N -0.2360258589 -0.2703493263 -0.3430434454
C 0.0400914933 1.1080792133 -0.5190569459
O -0.8597062372 1.9256412038 -0.5919772724
C 1.4566147454 1.4405278679 -0.5984288616
C 2.4301529275 0.5015668102 -0.5077787232
N 2.0447184157 -0.8025984916 -0.3348819585
C 0.7337155830 -1.2610194844 -0.2402284694
O 0.5102589550 -2.4495488090 -0.0821133131
C 3.8962906132 0.7744029919 -0.5828540722
Br 1.8881687463 3.2652600543 -0.8369107015
H -1.3197556875 -1.3149650496 2.4526641808
H -0.6593193285 0.3175489250 2.2649599816
H -2.1756665321 0.0803456393 3.1320964221
H -2.5818502527 0.9550726878 0.7926213081
H -3.3295754369 -0.6181334989 1.0575385636
H -1.5733115800 -1.7895531616 -0.0625961958
H -1.8744265553 -0.9595471668 -2.3799801945
H -3.3938845828 -0.9547730814 -1.4734952492
H -2.5344020452 0.5727342367 -1.7583048543
H 2.7389817686 -1.5301635075 -0.2610694594
H 4.4814457501 -0.1425280008 -0.4824547120
H 4.1908779664 1.4720224696 0.2063560183
H 4.1424736759 1.2499505294 -1.5366660729
