50
CONF4
C 2.8914124700 0.5085070152 2.7909870515
Si 2.3388849334 0.4356614227 1.0167650858
O 0.9798194617 1.3538848395 0.8757538664
Si 0.0687902595 2.3331894026 -0.0844712341
O -0.8579437358 1.4009559627 -1.0816052364
Si -2.3041541551 0.6033196633 -1.0592894581
O -2.3902356356 -0.3469843503 0.2877986167
Si -1.6239951128 -1.6943082701 0.8616831246
O -0.4080720108 -2.0965312190 -0.1734601894
Si 1.2108331986 -2.0423114303 -0.4663085364
O 1.9627388781 -1.1367839960 0.6885625485
C 1.4692275765 -1.2958740027 -2.1538136222
C 1.8848737519 -3.7718284520 -0.3395025905
C -0.9744973315 -1.3109320972 2.5633440537
C -2.8419581470 -3.1020211124 0.8665495578
C -2.3834346249 -0.4333531347 -2.6040108291
C -3.7120689299 1.8185081449 -0.9597511615
C -1.0053573766 3.3446760776 1.0519849013
C 1.1504595326 3.3848471622 -1.1745938321
C 3.6647962056 1.0201230348 -0.1566200287
H 3.1569633219 1.5325319122 3.0749219467
H 3.7683341063 -0.1278981129 2.9512248625
H 2.0941288324 0.1648417335 3.4591093958
H 2.5347288502 -1.2557577948 -2.4049930901
H 1.0637229258 -0.2786699145 -2.1935125166
H 0.9611235425 -1.8921319482 -2.9197431207
H 1.3848240158 -4.4373605775 -1.0512774906
H 2.9594817830 -3.7918267621 -0.5509559281
H 1.7280457718 -4.1717634440 0.6685435554
H -0.3914651971 -2.1483028064 2.9620625749
H -0.3327632463 -0.4249742917 2.5377867075
H -1.8046150757 -1.1148496539 3.2512533294
H -2.3822724455 -4.0146098538 1.2615942977
H -3.1921872148 -3.3101180181 -0.1505841380
H -3.7139192624 -2.8645244366 1.4853081077
H -2.3182818983 0.1962525479 -3.4981800072
H -1.5583668637 -1.1516736848 -2.6291753663
H -3.3257661029 -0.9901762794 -2.6486721841
H -3.6636069597 2.5383586106 -1.7840110524
H -4.6727663052 1.2954300290 -1.0221663247
H -3.6896699800 2.3754072455 -0.0175914584
H -1.6276869092 2.6942841071 1.6769647353
H -0.3879207503 3.9608073120 1.7149477095
H -1.6664634339 4.0091502934 0.4858063566
H 1.7187522052 2.7665083340 -1.8771463118
H 1.8609395134 3.9702269227 -0.5812991191
H 0.5370938768 4.0816286120 -1.7565850358
H 3.9349495072 2.0624424562 0.0444037418
H 4.5653520555 0.4067622985 -0.0388960683
H 3.3391921345 0.9472607099 -1.1991401962
