39
CONF41
C -2.4046724941 -3.5293123673 -1.9497896982
O -2.9708768787 -2.4893618603 -1.1396551547
C -2.1093533205 -1.7034607477 -0.4386838111
C -0.7170100818 -1.8488324424 -0.4477197252
C 0.0752032097 -0.9802228581 0.3028191806
C -0.5085200431 0.0363778491 1.0592722353
C -1.8975804163 0.1812733090 1.0713454501
C -2.7055556815 -0.6930535601 0.3277689302
O -4.0748920231 -0.5726536105 0.3689656507
C -4.5901194357 0.3121096363 -0.6486005831
O -2.5672364785 1.1367179921 1.7717683948
C -1.7816075111 2.0646083441 2.5336859259
C 1.5856885326 -1.1465828376 0.3051670762
C 2.3415341329 0.1434995738 0.1598834652
C 3.1755921087 0.6340315981 1.1442759497
N 3.8784498288 1.7759399388 1.0560594865
C 3.7175454318 2.4507810031 -0.0971556443
N 2.9355719629 2.0928194513 -1.1303894155
C 2.2484344564 0.9478886626 -1.0048837264
N 1.4896151766 0.5597726805 -2.0655463259
N 4.3762863579 3.6469390069 -0.2139055470
H -1.7473754906 -3.1123836113 -2.7215248639
H -1.8479925558 -4.2468037720 -1.3361896585
H -3.2524190574 -4.0283609489 -2.4197966093
H -0.2437984146 -2.6270543590 -1.0350147777
H 0.1278893933 0.7077345164 1.6230396067
H -4.1772771135 1.3200828165 -0.5254758998
H -4.3466857007 -0.0692723946 -1.6471511087
H -5.6736660298 0.3385327207 -0.5176771023
H -1.2030337680 1.5470025930 3.3073540851
H -1.1062950441 2.6331873568 1.8839515613
H -2.4981196833 2.7404774415 3.0011133495
H 1.8630352787 -1.8418935852 -0.4978078523
H 1.8932924144 -1.6205555919 1.2456862315
H 3.2920423514 0.0686515472 2.0698452755
H 1.3156715340 1.2494354181 -2.7812221377
H 0.7550169547 -0.1152787642 -1.9134639694
H 4.4847823196 4.0130370625 -1.1469119937
H 5.1572067544 3.7899277291 0.4074260882
