24
CONF3
O 3.8793741338 0.9036371185 -1.4419812805
S 3.8464228459 0.5014959609 0.1233020384
O 4.0023562424 -0.9376514742 0.2976683925
O 4.6828757959 1.4791876746 0.8006800054
C 2.0504772791 0.9811162475 0.6082344425
F 2.0551969025 1.0988287675 1.9438700045
F 1.7844779850 2.1730235267 0.0492217276
C 0.9924653984 -0.0763692159 0.1647582257
F 1.2640948768 -0.4381645258 -1.1122124434
F 1.1048049866 -1.1546966553 0.9673894480
C -0.4817642895 0.4618407194 0.2303654938
F -0.6914902029 1.2682804863 -0.8333876277
F -0.6260040188 1.1798574126 1.3663311768
C -1.5558856152 -0.6831330107 0.2205848817
F -1.6087994855 -1.2361232697 1.4523953321
F -1.1791109891 -1.6278458262 -0.6706378343
C -2.9872981718 -0.1777535868 -0.1686109669
F -3.2299753000 1.0010352926 0.4498726732
F -3.0370013093 0.0036840940 -1.5050329642
C -4.1369665073 -1.1645445801 0.2220227842
F -5.2705599053 -0.7577994781 -0.3636286072
F -4.3226249734 -1.1828843791 1.5456296088
F -3.8495526574 -2.4036289035 -0.2003507132
H 3.6369833317 0.1366832027 -1.9970984203
