40
CONF14
C 4.0364286442 0.1076189149 -0.5451592712
C 2.6481790138 -0.4881701284 -0.6030078675
O 2.0186963743 -0.4362905481 0.7101619563
P 1.1124941626 0.7890375231 1.1706681025
S 0.9751770285 2.3605590946 0.0557026711
O 1.6754051362 0.9720723427 2.6545779747
C 1.1694820728 2.0502187427 3.4981979662
C 2.2647076833 3.0686875105 3.7147580289
O -0.3351097853 0.0823492962 1.5758511324
C -1.2196327775 -0.3658527926 0.6409012143
C -2.5190786508 -0.6296049703 1.0676437386
C -3.3946761661 -1.0983383986 0.1000840554
N -3.0063225018 -1.2673727397 -1.1796393057
C -1.7393127689 -0.9793271026 -1.4738146907
N -0.8112933861 -0.5444115924 -0.6009905954
C -1.2903572651 -1.1427194767 -2.9053763195
C -0.8043482433 0.1998669074 -3.4650586308
C -0.1981885505 -2.2137703773 -3.0078221125
C -4.8199998996 -1.4319281352 0.4131508977
H 3.9855111987 1.1729680254 -0.3045098299
H 4.5219295278 -0.0031160969 -1.5203624175
H 4.6459521409 -0.3997085032 0.2075090202
H 2.6707729295 -1.5532539905 -0.8482173639
H 2.0097827976 0.0297790178 -1.3249225881
H 0.2901880578 2.5083682562 3.0319405148
H 0.8627312881 1.5706367400 4.4325679196
H 1.9133318725 3.8485521327 4.3980973853
H 2.5413105000 3.5334393899 2.7649758560
H 3.1492867676 2.5964355566 4.1503543247
H -2.8125360537 -0.4717770976 2.0979897131
H -2.1699934745 -1.4732259270 -3.4665925244
H 0.0439805583 0.5729972390 -2.8833922432
H -1.5960131767 0.9541259692 -3.4250428244
H -0.4926919310 0.0833715338 -4.5078613038
H 0.0964895686 -2.3527477848 -4.0527351011
H 0.6839703126 -1.9104416347 -2.4368651822
H -0.5460969682 -3.1753124770 -2.6178493166
H -5.0263372457 -2.4691422746 0.1325351605
H -5.0469994758 -1.2926105414 1.4719380320
H -5.4868205166 -0.8019615924 -0.1836811510
