37
CONF8
C -0.3254309960 -0.4786890038 -2.2002906411
Si 0.0015498346 -0.2015692844 -0.3779569688
C -0.5700742690 -1.7739402066 0.5754647926
N -1.6445681460 -2.5018401422 -0.0830620028
C -1.6418951227 -3.7497586064 -0.5996122570
N -2.8082378186 -4.0199276884 -1.1691779072
C -3.5037614044 -2.8715540403 -0.9692360183
N -2.8402214729 -1.9178673080 -0.3205173293
C 1.8424940860 -0.0448105487 -0.0375515247
C 2.2983830975 0.3270149940 1.2373593644
C 3.6541951593 0.3962337493 1.5372310354
C 4.5624667218 0.0882714039 0.5366392090
F 5.8820078540 0.1539762043 0.8153158798
C 4.1674640350 -0.2806148989 -0.7379081391
C 2.8040452640 -0.3456151126 -1.0118466748
C -0.8593041428 1.3260275589 0.2872165139
C -0.1770480129 2.5513413655 0.3374071945
C -0.7969824922 3.7126690931 0.7866203991
C -2.1194070933 3.6336777627 1.1900383840
F -2.7306243988 4.7545204087 1.6330181090
C -2.8375682731 2.4499644130 1.1583635168
C -2.1997192293 1.3004246159 0.7031900584
H 0.1073142408 -1.4197910737 -2.5572200929
H 0.0868821845 0.3405241749 -2.7982494630
H -1.4043315847 -0.5176522589 -2.3789266668
H 0.2838531888 -2.4558348356 0.6496251014
H -0.8768757443 -1.5236514857 1.5988281356
H -0.7882420075 -4.4110635850 -0.5310377238
H -4.5220089984 -2.7239886871 -1.3041721761
H 1.5815265241 0.5828340223 2.0140940827
H 4.0112340934 0.6852483637 2.5194168589
H 4.9151655021 -0.5070422882 -1.4898650446
H 2.4915179429 -0.6330740885 -2.0117417882
H 0.8631028625 2.6045456203 0.0270748599
H -0.2747755578 4.6620110813 0.8291816083
H -3.8721505793 2.4382436010 1.4830255232
H -2.7599740408 0.3707559060 0.6592616173
