51
CONF69
C -2.9304508373 -1.5373093558 -0.5074070487
N -1.8940723019 -2.1300919649 0.3438469349
C -2.3551252773 -3.4609924166 0.7766483838
C -1.3206975714 -4.1729074087 1.6364813928
C -0.9954399481 -3.3280676081 2.8642009169
C -0.5575404703 -1.9361708161 2.4188395188
C -1.6008217897 -1.2716571135 1.5112756805
C -1.1427846461 0.1326280766 1.0928577692
C -0.0080086843 0.1229332982 0.0655043571
N 0.4611834060 1.4846566520 -0.2156453985
C 1.0695393330 2.2195901244 0.8240478414
C 1.6044629398 1.6027496158 1.9620625805
C 2.1667777070 2.3657388788 2.9821904293
C 2.2381139925 3.7513156436 2.8756829569
C 1.7427529098 4.3759649326 1.7333836719
C 1.1465856152 3.6192527857 0.7293508928
S 0.4022757662 4.4118315325 -0.6809019202
C 0.8386006888 3.1908843884 -1.8989265685
C 0.7940551928 1.8355220198 -1.5386905180
C 1.0945987179 0.8689762511 -2.5079251982
C 1.3661714770 1.2476206802 -3.8239285610
C 1.3957885720 2.6028625947 -4.1742513774
C 1.1576817442 3.5643171926 -3.2014495809
S 1.7143697753 0.0808546384 -5.1202069942
C 1.4609383053 -1.5385326437 -4.3198618916
H -3.1734724231 -2.2359649503 -1.3143075935
H -2.5857222843 -0.6068930795 -0.9665076306
H -3.8614552850 -1.3208285529 0.0512435000
H -2.5725031339 -4.0496063567 -0.1225833705
H -3.3035943044 -3.3757075553 1.3478485009
H -1.7086908840 -5.1562956699 1.9256240883
H -0.4095683128 -4.3373100394 1.0464429644
H -0.2144595564 -3.8000746227 3.4709027146
H -1.8916256535 -3.2448008672 3.4947547128
H -0.3950653054 -1.2856503729 3.2862480651
H 0.3982013140 -2.0140224473 1.8852757901
H -2.5270316926 -1.1440818008 2.1129663798
H -0.8334981872 0.6564180106 2.0031596426
H -1.9762526471 0.7086753228 0.6770953909
H 0.8157903213 -0.5358776083 0.3726542627
H -0.3972832143 -0.2831814240 -0.8680597218
H 1.5755430025 0.5240745804 2.0612970649
H 2.5601957457 1.8647052979 3.8609392112
H 2.6813814681 4.3447513487 3.6682377150
H 1.7984141802 5.4548583650 1.6260393405
H 1.1248663025 -0.1735732135 -2.2244691671
H 1.6103576247 2.9054263061 -5.1942806745
H 1.1905857236 4.6174871738 -3.4631123583
H 1.6127944018 -2.2798508921 -5.1077395659
H 2.1906206323 -1.7072634564 -3.5240555597
H 0.4425163445 -1.6273834795 -3.9327915534
