31
CONF24
C -1.2586167823 -0.4177931463 -0.8493189586
C -2.2041280372 -0.4119282359 -1.8646851657
C -3.4732596476 -0.9175628588 -1.6035248664
C -3.8118840264 -1.4358062664 -0.3601033896
C -2.8524562235 -1.4480759698 0.6455232780
C -1.5711183873 -0.9328793443 0.4159969979
C -0.5354071535 -0.9657702926 1.4659735868
N 0.2798576777 -0.0344309704 1.8118322557
O 0.0559803775 1.1514254257 1.1545201948
C 1.1156676006 2.0847531673 1.4246748885
C 2.2191641360 1.9948971490 0.3925633319
O 2.7842346455 0.7030714404 0.3579931585
C 3.4227207757 0.6448569247 -0.9290941378
C 2.4434772815 1.4025880232 -1.8326280133
O 1.7038635228 2.2409122885 -0.9160928181
C -0.3580873005 -2.2438191824 2.2612969386
F 0.8151448920 -2.3083304152 2.9122487606
F -0.4339937036 -3.3256612418 1.4501170733
F -1.3381457722 -2.3883276254 3.1955655365
Cl -4.6776688816 -0.9039401954 -2.8818025509
H -0.2663327031 -0.0298916764 -1.0462102740
H -1.9554879840 -0.0217823840 -2.8449679543
H -4.8061180248 -1.8257071753 -0.1752336357
H -3.1204001440 -1.8508856871 1.6156627479
H 1.5210005603 1.9197720640 2.4273830984
H 0.6590967459 3.0763774785 1.3688111543
H 2.9957614420 2.7470083551 0.6326794250
H 4.3988910763 1.1465479013 -0.8847213703
H 3.5518818293 -0.4031064171 -1.2034774701
H 1.7389311009 0.7315902736 -2.3353538152
H 2.9574320019 2.0218988157 -2.5746750933
