44
CONF163
C 4.4625287532 1.9230052471 -2.6160678637
C 3.5959959698 1.2520980370 -1.5558811154
C 2.7218692035 0.0658660218 -2.1114980936
N 1.5587284939 -0.0066352146 -1.2553105446
C 1.0088782799 1.2498126248 -0.7256255021
S 2.3462339624 2.5011658899 -0.9162308214
C 0.7818741498 0.5163225766 0.6410146424
C 1.4096441724 -0.7081750823 -0.0636235859
O 1.6974310612 -1.8396295623 0.2469499484
N -0.5387087647 0.3896675667 1.1651493877
C -0.8963884545 0.8801969638 2.3822651267
O -0.1114442330 1.4574214653 3.1297766564
C -2.3865576510 0.7329558907 2.7403140204
C -3.0516214146 -0.4639298171 2.1007674115
C -2.7201092687 -1.7630994439 2.5043037735
C -3.3054100859 -2.8690403554 1.9073900531
C -4.2438747830 -2.6897252344 0.8864635115
C -4.5867634711 -1.4039377963 0.4706243123
C -3.9895348166 -0.3034811132 1.0811945681
O -4.7915235490 -3.8124819690 0.3353972660
N -2.4973758845 0.6832904443 4.2017987622
C 2.3696490725 0.2256540886 -3.5821685761
O 1.2371553849 0.9213252040 -3.7708479483
O 3.0561544162 -0.2130511944 -4.4779794502
C 4.4580731990 0.7354374912 -0.4037364651
H 3.8662136237 2.3397265647 -3.4318113640
H 5.1662674921 1.1927907676 -3.0287231778
H 5.0402555943 2.7331867314 -2.1627713345
H 3.2933265203 -0.8633647380 -2.0254583896
H 0.0982771941 1.5977777126 -1.2196065962
H -1.2343960475 -0.1050765044 0.6234981903
H -1.9909354850 -1.9049778583 3.2962183853
H -3.0461196072 -3.8757993932 2.2190147521
H -5.3197103963 -1.2635921554 -0.3193410536
H -4.2627118769 0.6968597186 0.7555194046
H -5.4200380862 -3.5593516545 -0.3540127264
H -1.9466170621 1.4424090038 4.5923597522
H -3.4636951130 0.8567019154 4.4584129296
H 3.8601499272 0.2321505936 0.3611167164
H 5.2006580767 0.0268706833 -0.7884013425
H 4.9825171553 1.5686280958 0.0706792451
H 1.0827462505 1.0035502999 -4.7284383657
H -2.8465179150 1.6401379854 2.3032663703
H 1.4478995301 0.8970986978 1.4213500247
