33
CONF273
C -3.8333396825 -2.4291314288 1.1054465789
C -2.9687114791 -1.1847168847 0.9016214805
C -1.5771324226 -1.3941169234 1.4807695046
S -0.4707769796 0.0899424445 1.3362450475
P -0.1092538036 -0.0232518644 -0.7313422769
O -0.1770262464 -1.3889616831 -1.2916900225
O -1.0458996005 1.0044373429 -1.5125973966
C -1.0898759378 2.4198037048 -1.1606207236
C -2.3364397584 3.0010093940 -1.7837781548
O 1.3214684589 0.7667692334 -0.8674128633
C 2.4664736475 0.2721625852 -0.2776218215
C 2.9834472086 -0.9684559223 -0.6331823384
C 4.1646564005 -1.4243729845 -0.0612897469
C 4.8216335246 -0.6197038958 0.8610784228
C 4.3272100636 0.6245676109 1.2287948849
C 3.1395852017 1.0630024227 0.6548280324
Cl 2.4845835342 2.6114828687 1.1119689688
Br 6.4492035412 -1.2309287518 1.6502871141
H -3.9437257512 -2.6663287179 2.1690439007
H -4.8337691406 -2.2797282412 0.6898300109
H -3.3905084640 -3.2984975813 0.6091775246
H -2.8854019399 -0.9641431593 -0.1685951793
H -3.4350328171 -0.3133551596 1.3752992114
H -1.0641468986 -2.2314569915 1.0002096765
H -1.6209460360 -1.5831506069 2.5592035634
H -1.1065033610 2.5155016502 -0.0680845464
H -0.1793261119 2.8919430116 -1.5433184765
H -2.3901896761 4.0712506055 -1.5627495317
H -2.3236865032 2.8700298050 -2.8687901318
H -3.2305719547 2.5167445172 -1.3826278920
H 2.4425231511 -1.5713865543 -1.3540278591
H 4.5678099582 -2.3914145437 -0.3349270034
H 4.8436678743 1.2444548938 1.9502794336
