51
CONF118
C 4.2150024482 1.5963103924 4.5612347146
C 3.6962033182 1.1082704504 3.2364725550
C 4.3531526938 0.0932113081 2.5358165271
C 3.8527090161 -0.3840825865 1.3270536690
C 2.6840547877 0.1443287329 0.7808063847
C 2.0258767823 1.1622464213 1.4733985622
C 2.5248656858 1.6358071048 2.6823358567
C 2.1643960966 -0.3532658606 -0.5562257982
C 2.3973562801 0.6691835913 -1.6682512896
N 0.7374550892 -0.6724568170 -0.4972758954
C 0.2712689342 -1.8054284612 0.0596645736
O 1.0007653892 -2.6900894786 0.5164409739
C -1.2557610656 -1.9766560186 0.1208027589
C -1.7087586292 -2.0418275542 1.5966979328
C -1.3939509996 -0.7560288758 2.3656708075
C -3.1865734086 -2.4177754879 1.7044922612
N -1.9954099479 -0.9690664770 -0.6183131993
C -2.1815414939 -1.0617838335 -1.9616941152
O -1.7057044920 -1.9404141879 -2.6676262148
O -2.9633837500 -0.0456427130 -2.4029609901
C -3.1223343459 0.0729899293 -3.8567892583
C -1.9060013124 0.7740319916 -4.4342445723
C -4.4101823182 0.8426702919 -4.0661407265
H 3.8330679598 0.9743484703 5.3797571865
H 5.3069801263 1.5515176366 4.5993688797
H 3.8993807400 2.6249853039 4.7547087995
H 5.2650191860 -0.3345666993 2.9448192113
H 4.3753656322 -1.1805823218 0.8030706097
H 1.9975882357 2.4290921548 3.2062231472
H 2.6922484794 -1.2818389959 -0.7998127082
H 3.4625858232 0.9037168100 -1.7362359577
H 2.0596094647 0.2749096626 -2.6316694106
H 1.8570365644 1.5983028947 -1.4558645728
H 1.1123660795 1.5896476371 1.0674182855
H -1.4538373853 -2.9530124049 -0.3381415329
H -1.1128853658 -2.8514633231 2.0324976433
H -0.3283413452 -0.5079077920 2.3186329965
H -1.9610632596 0.1016482298 1.9844655423
H -1.6651484003 -0.8784267939 3.4186534770
H -3.4571046715 -2.5712042588 2.7537373927
H -3.8327679636 -1.6276112208 1.3071681211
H -3.4011613099 -3.3409371660 1.1563105274
H -2.4472198262 -0.2130097435 -0.1268322231
H -3.2087989515 -0.9390414029 -4.2635326966
H -1.8116635604 1.7797715289 -4.0117303558
H -0.9930865697 0.2103525921 -4.2241803756
H -2.0135253708 0.8626151685 -5.5196739403
H -4.5948849821 0.9551698246 -5.1382341546
H -4.3395940749 1.8402105929 -3.6209397395
H -5.2575654067 0.3143299529 -3.6210433114
H 0.0718890439 0.0245774029 -0.7996288770
