42
CONF2
C 1.1303530169 -4.5508033241 -1.2859991041
C 1.2341607172 -3.7370005620 0.0012330812
C 1.1634988401 -2.2323636533 -0.2433084774
C -0.1396087764 -1.8210797008 -0.9436968105
O -0.1728238295 -1.6467826024 -2.1627395715
N -1.2085074887 -1.7144228402 -0.1275411168
C -2.4606812092 -1.0871721681 -0.5593784017
C -2.3802129175 0.4168291118 -0.4258144325
C -2.4300477261 1.0083722513 0.8399434348
C -2.2878389760 2.3850747546 0.9832441300
C -2.0980202232 3.1869725751 -0.1411134926
C -2.0529517874 2.6057338629 -1.4055151745
C -2.1916084302 1.2265507227 -1.5470109088
O 1.2782550170 -1.6103101347 1.0519005143
C 1.3909996954 -0.2473923504 1.1058840435
C 1.4909571454 0.5800276229 -0.0121159139
C 1.6185989875 1.9602395531 0.1622374763
C 1.6428956508 2.4835393238 1.4481591085
C 1.5298070607 1.6725406872 2.5644392812
C 1.4024322705 0.3036143462 2.3909881534
F 1.7880686057 3.8172392174 1.6232801854
C 1.7908260268 2.8640607345 -1.0238354153
F 0.9607325219 3.9322225230 -0.9950963634
F 1.5663317430 2.2204433162 -2.1903601575
F 3.0565195603 3.3620881589 -1.0866533405
H 0.1589846541 -4.4160812109 -1.7708923327
H 1.9074908860 -4.2596454310 -1.9999383568
H 1.2526935109 -5.6144157838 -1.0654915518
H 2.1880254463 -3.9393742880 0.5006506877
H 0.4339510007 -4.0147787267 0.6971830782
H 1.9925119497 -1.9188083681 -0.8902229232
H -1.0397062822 -1.7757039774 0.8674908111
H -2.6451566024 -1.3730471528 -1.5972455075
H -3.2666793888 -1.4891449133 0.0618219852
H -2.5790878283 0.3847501836 1.7183828883
H -2.3273945672 2.8333306537 1.9714932755
H -1.9823866128 4.2605502043 -0.0307394485
H -1.9022619954 3.2260499193 -2.2837264493
H -2.1489462991 0.7731317595 -2.5331786313
H 1.4751204463 0.1839789310 -1.0185277746
H 1.5453980689 2.1157283067 3.5539023948
H 1.3153079223 -0.3547421084 3.2485994031
