15
CONF17
N -1.3824533240 1.2542003224 -0.9492660397
C -0.6079663864 0.7834114428 0.1901596453
C 0.9249869661 0.7629193380 -0.0146740006
S 1.4987865753 -0.2577531395 -1.4384433967
S 1.5967576395 -2.1961671018 -0.6675838232
C -1.0967195904 -0.5944875975 0.5978511528
O -0.7296988261 -0.8903513728 1.8592389541
O -1.7195825894 -1.3508563591 -0.1158154341
H -1.2464202144 0.6164880643 -1.7292858330
H -1.0145548585 2.1531306373 -1.2457885859
H -0.7826598846 1.4526899256 1.0436154399
H 1.4569004202 0.4463558588 0.8869232965
H 1.2482374432 1.7800031466 -0.2670072767
H 2.8654407236 -2.1589211184 -0.2053137002
H -1.0110543852 -1.8006620360 2.0553899137
