47
CONF101
C -3.5555787315 -2.2452497323 0.9058269004
C -3.4533210195 -0.9594632238 0.1171452207
C -4.5222156774 0.1009605335 0.2528783113
C -3.1712936277 0.3025462532 0.9373067647
C -2.2724718448 1.3413097170 0.4150842561
O -2.3537699631 1.9202019175 -0.6464357117
O -1.2601596095 1.5739567137 1.3095446520
C -0.2421445697 2.4939649669 0.8352452172
C 0.4397534794 2.9723612690 2.0376783374
N 1.0080953666 3.3672709140 2.9617520190
C 0.7181449616 1.8159174123 -0.1158541843
C 1.3976423730 0.6683608202 0.2962400695
C 2.2530544663 0.0219609925 -0.5815144980
C 2.4215887026 0.5410339936 -1.8676806187
C 1.7682972811 1.6850285793 -2.2830402163
C 0.9051819997 2.3249122231 -1.3975462999
F 3.2433333647 -0.1052705624 -2.7178664813
O 2.8546351722 -1.1553586876 -0.2064959822
C 4.2425035934 -1.1981119415 -0.1486312334
C 5.0271142992 -0.0544480216 -0.0381720004
C 6.4103693367 -0.1961843329 0.0536700723
C 6.9990009396 -1.4578830781 0.0432266552
C 6.1928164182 -2.5910489937 -0.0601777694
C 4.8113792551 -2.4684550239 -0.1592419919
C -5.7109411742 -0.0822502146 1.0886606089
C -6.9421387096 0.3205747907 0.7727021169
Cl -7.3520545581 1.1447585146 -0.7064377991
Cl -8.3061569811 0.0581758216 1.8289219631
C -2.8162368046 -1.1302996321 -1.2424066743
H -3.9395233829 -2.0922362335 1.9161944219
H -2.5656411121 -2.7059104650 0.9857782125
H -4.2161622943 -2.9477734292 0.3858562748
H -4.6512054493 0.7139114925 -0.6336816909
H -3.1246945750 0.1515974433 2.0105222009
H -0.7165254100 3.3508934047 0.3432142543
H 1.2684411302 0.2613028026 1.2944374126
H 1.9232597598 2.0530498997 -3.2912876571
H 0.3691821005 3.2127704550 -1.7151185204
H 4.5720303796 0.9302303461 -0.0186852757
H 7.0273227950 0.6928118689 0.1394378239
H 8.0766175733 -1.5586350138 0.1164833052
H 6.6403062175 -3.5799531663 -0.0691306160
H 4.1703975639 -3.3395457924 -0.2448438070
H -5.5992562666 -0.5815046155 2.0462614785
H -3.3849155386 -1.8706715047 -1.8147648800
H -1.7902751003 -1.5007165727 -1.1353748138
H -2.7937858280 -0.1988927915 -1.8100497254
