30
CONF19
C 4.3963009841 0.7640239742 -1.4124232073
C 3.1527700230 0.3194012583 -0.6437585209
C 2.0376413742 -0.1627520286 -1.5736608036
C 0.8131896699 -0.7357091639 -0.8531259078
C 0.0508218685 0.2846883941 -0.0065282631
C -1.1905255010 -0.2837696596 0.6765756800
C -2.3107662997 -0.7503869978 -0.2644123650
C -3.5149323143 -0.8846896710 0.6723750333
C -3.4039846084 0.3406830655 1.6061174245
C -1.9030787963 0.7390618039 1.5896285023
H 5.1835832132 1.1131416619 -0.7365764680
H 4.8038327880 -0.0613442227 -2.0070713859
H 4.1563626101 1.5825418585 -2.1005476088
H 2.7927195005 1.1511554497 -0.0265001297
H 3.4158528811 -0.4907955093 0.0501756110
H 1.7237213626 0.6682466862 -2.2218206506
H 2.4494299305 -0.9333703214 -2.2397447682
H 1.1297638252 -1.5721830529 -0.2133294243
H 0.1315202398 -1.1591162998 -1.6016517876
H -0.2529031492 1.1308821251 -0.6415845893
H 0.7152896995 0.6975733091 0.7639575050
H -0.8879945712 -1.1480014597 1.2878535512
H -2.0769035064 -1.6797255145 -0.7932151770
H -2.4991243129 0.0288846273 -1.0177409505
H -3.4146577171 -1.8100806945 1.2528393681
H -4.4729315386 -0.9295992256 0.1447416116
H -3.7644209439 0.1156624788 2.6144183650
H -4.0177688336 1.1627671853 1.2235801912
H -1.7811996681 1.7434782945 1.1659865121
H -1.4616089027 0.7593316650 2.5911009400
