141
CONF1546
C 4.4942730845 1.7911446067 4.8459416942
C 5.5502968075 1.5412861382 3.7712849374
C 5.0158323317 1.7838469103 2.3711210407
O 3.9896321470 0.7692795093 2.1059124402
C 2.7358234617 1.1652924557 1.8468407480
O 2.3703624923 2.3297669505 1.8125665366
C 1.8216798220 -0.0190516269 1.6536144287
C 0.5519398346 0.3083327631 0.8510078611
O -0.2411308668 1.2339671172 1.6030061815
C 0.8194355278 0.7725669663 -0.6045120036
C 1.8506169071 -0.1622059857 -1.2549913111
C -0.4672381217 0.7786335991 -1.4621456215
O -1.5196688991 1.5750792600 -0.8629855610
C -2.5375304646 0.8599964071 -0.2332106019
O -3.3055423540 0.2044193667 -1.2513650629
C -4.3879059827 -0.5880302134 -0.7288005294
C -3.8866525985 -1.8202485451 0.0228463226
C -5.3425567844 0.3185894426 0.0779825820
O -6.3385067132 -0.5116275925 0.7001516934
C -7.6831700141 -0.2305041007 0.3215703492
C -8.6052106226 -0.9640953149 1.2817283913
C -8.5651556865 -2.4820804564 1.1005223992
C -9.6209709014 -3.1608186956 1.9601715325
O -7.2909270221 -3.0230247941 1.5250610482
C -8.7645511268 -2.8150352212 -0.3937305401
O -8.5784897191 -4.2117997323 -0.6255024967
C -7.8143135448 -2.0118500517 -1.2907094159
C -8.1068897706 -2.1961137781 -2.7648113126
O -7.9358648028 -0.5937916540 -1.0251691088
C -4.5890732295 1.1094766672 1.1563949770
C -3.4095339177 1.8644239609 0.5149843016
O -3.8866641118 2.8659374094 -0.3884359260
N -5.4886635285 1.8829343849 2.0170752420
C -6.1339224473 3.0549517133 1.4200988943
C -4.8620314645 2.2449934998 3.2864716704
C -0.3000900869 1.3315663737 -2.8959116622
C -1.5758932751 1.0558137472 -3.6947730416
C -1.8824188995 -0.3789150485 -3.9760714335
O -1.1189293435 -1.3112862597 -3.8021551072
C 0.0301149804 2.8422996474 -2.9052212438
C 1.0418771545 3.2873547987 -3.9972109389
C 0.5725605365 3.0243012733 -5.4227252277
C 2.3819276593 2.6320100448 -3.7060414386
O 2.8061968920 1.6987680178 -4.3898218094
C 3.1001474751 3.1311738319 -2.5254054546
C 4.0591977085 2.3887974867 -1.9318229525
C 4.7480994994 2.7122446243 -0.7011162905
C 4.6141376495 4.0952753770 -0.1338914111
C 5.4186558470 1.7034512809 -0.0999156888
C 6.0798081136 1.7274209809 1.2471104076
C 7.0709409018 0.5742055252 1.3723703860
O 6.3261928350 -0.6475602906 1.3356829302
C 7.0960386427 -1.8165284589 1.4081592320
O 7.9025910854 -2.0288330139 0.2564070845
C 7.1577794979 -2.1086842915 -0.9788783843
C 8.1703909045 -2.2744880700 -2.0910272753
C 6.1724312862 -3.2714149614 -0.8898378758
O 5.4002323862 -3.2883566279 -2.0911212927
C 5.2627185660 -3.1199508534 0.3251506151
O 4.4279620524 -4.2815601138 0.3620731219
C 3.0682869195 -4.0139044766 0.7228790514
C 6.1066754126 -2.9843091650 1.5876642042
O 5.2273441006 -2.8075514293 2.6885426444
C 5.8850056675 -2.8491930004 3.9571958438
H 4.9086265619 1.6142456562 5.8425453574
H 3.6365610682 1.1229730351 4.7169000625
H 4.1311015169 2.8235354777 4.8061161685
H 5.9283384485 0.5152904143 3.8432723200
H 6.4055943036 2.2122331144 3.9180387441
H 4.5254226519 2.7596198444 2.3240893073
H 2.3805455979 -0.8577253697 1.2337180809
H 1.5058097433 -0.3292976906 2.6585874160
H -0.0341381446 -0.6199924999 0.8050889523
H 0.3114007040 2.0238611801 1.7083756744
H 1.2332160988 1.7880381505 -0.5605718407
H 2.8203965718 -0.0871646992 -0.7572359071
H 1.5158006586 -1.2052637685 -1.1970180469
H 2.0188453804 0.0802218638 -2.3051123473
H -0.8185771299 -0.2590112738 -1.5333679615
H -2.1330727617 0.1154328752 0.4670153561
H -4.9245665946 -0.9241060904 -1.6229944521
H -3.0858768554 -2.2836805284 -0.5617215612
H -4.6910785387 -2.5525472398 0.1257516756
H -3.5033902338 -1.5970988677 1.0217997561
H -5.8280415927 1.0025889641 -0.6265879721
H -7.8596440929 0.8514103223 0.3551667704
H -8.3546348366 -0.7040343797 2.3158177087
H -9.6241591904 -0.6147297326 1.0834719156
H -9.4803064536 -2.8819094993 3.0087273123
H -9.5413744277 -4.2474595465 1.8716932093
H -10.6230991952 -2.8560408237 1.6456027480
H -6.6119517870 -2.3664567391 1.2998027923
H -9.7997166930 -2.5795029880 -0.6742091606
H -7.7774083682 -4.4532284005 -0.1341929913
H -6.7835921297 -2.3337015997 -1.0755646680
H -8.0169493943 -3.2503913661 -3.0354747395
H -7.3982970907 -1.6193177967 -3.3662564677
H -9.1227468111 -1.8580184282 -2.9950941783
H -4.1255921870 0.3672672841 1.8222356617
H -2.7926631678 2.3185769830 1.3041810273
H -3.1251885184 3.1365499862 -0.9214821367
H -6.9753181589 3.3518751687 2.0579817609
H -5.4570923308 3.9188623667 1.3182117800
H -6.5258819702 2.8219673838 0.4273742538
H -4.4535792174 1.3524820931 3.7726125956
H -4.0474844962 2.9860691909 3.1804796492
H -5.6185727129 2.6807633738 3.9486678753
H 0.5137779966 0.7786100899 -3.3741669892
H -2.4528919125 1.4894374640 -3.1986671401
H -1.5426145643 1.5413991793 -4.6813556386
H -2.8928715931 -0.5602092963 -4.4030717093
H 0.4287068556 3.1454760726 -1.9322356866
H -0.8908902142 3.4198759965 -3.0471476170
H 1.1805032921 4.3680662616 -3.8543687498
H -0.3969833980 3.5004165697 -5.5982820195
H 1.2910318756 3.4291604327 -6.1418825349
H 0.4785048200 1.9536568798 -5.6220600251
H 2.7712316149 4.0742289591 -2.0971994432
H 4.2919130270 1.4220315427 -2.3759518817
H 3.6004847427 4.2576047505 0.2498328550
H 5.3154467696 4.2693471662 0.6838885575
H 4.7952484938 4.8457452639 -0.9101718830
H 5.4278556955 0.7397867958 -0.6062975379
H 6.6611074023 2.6532800243 1.3611933775
H 7.7807677943 0.6138041874 0.5341474997
H 7.6402900111 0.6362720131 2.3101341271
H 7.8183568814 -1.7616577323 2.2352228839
H 6.5875100442 -1.1791317262 -1.1216197258
H 8.8638247155 -1.4289295625 -2.0971633107
H 7.6620562252 -2.3144113893 -3.0571387431
H 8.7391276408 -3.1997969208 -1.9530928187
H 6.7421862657 -4.2106617456 -0.7862140656
H 4.7022622205 -3.9450797002 -1.9553104078
H 4.6442960860 -2.2183642882 0.1982224715
H 2.9939610354 -3.6340175200 1.7480359064
H 2.6171070149 -3.2864244138 0.0335105810
H 2.5322027201 -4.9627547349 0.6447560775
H 6.7030810161 -3.9017038256 1.7251932995
H 5.1003925473 -2.8681361755 4.7166868669
H 6.5140699134 -1.9638918771 4.1191352666
H 6.5035778450 -3.7530022858 4.0505005796
