82
CONF2
C -3.6994768189 3.7786281457 -0.3404862749
C -3.9622038481 2.7254006031 -1.3811008864
C -4.0427714941 3.0357710492 -2.6800142097
C -4.1954094896 1.3126766417 -0.9003851724
C -5.5926809368 1.1923709751 -0.1874396175
C -5.3430770876 0.4848595936 1.1636112935
C -4.0316439033 -0.2827406020 0.9456279247
C -3.2137497472 0.7711827131 0.1643464291
C -1.8396065514 0.2505824164 -0.2608553084
C -1.0445561258 1.2213081859 -1.1315376952
C 0.2665308456 0.5947009992 -1.6107038775
C 1.1260379549 0.1062760436 -0.4383272148
C 2.5955130592 -0.2910100668 -0.8435803513
C 3.2680120208 0.9644648909 -1.4498023179
C 4.7845659272 0.8344155737 -1.5870499203
C 5.4529449379 0.5071718512 -0.2609821459
C 4.8984702951 -0.7782763544 0.4005323132
C 3.3476949345 -0.6209279208 0.4812092086
C 2.6420770638 -1.7462055059 1.2397794620
C 1.2319696014 -1.3142955919 1.6449792567
C 0.3384002708 -0.9119033875 0.4541664182
C -0.9995345246 -0.2042805749 0.9819549990
C -1.8453765724 -1.1741340274 1.8514711213
C -3.2469270220 -0.6489295021 2.2068199826
C -0.6690001981 1.0091354222 1.8839561281
C -0.0015178162 -2.2015602516 -0.3201831056
C 5.3703324114 -2.0354648379 -0.3460152204
C 5.4725301530 -0.8402619031 1.8287331437
O 6.8861653165 0.4779402892 -0.4101733323
C 2.6494243724 -1.4140052529 -1.9026325518
C -4.3214289854 -1.5308093989 0.0994382242
O -5.1287356982 -2.4339911161 0.8797764397
H -4.4032971994 3.6978783760 0.4963104826
H -2.6949662708 3.6633008329 0.0841471602
H -3.7750816420 4.7819293420 -0.7669435192
H -3.9296655625 4.0597515974 -3.0265035952
H -4.2161225055 2.2689825020 -3.4311211217
H -4.1797657965 0.6565101644 -1.7790774243
H -6.0488555004 2.1763995864 -0.0447041977
H -6.2773152166 0.6183889564 -0.8192285986
H -5.1922216033 1.2262611667 1.9581160879
H -6.1741898367 -0.1607225139 1.4617424728
H -3.0677374366 1.5903615250 0.8792698480
H -2.0157009624 -0.6403976296 -0.8756387454
H -1.6470722608 1.5139139525 -1.9978644108
H -0.8345524685 2.1442521296 -0.5739086464
H 0.8155502089 1.3352103343 -2.2004196860
H 0.0310199880 -0.2305682195 -2.2938359709
H 1.2886764797 0.9847907038 0.1981854271
H 3.0481053836 1.8295224872 -0.8074839949
H 2.8446741822 1.1828122493 -2.4358325889
H 5.0474345799 0.0660210048 -2.3263570809
H 5.1996162305 1.7770051586 -1.9637565940
H 5.2667233177 1.3354847618 0.4380807880
H 3.2087862259 0.2846099795 1.0981920332
H 3.1957102397 -1.9968102431 2.1498822007
H 2.6148669468 -2.6638802045 0.6413723117
H 1.3381290073 -0.4627756625 2.3261215560
H 0.7466980817 -2.1187540648 2.2109906375
H -1.9689160217 -2.1326350990 1.3422145294
H -1.3027598481 -1.3891119177 2.7790573053
H -3.7784142952 -1.4078161954 2.7919123741
H -3.1730898571 0.2450442560 2.8387784365
H 0.0886077831 1.6738901799 1.4668490012
H -0.3165966692 0.6760500962 2.8639521852
H -1.5557126529 1.6194358728 2.0648633534
H -0.5949199446 -2.0289454762 -1.2201225227
H -0.5495614476 -2.9030673492 0.3133077959
H 0.9064884483 -2.7135878280 -0.6323418183
H 4.8510441815 -2.9215252005 0.0317960808
H 5.2029390146 -1.9847124036 -1.4235798799
H 6.4417041216 -2.1904995565 -0.1771344265
H 5.0348271699 -0.0600705572 2.4625675972
H 6.5557985900 -0.6913401538 1.7959704933
H 5.2869097661 -1.8094277479 2.3002110260
H 7.0904186343 -0.1498140347 -1.1156093943
H 3.5164185248 -1.2977632584 -2.5571046064
H 2.7135436864 -2.4140436280 -1.4700960169
H 1.7652993323 -1.3858610040 -2.5452612051
H -4.8561334543 -1.2520595116 -0.8183583782
H -3.3933085450 -2.0333550465 -0.1974733099
H -5.3070078640 -3.2063516975 0.3307335922
