33
CONF52
C -3.9607522874 -0.6060694722 1.4249899349
C -3.1514732370 -1.6781232628 0.7033156171
C -1.7695377130 -1.9217906376 1.2958001341
S -0.6536474336 -0.4322646500 1.3050765564
P -0.3314218673 -0.3057548511 -0.7673998270
O -0.3440059161 -1.6003962142 -1.4790975455
O -1.3319718801 0.7535732822 -1.4140330312
C -1.4568210244 2.1166622598 -0.9025447674
C -0.7684995919 3.0851716653 -1.8372638380
O 1.0613915744 0.5608715165 -0.8283493608
C 2.2316805578 0.0713837304 -0.2858950526
C 2.7939041384 -1.1196758606 -0.7307912608
C 3.9984119031 -1.5650326723 -0.2007682591
C 4.6331226378 -0.7993540140 0.7691364290
C 4.0937577881 0.3959213156 1.2256030659
C 2.8833191130 0.8233411412 0.6927473950
Cl 2.1718223410 2.3105209116 1.2585714399
Br 6.2935967990 -1.3953137673 1.4989379510
H -4.0859217518 -0.8517061120 2.4853088026
H -3.4639160576 0.3668918997 1.3637244233
H -4.9558042272 -0.5068278808 0.9825712953
H -3.6839538804 -2.6379176848 0.7468332736
H -3.0521740578 -1.4330221118 -0.3603260604
H -1.2382906779 -2.7131475488 0.7622538461
H -1.8361410054 -2.1923796231 2.3556585661
H -2.5334790571 2.3017332796 -0.8475759619
H -1.0450360764 2.1705572437 0.1117119750
H 0.3059130631 2.8920808471 -1.8723004511
H -1.1781238366 3.0038842352 -2.8474170144
H -0.9264169433 4.1077759633 -1.4794224632
H 2.2701562107 -1.6935228382 -1.4873055256
H 4.4370237248 -2.4938884186 -0.5435415444
H 4.5932866762 0.9858185356 1.9832186595
