42
CONF135
C 3.6952804771 2.3763706411 -1.4287357269
C 3.1902002246 0.9764435928 -1.0712176022
C 4.3364657348 0.0693878514 -0.6240411845
C 2.1307690052 1.1122505992 0.0141013636
O 1.5706094760 -0.1850604614 0.3849913510
C 0.5830316864 -0.6569573895 -0.3884955633
O 0.0830532536 -0.0552608313 -1.3216223403
C 0.1829037631 -2.0367775236 0.0030619662
C 1.1503433266 -2.9649507646 0.3917886549
C 0.7996982036 -4.2944725526 0.6061410785
C -0.5183159588 -4.7055551437 0.4289139267
C -1.4902922681 -3.7854008606 0.0460070323
C -1.1488222132 -2.4506259805 -0.1584603757
C -2.2382924512 -1.4884388025 -0.4969004669
O -3.0434788657 -1.6597418379 -1.3919450336
O -2.2492114123 -0.4541844795 0.3522824535
C -3.2193821641 0.6002221370 0.0782961098
C -3.0398634106 1.6879122312 1.1216285601
C -4.1104079695 2.7584259000 0.8951121477
C -1.6360160919 2.2920106898 1.0720711340
H 4.1575449743 2.8532794966 -0.5563953523
H 2.8808801130 3.0187946334 -1.7793147972
H 4.4492254498 2.3181791338 -2.2193634553
H 2.7111506519 0.5399672873 -1.9573009978
H 5.0831789041 -0.0230234583 -1.4188226583
H 4.8311502324 0.4878172293 0.2607577751
H 3.9807607985 -0.9347610755 -0.3743607684
H 1.3162333415 1.7698154715 -0.3014953494
H 2.5709788487 1.4877492564 0.9423398006
H 2.1817724001 -2.6471547697 0.4965504755
H 1.5595495404 -5.0105601366 0.9010410091
H -0.7932728768 -5.7423473373 0.5924224206
H -2.5236017411 -4.0942905531 -0.0749343356
H -4.2238495069 0.1660907914 0.1152331378
H -3.0324606454 0.9829492991 -0.9327225961
H -3.1995790820 1.2348514502 2.1094532677
H -5.1188412890 2.3350792742 0.9459568095
H -3.9843156134 3.2273820649 -0.0877735045
H -4.0297914002 3.5417249654 1.6544046003
H -0.8667598598 1.5405478888 1.2721473168
H -1.5362958930 3.0883209776 1.8163373754
H -1.4419292855 2.7239918896 0.0828622412
