38
CONF26
C -1.3472540221 0.1704318783 -2.8433519472
C -1.2483961435 0.2878873676 -1.3182458427
C -2.4967547676 -0.2985068888 -0.6864442213
C -2.9992429058 0.1578516285 0.6567692683
C -3.7384357391 0.5484748794 -0.5973056792
C 0.0386476109 -0.3865119541 -0.7455550775
C 1.2758811965 0.0713098533 -1.5537098678
N 2.5393865950 -0.3069656223 -0.9370770101
C 3.3302054328 0.4366293416 -0.1379087799
N 4.3630762068 -0.2811919040 0.2891389212
C 4.1424864229 -1.4926318054 -0.2948590537
N 3.0508244868 -1.5585208168 -1.0467716442
C 0.2435369766 -0.0291659344 0.7261158884
C 0.4140160259 -1.0177121180 1.6940288136
C 0.6299862848 -0.6904237576 3.0313224032
C 0.6863677789 0.6473809562 3.3919761661
C 0.5398812316 1.6591130220 2.4504263732
C 0.3217149437 1.3100242411 1.1233246076
Cl 0.9604311629 1.0761750781 5.0791584258
O -0.0203705938 -1.8009218685 -0.9365692430
H -2.3156652754 0.5609097771 -3.1698272722
H -1.2799007363 -0.8766625965 -3.1558981107
H -0.5690001536 0.7392654018 -3.3590768553
H -1.2056330566 1.3517343780 -1.0535057018
H -2.6841520150 -1.3420207285 -0.9361228406
H -2.4334160787 0.9321871197 1.1633022227
H -3.4502488686 -0.5819068926 1.3103962671
H -3.6560267724 1.5813120234 -0.9239015621
H -4.6945600655 0.0771597291 -0.7996856187
H 1.2426078074 -0.3726479301 -2.5503842776
H 1.2732442041 1.1602295386 -1.6493375368
H 3.1235464310 1.4742398813 0.0891928568
H 4.8011651186 -2.3435437732 -0.1730838320
H 0.3863000350 -2.0646932434 1.4144169506
H 0.7558743889 -1.4695129087 3.7748178308
H 0.5965339640 2.7010306818 2.7447503408
H 0.2177417912 2.1084362465 0.3952205446
H -0.7943991036 -2.1382419841 -0.4657360862
