59
CONF98
C 5.6855600266 -3.1799164423 -1.0095077624
C 4.9093766803 -2.1345179608 -1.8150893468
C 4.0988727346 -1.4018394768 -0.7364495842
C 4.9919266127 -1.4215927580 0.5480700628
C 6.1697530968 -2.3681342456 0.1956159296
C 4.2061552580 -1.9341871329 1.7554225904
C 3.0590316622 -1.0327189387 2.1265658868
O 2.0098661072 -1.4583844775 2.5882939089
N 3.2470957738 0.3421844200 1.9456680896
C 4.3798518461 0.9077512701 1.3505343554
O 4.4583083187 2.1187668238 1.1991228496
C 5.4824718418 -0.0243480574 0.9168317421
C 2.1375050854 1.2433231363 2.3095934103
C 1.1711146069 1.4398358272 1.1453484790
C 0.0127954215 2.3531104237 1.5379675322
C -0.9270817862 2.6646463477 0.3744186663
N -1.4494906579 1.4704483373 -0.3017878271
C -2.1867935444 1.8607210940 -1.5088963203
C -2.7067887159 0.6308762320 -2.2471973278
N -3.5587851042 -0.1602696003 -1.3594470680
C -2.8461428326 -0.5503087647 -0.1429562964
C -2.3193070952 0.6857146404 0.5812060084
C -4.9212660390 -0.0546234393 -1.3906866974
N -5.6161398834 -0.6090504981 -0.3669532487
C -6.9432989756 -0.5457197449 -0.4491903687
C -7.6141253459 0.0546342068 -1.5085459744
C -6.8070678830 0.6012472345 -2.4998187408
N -5.4768829190 0.5626292432 -2.4625038927
H 6.5050837765 -3.6422765101 -1.5679042351
H 5.0060923574 -3.9774714134 -0.6827232511
H 5.6154714405 -1.4434390771 -2.2926386144
H 4.2777812451 -2.5629720840 -2.5990025929
H 3.1670276063 -1.9475341136 -0.5453338346
H 3.8226479980 -0.3840641592 -1.0321157008
H 6.4696290603 -2.9830114514 1.0501377455
H 7.0385844129 -1.7677410649 -0.1014188145
H 3.7933545996 -2.9315336703 1.5824973632
H 4.8669847568 -1.9938294082 2.6325108379
H 6.2017290660 -0.0851917888 1.7470034770
H 5.9950714063 0.4588701906 0.0798442846
H 2.5757432355 2.1958659849 2.6142119458
H 1.6228953717 0.7990356891 3.1641184780
H 1.7108601028 1.8710344024 0.2926528446
H 0.7883769573 0.4648341424 0.8249685448
H 0.4070909141 3.3100632424 1.9033564487
H -0.5386861789 1.9123408245 2.3777206479
H -0.3744763537 3.2449244485 -0.3762618159
H -1.7542371639 3.3077257637 0.7364893038
H -3.0453859899 2.5204859798 -1.2658724001
H -1.5124779576 2.4196415813 -2.1686896075
H -1.8612147915 0.0016601038 -2.5535905942
H -3.2664669731 0.9258325419 -3.1334937671
H -3.5081392229 -1.1190206501 0.5081719937
H -2.0026747211 -1.1889461489 -0.4357668016
H -3.1778413119 1.2895183558 0.9415290556
H -1.7493972949 0.3568796019 1.4566710034
H -7.4960603520 -0.9945417166 0.3758153094
H -8.6948122074 0.0994830748 -1.5554139399
H -7.2476566620 1.0976274557 -3.3641693647
