44
CONF82
C -4.8904645976 0.4308915292 1.9882836943
N -3.5851927757 0.1138082524 1.3955944298
C -3.1490679242 1.1529455881 0.4347686546
C -4.0119541213 0.9198758876 -0.8370279058
C -4.3506009593 -0.5924998064 -0.7804839484
C -3.6516184625 -1.0791693165 0.5200365890
C -2.2109483490 -1.5373708669 0.2547111792
C -1.4507441433 -0.4434496407 -0.4798689186
C -1.6566314804 0.9272665144 0.1565128648
O -0.0302208043 -0.8036503722 -0.4283263904
C 0.7694413185 -0.2992689925 -1.3807492367
O 0.3858834254 0.3583478423 -2.3282377797
C 2.2218095671 -0.6288650473 -1.0868655995
C 3.0715026144 -0.4294642126 -2.3387968242
O 4.3958473463 -0.8708728748 -2.0238019806
C 2.6917969017 0.2218515988 0.0804674286
C 2.5998781749 1.6156480001 0.0197569916
C 3.0305196361 2.3983593789 1.0870417633
C 3.5596976797 1.7968753606 2.2278935788
C 3.6529429243 0.4088689311 2.2947490087
C 3.2177098645 -0.3739274288 1.2272853542
H -5.6977517383 0.5848972735 1.2526246110
H -5.1903997415 -0.3849211652 2.6542509407
H -4.8003145245 1.3435142832 2.5866415926
H -3.2957380849 2.1481425103 0.8662983706
H -4.9202491368 1.5271889133 -0.8005037439
H -3.4709395960 1.1990376565 -1.7462985674
H -3.9911168969 -1.1388653251 -1.6575818391
H -5.4303075349 -0.7517829265 -0.7182315518
H -4.2045841433 -1.8805513604 1.0200599997
H -2.2051036954 -2.4580953481 -0.3391819575
H -1.7222283553 -1.7430048742 1.2137120562
H -1.7412744901 -0.4188223931 -1.5337396756
H -1.1062159554 0.9697329348 1.1035432673
H -1.2690422080 1.7098263957 -0.5045204760
H 2.6469508388 -1.0185548834 -3.1634728254
H 3.0668008920 0.6288975465 -2.6310473762
H 2.1865078056 2.0931438444 -0.8649678318
H 2.9509395741 3.4795954220 1.0285780502
H 3.8961622379 2.4073821609 3.0600363288
H 4.0645066549 -0.0675367433 3.1793705415
H 3.2887670784 -1.4565791451 1.2823880017
H 2.2733104849 -1.6821871189 -0.7891478722
H 4.9440350751 -0.7263162318 -2.8044503122
