61
CONF167
C -3.5159807132 4.7140466332 0.5086341343
C -2.8986110966 3.4670310132 -0.1212402936
C -3.3397595868 2.1813814536 0.5796512072
C -2.6866508812 0.9258336528 0.0165615792
C -3.1126756756 -0.3676566616 0.7228267116
C -2.7290749191 -1.4797796451 -0.2846905470
N -2.5907257348 -0.7945816269 -1.5818047044
C -3.0494694408 0.5936156586 -1.4289144612
C -3.1788557824 -1.5082837401 -2.7078001624
C -1.4262745495 -2.1389792279 0.1657389489
O -1.4047952785 -2.8916753648 1.1613143190
N -0.3419407184 -1.7723303486 -0.5193073576
C 1.0278097545 -2.1412467137 -0.2095191070
C 1.7322080818 -1.0623981081 0.6346884588
C 1.5243816477 -1.1709384781 2.1449320929
C 2.2354342215 -0.0026854864 2.8526486140
C 1.8458291918 1.3369276310 2.2159537212
C 1.9753018866 1.3169832263 0.6849819426
O 1.2909845952 0.2091606307 0.1285010576
S 3.7368074340 1.4552207930 0.1069509696
C 3.3776854762 1.9559088881 -1.6195829631
O 0.4980693167 1.6722079869 2.5568947026
O 3.6524837623 -0.1206293928 2.7538853092
O 0.1590592155 -1.1059647875 2.5640449765
C 1.7890240299 -2.4052819036 -1.5284677285
C 1.1116902405 -3.4653134401 -2.3836536932
O 3.1456110151 -2.7673572367 -1.2412425721
H -4.6100230988 4.6708393985 0.4655763038
H -3.2269346611 4.8028448315 1.5618453351
H -3.1945818603 5.6244123737 -0.0070930386
H -3.1734707939 3.4186762035 -1.1824952968
H -1.8028215255 3.5364418505 -0.0861402496
H -4.4325988994 2.0809138923 0.5097822964
H -3.0995404166 2.2558466454 1.6493532398
H -1.5932545309 1.0284403528 0.0855632629
H -4.1997878534 -0.3628816593 0.8618829456
H -2.5594269054 1.2361631123 -2.1691304548
H -4.1453587933 0.6851346758 -1.5643389938
H -2.7365608711 -2.5071070784 -2.7901314921
H -2.9676013276 -0.9669603164 -3.6360473496
H -4.2743309178 -1.6187553025 -2.6123652625
H -2.6453798899 -0.5051680902 1.7016267631
H 1.0091194718 -3.0776344993 0.3647988680
H 2.8125207679 -1.1635078798 0.4647202651
H 1.9849500948 -2.1157984944 2.4779453707
H 1.9128200771 0.0126363305 3.9036806189
H 2.4841327441 2.1284607481 2.6220123692
H 1.4611613405 2.1998580445 0.2914064354
H 4.3382635958 2.0665901077 -2.1279961364
H 2.7927744910 1.1827795143 -2.1237210463
H 2.8426488018 2.9090543515 -1.6423959344
H -0.0308778867 0.8638968967 2.4371576615
H 3.9164747652 -0.9409012717 3.1911663496
H -0.3375514436 -1.8598497011 2.1799733647
H 1.8590566421 -1.4601020858 -2.0832308921
H 1.7131351360 -3.6559667660 -3.2765049385
H 1.0115594026 -4.4003540475 -1.8191242236
H 0.1150004965 -3.1472823867 -2.7001296086
H -3.4950019948 -2.2685200462 -0.3038464684
H -0.5326292561 -1.1076166136 -1.2668563428
H 3.1379422904 -3.6551246745 -0.8570216230
