21
CONF26
C 0.6340384673 -1.2189702454 -0.1357754518
C -0.1413249035 0.0841798286 0.0717527133
C 0.7108042506 1.3030118566 -0.2830446302
O 0.9484422397 1.3181024565 -1.7037243094
C -1.4305924362 0.0504208962 -0.7658635600
O -1.2386690673 -0.3574425046 -2.1252399404
C -0.5403120171 0.2452847779 1.5552315794
O -1.0640530467 -0.9518117487 2.1350204989
O 1.6148841398 -1.3347409515 0.9112210157
H 1.1175988164 -1.2166737115 -1.1196202046
H -0.0644180075 -2.0673190413 -0.1017997388
H 0.1770191546 2.2163467248 0.0195058105
H 1.6645615245 1.2616690444 0.2613854752
H 1.3841751449 2.1489129289 -1.9276701510
H -2.1222009393 -0.6753983279 -0.3241682655
H -1.9038109504 1.0446308465 -0.7193429793
H -0.5547770932 0.2314206847 -2.4791808930
H 0.3216465525 0.6059382101 2.1323592687
H -1.3333235180 0.9980169512 1.6328881586
H -0.3168983394 -1.5588954367 2.2295660696
H 2.1372103511 -2.1266829477 0.7364995340
