40
CONF34
C -1.1018228105 -2.1390311791 2.7267439079
C -0.4637267204 -1.6759349937 1.4061523183
C 1.0420060582 -1.9661727764 1.4582451229
C -1.1792545133 -2.3901609139 0.2534797756
C -0.6205647350 -3.4870754087 -0.4048934692
C -1.3220684742 -4.1485895644 -1.4128362333
C -2.5960548591 -3.7258950025 -1.7784397335
C -3.1653788248 -2.6345655007 -1.1239471021
C -2.4635234062 -1.9775052360 -0.1191347828
N -0.6830904293 -0.2193726064 1.3320785820
C -0.4028560769 0.5190528169 0.2134231838
O 0.2356512127 0.0779436440 -0.7470358970
N -0.9138706000 1.8044883053 0.2242326589
C -0.3604845952 2.7900224270 -0.7023244440
C 1.0548108308 3.2081970547 -0.3702470951
C 2.1200270395 2.8040350017 -1.1806141298
C 3.4336776181 3.1550197114 -0.8872662247
C 3.7104364081 3.9263860143 0.2377155209
C 2.6730180871 4.3495119631 1.0637910012
C 1.3704506096 3.9854161290 0.7463026155
Cl 0.0756774758 4.5525230455 1.8105866856
H -2.1737535652 -1.9164827774 2.7423021306
H -0.6194448448 -1.6433154724 3.5761198653
H -0.9738163086 -3.2190184317 2.8322880782
H 1.4858911862 -1.3712800813 2.2612684804
H 1.2255962567 -3.0210884191 1.6787188445
H 1.5280252888 -1.7060236225 0.5163319478
H 0.3732707342 -3.8334538053 -0.1454801081
H -0.8643834939 -4.9952597521 -1.9158769423
H -3.1401665441 -4.2384235851 -2.5656236031
H -4.1587122776 -2.2920715306 -1.3986367764
H -2.9172679753 -1.1242011274 0.3769603944
H -1.3218757838 0.1722968542 2.0079983896
H -1.2288893649 2.1711319499 1.1113108595
H -1.0256273867 3.6588372386 -0.6935917548
H -0.3750873323 2.3653883243 -1.7084501357
H 1.9009569370 2.1978855625 -2.0541476714
H 4.2393186629 2.8247412158 -1.5347032910
H 4.7311064685 4.2052397513 0.4785735874
H 2.8717991325 4.9568054652 1.9396710597
