41
CONF64
C -4.3095490202 1.5476060468 2.1349709551
C -3.9211541832 2.3615603401 0.9014887647
N -3.4296704152 1.5436832657 -0.2174475517
C -4.3900409068 1.1761765776 -1.2570924317
C -5.0148407212 -0.2086339071 -1.0335909091
O -5.8280101484 -0.5821597844 -2.1461915306
C -2.1553120731 1.0663003961 -0.2407068429
C -1.6863348019 0.2410033738 -1.3004240694
C -0.3839973803 -0.1974497049 -1.3255713626
C 0.5301323539 0.1400978282 -0.3075268527
C 0.0699698383 0.9470653169 0.7585484336
C -1.2270070838 1.3909984467 0.7951433187
N 1.8060418367 -0.3604282392 -0.4476153473
N 2.6338990397 -0.0628672437 0.4780449570
C 3.9206604462 -0.5782599925 0.2841265044
C 4.3429139011 -1.3054721854 -0.8481485522
C 5.6427580239 -1.7602946292 -0.9336682004
C 6.5317658512 -1.4923511102 0.1117074922
C 6.1400332714 -0.7733938137 1.2410413244
C 4.8373084676 -0.3191440421 1.3190153669
N 7.9010870133 -1.9740735516 0.0180164121
O 8.2305274419 -2.6069963162 -0.9876842313
O 8.6710104234 -1.7312293982 0.9501040093
H -5.1429520834 0.8754579178 1.9147167776
H -4.6191709090 2.2261728030 2.9357112152
H -3.4704046990 0.9479805431 2.4986067713
H -3.1622837769 3.1082122022 1.1563110529
H -4.7892474442 2.9150783212 0.5348955651
H -3.9107302491 1.2018509061 -2.2414819146
H -5.1811912788 1.9318775709 -1.2674937565
H -4.2303095824 -0.9674676833 -0.9534659659
H -5.5911786436 -0.2166434029 -0.0991355663
H -6.6156655376 -0.0240252966 -2.1414592188
H -2.3468948996 -0.0575749433 -2.1032455394
H -0.0376008160 -0.8231891310 -2.1425793846
H 0.7511580915 1.2143595013 1.5580258223
H -1.5385197341 1.9982956102 1.6343964246
H 3.6433443009 -1.5025296993 -1.6508398072
H 5.9802081055 -2.3184095107 -1.7981398885
H 6.8486240849 -0.5784890552 2.0358825332
H 4.5006248912 0.2444641824 2.1827547257
