20
CONF4
C 2.9238481307 0.0369614273 0.2316695415
C 1.8176638516 0.6904934882 0.5867609159
C 0.4399765342 0.5199037444 0.0175261233
C -0.5736275516 0.1814663130 1.1264473627
C -2.0049925162 0.2557193824 0.5921652589
C -2.1392367194 -0.4228972874 -0.7409296108
C -1.0922445624 -0.7828180671 -1.4877895630
C 0.3358496755 -0.5147182125 -1.1031828478
H 3.8717960753 0.2431763370 0.7198547136
H 2.9288830283 -0.7152293219 -0.5518873051
H 1.8858716627 1.4364615159 1.3806572793
H 0.1385346481 1.4977627500 -0.3940615035
H -0.4491957085 0.8624098612 1.9758952794
H -0.3635754632 -0.8338201448 1.4887891721
H -2.3191741824 1.3065145036 0.5021392009
H -2.7011041504 -0.1997291659 1.3079599672
H -3.1474004961 -0.6294083483 -1.0964673984
H -1.2595723184 -1.2955069183 -2.4335383648
H 0.8979537420 -0.1798488214 -1.9845221271
H 0.8097461192 -1.4568927179 -0.7883929045
