40
CONF19
C -2.8548242992 0.7933746960 0.2200388135
C -2.3302601793 -0.5408555898 0.7646164940
C -3.1621651577 -0.9390514484 1.9947243136
C -2.4057725189 -1.6833364254 -0.2556195577
C -3.2333767418 -1.6270384889 -1.3764892469
C -3.3259241061 -2.7066334093 -2.2514583937
C -2.5919863791 -3.8637452509 -2.0210210041
C -1.7618794241 -3.9315616001 -0.9058496247
C -1.6732783676 -2.8529557513 -0.0351328131
N -0.9480446579 -0.3530591580 1.2479025157
C 0.0987815381 -0.1500384968 0.3725869001
O -0.0560594947 0.1134591017 -0.8124955348
N 1.3577916647 -0.2928817394 0.9484968612
C 2.5001359343 0.2291291245 0.1992069711
C 2.5896869601 1.7367073560 0.2292444238
C 2.1945774577 2.4924089313 -0.8777386387
C 2.2429474387 3.8812325151 -0.8612571054
C 2.6901860603 4.5470877978 0.2750512869
C 3.0835464308 3.8244808840 1.3963382314
C 3.0227873372 2.4380539027 1.3556158128
Cl 3.5134203162 1.5475648705 2.8027035370
H -3.9286750211 0.7354495986 0.0218667579
H -2.3293655900 1.0740828562 -0.6938903168
H -4.2016502113 -1.0955242868 1.6975614325
H -2.7971933856 -1.8758083341 2.4299682416
H -3.1276721192 -0.1493420971 2.7533057198
H -3.9704657707 -2.6354402109 -3.1221583135
H -2.6604657657 -4.7027985503 -2.7057784726
H -1.1760813366 -4.8257484039 -0.7165479202
H -1.0076303935 -2.9180171458 0.8206222125
H 1.4192680306 -0.1586494728 1.9483216368
H 2.3938165625 -0.1047176246 -0.8348073528
H 3.4086838599 -0.2167673427 0.6145973968
H 1.8260134464 1.9646260189 -1.7511388543
H 1.9279798745 4.4430570500 -1.7341475037
H 2.7331546183 5.6310190084 0.2976262780
H 3.4327626953 4.3264027862 2.2911696348
H -3.8042305965 -0.7309874366 -1.5890908937
H -0.7297239007 -0.8007725134 2.1250341686
H -2.6918241349 1.5695090315 0.9725662681
