33
CONF27
O -4.4848114511 3.1628813800 -0.3568674590
C -3.8052058587 1.9943375319 -0.2202879999
C -4.5727493470 0.8433629780 -0.0666067770
C -3.9265129978 -0.3768711357 0.0754597293
O -4.6554163103 -1.4894411475 0.1955155255
C -2.5020700778 -0.4526282903 0.0730822555
C -1.8321882332 -1.7248594480 0.0957753180
O -2.4330775195 -2.8087291872 0.1858203730
C -0.3284363741 -1.6779559714 -0.0434087583
C 0.2275372047 -0.3873317507 0.5468384375
O -0.4103469536 0.7581571867 -0.0793328648
C -1.7679299460 0.7482778780 -0.0688409706
C -2.4053822895 1.9675125237 -0.2200149833
C 1.7099697329 -0.2451830705 0.3650273565
C 2.5690895720 -0.4612777878 1.4379706204
C 3.9495850479 -0.3958972247 1.2554417722
C 4.4665288691 -0.1011634495 0.0041871709
O 5.8081521036 -0.0027369811 -0.2795101615
C 3.6058092704 0.1286336926 -1.0803310427
O 4.1013920862 0.4295302546 -2.3120989691
C 2.2347665337 0.0492645921 -0.8950801494
H -3.8559693905 3.8859038238 -0.4656226560
H -5.6539742693 0.8962774718 -0.0689080399
H -4.0055538946 -2.2446667993 0.2377084839
H 0.1117241773 -2.5483835891 0.4504009807
H -0.0737690509 -1.7378105004 -1.1105364634
H -0.0174805751 -0.3496895506 1.6193850765
H -1.8146183170 2.8726716988 -0.3132456136
H 2.1685109949 -0.6812837414 2.4224045938
H 4.6217757026 -0.5643151397 2.0930025947
H 6.3215419464 -0.1682941497 0.5181542473
H 5.0660305960 0.4424062688 -2.2542269583
H 1.5830799127 0.2393009357 -1.7412548329
