34
CONF34
C -4.3421033703 -1.1263612846 -1.8988129110
C -3.0402390430 -0.7381890496 -2.5645300035
O -1.9154067289 -0.7935002625 -1.6361532998
P -1.7308593026 0.3032299750 -0.4959651445
S -2.1757228574 2.1431594466 -0.8556479956
O -2.4279970472 -0.4109540927 0.7546300557
C -2.6836057319 0.3115472949 1.9958709374
C -1.4155446225 0.5334561805 2.7921343512
O -0.0971660345 0.1918199721 -0.2274258050
N 0.3280351477 -1.0720814609 0.2040847983
C 1.6157109275 -1.1285906068 0.3394963828
C 2.0208859697 -2.4389355117 0.7746289260
N 2.3868776861 -3.4754925506 1.1346464965
C 2.6845689917 -0.1369003018 0.1160973223
C 2.4699512445 1.2516203668 0.1316296130
C 3.5350254456 2.1188840586 -0.0707788947
C 4.8172394388 1.6301539925 -0.3025542263
C 5.0392646236 0.2565598312 -0.3168517536
C 3.9865409782 -0.6193520068 -0.0991538438
H -5.1321771312 -1.1732227349 -2.6551236953
H -4.2565250778 -2.1050273567 -1.4195342835
H -4.6351242671 -0.3893419521 -1.1458464683
H -2.7615799620 -1.4454941479 -3.3488050551
H -3.0862236516 0.2704251190 -2.9899113236
H -3.3841230372 -0.3335222291 2.5314120633
H -3.1793716097 1.2576035982 1.7508753136
H -0.7427114560 1.2263225108 2.2785091601
H -0.8920821252 -0.4118329901 2.9588048954
H -1.6715198384 0.9681350100 3.7635488670
H 1.4835634510 1.6539818077 0.3060795248
H 3.3564579669 3.1888265977 -0.0503547804
H 5.6407786620 2.3173248263 -0.4671110443
H 6.0354274585 -0.1355072098 -0.4919461319
H 4.1697547227 -1.6887441411 -0.1000304459
