61
CONF40
C -1.6712483273 -0.8382692387 3.7650265967
C -3.0976161464 -0.2921559874 3.7962337743
C -3.2906817094 0.9871619581 2.9734849869
C -2.8799714179 0.8605068518 1.5104325239
C -3.5890129693 -0.2534447313 0.7321765692
C -3.3286722735 0.1355439351 -0.7354370652
N -3.1090737461 1.5947913206 -0.7265706210
C -3.2373679153 2.0764358371 0.6567902327
C -3.8910797696 2.3408482253 -1.6993803738
C -2.1140917210 -0.6315576688 -1.2722333016
O -2.1261604371 -1.8720747119 -1.3274370982
N -1.0656810914 0.1253085336 -1.6113516342
C 0.1658334411 -0.3594174984 -2.2113638969
C 1.2708915593 -0.6789670860 -1.1940310584
C 1.0841324176 -1.9435130212 -0.3474136049
C 2.2856966124 -2.0936586248 0.5965367235
C 2.5179834635 -0.8000734673 1.3944215536
C 2.5780790217 0.4338275425 0.4786022963
O 1.4362541488 0.4925787063 -0.3685078332
S 4.1843619870 0.5572549771 -0.4406282061
C 4.1844119028 2.3666716064 -0.7305791212
O 1.5045181032 -0.6127134498 2.3698240943
O 3.4049888732 -2.4129083085 -0.2300159860
O -0.0736006245 -1.9528354817 0.4754158311
C 0.6034304025 0.7083021229 -3.2449223313
C 1.8998149993 0.3729131052 -3.9695789229
O 0.6677141015 2.0062414668 -2.6404715809
H -1.5519516283 -1.6691366720 4.4665228980
H -1.4103307353 -1.2170056230 2.7717593214
H -0.9409223274 -0.0669679167 4.0337024967
H -3.7915713920 -1.0633030210 3.4377362985
H -3.3875738376 -0.0816745172 4.8327300581
H -2.7152308171 1.8021092349 3.4336881502
H -4.3475778423 1.2850722459 3.0189444158
H -1.7943585360 0.6999125119 1.4422411443
H -3.2334814434 -1.2616811355 0.9550966108
H -4.6653914435 -0.2166444158 0.9421782417
H -2.5789199541 2.9367829043 0.8291222879
H -4.2754166774 2.3916490972 0.8820158198
H -4.9809696234 2.2699133953 -1.5208651897
H -3.6817745768 1.9753991950 -2.7105748678
H -3.6088055222 3.3984840292 -1.6646235962
H -1.1816642004 1.1256278168 -1.4671063282
H -0.0595731093 -1.2924675518 -2.7453933936
H 2.2010181679 -0.8476295421 -1.7557635423
H 1.0850385260 -2.8046553134 -1.0340988438
H 2.0618110935 -2.9032047130 1.3061883995
H 3.4685419831 -0.8711427459 1.9396984469
H 2.5088160841 1.3218873729 1.1144401864
H 3.3583528756 2.6644640691 -1.3824806434
H 4.1361859767 2.9155715174 0.2138289307
H 5.1242928092 2.6079277119 -1.2327187519
H 0.6577687245 -0.8332591074 1.9473018440
H 4.1884350181 -2.4843233943 0.3270187368
H -0.8505932036 -2.0989298962 -0.1044790681
H -0.2098173537 0.7796052315 -3.9787695939
H 2.7609054168 0.4348831470 -3.2959102190
H 1.8671192393 -0.6341814982 -4.4003657457
H 2.0536412839 1.0912399430 -4.7786614964
H -4.1762018597 -0.1537068698 -1.3738018877
H 1.1783247310 1.8974463069 -1.8230155676
