42
CONF8
C 2.6524325178 1.1349295436 3.6164444880
O 2.2873215993 0.4456146283 2.3954553721
C 1.7940450270 1.2201299525 1.4259350873
C 1.3875574483 0.6893756573 0.2499569833
C 1.4655933376 -0.7658384869 -0.0306507533
C 2.2877128025 -1.1851187548 -1.0859570721
C 2.4278189799 -2.5276523329 -1.4106727030
C 1.7282465480 -3.4855351387 -0.6800648133
C 0.8921342839 -3.0823141889 0.3528429214
C 0.7458990384 -1.7329246034 0.6926972085
C -0.1705706185 -1.4318606391 1.8561654738
O -0.8811860482 -0.1751948454 1.7910931459
C -1.7079312855 0.0331929508 0.7482647479
C -2.2382962875 1.3290974092 0.6185637474
C -3.0647995542 1.5834911002 -0.4549859103
C -3.3449041967 0.5634263120 -1.3737864159
C -2.7763015571 -0.6715851368 -1.1316665956
N -1.9779372956 -0.9530038234 -0.0927334187
C -3.0013245110 -1.8484126864 -2.0508079078
F -1.8292293968 -2.3326192624 -2.5342127757
F -3.7704017108 -1.5303402662 -3.1132183194
F -3.6093365840 -2.8773670298 -1.4084893286
C 0.8373488415 1.5537905902 -0.7978276622
O 0.4063011316 1.1490200881 -1.8686411626
O 0.8317295193 2.8687393165 -0.4654214172
C 0.2413226051 3.7529776190 -1.4434270974
H 1.7680537028 1.6002177928 4.0610890941
H 3.4167702299 1.8886478156 3.4059755678
H 3.0508832963 0.3715422550 4.2835273964
H 1.7312231553 2.2860012749 1.6327590026
H 2.8314818243 -0.4330462956 -1.6496361385
H 3.0775501279 -2.8240078325 -2.2281287320
H 1.8213979659 -4.5395418000 -0.9224112080
H 0.3241058311 -3.8271801108 0.9042296594
H 0.4069649477 -1.3423828015 2.7808086360
H -0.8919064821 -2.2474327244 1.9690603836
H -1.9830222239 2.0922323100 1.3449307295
H -3.4892475830 2.5721131441 -0.5939122597
H -3.9781887986 0.7380172323 -2.2337831533
H 0.7987150696 3.7124496900 -2.3827565417
H -0.8020444347 3.4793379291 -1.6226618141
H 0.3040195837 4.7490136299 -1.0058937466
