47
CONF4
C -2.4591424385 -4.5276417031 -1.0584374029
C -2.7953616806 -3.1843527369 -0.3973151357
C -4.2380810302 -2.8034267021 -0.7383252243
C -1.7560149390 -2.1238966843 -0.8035550618
C -0.3237310157 -2.4784675437 -0.3767045353
C 0.4630775485 -1.1976301788 -0.6366000263
C -0.4955390160 -0.0508369362 -0.2494981236
C -0.1160523597 0.6289682788 1.0792629585
C 1.1669303824 1.4081444157 0.9617700465
C 1.1865055620 2.6348080904 0.2887679141
C 2.3622923661 3.3624300906 0.1406844839
C 3.5366630430 2.8480764106 0.6782233444
Cl 5.0358357020 3.7608161429 0.4988016615
C 3.5567164433 1.6383851601 1.3583092931
C 2.3654769510 0.9284447511 1.4947158817
C -1.9396707156 -0.6873829063 -0.2294222490
O -2.4563623976 -0.8334825638 1.0968385428
C -2.8958139816 0.1615342824 -1.0908178291
N -2.9497960811 1.5508514713 -0.6422831898
C -2.4826473979 2.6607938134 -1.2438074707
N -2.6649096265 3.7223507942 -0.4637049311
C -3.2569163378 3.1873690558 0.6366651112
N -3.4542121504 1.8740372087 0.5762285620
H -3.2088168411 -5.2795782777 -0.7911202689
H -2.4581039550 -4.4287574726 -2.1512800288
H -1.4813310300 -4.9081276085 -0.7516375792
H -2.7263414899 -3.3122840640 0.6900727557
H -4.9064621943 -3.6466388996 -0.5336930577
H -4.5867433585 -1.9560904562 -0.1434385930
H -4.3382750150 -2.5523687738 -1.8019170780
H -1.7687064171 -2.0332205601 -1.9015252853
H -0.3191925752 -2.7305446588 0.6925448280
H 0.0835376171 -3.3328363519 -0.9228288724
H 0.7128906408 -1.1337373770 -1.7017409668
H 1.4045626711 -1.1542577434 -0.0804867616
H -0.4654128530 0.7221646326 -1.0255239294
H -0.0248966432 -0.1287817783 1.8638410068
H -0.9146698962 1.3167923481 1.3815808969
H 0.2637242707 3.0358758990 -0.1234321446
H 2.3642923148 4.3142649681 -0.3786494222
H 4.4806481317 1.2558382833 1.7774254647
H 2.3741508593 -0.0159900929 2.0315560430
H -3.9102491329 -0.2399331373 -1.0696229739
H -2.5411707792 0.1764689001 -2.1249631384
H -2.0356010835 2.6487217048 -2.2295038880
H -3.5562896620 3.7684334112 1.4997096543
H -2.7567770518 0.0366258878 1.4035130443
