38
CONF2
C -1.9162813724 1.2033126109 1.7333665847
C -1.4454381039 -0.1486316751 1.1914069267
C -2.2920334210 -0.5465384987 0.0014096322
C -2.6014860003 -1.9898405244 -0.3101603395
C -3.6719294511 -1.0905979945 0.2473017238
C 0.0885749051 -0.1328757751 0.9127287140
C 0.5492555525 -1.5534770368 0.5103383380
N 1.9606961298 -1.5948418540 0.1586571192
C 2.5478089275 -1.9766314439 -0.9955076100
N 3.8577230545 -1.7942096846 -0.9351504785
C 4.0262940328 -1.2724621176 0.3062867432
N 2.9079610537 -1.1328914286 1.0109479875
C 0.4673890209 0.8900100031 -0.1562617956
C 0.9641493926 2.1388846485 0.2192745427
C 1.2943847248 3.1007790167 -0.7288591752
C 1.1299964915 2.8063391754 -2.0755619144
C 0.6423530938 1.5721834152 -2.4846437584
C 0.3146207114 0.6253983384 -1.5207785342
Cl 1.5479446535 4.0091854666 -3.2817770433
O 0.6801397726 0.1948186367 2.1679733294
H -1.8233386247 1.9794720875 0.9666996709
H -1.3364230851 1.5067401047 2.6067592535
H -2.9706392449 1.1357231384 2.0159282752
H -1.5837649573 -0.9039524376 1.9796906618
H -2.2083844434 0.1206341868 -0.8534325550
H -2.2037464261 -2.7502347554 0.3555589572
H -2.6761343288 -2.2932307896 -1.3498140084
H -3.9692771773 -1.2515550620 1.2792202546
H -4.4738902291 -0.7769548480 -0.4116959509
H 0.3670192884 -2.2204488682 1.3603298039
H -0.0088094925 -1.9258389810 -0.3499372339
H 1.9907308183 -2.3783512589 -1.8314432769
H 4.9889363110 -0.9900667947 0.7111677919
H 1.0915719984 2.3577196227 1.2728487929
H 1.6777168374 4.0680921059 -0.4254165729
H 0.5255060452 1.3538316827 -3.5397031447
H -0.0697703520 -0.3320944023 -1.8568144786
H 1.6305736932 -0.0073977023 2.0990625608
