23
CONF4
C 3.2731666774 -0.2167314846 -1.7177927694
C 4.3414162423 -0.2591107142 -0.8373334660
C 4.1261502640 -0.2518388351 0.5406524313
C 2.8228215084 -0.1970564914 1.0292949588
C 1.7378223108 -0.1501132780 0.1573263084
C 1.9780419813 -0.1627558774 -1.2110851545
O 0.9652261025 -0.1058718100 -2.1487544877
C -0.3344799991 -0.2294644097 -1.7173627801
C -0.8973500144 -1.4885478774 -1.4934797960
C -2.2421773024 -1.5818114403 -1.1178602755
C -3.0163836795 -0.4177514975 -0.9734900373
C -2.4240996102 0.8266767392 -1.2108129872
C -1.0900542264 0.9220117295 -1.5788084805
Br 0.1995755526 -3.0114304912 -1.7274707292
Br -3.3938823956 2.4510068010 -1.0417889943
Br -4.8375627870 -0.5269677055 -0.4703832085
Br -3.0122536252 -3.2842675834 -0.8126676292
Br 2.4482466714 -0.1820787605 2.8969720035
Br 5.6419131654 -0.3197759481 1.6919465140
H -0.6243475671 1.8833817676 -1.7589787948
H 5.3544472356 -0.3025368351 -1.2199794694
H 0.7299701962 -0.1042794156 0.5516942908
H 3.4348808943 -0.2280476024 -2.7895438113
