26
CONF126
C -3.8937025659 1.2752013910 1.0212511790
N -3.2119777851 0.4139283313 0.0480434355
C -1.7709545397 0.3675799098 0.3026379578
C -1.0306030803 -0.4866951549 -0.7213660753
O -1.4868429792 -1.8424720249 -0.5692945669
C 0.4654728648 -0.3712556804 -0.5361146583
C 1.2403622931 0.3553472212 -1.4381458130
C 2.6160511739 0.4888256350 -1.2445447149
C 3.2231007899 -0.1101218112 -0.1487763034
O 4.5635929605 -0.0453196838 0.1256734470
C 2.4499457932 -0.8489362016 0.7619963576
O 3.0281340666 -1.4502774515 1.8448017508
C 1.0826542394 -0.9745289024 0.5648358105
H -3.8245594556 0.8253771355 2.0185367162
H -4.9535504321 1.3589067713 0.7612698369
H -3.4685150181 2.2928810934 1.0816380991
H -3.3538477415 0.8070301625 -0.8787206506
H -1.3070585036 1.3720009239 0.2980056897
H -1.6012544064 -0.0591265413 1.3013430425
H -1.2825911818 -0.1203344438 -1.7301271949
H -0.9725780239 -2.3865382153 -1.1795794293
H 0.7737174503 0.8221549741 -2.3007341662
H 3.2229665363 1.0513547041 -1.9493301644
H 5.0115447757 0.4889661577 -0.5433108757
H 3.9781076794 -1.2632576926 1.8334564203
H 0.5023851959 -1.5540094291 1.2765549653
