22
CONF3
C 2.8369365885 1.1382065913 -0.6575462278
C 1.4490347557 1.1154132452 -0.5899306132
C 0.7821397450 0.0154833352 -0.0502793618
C 1.5292477925 -1.0629530049 0.4379294771
C 2.9238837063 -1.0337708766 0.3660282858
C 3.5784287267 0.0638822929 -0.1832248487
Cl 3.8766481726 -2.3674359623 0.9675210044
Cl 0.7048995185 -2.4252548142 1.1469987417
C -0.7001016669 0.0224272048 0.0201766150
C -1.3274969291 0.7787727244 1.0048251595
C -2.7115079621 0.8223956497 1.0891914064
C -3.5035482879 0.1099370142 0.1850318434
C -2.8808259695 -0.6482977048 -0.8169871387
C -1.4847461296 -0.6854899623 -0.8944942402
Cl -0.7066397262 -1.6045443322 -2.1478454241
Cl -3.8422618615 -1.5282458848 -1.9558196761
Cl -5.2291612620 0.1639058479 0.2939239730
Cl -3.4419647168 1.7793275977 2.3451218657
H 3.3478958086 1.9950599182 -1.0826016173
H 0.8644593236 1.9493692636 -0.9636266914
H 4.6613400559 0.0698174101 -0.2316237862
H -0.7266596981 1.3319944521 1.7172314703
