110
CONF141
C -3.3036042265 1.2411602613 -1.8559307986
N -4.2802544231 1.3255242613 -2.9552408685
C -4.1621147705 0.0767087120 -3.7320004862
C -3.5639665729 -0.9473354032 -2.7440916100
C -3.4967729102 -0.2102775170 -1.3826245232
C -2.4195654131 -0.7455216188 -0.4761017888
C -1.0467197894 -0.7311610037 -0.6196650574
C -0.2109935858 -1.3103010413 0.3417848799
C -0.8312225349 -1.9569350822 1.4341306058
O 0.0261071766 -2.5159469246 2.3293023651
C -0.5022216047 -3.0828683708 3.5224598434
C -2.2196415062 -1.9989222928 1.5934026838
C -3.0041496544 -1.3676880344 0.6270144717
N -4.3674429414 -1.2498933623 0.5976056647
C -5.2386484293 -2.1170326558 1.3630112983
C -4.8125249930 -0.4337190568 -0.5324849491
C -5.5001049666 0.9140027722 -0.1145968622
O -6.2984880513 1.3871396490 -1.1840345351
C -4.4066931555 1.9020346817 0.3451312746
O -4.9582939091 3.0543042469 0.9694571470
C -3.4813658817 2.3651752198 -0.8095568449
C -2.0642263083 2.6793876458 -0.2354142170
C -1.9883278845 3.6429939096 0.9450462043
C -3.9838736593 3.6166805473 -1.4892718961
C -4.2123808455 3.7281699887 -2.7959853938
C -4.1704199997 2.5550696112 -3.7268182713
C -6.4518959574 0.6732532203 1.0702996028
N -7.7223409686 0.3653191490 0.7085912443
O -6.0722000643 0.7208548289 2.2368406459
C 1.3191760265 -1.1948434883 0.2796193427
C 1.7821889960 -0.6384407635 -1.1031931424
C 3.3064627279 -0.5740825279 -1.1367677994
C 3.8834108253 0.8341147279 -0.9303101928
N 5.2627532761 0.7426835691 -0.4909430849
C 6.0792170272 -0.0115224603 -1.4327974424
C 5.5169737466 -1.3480839907 -1.9706407997
O 5.6596520779 -2.3012881779 -0.8919118684
C 6.3116320196 -1.8288107661 -3.1931099404
C 7.8066386271 -2.0263079182 -2.9488491006
C 4.0226909597 -1.2021815712 -2.3260299151
C 5.4200508629 0.5306425341 0.9501037567
C 4.4820010504 -0.4518434391 1.7256715046
C 3.0731477287 0.0413923843 1.9435023562
C 1.8326293876 -0.2707853890 1.3897012654
N 0.8840769151 0.5884934675 1.9314566059
C 1.4545214809 1.4212711636 2.8535979565
C 0.8841192360 2.4007595423 3.6633569950
C 1.7303542384 3.0901037400 4.5201797196
C 3.1052331285 2.8009259991 4.5685430248
C 3.6634022179 1.8211808768 3.7611586524
C 2.8349264089 1.1084225144 2.8814903308
C 1.8745495441 -2.6364151197 0.3244695128
O 1.6355571446 -3.4495813231 -0.5407960666
O 2.6592247647 -2.8947913068 1.3817144127
C 3.1654014240 -4.2407803148 1.4443171390
H -2.2773187704 1.3241587452 -2.2667975289
H -3.4939633098 0.2154314565 -4.5971138795
H -5.1463504790 -0.2159511189 -4.1163652421
H -2.5476330615 -1.2198025422 -3.0427829137
H -4.1413918728 -1.8723644847 -2.6737006606
H -0.6131034902 -0.2447697049 -1.4852184912
H -1.1476710876 -3.9437433126 3.3050267791
H 0.3636570616 -3.4123895923 4.0983444141
H -1.0620314342 -2.3368177780 4.1004227762
H -2.6750007582 -2.4823498412 2.4471576692
H -6.2604108821 -2.0294572187 0.9865881838
H -4.9224691947 -3.1664113360 1.2658474365
H -5.2543028974 -1.8431097511 2.4247708231
H -5.5651609255 -0.9757168458 -1.1238745323
H -5.6965153377 1.4221916420 -1.9803857869
H -3.7879600999 1.3426570689 1.0658597674
H -5.3329471360 2.7464089123 1.8062689456
H -1.6110859399 1.7240356446 0.0546901209
H -1.4606880682 3.0713508828 -1.0644147799
H -2.5169774143 3.2560201145 1.8197741114
H -2.4183368889 4.6200928315 0.7111052228
H -0.9391444810 3.7935726485 1.2201348058
H -4.0896301284 4.4878710802 -0.8528528285
H -4.4803814738 4.6900562224 -3.2238784877
H -3.2424028497 2.5662148981 -4.3364704665
H -5.0086984809 2.6051794302 -4.4352507927
H -8.4181833148 0.3412776547 1.4367832571
H -7.9970775402 0.5846958932 -0.2376487254
H 1.3550439875 0.3613398155 -1.2449768460
H 1.3851576739 -1.2969269950 -1.8828474782
H 3.6561582409 -1.1594720331 -0.2898889527
H 3.3081192932 1.3987448388 -0.1892582750
H 3.8345889707 1.3893987505 -1.8832903403
H 6.2422054176 0.6280274199 -2.3169505495
H 7.0591627303 -0.2010217532 -0.9833239280
H 5.2587385359 -3.1285502290 -1.1880243568
H 5.8634466249 -2.7763655887 -3.5266315000
H 6.1550959155 -1.1160647477 -4.0129057101
H 8.3186142529 -1.0732503766 -2.7866454947
H 8.2774663276 -2.5081770053 -3.8107623964
H 7.9753448809 -2.6549297491 -2.0700548241
H 3.6110409596 -2.1949293672 -2.5605070154
H 3.9125305952 -0.5831586699 -3.2278368650
H 6.4521753843 0.2035233784 1.1203607310
H 5.3108085998 1.5127954386 1.4340697907
H 4.9372825197 -0.5395542016 2.7228743185
H 4.5328847147 -1.4496246162 1.2941747874
H -0.1011033168 0.5029664609 1.7434495513
H -0.1793668482 2.6166822844 3.6259614635
H 1.3236301276 3.8621215776 5.1651794785
H 3.7390085504 3.3561332351 5.2525695929
H 4.7269935722 1.6108013418 3.8175452335
H 3.7589752701 -4.4714812163 0.5555322331
H 3.7861342398 -4.2758673199 2.3396239931
H 2.3373994094 -4.9518995491 1.5127514960
