36
CONF1
C -2.3738570009 -2.2791875544 -1.1856189304
C -1.6223816795 -1.1299163188 -0.5630755277
C -2.3030510082 -0.0764126392 0.0911927189
C -3.7189522575 0.0630343358 0.0592734283
C -4.3631345676 1.0541907016 0.7524470433
C -3.6238194579 1.9660274535 1.5323807741
C -2.2572035149 1.8721918991 1.5845791223
C -1.5460110505 0.8761086299 0.8599413836
C -0.1272080287 0.8425360545 0.8659951147
C 0.5342107463 -0.0404698389 0.0010770860
C -0.2222264032 -1.1038479840 -0.6176993971
C 0.4991929142 -2.1818977417 -1.2365761600
C 1.8515981324 -2.2090169274 -1.2901155737
C 2.6265399018 -1.0876847321 -0.8595791948
C 1.9657541838 0.0334523281 -0.2863802824
C 2.7244212265 1.2095496508 -0.1240818278
C 4.0826808739 1.2420315830 -0.3875071373
C 4.7440519083 0.0962451414 -0.8404939794
C 4.0129242410 -1.0465551159 -1.0936248675
C 0.5965436225 1.6824935990 1.8906329018
H -3.4332565238 -2.2612375876 -0.9397204996
H -2.2827340359 -2.2794381014 -2.2781160359
H -1.9865748330 -3.2364226683 -0.8242123970
H -4.3091932734 -0.6124541082 -0.5466826821
H -5.4434100298 1.1413610610 0.6954490317
H -4.1354812593 2.7526162936 2.0775993227
H -1.7052729069 2.6038693520 2.1614456068
H -0.0574805874 -3.0094853150 -1.6571516699
H 2.3683816814 -3.0560001771 -1.7323567783
H 2.2341678960 2.1282378659 0.1658389771
H 4.6306782641 2.1695677743 -0.2565202274
H 5.8119235634 0.1189759981 -1.0315640285
H 4.4948844981 -1.9261482933 -1.5111851100
H 0.0584352998 1.6320155189 2.8413423380
H 0.6695886889 2.7427234709 1.6176090189
H 1.6052705756 1.3089462918 2.0654581388
