47
CONF52
C 3.5738863898 -3.4764022662 -3.1224535860
C 3.7442501155 -2.2434732713 -2.3299143922
C 2.8857828867 -1.4482239942 -1.6122485609
C 3.7246528082 -0.4171429769 -1.0886244307
N 4.9771878460 -0.5777373564 -1.4485597690
O 4.9851000628 -1.7304118904 -2.2525510354
C 3.3539417009 0.7006550571 -0.2034782704
C 2.9167660158 0.4346999577 1.0958788913
C 2.5106182050 1.4129571737 1.9815976979
C 2.5393373161 2.7353511466 1.5492894506
C 2.9630002303 3.0611678272 0.2649956820
C 3.3624938031 2.0454626601 -0.5955184944
Cl 3.8391803477 2.4636034501 -2.2267010851
F 2.8837471756 -0.8572520028 1.4875572725
C 1.4455640817 -1.6993496155 -1.4286280129
O 0.9650644130 -2.8287044034 -1.5367789952
N 0.6926937583 -0.5999741464 -1.1340672892
C -0.6771350658 -0.6889101365 -0.7392586411
C -1.0393865530 -0.4096346136 0.7631480909
N -1.7958776201 0.7635220110 0.3092753389
C -1.5652057234 0.5398382681 -1.0399307756
O -1.9434909371 1.1168694845 -2.0326035375
C -3.0317831095 1.0731241452 0.9891185069
C -3.7029675626 -0.3141077888 1.3114341590
S -2.2547340026 -1.4650245857 1.6563830203
C -4.4727451749 -0.7916473571 0.0804396244
C -4.6111349673 -0.2892240574 2.5358497940
C -2.7422696275 1.8921181168 2.2379060262
O -1.7221043235 1.8150516403 2.8859851855
O -3.7716756641 2.6989835209 2.5364345384
H 4.3760045400 -3.5669871584 -3.8575852968
H 3.6007119867 -4.3506104447 -2.4625942084
H 2.6039061953 -3.4676750823 -3.6222797302
H 2.1811599357 1.1397990554 2.9774433691
H 2.2242826197 3.5255593961 2.2219800468
H 2.9765167554 4.0912964077 -0.0698407537
H 1.1402323567 0.3043419064 -1.0812744498
H -1.1227563101 -1.6149760360 -1.1118537384
H -0.1855656614 -0.1894689601 1.4084404402
H -3.6893772560 1.6425443327 0.3251139166
H -3.8455448928 -0.8041510876 -0.8152748994
H -5.3255019300 -0.1267399366 -0.0980390204
H -4.8481063657 -1.8046419524 0.2464073889
H -4.0796980553 0.0262590069 3.4375690300
H -5.4467840918 0.3949055998 2.3567181226
H -5.0231871507 -1.2869550150 2.7101838179
H -3.5690499982 3.1713154685 3.3637087583
