37
CONF22
C -2.0039645971 -0.7273354512 -0.9049404418
Si -0.3117554340 -0.3603662527 -0.1980132237
C -0.1217468734 -1.3970185226 1.4015391068
N -1.3172530825 -1.3403103800 2.2346374228
C -2.2278884906 -2.3035142769 2.4657988005
N -3.2231287386 -1.8300263337 3.2138514831
C -2.8564263463 -0.5357790422 3.4090320457
N -1.7101070393 -0.1885349900 2.8301394905
C 1.0555695922 -0.9295099640 -1.3568515854
C 1.9987888084 -0.0414782559 -1.8932877443
C 2.9931029901 -0.4740574767 -2.7682960745
C 3.0275018446 -1.8168855120 -3.1003368696
F 3.9911582038 -2.2521009770 -3.9525729356
C 2.1207376757 -2.7384657210 -2.6028461211
C 1.1380118974 -2.2814377203 -1.7300668053
C -0.1036642337 1.4617559225 0.1883262493
C -1.0425461739 2.4108325914 -0.2390894007
C -0.8920057978 3.7660430245 0.0483527407
C 0.2193932007 4.1562505465 0.7743398443
F 0.3782566334 5.4741752033 1.0614870402
C 1.1783890287 3.2622482765 1.2221293297
C 1.0040042992 1.9147114249 0.9226356497
H -2.1085736435 -1.8036550710 -1.0817265785
H -2.1569511324 -0.2117145697 -1.8584896289
H -2.7947422678 -0.4167823765 -0.2128368078
H 0.0332057368 -2.4475991676 1.1339150502
H 0.7433657454 -1.0761185562 1.9926611523
H -2.1257657879 -3.3101201599 2.0817064185
H -3.4362665007 0.1707397064 3.9899164937
H 1.9634325689 1.0117184294 -1.6294381362
H 3.7241764817 0.2105412977 -3.1850654031
H 2.1871245001 -3.7814440157 -2.8937294465
H 0.4229969587 -3.0021149639 -1.3406559240
H -1.9149826367 2.0985613093 -0.8057680572
H -1.6168000691 4.5035309499 -0.2795115560
H 2.0323752287 3.6164690520 1.7895714108
H 1.7529786521 1.2087912289 1.2734828047
