65
CONF270
C 8.8898820712 -1.6650760842 5.4040540396
O 8.5218079723 -2.0772472775 4.0817697967
C 7.1994795760 -2.0047504806 3.7456513499
C 6.1885090386 -1.5565783823 4.5986576235
C 4.8696478847 -1.5328214742 4.1421674169
C 4.5275920711 -1.9477633659 2.8557862161
C 5.5590677138 -2.3907238026 2.0177209962
C 6.8770192426 -2.4227004456 2.4492021238
C 3.1078268830 -1.8678939114 2.3597738374
C 2.8511952461 -0.5258764569 1.6597794868
N 1.4593658849 -0.3494934517 1.2301576735
C 1.2173641784 1.0580966157 0.8821206974
C -0.2430954280 1.2941357937 0.5108805305
C -0.6435965249 0.3997579583 -0.6570328005
C -0.3218593240 -1.0578264426 -0.3232753437
C 1.1424768956 -1.2038119443 0.0766686673
N -2.0620312444 0.6044947648 -0.9680311666
C -2.5715982844 0.2001003323 -2.1615819364
N -1.8646943484 -0.0775032211 -3.2491600491
C -2.8125202173 -0.3468727947 -4.2249850473
C -2.6427079154 -0.6916357834 -5.5648669266
C -3.7837968675 -0.9018072175 -6.3407019607
C -5.0690609010 -0.7731555667 -5.7990220132
C -5.2597361644 -0.4319896361 -4.4569263777
C -4.1192603656 -0.2299010524 -3.6936814307
N -3.9394989056 0.1043377564 -2.3579752796
C -4.9734161568 0.4522999823 -1.3981754867
C -5.0684982789 1.9422190268 -1.1406168224
C -5.4292949206 2.4049771066 0.1255543883
C -5.5574137577 3.7682313067 0.3791224773
C -5.3104647329 4.6501248362 -0.6584776270
C -4.9437207586 4.2316055522 -1.9265549984
C -4.8254272049 2.8646773558 -2.1599315509
F -5.4252637904 5.9836612894 -0.4214490532
H 8.3957896586 -2.2846236772 6.1619451640
H 8.6421455155 -0.6101301012 5.5714707809
H 9.9698387474 -1.8018254327 5.4670560656
H 6.4065309206 -1.2312408471 5.6086158507
H 4.0902299510 -1.1829058588 4.8147024389
H 5.3230633874 -2.7223750729 1.0094933776
H 7.6703640941 -2.7736738934 1.7964013044
H 2.9186541351 -2.6980837241 1.6714824639
H 2.4085713551 -1.9650311350 3.1978107315
H 3.5545307229 -0.4189609531 0.8090139164
H 3.0875256187 0.2769483916 2.3696576665
H 1.8632803533 1.3747420456 0.0370227860
H 1.4830022922 1.6796945784 1.7445878673
H -0.8807110938 1.0702977350 1.3771333501
H -0.3903972765 2.3475729292 0.2482652977
H -0.0722853517 0.6971472248 -1.5446980765
H -0.9635368674 -1.3844944864 0.5055773894
H -0.5334093439 -1.6971318774 -1.1872737204
H 1.3435021305 -2.2478340434 0.3343282743
H 1.7904515633 -0.9488976986 -0.7878625579
H -2.6820129710 0.5361263794 -0.1716652924
H -1.6481158882 -0.7884763634 -5.9897294099
H -3.6735241718 -1.1685228030 -7.3873437350
H -5.9358397712 -0.9390852469 -6.4306974683
H -6.2577082601 -0.3295318980 -4.0426375790
H -5.9226147921 0.0758995565 -1.7946297765
H -4.8007828303 -0.0840655840 -0.4575365812
H -5.6085131554 1.6956404557 0.9286932115
H -5.8325457990 4.1403336944 1.3599981132
H -4.7553055078 4.9593494681 -2.7083895463
H -4.5344563340 2.5198485692 -3.1478708406
