47
CONF125
C -7.1586297994 -1.9373968326 2.0271514120
O -6.3983444883 -2.7786883304 1.1149185015
P -4.8657067732 -2.4419674397 0.8148246892
S -3.6308983542 -2.2782630595 2.2966283678
O -4.4606317141 -3.6048092857 -0.1972058350
C -5.2666375973 -3.8674176016 -1.3875508175
O -5.0601402064 -1.0916886068 -0.0857362800
C -3.9968591975 -0.2345212555 -0.3651036924
C -2.9438902938 -0.6538148523 -1.1727195370
C -1.9285781988 0.2431415477 -1.4758602298
C -1.9603370407 1.5396278369 -0.9538125116
C -3.0236476046 1.9429526975 -0.1453013935
C -4.0536612221 1.0533685218 0.1456959651
S -0.6923582450 2.7291582671 -1.3724092757
C 0.8107332870 1.8981010478 -0.8715632626
C 0.8514634949 0.9951492292 0.1938776974
C 2.0590904441 0.4188581408 0.5688486011
C 3.2179524893 0.7665513381 -0.1124944177
C 3.1984474089 1.6669672629 -1.1684674060
C 1.9853200958 2.2272754455 -1.5540216290
O 4.4190661054 0.1374613906 0.2418840673
P 5.4713110609 0.8510435124 1.2472880080
S 4.7967411085 1.4927898706 2.9456314788
O 6.0961458690 1.9470352230 0.2525714822
C 7.0348972686 2.9330051554 0.7660369976
O 6.5612061476 -0.3012160204 1.4243913156
C 7.2220169488 -0.8772978262 0.2559376462
H -8.1560568303 -2.3737015061 2.0666429884
H -7.2073961920 -0.9154234841 1.6421037616
H -6.6976473030 -1.9524996709 3.0181859954
H -5.4060439925 -2.9468413969 -1.9603925313
H -4.6959064933 -4.5897100559 -1.9700577289
H -6.2305948668 -4.2885857326 -1.0954568420
H -2.9272340879 -1.6628325910 -1.5712162095
H -1.1091414977 -0.0673468332 -2.1156480259
H -3.0442534349 2.9463387427 0.2664470147
H -4.8849656153 1.3464770613 0.7776243001
H -0.0539087613 0.7377597120 0.7326771120
H 2.1067899683 -0.2876644666 1.3901881626
H 4.1147789361 1.9098936217 -1.6941451072
H 1.9551893767 2.9157958296 -2.3925228130
H 7.9176988505 2.4361490705 1.1784563229
H 7.3143697239 3.5453609133 -0.0909151453
H 6.5511544447 3.5452548629 1.5311798527
H 6.4969470457 -1.4265163621 -0.3488137107
H 7.6974666741 -0.0905075074 -0.3348388390
H 7.9746819717 -1.5568053774 0.6541074755
