47
CONF99
C -5.2824969694 -2.5104070180 1.6735991278
O -4.6101522910 -2.2518631414 0.4001854532
P -4.9370419365 -0.9356995731 -0.4359281985
S -3.8852426792 -0.8107209512 -2.0596656410
O -6.5284904361 -0.9938848928 -0.5487875115
C -7.2453343270 0.0609474397 -1.2526186064
O -4.7827206430 0.3215006600 0.5940616553
C -3.5646707708 0.9726541099 0.7890078360
C -3.4739837268 2.3021740444 0.4056899138
C -2.2826371838 2.9887361932 0.6207840082
C -1.2048401730 2.3436174931 1.2292217218
C -1.3195813316 1.0078328557 1.6254489913
C -2.4998952462 0.3135506822 1.3956500156
S 0.2770608735 3.2868432267 1.5662563186
C 1.5746760658 2.2159884721 0.9587257105
C 1.4209918221 1.4437311955 -0.1957577626
C 2.4771033513 0.6694379069 -0.6600675593
C 3.6861146004 0.6903816580 0.0262513419
C 3.8599977368 1.4620602077 1.1657413520
C 2.7956106120 2.2226425017 1.6379348425
O 4.7837261312 -0.0320684870 -0.4460677495
P 4.8092831122 -1.6633246280 -0.4497761758
S 3.9498079510 -2.5117303713 1.0671004372
O 6.3696625940 -1.9056067655 -0.6876639702
C 7.3223361916 -1.5911646057 0.3679779208
O 4.1832605710 -2.1273337627 -1.8397637720
C 4.6793140314 -1.5725369800 -3.0992952322
H -4.7881621088 -3.3881632622 2.0878549935
H -6.3405149230 -2.7141687974 1.4982832720
H -5.1589871480 -1.6561226381 2.3440793861
H -8.2984503410 -0.2113200492 -1.1942754563
H -7.0741575616 1.0220022353 -0.7609550399
H -6.9198289051 0.0989796060 -2.2953892111
H -4.3201409392 2.7853562353 -0.0708561259
H -2.1921275571 4.0228810291 0.3054507992
H -0.4883125316 0.5080427907 2.1115817837
H -2.5984370118 -0.7232898265 1.6999111056
H 0.4803100663 1.4439909700 -0.7359370442
H 2.3657312583 0.0679337392 -1.5563095580
H 4.8124802550 1.4514709086 1.6847154150
H 2.9159113585 2.8136862645 2.5401356037
H 7.2759149908 -0.5260735421 0.6092870143
H 7.1090590215 -2.1956978045 1.2533220058
H 8.3017085333 -1.8444625158 -0.0361633163
H 5.6947854950 -1.9278189551 -3.2846132849
H 3.9993697011 -1.9425411410 -3.8655727878
H 4.6519893168 -0.4804424948 -3.0657480148
