32
CONF6
C -2.4587072774 -3.1849224085 1.1505545250
C -1.7417989525 -1.9821225552 0.6146535863
C -2.4145387005 -0.9642096670 -0.0581007353
C -1.6592097745 0.1168329085 -0.5167703797
N -0.3347126134 0.1775644520 -0.3193776699
C 0.2152054026 -0.8513124326 0.3383639800
N -0.4237449529 -1.9366000125 0.8192230050
N 1.5681693671 -0.8653902983 0.5819320924
C 2.5975653912 0.0287389568 0.2754635230
C 3.8853712407 -0.3354373726 0.7035879162
C 4.9749292626 0.4821310606 0.4493877717
C 4.8104030379 1.6826837941 -0.2373252286
C 3.5362515820 2.0432486943 -0.6610940116
C 2.4301128229 1.2360590120 -0.4155036213
C -2.2461177326 1.2605623505 -1.2433472428
C -3.6345174425 1.7603635700 -0.8945166521
C -3.4131181353 1.0528180619 -2.1889326230
H -2.0156320929 -4.0969238331 0.7397255617
H -2.3416219557 -3.2333109550 2.2377011784
H -3.5230889529 -3.1616085136 0.9082374877
H -3.4854279989 -1.0222498072 -0.2133111642
H 1.8470825639 -1.6945806622 1.0844615445
H 4.0264189045 -1.2700875475 1.2405181573
H 5.9589603518 0.1771744986 0.7911843012
H 5.6617183190 2.3240814112 -0.4373674873
H 3.3895840678 2.9756135520 -1.1978682218
H 1.4462665095 1.5277678802 -0.7499638636
H -1.5133721465 2.0081436411 -1.5261079933
H -4.1596694055 1.2364867283 -0.1028981228
H -3.7862649971 2.8339916641 -0.9112192889
H -3.4114801253 1.6354070833 -3.1035723832
H -3.7850155513 0.0390866504 -2.2928741447
