51
CONF18
C 5.7742681693 0.3072523664 1.9687097046
C 5.0811486224 -1.0198556326 2.1244076791
C 5.6888338439 -2.0866272402 2.6920560251
C 7.0828574192 -2.1199053117 3.2303838912
O 7.3229735311 -3.4368667199 3.7477525636
C 3.7217942813 -1.1566842964 1.6503104562
C 2.9821608068 -0.1779928900 1.0612701269
C 1.6407777086 -0.3868948934 0.6129040203
C 0.8080651305 0.5180607601 0.0097338170
C 1.2029786652 1.9387216703 -0.2792959279
C -0.5164892320 0.0818832648 -0.3669202362
C -1.4657338802 0.8553399287 -0.9483233878
C -2.8113951939 0.4255769242 -1.3245387441
C -3.0659302130 -0.7752528902 -1.9049197108
C -2.0089945682 -1.7314452324 -2.3857928415
C -4.4635847384 -1.2697631018 -2.1746249971
C -5.5387404670 -0.4767465751 -1.4469659049
C -5.2636052413 1.0063900685 -1.6404384907
C -3.9262351309 1.4422931676 -1.0161763095
C -3.5816140392 2.8267293306 -1.6000212181
C -4.0765330076 1.5842151910 0.5100776441
H 5.8241340916 0.5970122625 0.9129344254
H 5.2218657715 1.0965176613 2.4911636635
H 6.7912352374 0.2876338379 2.3628484634
H 5.1379087115 -3.0222080377 2.7775344006
H 7.8117738618 -1.8805739580 2.4385140866
H 7.2123726566 -1.3668969209 4.0251882819
H 8.2231434615 -3.4531699902 4.0937527910
H 3.2651389123 -2.1379719527 1.7841717945
H 3.4282754476 0.8031185496 0.9243508201
H 1.2421524192 -1.3897820078 0.7725475924
H 2.2228595757 2.1611555507 0.0328860876
H 1.1207434992 2.1521563156 -1.3512509837
H 0.5316448529 2.6370803755 0.2345133383
H -0.7551759512 -0.9553774618 -0.1373111337
H -1.2354129962 1.9074399302 -1.0964775248
H -1.8965185764 -2.5812469455 -1.6996159312
H -1.0309279093 -1.2606895515 -2.4996304354
H -2.3176913342 -2.1528025578 -3.3508640871
H -4.6442132151 -1.2416557565 -3.2612231628
H -4.5092836468 -2.3336042210 -1.9014575076
H -6.5313167261 -0.7409664087 -1.8281369617
H -5.5278014965 -0.7284935795 -0.3793579346
H -6.0655741952 1.6213595929 -1.2138110221
H -5.2358599452 1.2183000063 -2.7188761771
H -3.3221430750 2.7511650709 -2.6617213475
H -4.4556539810 3.4813607670 -1.5081153657
H -2.7552065213 3.3107603704 -1.0721150016
H -3.1274010301 1.8883169356 0.9639344945
H -4.8299778273 2.3443490606 0.7473851962
H -4.3800945390 0.6392841739 0.9717582544
