46
CONF25
C -2.6805203131 3.2902818286 -0.4393717648
C -2.4130922609 1.8375033756 -0.0865754741
C -2.3940560274 0.9423027792 -1.3271070218
O -1.6705698929 1.0134413097 -2.2925059593
N -3.3826741199 -0.0021722752 -1.1053712755
C -4.0881252414 0.2361457934 0.0813509127
O -5.0098206100 -0.3976034375 0.5214604186
O -3.5632391710 1.3308568317 0.6689822326
N -3.6587908521 -1.0783548949 -1.9218594368
C -2.6479524762 -2.0644055402 -2.0231519592
C -1.7420753549 -2.2990595750 -0.9856977701
C -0.8068532326 -3.3232593884 -1.1110188818
C -0.7692233011 -4.1215296266 -2.2512056312
C -1.6825481127 -3.8841105137 -3.2779232516
C -2.6160197283 -2.8602479999 -3.1726162163
C -1.1408438226 1.5965756716 0.7061639967
C 0.0718820136 2.0979453753 0.2218706145
C 1.2620156585 1.8494674355 0.8917161125
C 1.2421281800 1.0833944355 2.0562933412
C 0.0453103502 0.5797722255 2.5529485753
C -1.1418575868 0.8348491466 1.8756139592
O 2.3760373559 0.8508587984 2.8064719447
C 3.5862041481 0.6533158733 2.1568302053
C 3.6881267590 -0.1692904517 1.0372266814
C 4.9423072330 -0.3880481131 0.4749792378
C 6.0800777998 0.1981087481 1.0282428738
C 5.9592139532 1.0092538370 2.1545669271
C 4.7100451856 1.2446012208 2.7234638092
H -2.7410420895 3.8791574199 0.4788789737
H -1.8696497126 3.6771186361 -1.0591669219
H -3.6183325772 3.3729531390 -0.9949222559
H -4.0386527669 -0.7754005524 -2.8127828377
H -1.7588350934 -1.6960318456 -0.0832642691
H -0.1037689101 -3.4951963735 -0.3017318498
H -0.0375921589 -4.9174675938 -2.3404526981
H -1.6650093567 -4.4943468674 -4.1756561028
H -3.3206940221 -2.6725767227 -3.9779129095
H 0.0988173180 2.6874609177 -0.6878588588
H 2.1964436221 2.2485062616 0.5126288170
H 0.0494861438 -0.0103138514 3.4632108686
H -2.0678719747 0.4304740894 2.2666785566
H 2.8012260644 -0.6311857354 0.6157923335
H 5.0287958987 -1.0290415263 -0.3968796258
H 7.0545061836 0.0207954787 0.5852565602
H 6.8394980472 1.4684281108 2.5934084347
H 4.5975866550 1.8760744631 3.5985968884
