24
CONF220
C 1.6593025992 0.4980421893 1.6458330348
C 1.3051914446 1.0263141461 0.2620582755
C -0.1225976890 0.6837266283 -0.1862481479
C -0.4725125198 -0.8072982659 -0.0676980553
C -1.8528011196 -1.1430267759 -0.6907541073
C -2.9247421748 -0.2456085398 -0.1166986075
O -3.6126364671 0.4973377093 -0.7836114014
O -1.8049502572 -1.1379671713 -2.1036860336
O 0.5171045266 -1.6511575002 -0.6657289977
O -0.3295620649 1.1746125814 -1.5216814987
O 2.2674170161 0.5841422559 -0.7110433562
O 2.9243083236 1.0049005407 2.0772736771
H 0.9161374968 0.8354049948 2.3765047383
H 1.6676910469 -0.6025690612 1.6408549528
H 1.3941675653 2.1194387526 0.2750158295
H -0.8187908938 1.2373653221 0.4590849627
H -0.5090157255 -1.0644013518 0.9977578417
H -2.1017049306 -2.1688628191 -0.3808045880
H -3.0429443400 -0.3132767183 0.9857748421
H -1.5663994688 -0.2309142971 -2.3628706070
H 0.2937351881 -1.7144153140 -1.6086913730
H 0.5052443341 1.0357894724 -1.9976545956
H 2.1414542743 -0.3767327602 -0.7950704753
H 3.5669033171 0.7591556910 1.3977766851
