26
CONF346
C -2.9774768565 0.5026383198 0.1791755969
C -1.6131437425 0.2217156536 0.7999342765
C -0.5664606416 -0.1308914170 -0.2617382495
C 0.7816494635 -0.5549297936 0.3530875159
C 1.8243839904 -0.9167587887 -0.7112714630
C 3.2289928442 -1.0943164371 -0.1222138843
O 3.8952745950 0.1452194297 0.1112550793
O 1.3904264137 -2.1620974572 -1.2966980038
O 1.3558447957 0.5023834729 1.1267336458
O -1.1361486084 -1.1876185001 -1.0341960146
O -1.1463362592 1.4048230479 1.4910682699
O -3.9267673328 0.8930548342 1.1788158412
H -2.8774889321 1.2801847077 -0.5920507443
H -3.3638981560 -0.4062469240 -0.2864746653
H -1.6996836780 -0.6116471489 1.5127022582
H -0.3906117129 0.7634157353 -0.8873352321
H 0.6132275868 -1.4465575158 0.9831803951
H 1.8571458334 -0.1220338461 -1.4727109032
H 3.8362050640 -1.6445077160 -0.8498168989
H 3.1675659069 -1.7005920110 0.7957220528
H 1.8956076959 -2.3024420051 -2.1084010798
H 0.6163049464 1.0024927620 1.5217616032
H -0.3954600776 -1.6972891626 -1.4100109069
H -1.5921855609 1.4403407430 2.3472458351
H 3.3042681262 0.6548357123 0.6854082447
H -3.7650187814 1.8197704917 1.3931407529
