29
CONF34
C 0.4318988460 0.8493050832 -2.9302140627
C 0.0670035060 1.7658292796 -1.7902476570
O -0.7224313341 0.9803013440 -0.8282066498
P -0.7326428024 1.2465690079 0.7408245690
S 0.0014696416 2.8920503011 1.4358030332
O -2.2343504187 0.9862977257 1.1826766656
C -3.0026739661 -0.1664536490 0.6695898306
C -4.2835944185 -0.2310717007 1.4617037472
O -0.0681756528 -0.1507818841 1.3622050783
C 1.1880410339 -0.5658260245 1.0835175983
N 1.9443935796 0.1393693608 0.2623137716
C 3.1686997402 -0.2612515257 -0.0209326770
C 3.7200960027 -1.4212705236 0.5208660568
C 2.9339095467 -2.1736463852 1.3899325541
C 1.6499090116 -1.7468892732 1.6796285602
Cl 0.6315516506 -2.6574062303 2.7518574540
Cl 5.3320282027 -1.9453088957 0.1455964859
Cl 4.0800139066 0.7391766589 -1.1238480035
H 1.0557820219 0.0238140241 -2.5762034277
H -0.4621146518 0.4434889292 -3.4114427046
H 0.9980646822 1.4185834095 -3.6738715897
H -0.5649590303 2.5976583738 -2.1136615078
H 0.9525811101 2.1558710998 -1.2841639383
H -2.3994291342 -1.0703303621 0.7980313006
H -3.1854610031 0.0034085151 -0.3949413127
H -4.8599535707 0.6904391399 1.3445845353
H -4.8860564198 -1.0664872832 1.0924341897
H -4.0778723054 -0.3931687229 2.5229854115
H 3.3242725167 -3.0822701046 1.8332851877
