41
CONF25
C -4.6812482942 0.3899216664 -2.1089050733
C -4.1778921772 1.5042691696 -1.1946834127
N -3.5554623138 0.9872361471 0.0309740655
C -4.4460804132 0.8399534433 1.1792311823
C -4.4325835626 2.0893340650 2.0683249057
O -5.3108752587 1.9360224101 3.1830400546
C -2.2411179537 0.6511622151 0.0912619663
C -1.4123679468 0.7122321780 -1.0705128267
C -0.0829079865 0.3823791800 -1.0167424007
C 0.5124370716 -0.0347092491 0.1968876458
C -0.3023100113 -0.1064140161 1.3452156710
C -1.6355528181 0.2236865513 1.3055081757
N 1.8331761396 -0.3847725796 0.3662819485
N 2.5757757230 -0.3014418743 -0.6700540195
C 3.9050140556 -0.6804456469 -0.4560647250
C 4.4200389979 -1.1931434424 0.7529068714
C 5.7521650124 -1.5403394280 0.8461111661
C 6.5816746437 -1.3786433722 -0.2678972037
C 6.0967260583 -0.8761721973 -1.4756038901
C 4.7613537824 -0.5324016969 -1.5624398061
N 7.9846837627 -1.7459501638 -0.1653151760
O 8.7015318439 -1.5993188360 -1.1581550682
O 8.3963487293 -2.1876721094 0.9099419309
H -3.8590716425 -0.2509586547 -2.4399002874
H -5.1604539095 0.8230331604 -2.9919259815
H -5.4161264591 -0.2326032583 -1.5893827045
H -5.0131052937 2.1400643809 -0.8846604753
H -3.4713032342 2.1555955129 -1.7165103461
H -4.1807385675 -0.0437578382 1.7669270679
H -5.4608045823 0.6772417011 0.7983158843
H -3.4308849294 2.2457214177 2.4806422283
H -4.6940070787 2.9733096101 1.4694227573
H -6.2180848821 1.9632336034 2.8540790994
H -1.8336019977 1.0071985677 -2.0227016427
H 0.5196899087 0.4327523387 -1.9162025738
H 0.1508911381 -0.4238600874 2.2795297155
H -2.2113527649 0.1692835020 2.2200605631
H 3.7649869855 -1.3158464836 1.6062796789
H 6.1596293862 -1.9367897314 1.7678360056
H 6.7595720157 -0.7613422313 -2.3236636513
H 4.3522398390 -0.1398894251 -2.4874578222
