27
CONF123
C 2.8312872325 -0.1288010426 0.2115430039
C 4.1511874894 -0.5153886285 0.8796733544
C 4.9680855690 0.6852263482 1.3375921870
O 5.4299703410 1.5037130808 0.2482537054
C 2.0260503627 -1.3799299060 -0.1454418834
C 0.7904119096 -1.1407338351 -0.9775693172
C -0.2832233245 -0.2084005978 -0.3339651295
C -1.7155456123 -0.3203467047 -0.9528813352
C -2.6556291325 0.8844759494 -0.6196323761
F -3.9103492031 0.5674660552 -0.9723917429
F -2.2912359785 1.9807617918 -1.2945538492
F -2.6331520520 1.1506676573 0.6945685518
F -2.3119016297 -1.4396568582 -0.4833285526
F -1.6296975994 -0.4004748155 -2.3019632082
F 0.1308798265 1.0813853100 -0.4500875235
F -0.3820480573 -0.5057774920 0.9870822202
F 0.1709923042 -2.3440617415 -1.2317679879
F 1.1171767077 -0.5998260855 -2.1939527830
H 2.2592042400 0.5113708353 0.8932068834
H 3.0252609156 0.4508568152 -0.6983945256
H 3.9445318629 -1.1373037732 1.7612876409
H 4.7539525623 -1.1220355156 0.1917783143
H 5.8714164149 0.3409494264 1.8509973285
H 4.3862236126 1.2917894617 2.0473446830
H 4.6759687167 1.9976822180 -0.0948641334
H 1.7232189691 -1.9179068295 0.7581855905
H 2.6386437559 -2.0644645676 -0.7451111711
