38
CONF7
C -1.6969922268 3.5356683354 0.4885128669
N -0.4751762989 2.7363839149 0.4981441899
C -0.4627416861 1.4401165568 0.8504940791
C 0.5376425469 0.4961217011 0.7034441688
C 0.0092821009 -0.7471641142 1.1986258573
O 0.5071804784 -1.8586393297 1.2597473186
C -1.4224221210 -0.4233127095 1.7031343401
O -1.5965543924 0.9898069118 1.4244132577
C -2.4761092030 -1.2512920934 1.0316103094
C -3.2710233261 -0.7503373860 0.0019897248
C -4.1943058060 -1.5774006853 -0.6310191894
C -4.3226253703 -2.9083663809 -0.2482350618
C -3.5225850896 -3.4115504774 0.7744312192
C -2.6046873089 -2.5884582131 1.4147944624
C 1.8613387877 0.6933472294 0.1268740029
C 2.4492459823 -0.3340763627 -0.6274379063
C 3.7052815006 -0.1545467550 -1.1904540028
C 4.4112661858 1.0361351406 -1.0174544219
C 3.8436465408 2.0489226847 -0.2557874922
C 2.5887667493 1.8786771256 0.3184873106
C 4.3445813067 -1.2746923828 -1.9617386856
F 3.4368686759 -2.1331439375 -2.4741670057
F 5.0895233852 -0.8124029954 -2.9972683637
F 5.1811743231 -2.0037806069 -1.1789131974
H -2.3935503608 3.2209865417 -0.2991747071
H -2.2021990919 3.4533892791 1.4525156281
H -1.4241995428 4.5798848807 0.3255058918
H 0.2825422293 3.0208975159 -0.1036306441
H -1.4526482351 -0.5494296683 2.7917263004
H -3.1740061753 0.2868959751 -0.2983098057
H -4.8144499322 -1.1781782787 -1.4273645585
H -5.0425565048 -3.5514313259 -0.7438248877
H -3.6138804596 -4.4499142710 1.0762016968
H -1.9719693635 -2.9837410771 2.2027236683
H 1.9136312560 -1.2652749514 -0.7625307856
H 5.3894893772 1.1622831760 -1.4670752317
H 4.3905375722 2.9718837804 -0.0925358459
H 2.1926827823 2.6557333479 0.9661344949
