47
CONF32
C -1.8276840346 -1.2902530036 2.4391803526
C -2.2318421892 -0.5424267481 1.1887116113
C -3.2883149923 0.5338079158 1.2588951086
C -1.8131356279 0.9277832471 1.1341071066
C -1.3688570513 1.5536439756 -0.1189586478
O -1.9235615288 1.5285357133 -1.1959842547
O -0.1807886289 2.2072469913 0.0857462298
C 0.3697281687 2.8372570979 -1.0961360160
C 1.3165790574 3.8348362633 -0.5941982987
N 2.0829280522 4.6206038888 -0.2357276024
C 1.0610981337 1.8475015158 -2.0097019045
C 1.9231180415 0.8988589531 -1.4619921171
C 2.5716719405 -0.0047517998 -2.2951602114
C 2.3564005564 0.0774395117 -3.6727895056
C 1.5113095639 1.0199748526 -4.2253396736
C 0.8500290215 1.9103717989 -3.3841536549
F 2.9954195162 -0.7986865831 -4.4747657853
O 3.4673757179 -0.9405909918 -1.8500090946
C 3.2244083962 -1.5349841844 -0.6129140820
C 4.2733315441 -1.5806175545 0.2951826514
C 4.0818144009 -2.2351090193 1.5105077713
C 2.8566026103 -2.8273782896 1.8072164922
C 1.8174376285 -2.7723865545 0.8788345361
C 1.9948025964 -2.1264014444 -0.3404745566
C -3.9981396863 0.8660348033 2.4955063617
C -5.2885696404 1.1928128776 2.5759901989
Cl -6.3623666580 1.2807780033 1.2069103711
Cl -6.0588976654 1.5717073841 4.0950446609
C -2.1903550616 -1.3873975430 -0.0630099339
H -0.8346665673 -1.7290277339 2.2977331999
H -2.5353992222 -2.1045241057 2.6295194293
H -1.7891773776 -0.6501660032 3.3226286711
H -3.8471051199 0.6653962708 0.3374506855
H -1.3235543935 1.2992912150 2.0278152509
H -0.4243344533 3.3590806644 -1.6433005197
H 2.0910767293 0.8539763414 -0.3906240305
H 1.3650077450 1.0385940631 -5.2997744226
H 0.1693046177 2.6447599519 -3.8012753841
H 5.2188924239 -1.1101885363 0.0472990467
H 4.8952548289 -2.2757636518 2.2278987324
H 2.7120896208 -3.3344242802 2.7554312721
H 0.8650442581 -3.2452840530 1.0971471768
H 1.1977015645 -2.0856500686 -1.0758546174
H -3.4455101028 0.8531454702 3.4299720137
H -2.8481953932 -2.2530395617 0.0678379950
H -1.1736432123 -1.7581295163 -0.2338989271
H -2.5143278260 -0.8362574748 -0.9468935670
