45
CONF102
C -4.8128917311 -0.9881542906 0.8306205381
C -3.8990427901 -1.1751781068 -0.3372657905
C -3.3288318565 -0.1791245008 -1.0244054788
C -2.4516450019 -0.4094357972 -2.1817047933
C -1.1354796998 0.3909511975 -2.3931825609
C -2.3262665735 0.5440031743 -3.3357178486
C -3.1296265144 1.8234955342 -3.3682612374
C -2.1232306310 -0.0715642664 -4.7044372214
C -0.7335860755 1.4193078083 -1.4257345627
O -1.4451322341 2.2160287676 -0.8467095519
O 0.6226249374 1.3551140675 -1.2386695351
C 1.1967479047 2.2432240773 -0.2466913548
C 1.9290651756 1.4113776830 0.7624048979
C 1.2330618643 0.5719165107 1.6276053492
C 1.8856271987 -0.2177699097 2.5598660819
C 3.2711840936 -0.1989271084 2.6881564454
C 3.9669904645 0.6307006123 1.8173204115
C 3.3141926454 1.4167166870 0.8767685401
F 4.0536973245 2.1961404726 0.0680055002
F 5.3090852605 0.6820072730 1.8743764316
C 3.9785521331 -1.0703507980 3.6824076536
O 4.2255461733 -2.3320211926 3.0592990022
C 4.8859323186 -3.2237348065 3.9596917781
F 1.1529135401 -1.0098449313 3.3611952299
F -0.1088010675 0.5220434639 1.5541410389
H -4.9560198382 0.0718092578 1.0594096747
H -4.4138985672 -1.4848945316 1.7235802516
H -5.7950161864 -1.4371957911 0.6379796232
H -3.6956532231 -2.2047477361 -0.6362931588
H -3.5203842154 0.8479565783 -0.7260919693
H -2.3237400184 -1.4600149864 -2.4353115737
H -0.3077104857 -0.1963327006 -2.7751154287
H -2.6365294086 2.5549096890 -4.0179653196
H -3.2544027586 2.2732124449 -2.3848347875
H -4.1197420189 1.6137052268 -3.7880010785
H -1.5929139752 0.6254126957 -5.3628866255
H -3.0944789529 -0.2972466258 -5.1588610653
H -1.5470846447 -0.9994412306 -4.6467671092
H 1.8797367599 2.9183865257 -0.7635043358
H 0.4001529789 2.8192930015 0.2303218349
H 3.3534588007 -1.2011321065 4.5769581247
H 4.9240188838 -0.6004207836 3.9867958794
H 5.0436007085 -4.1601776433 3.4211713963
H 5.8567109634 -2.8167893354 4.2770970136
H 4.2692091441 -3.4132138713 4.8499068007
