47
CONF42
C -5.0587948605 -0.2532938851 0.0188178735
Si -3.5385991344 0.4342036945 0.8703096426
C -2.9051361421 -0.7815025024 2.1487216934
C -3.9161156550 2.0872155160 1.6599377138
O -2.3691595899 0.7050318546 -0.2803098889
Si -1.1244783932 -0.1231827862 -0.9711805702
C -1.7381697780 -1.7188149485 -1.7126734122
C -0.3490419098 1.0051578503 -2.2356676915
O -0.0246881172 -0.5278535913 0.1928206164
Si 1.1192638683 0.2477403328 1.0969860057
C 0.4386689544 1.8451151512 1.7733855227
C 1.6436687735 -0.9381502939 2.4351595145
O 2.4030646110 0.6347583654 0.1399148605
Si 3.5471904807 -0.1776306555 -0.7532216744
C 2.8148195825 -1.7623510270 -1.4363662289
C 5.0055368660 -0.5648718740 0.3570117710
C 4.0633908632 0.9634001205 -2.1423384979
H -5.4179476417 0.4335444948 -0.7557854440
H -4.8407774995 -1.2167553485 -0.4557544785
H -5.8718277876 -0.4078053797 0.7374377165
H -2.6426910998 -1.7405947533 1.6880633763
H -2.0118836053 -0.3933107452 2.6501142757
H -3.6693948609 -0.9701861269 2.9115083875
H -4.7083718237 1.9901409142 2.4107403533
H -4.2490056856 2.8117580257 0.9084186438
H -3.0277111400 2.4947168917 2.1552980853
H -2.1700923308 -2.3657811769 -0.9408995263
H -0.9184239110 -2.2655042275 -2.1917021355
H -2.5085664453 -1.5280038547 -2.4675692454
H -1.0764203842 1.2808399290 -3.0070663196
H 0.4997943244 0.5171158855 -2.7265394120
H 0.0146424610 1.9266207545 -1.7672854900
H -0.4277607472 1.6589191506 2.4169537550
H 0.1197318932 2.5077878206 0.9609737006
H 1.1959584008 2.3716009074 2.3644775703
H 2.0210400576 -1.8705162554 2.0002304607
H 2.4377381532 -0.5047670799 3.0526734453
H 0.8000216107 -1.1872891968 3.0882639278
H 3.5587490044 -2.3034934926 -2.0324243441
H 2.4813879238 -2.4251033301 -0.6297680733
H 1.9518358144 -1.5525553494 -2.0779313441
H 5.8064163343 -1.0536317842 -0.2095834392
H 5.4142425538 0.3504567617 0.7995848590
H 4.7120305298 -1.2352785546 1.1726322066
H 4.4680921488 1.9021289282 -1.7479668584
H 4.8365064431 0.4955052426 -2.7621401319
H 3.2112671017 1.2044690140 -2.7876511608
