53
CONF223
C -1.0601336298 5.0229928243 -0.8319662415
C 0.2594797685 4.3595884343 -0.5145429031
O -0.0291770118 2.9793604919 -0.1632617902
C 1.0380595535 2.2044115430 0.1477704642
O 2.1863537279 2.6396727551 0.1332085345
C 0.6352316972 0.8526411824 0.5101872439
C 1.5794082347 -0.0489033676 0.9020735944
N 1.2017902387 -1.2628532916 1.3972957720
C -0.0965919259 -1.6346022756 1.6443999577
C -1.1105677948 -0.8069318898 1.2594546279
C -0.8430273687 0.4838640410 0.4927274068
C -1.4299015623 0.4482320010 -0.9232276822
C -2.4378293547 1.3651472634 -1.2514937432
C -3.0288369958 1.4034851824 -2.5061827114
C -2.6197988527 0.5057098175 -3.4902254405
C -1.6249628794 -0.4197318952 -3.2035409027
C -1.0494001154 -0.4361638624 -1.9342647517
Cl 0.2049152722 -1.6497664766 -1.6614790993
C -2.4930659142 -1.1509591875 1.5769336362
O -2.9075307090 -2.2224322740 2.0030327950
O -3.3284596038 -0.1050050246 1.3395113468
C -4.7277275247 -0.3536732938 1.5865595195
C -0.2300771944 -2.9497916251 2.3481917533
C 3.0867546124 0.1613621190 0.8987306660
O 3.7917111291 -1.0518899024 1.1359813020
C 4.0018343333 -1.8129500541 -0.0689088155
C 4.6316226368 -3.1432320822 0.3042046472
N 3.8061853764 -4.0256779713 1.1410044209
H -1.7302875196 4.9947461201 0.0321908355
H -1.5523439453 4.5298542404 -1.6752119711
H -0.8832078404 6.0692400118 -1.0977400453
H 0.7655326739 4.8391313137 0.3298925035
H 0.9377849590 4.3686591307 -1.3738722408
H 1.9534071739 -1.8720338625 1.6974713590
H -1.3891657585 1.2887310019 0.9937246349
H -2.7531218998 2.0666159449 -0.4856337175
H -3.8055924659 2.1316072646 -2.7168962660
H -3.0697862814 0.5207568632 -4.4776394053
H -1.2927747776 -1.1276860626 -3.9547508199
H -4.8967116144 -0.5839624190 2.6418434177
H -5.2377994655 0.5698439537 1.3127298964
H -5.0831975654 -1.1834625088 0.9699672584
H 0.7529665031 -3.3259438294 2.6429530166
H -0.8594191125 -2.8556608694 3.2346756927
H -0.7101309103 -3.6851181503 1.6967190990
H 3.3978188982 0.6182485342 -0.0456488535
H 3.3528732368 0.8547142635 1.7038303173
H 3.0415578398 -1.9783521954 -0.5830088577
H 4.6627269846 -1.2484406552 -0.7440138840
H 4.8760755199 -3.6631094289 -0.6305858348
H 5.5793279921 -2.9577124313 0.8243533753
H 2.8893735408 -4.1371978236 0.7156018961
H 3.6478355956 -3.5853699787 2.0420630967
