37
CONF25
C -4.5054471766 0.8201741682 -2.4204555924
C -4.7909865685 -0.4915830107 -2.0586190241
C -4.2211203682 -1.0358262253 -0.9120662598
C -3.3754450358 -0.2646144847 -0.1171706352
C -3.0931672357 1.0630086129 -0.4695547562
C -3.6561560859 1.5904573623 -1.6315761560
C -2.2624994495 1.9648143525 0.4054600534
O -2.6698273666 2.3293078606 1.5107854238
N -1.0934821713 2.3608302756 -0.1374479735
C -0.1065129349 3.1124882044 0.6321070703
C 0.5968005019 2.2428179861 1.6727469848
C 1.3638341142 1.0877524306 1.0949403181
C 1.8839113686 0.0680420975 1.9057022735
C 2.5809639685 -0.9954820538 1.3577297408
C 2.7531798026 -1.0098311589 -0.0204144252
C 2.2258249768 0.0328694350 -0.7759848310
N 1.5524991810 1.0456245117 -0.2315352687
C 3.4760171540 -2.1276726304 -0.7099317260
F 4.0556934250 -2.9818327301 0.1594823025
F 2.6377282004 -2.8594967467 -1.4893755852
F 4.4510511444 -1.6610639841 -1.5295589546
Cl 1.6649683211 0.1247896705 3.6412171191
C -2.7704471845 -0.8844402828 1.1131694215
F -3.4585342842 -0.5776494964 2.2419876706
F -2.7421576086 -2.2359797704 1.0376703320
F -1.4871743851 -0.4825505828 1.3149989174
H -4.9421810077 1.2473384103 -3.3172481105
H -5.4502534900 -1.0982286477 -2.6700603422
H -4.4284565904 -2.0646167782 -0.6411146359
H -0.6161694805 3.9309846532 1.1475405564
H 0.6096631519 3.5419356324 -0.0713409653
H -0.1423792389 1.8615403897 2.3857331957
H 2.9766125543 -1.7832708280 1.9875717729
H 2.3498238758 0.0523552179 -1.8568798662
H -3.4347652039 2.6165317992 -1.9081037200
H 1.2844916274 2.8663017082 2.2605105845
H -0.7716247730 1.8910307477 -0.9712822208
