32
CONF9
C 2.6685168648 -0.1078080292 1.4459919723
C 2.3539573693 -1.0924591032 0.5259883465
C 1.7830863927 -0.7675042617 -0.7101281097
C 1.5680017894 0.5896542128 -1.0168473485
C 1.8935198878 1.5912656314 -0.1186052395
C 2.4286784771 1.2190056519 1.1077140779
N 2.7548900619 2.2761443530 2.0756768467
O 3.2092293427 1.9340821963 3.1624056599
O 2.5528430151 3.4403895893 1.7454390480
Cl 0.8533156262 1.0371754175 -2.5464760315
N 1.4255683343 -1.8038024750 -1.5988890295
S 0.0217722968 -2.7255257346 -1.1670427074
O 0.2628270912 -3.2495004638 0.1791094300
O -0.2203949688 -3.6066020094 -2.3108222062
C -1.2710001765 -1.4917465353 -1.0761973356
C -1.3192552552 -0.6792273094 0.0502470232
C -2.1991284308 0.3979177110 0.0768050901
C -3.0392410499 0.6140832030 -1.0237055445
C -3.0043707455 -0.2288069404 -2.1309815332
C -2.1011725127 -1.2808572927 -2.1705410240
Cl -4.1620042935 1.9458428475 -1.0550880791
C -2.1917076919 1.3154067293 1.2741810776
F -3.3977616558 1.3761506850 1.8832890565
F -1.3012507765 0.9094917600 2.2040581432
F -1.8499292944 2.5801615051 0.9295091571
H 3.1055231813 -0.3607951856 2.4029923344
H 2.5450244438 -2.1342989604 0.7514660060
H 1.7167791087 2.6324665823 -0.3545758518
H 1.3058808874 -1.4861597506 -2.5611501346
H -0.6752227132 -0.8728290059 0.8991022587
H -3.6714693894 -0.0487070419 -2.9656145042
H -2.0455050152 -1.9226074521 -3.0424667616
