44
CONF28
C -1.0638247055 -1.9694288419 1.4157672983
C -0.9962513460 -0.4771906364 1.0986909594
C -1.9657959577 -0.1839979444 -0.0486294279
O -1.6646738748 -0.2099893398 -1.2245836277
O -3.1953177393 0.0281094949 0.4308859870
C -4.2897350154 0.1879670594 -0.5473109980
C -4.7495529678 -1.1868886327 -0.9930320503
C -5.3634447665 0.9793085791 0.1683056853
N 0.3550254594 -0.0081393002 0.7376771549
C 1.3393167205 -0.9246021767 0.2474206617
C 1.5711508670 -1.0321473716 -1.1230655706
C 2.5407448972 -1.9070626903 -1.5975896194
C 3.2536911086 -2.6782007641 -0.6965980791
C 3.0234917002 -2.5838268049 0.6730543076
C 2.0671404532 -1.6985560948 1.1497333146
Cl 3.9518899717 -3.5651801200 1.7768908975
F 4.1855150542 -3.5339745788 -1.1554176932
C 0.4617488280 1.3428983360 0.5154196577
O -0.5208771998 2.0827206392 0.6191221329
C 1.8048894929 1.9000027350 0.1758413569
C 2.9438968438 1.5953459895 0.9264519939
C 4.1593600305 2.1983264322 0.6195448564
C 4.2482287469 3.0911404584 -0.4470088070
C 3.1121040289 3.3996264607 -1.1933600867
C 1.8898727596 2.8181281198 -0.8741122786
H -0.7655547538 -2.5781416679 0.5581466662
H -0.4272773973 -2.2153365753 2.2682152439
H -2.0957158555 -2.2168264475 1.6772773067
H -1.3249831785 0.0943487571 1.9711824577
H -3.8865126083 0.7543382522 -1.3920149072
H -5.1226771890 -1.7573131007 -0.1364238718
H -3.9345217978 -1.7412774965 -1.4652965228
H -5.5613169446 -1.0810094473 -1.7190452789
H -6.2015981583 1.1469528366 -0.5140400042
H -4.9815008025 1.9501367917 0.4951473742
H -5.7307038743 0.4278614382 1.0394350727
H 0.9921014102 -0.4293343509 -1.8125467571
H 2.7447879412 -2.0059317781 -2.6582386550
H 1.9058296615 -1.5974578085 2.2166771404
H 2.8769859532 0.9037479600 1.7592765774
H 5.0382605843 1.9702406686 1.2141513209
H 5.2004226601 3.5511616168 -0.6919263615
H 3.1777517793 4.0975404389 -2.0220329975
H 0.9976302860 3.0619116035 -1.4420418295
