27
CONF597
C 3.0998174387 -1.2439527367 0.0822591410
C 4.3223833366 -0.3453783917 -0.1196168029
C 4.4938064476 0.6935818101 0.9742244943
O 5.7406962937 1.3713725802 0.7426503081
C 1.7838336485 -0.4571306302 0.0315107062
C 0.5832930253 -1.3665680110 0.0075740486
C -0.8122913402 -0.6715531068 0.1037417187
C -1.0831023750 0.4520958768 -0.9442106927
C -2.5851138980 0.8624564229 -1.0862516768
F -3.1293667725 1.0899996714 0.1172155312
F -3.2840496241 -0.0930917173 -1.7093809300
F -2.6593691307 1.9865684238 -1.8135079848
F -0.6577238897 0.0545422518 -2.1669164457
F -0.3897287440 1.5577643194 -0.5814176830
F -0.9290842106 -0.1233624592 1.3401138231
F -1.7758353352 -1.6215804443 -0.0317408944
F 0.6089884327 -2.2371463414 1.0732432308
F 0.5693049281 -2.1457487596 -1.1211075128
H 3.0939859854 -2.0065626154 -0.7030045318
H 3.1789637073 -1.7662553710 1.0417757414
H 5.2197658150 -0.9750128023 -0.1405262767
H 4.2576304488 0.1593044397 -1.0920149425
H 4.5003054333 0.2009467422 1.9589569020
H 3.6661045179 1.4170305565 0.9604823327
H 5.8309308287 2.0576391656 1.4145584067
H 1.7555680665 0.1653584807 -0.8695209273
H 1.6819671957 0.2059191857 0.8965188561
