45
CONF13
C 1.8486577535 -3.0319732621 2.1619508460
N 1.6953495101 -1.7815727024 2.9038577536
C 2.2735307352 -1.9230633716 4.2390750476
C 2.3318952633 -0.6600668707 2.2037746852
C 1.6863117311 -0.3210529214 0.8624628633
C 0.1846483072 -0.0834892102 0.9989887076
N -0.4203911352 0.2995960155 -0.2810121700
C 0.1383456004 1.4289084790 -0.9429574805
C 0.5397932103 2.5631981947 -0.2315645696
C 1.1120164486 3.6430527552 -0.8963137199
C 1.2802445330 3.6022344072 -2.2778890979
C 0.8805851027 2.4714177298 -2.9847907359
C 0.3221855718 1.3731961938 -2.3310540162
C -0.1268530855 0.1471486633 -3.0614436304
C -1.6545837344 0.0607487530 -3.0953016011
C -2.3731445662 -0.0984246985 -1.7681283307
C -3.7358775186 -0.4036940008 -1.8522636699
C -4.5360778457 -0.6109431021 -0.7366277368
C -3.9613314296 -0.5021341806 0.5242168656
C -2.6154624478 -0.1854490095 0.6441866060
C -1.7947879538 0.0138608247 -0.4820038205
H 1.3963844416 -3.8505004330 2.7309821519
H 2.9111470450 -3.2864808291 1.9760524982
H 1.3371799498 -2.9749451653 1.1964533231
H 2.1313068962 -0.9970043406 4.8061108322
H 1.7725406676 -2.7350233570 4.7764411425
H 3.3585379773 -2.1468215464 4.2123690546
H 2.2593631549 0.2174451340 2.8603928245
H 3.4131942615 -0.8514272508 2.0433965752
H 2.1833082704 0.5752256113 0.4761634460
H 1.8603723042 -1.1122655021 0.1237762273
H -0.2863991862 -1.0175080133 1.3148192616
H -0.0041664213 0.6472997683 1.8051899074
H 0.4020636230 2.6037320724 0.8440179567
H 1.4176474419 4.5197188725 -0.3335816503
H 1.7246504843 4.4429601880 -2.8008887728
H 1.0196847866 2.4277456903 -4.0619625105
H 0.2474934671 0.1685622700 -4.0896176866
H 0.2811202188 -0.7459051500 -2.5725075114
H -1.9509106780 -0.7806606562 -3.7337197468
H -2.0353256533 0.9648199064 -3.5901195853
H -4.1730086911 -0.4974061623 -2.8439090179
H -5.5867817028 -0.8555594095 -0.8522704662
H -4.5576973364 -0.6471857234 1.4197707319
H -2.1967596575 -0.0703140572 1.6363387267
