45
CONF10
C -4.7491020282 2.4439321875 -2.0025585662
C -5.0777672436 1.1134706258 -1.3891784245
C -4.1982607154 0.3223710569 -0.7536577266
C -2.7632695034 0.5922875276 -0.5468594244
C -1.8093656432 -0.5828620583 -0.3674829929
C -2.0740992112 0.3995651002 0.7827442233
C -0.9973928977 1.3839239291 1.1775999264
C -2.8442522804 -0.1578931678 1.9581990512
C -0.5069040842 -0.5685648230 -1.0449488821
O 0.0022852613 0.3626544511 -1.6355894391
O 0.1174997506 -1.7755183125 -0.8898186985
C 1.4646971211 -1.8718135866 -1.3898865107
N 2.3789517630 -1.0895954805 -0.5966669855
C 3.0939395280 0.0085921960 -1.0416307580
O 3.1272070824 0.4450780246 -2.1728937887
C 3.8455186229 0.5336876563 0.1667570370
N 3.5651669421 -0.4624382883 1.1870701043
C 2.6368956857 -1.3689100580 0.7681309948
O 2.1185183473 -2.2688680197 1.4061116829
C 3.8281162611 -0.2325782802 2.6016121762
C 2.9174094572 0.7535014521 3.1794296692
C 2.1523504800 1.5723541749 3.6224955257
C -6.5164631547 0.7017939126 -1.5345185286
H -5.3879824593 3.2231302577 -1.5685510488
H -4.9665821611 2.4293110679 -3.0780207390
H -3.7091648081 2.7428696979 -1.8650433233
H -4.5699167382 -0.6176712723 -0.3494846334
H -2.3308625852 1.3939006310 -1.1384046119
H -2.2445768650 -1.5675842751 -0.2297951290
H -1.4451513746 2.2010376228 1.7540001594
H -0.2477292338 0.8971113292 1.8131239369
H -0.4906927928 1.8128708309 0.3108417623
H -3.3831351955 0.6504264493 2.4656860614
H -2.1530903983 -0.6077949532 2.6791415407
H -3.5686992329 -0.9177309905 1.6593978236
H 1.7074205777 -2.9325145042 -1.3148564622
H 1.5297047217 -1.5170848894 -2.4212290899
H 4.9155316535 0.6212473763 -0.0515759502
H 3.4537010927 1.5254717046 0.4346870762
H 3.7290032781 -1.1895251903 3.1241929410
H 4.8661487650 0.0989337399 2.7160795739
H 1.4751982830 2.2938908676 4.0202893176
H -6.7981161219 0.6523586661 -2.5942195987
H -7.1793454005 1.4435702492 -1.0712010472
H -6.7102405624 -0.2721398002 -1.0777403015
