47
CONF67
C -6.2724951675 1.8254265113 -1.7720222815
O -5.5447220322 0.7151680790 -1.1716222172
P -5.9148106644 0.2166329352 0.3002464957
S -6.1138301568 1.5682221888 1.6825932318
O -7.1691315585 -0.7296122138 0.0098053329
C -7.8985861958 -1.3335243720 1.1161779069
O -4.7518286889 -0.8859648408 0.5467939474
C -3.5291690663 -0.5454177323 1.1362204653
C -3.2762036359 -0.9948578699 2.4236411358
C -2.0397439011 -0.7298279954 3.0023369232
C -1.0794400942 0.0026785089 2.2987957615
C -1.3574544130 0.4601687312 1.0082137307
C -2.5824835633 0.1738398999 0.4173393158
S 0.4501872477 0.3850238750 3.1436619915
C 1.6383508201 0.4647280143 1.8094733607
C 1.7893624038 -0.5960344455 0.9113705629
C 2.7520343549 -0.5313627573 -0.0869831649
C 3.5808859271 0.5842337996 -0.1535576685
C 3.4572315904 1.6376207123 0.7394992782
C 2.4689527943 1.5824335684 1.7180806560
O 4.5361365407 0.7045128092 -1.1641285439
P 5.7733283572 -0.3346264900 -1.3201547369
S 6.5359630109 -0.9978625538 0.3392006318
O 6.7324396587 0.4892665414 -2.2961337574
C 7.6080949422 1.5229463642 -1.7614648768
O 5.1395391786 -1.4022208778 -2.3249864650
C 5.8694826284 -2.6201281372 -2.6533415658
H -6.1642412275 2.7198985621 -1.1537568047
H -7.3275062841 1.5637891490 -1.8873992863
H -5.8133038077 1.9803753392 -2.7476619046
H -8.3186385680 -0.5536139431 1.7560087388
H -8.6948147820 -1.9180253638 0.6565678499
H -7.2352123927 -1.9850120503 1.6915163059
H -4.0332986961 -1.5586349425 2.9580522276
H -1.8249966011 -1.0953730622 4.0014755563
H -0.6208594893 1.0348998625 0.4573681813
H -2.8030824290 0.5135295794 -0.5889620347
H 1.1492295112 -1.4690569474 0.9843290964
H 2.8663847479 -1.3425354498 -0.7980046424
H 4.1168580114 2.4947380320 0.6579065908
H 2.3479800947 2.4101326509 2.4087931835
H 8.3045797724 1.0861947902 -1.0417207332
H 8.1479109515 1.9203783474 -2.6202344328
H 7.0141858700 2.3109569412 -1.2904826920
H 6.8118755882 -2.3714673487 -3.1481347322
H 6.0536488265 -3.1996554154 -1.7455390510
H 5.2212094914 -3.1729807770 -3.3321308706
