41
CONF7
C -5.4392564713 1.9699182887 0.1690328131
C -4.2345944329 1.0827022799 0.2233623838
C -4.0188367988 0.0683376143 -0.7120068943
C -2.8826735804 -0.7209170086 -0.5675956254
N -2.0293866997 -0.5101963964 0.4428044702
C -2.3031065636 0.5038817560 1.2663184572
N -3.3692004158 1.3130566828 1.2166099574
N -1.4114751302 0.7898159821 2.2893946342
C -0.1387536930 0.2782055870 2.5829290973
O 0.5618084990 0.8254711388 3.4129299354
N 0.2008377281 -0.8636877351 1.8835700538
S 1.7950398811 -1.4633291133 1.8830653371
O 1.7767748695 -2.4992643401 0.8457053194
O 2.1943375662 -1.7602341979 3.2528760563
C 2.8029104328 -0.0914777041 1.2915413764
C 3.5329208453 0.6268008511 2.2294069180
C 4.3974488683 1.6267452196 1.7965779752
C 4.5418100249 1.8820770594 0.4374639460
C 3.8141490155 1.1506066775 -0.4955245276
C 2.9200862392 0.1651303932 -0.0781288883
C 2.0658853947 -0.5094642060 -1.1054313220
O 0.8566512445 -0.4496453920 -1.1339419868
O 2.8204255337 -1.1205283324 -2.0329291597
C 2.0722858916 -1.8038225609 -3.0638771036
C -2.5315917986 -1.8315224537 -1.5041339994
H -5.1284082968 3.0178878704 0.1266776264
H -6.0682885975 1.7440855409 -0.6938452516
H -6.0285528912 1.8480090389 1.0832847099
H -4.7161456383 -0.1010557186 -1.5238452424
H -1.6461088000 1.6022018906 2.8418558283
H -0.3773118061 -1.0839992109 1.0559659262
H 3.4171588899 0.3923119075 3.2805472623
H 4.9643316200 2.1971350687 2.5243327935
H 5.2267091604 2.6520371466 0.0980001494
H 3.9270158003 1.3454619634 -1.5566028352
H 1.4442333993 -2.5761880335 -2.6124936846
H 2.8215649979 -2.2482622637 -3.7177889381
H 1.4461209315 -1.0955854886 -3.6127732591
H -2.5172241841 -2.7834230895 -0.9631012224
H -1.5205178954 -1.6674396314 -1.8908357849
H -3.2390730235 -1.9018375783 -2.3322388030
