52
CONF77
C -3.5082360729 -4.4093553758 0.0382815742
C -3.0140390682 -3.1643775460 -0.6410769815
C -2.0163544542 -2.3802597291 -0.2041252059
C -1.2180449518 -2.5882435964 1.0128244986
C -0.6448527485 -1.4084202122 1.8308403630
C 0.2703631306 -2.3624162570 1.0664529016
C 1.0134108385 -1.8966544047 -0.1634195749
C 1.0737402642 -3.3073459155 1.9341517149
C -0.8389305440 -0.0083384645 1.4136008622
O -0.9235192669 0.4186761242 0.2794909126
O -0.9084451216 0.7923467851 2.5142582834
C -1.0047246889 2.2220856998 2.2439279784
C 0.3481547191 2.7969607683 1.9316669471
C 0.7144650940 3.0400595847 0.6095212178
C 1.9926201622 3.5138032845 0.3283011588
C 2.9005536315 3.7726719464 1.3505014287
C 2.5210735780 3.5459874263 2.6691608980
C 1.2545436630 3.0534936020 2.9633829913
O 2.4010860505 3.8141788028 -0.9543125388
C 1.9946839835 3.0176043720 -2.0089229547
C 1.8438591149 1.6373757403 -1.8951422991
C 1.4994424811 0.9018324221 -3.0239111580
C 1.3166989346 1.5277768703 -4.2540181916
C 1.4803465460 2.9069780334 -4.3520749288
C 1.8154248075 3.6580159148 -3.2313029471
C -3.7434648785 -2.8293328572 -1.9121977569
H -4.5723645274 -4.3100109793 0.2873110490
H -3.4282709893 -5.2677607195 -0.6406054719
H -2.9691325901 -4.6575439666 0.9534601335
H -1.7706175148 -1.5032694434 -0.7937541674
H -1.5647475198 -3.3843471585 1.6648090975
H -0.6593105460 -1.5409882680 2.9072634813
H 1.2194895275 -2.7567692040 -0.8103523011
H 1.9738307306 -1.4547375239 0.1258257775
H 0.4563578876 -1.1547779579 -0.7343405887
H 0.5024362945 -3.6394329258 2.8060672745
H 1.3627096412 -4.1942550949 1.3588065634
H 1.9891643918 -2.8214539441 2.2900732672
H -1.7076873888 2.3866433147 1.4233933141
H -1.4074581346 2.6369611437 3.1705158692
H 0.0164406827 2.8316921786 -0.1929212791
H 3.8859380992 4.1489233886 1.0988714147
H 3.2242059108 3.7507534389 3.4700568765
H 0.9662726406 2.8627726185 3.9926359908
H 1.9812083076 1.1476865845 -0.9379030013
H 1.3789732761 -0.1733879171 -2.9369892633
H 1.0487628914 0.9451517450 -5.1286678540
H 1.3404812385 3.4061188352 -5.3055981833
H 1.9448913695 4.7333078026 -3.2861181889
H -3.6540774286 -3.6451127636 -2.6411696600
H -3.3609657948 -1.9139029031 -2.3696160731
H -4.8163837699 -2.6973625001 -1.7216487919
