39
CONF4
C -1.1402470401 4.1847449403 0.3822224542
C -0.9122305711 2.7193109417 0.1156028231
O -0.3650488164 2.3539774656 -0.9135384235
C -1.4199978532 1.7629512404 1.1633979403
C -1.2412904726 0.2630807942 0.8925998350
C -1.9788126225 -0.2873752434 -0.3208908108
C -1.8156153070 -1.6369355878 -0.6534148227
C -2.5244948383 -2.2084979487 -1.7007445596
C -3.4220288237 -1.4425050326 -2.4407094120
C -3.6018715553 -0.1041437954 -2.1157411178
C -2.8873428012 0.4663141786 -1.0644896763
C 0.2083974344 -0.1768019422 1.0095066888
C 1.0943097206 -0.3340963606 -0.0298559614
C 2.3910439674 -0.9274387587 0.1992443866
C 3.3087126605 -1.1896054407 -0.8291811734
C 4.5286379836 -1.7758836115 -0.5417858973
C 4.8563392039 -2.0998325442 0.7787988376
C 3.9693686120 -1.8388006436 1.8114637936
C 2.7407021723 -1.2554650814 1.5139776389
O 1.9065000398 -0.9980504675 2.5570160378
C 0.6342823358 -0.4567435537 2.3640913022
O -0.0254947112 -0.2563877119 3.3630759063
O 0.8413018580 0.0042690202 -1.2937042387
H -0.5483289697 4.7898996515 -0.3047559178
H -0.9106363126 4.4407394085 1.4205859459
H -2.2031966774 4.4074081782 0.2265878306
H -0.9109562721 2.0010010221 2.1075437721
H -2.4755913043 2.0060760057 1.3535168880
H -1.7180145599 -0.2114092043 1.7609685756
H -1.1162830575 -2.2414417594 -0.0829415853
H -2.3762336579 -3.2566304186 -1.9405381744
H -3.9751564823 -1.8863362426 -3.2618858913
H -4.2981534752 0.5058355605 -2.6824937294
H -3.0472680141 1.5151861841 -0.8394608864
H 3.0388914070 -0.9262525794 -1.8448727056
H 5.2323890392 -1.9810700490 -1.3408987956
H 5.8146804611 -2.5569469248 1.0024823630
H 4.2038047938 -2.0740329170 2.8433184321
H 0.1449332046 0.7018892325 -1.2998371567
