43
CONF21
C -0.9434771542 0.2743045933 3.5843771598
Si -1.9649711874 -0.2876510723 2.1344666525
C -1.8445835649 -2.1110232440 1.7914777768
O -3.5810304775 0.0052417088 2.3856156855
O -1.4304045804 0.5933928189 0.8271834139
Si -1.6744595584 0.5627461290 -0.8197766670
C -1.3292099029 2.2769463014 -1.4550287355
C -3.3980204046 -0.0137868217 -1.2120012623
O -0.6124159244 -0.5249849880 -1.4574248166
Si 0.9342404673 -0.5572942480 -2.0444739587
C 1.5196022299 -2.3204625881 -1.9351507045
C 0.9540376066 0.0994060793 -3.7853090071
O 1.8939939274 0.4333034683 -1.1392540188
Si 2.3168703968 0.7491000511 0.4283408136
C 2.4013875077 -0.8534999834 1.3807227961
C 3.9283183869 1.6732272036 0.4145424365
O 1.2097420170 1.7825244179 1.1096271633
H -1.2713658060 -0.2245914018 4.5024044252
H -1.0363976960 1.3565611392 3.7308418474
H 0.1165411378 0.0437177300 3.4312997243
H -2.5094343205 -2.4078464747 0.9734831855
H -0.8217943999 -2.3863016189 1.5137509118
H -2.1225499444 -2.6877845891 2.6802983121
H -3.8199477206 0.8879396176 2.6917833056
H -0.2989404173 2.5794870534 -1.2389371324
H -1.4788821964 2.3215012940 -2.5392667776
H -2.0037944240 3.0030177026 -0.9882604955
H -4.1417275027 0.6524171036 -0.7622232883
H -3.5784633272 -1.0279474225 -0.8411792372
H -3.5540581113 -0.0171141384 -2.2964804743
H 1.4488924347 -2.6928845850 -0.9077780969
H 0.9090716978 -2.9675317845 -2.5745535056
H 2.5620640598 -2.4070188333 -2.2598765348
H 1.9655119245 0.0625438580 -4.2042684475
H 0.2959733920 -0.4919924915 -4.4309213343
H 0.6128906332 1.1400804365 -3.8106171936
H 1.4322909031 -1.3650558815 1.3748191858
H 3.1413831151 -1.5314166228 0.9411125504
H 2.6803066991 -0.6695862452 2.4239588501
H 4.7189565769 1.0653282424 -0.0377538974
H 3.8384344174 2.6001097646 -0.1624303751
H 4.2390042739 1.9323966112 1.4322142900
H 0.2964147105 1.4504818953 1.1506449772
