32
CONF11
C 2.4508778173 1.1725207103 -1.7080101535
C 2.1964934527 -0.1877102695 -1.7050613874
C 1.7999345957 -0.8437792933 -0.5340109780
C 1.6975603450 -0.0970688938 0.6551037641
C 1.9666988935 1.2604209729 0.6780639975
C 2.3283757991 1.8741190161 -0.5142561554
N 2.5912443193 3.3203297596 -0.5019243361
O 2.4938305432 3.9131030949 0.5678003018
O 2.8910809660 3.8547895522 -1.5644950504
Cl 1.1962393594 -0.8757731262 2.1360545953
N 1.4978857635 -2.2214755906 -0.5838876800
S 0.0015947336 -2.6465046076 -1.3459345054
O -0.1435919778 -4.0857696199 -1.1197272761
O 0.0408817803 -2.0726176378 -2.6927948271
C -1.2240488972 -1.7637909225 -0.3857888381
C -1.3657512246 -0.3984700329 -0.6038408751
C -2.1925181331 0.3434480068 0.2332134876
C -2.8891561274 -0.3151465735 1.2552280689
C -2.7618253874 -1.6887111019 1.4421598702
C -1.9092088935 -2.4207498191 0.6288204940
Cl -3.9453518012 0.5548984845 2.3337232808
C -2.2899716322 1.8345813978 0.0260282528
F -3.5538704082 2.2310294518 -0.2490101346
F -1.8815337047 2.5198467705 1.1203458543
F -1.5164784230 2.2436071428 -1.0020563476
H 2.7528230641 1.6789613778 -2.6153036869
H 2.3010276193 -0.7663064635 -2.6144721231
H 1.8771401573 1.8321823756 1.5924623123
H 1.5252387258 -2.6763043335 0.3289354423
H -0.8355909704 0.0900002126 -1.4118727763
H -3.3180468521 -2.1779349742 2.2329992194
H -1.7819833014 -3.4857245480 0.7863522983
