48
CONF17
C -3.2891778399 0.5702436770 -3.1062964257
O -4.1563784228 0.9126900077 -2.0153003759
C -3.8013774817 0.4792411473 -0.7761041634
C -4.6919343885 0.8563107698 0.2595754027
C -4.4454364618 0.4694331765 1.5478494519
C -3.3010732399 -0.3024545606 1.8742734026
N -3.1247504634 -0.6510677293 3.1792529588
C -2.0588484203 -1.3703790563 3.4781856333
C -1.1037850078 -1.7752964202 2.5293416773
C -1.2419129933 -1.4273506901 1.2023784518
C -0.1512177893 -1.8317036193 0.2340680513
O -0.6565898472 -2.4899343212 -0.9390952626
C 0.6763571286 -0.6407423513 -0.2721434226
C 1.8194979765 -1.0901273689 -1.2179644668
C 3.0297457063 -0.1808116723 -0.9550283016
C 3.5840791885 -0.5236285427 0.4335485729
C 2.4000610633 -0.4857300735 1.4368099473
N 1.2101544739 0.1678290603 0.8448344538
C 1.6355952134 1.4661622981 0.2898314044
C 2.5346365102 1.2873125820 -0.9781886717
C 3.6362077495 2.2937346980 -1.0137210743
C 3.7986863451 3.2135052355 -1.9659181661
C -2.3940627459 -0.6728912190 0.8290131374
C -2.6783386085 -0.2738760374 -0.5020062799
H -3.2296415704 -0.5171250825 -3.2312578361
H -3.7376114201 1.0197621429 -3.9922979641
H -2.2844391821 0.9798816249 -2.9489020503
H -5.5665217584 1.4468214173 0.0054825802
H -5.1225523478 0.7450785593 2.3501655382
H -1.9314382834 -1.6501840382 4.5233253957
H -0.2449660129 -2.3554690278 2.8542421491
H 0.5200840600 -2.5203652728 0.7679710610
H -1.1255785962 -3.2826792936 -0.6484918882
H -0.0063613036 0.0193470655 -0.8199420741
H 1.4989681223 -1.0280693101 -2.2625876196
H 2.0964640400 -2.1336144183 -1.0192959751
H 3.7937700428 -0.3284624161 -1.7251757130
H 4.3665320150 0.1853773887 0.7236109058
H 4.0409303301 -1.5190384539 0.4141225329
H 2.6699402315 0.0690961013 2.3422717738
H 2.1206696946 -1.4958055896 1.7523057202
H 2.1886645597 1.9978706956 1.0739731532
H 0.7508089153 2.0641411563 0.0414543157
H 1.9214450385 1.4198599459 -1.8791003653
H 4.3388933503 2.2685900472 -0.1789954822
H 4.6151529183 3.9289617828 -1.9308756402
H 3.1154218520 3.2778489434 -2.8102766414
H -2.0187738435 -0.5922934610 -1.2944818881
