49
CONF87
C -4.3385182548 -0.9652532335 -1.0308295598
C -4.0964722154 -1.1894906908 0.4470704196
C -3.0154991411 -0.3765090775 1.1874512802
C -2.8591958127 -1.8927939443 0.9193182552
C -2.9030925547 -2.7729502459 2.1534662972
C -1.8236511286 -2.3766516886 -0.0734371778
C -2.1710135512 0.6178114208 0.5300215251
O -1.7756806513 0.6548675572 -0.6169372117
O -1.8306696638 1.6014481907 1.4412517704
C -0.9214028970 2.5993460299 0.9250355474
C -1.0543329211 3.7489753858 1.8207802496
N -1.1254312562 4.6721584342 2.5109229935
C 0.5102042060 2.1025973347 0.8930512080
C 1.2413929460 2.2084573319 -0.2844374915
C 2.5540453531 1.7444614862 -0.3133430273
C 3.1372775176 1.1775030455 0.8181586735
C 2.3866600186 1.0738026743 1.9861569340
C 1.0758640101 1.5357374036 2.0355167915
O 3.2431460641 1.9373095140 -1.4912145165
C 4.2381016053 1.0351856899 -1.8451343331
C 4.0052618524 -0.3377811207 -1.8334672426
C 5.0116361032 -1.1942631111 -2.2693320576
C 6.2293203938 -0.6853771010 -2.7195224983
C 6.4393464312 0.6915440811 -2.7334665717
C 5.4443615874 1.5609090677 -2.2921276924
C -5.4022862900 -1.3597851183 1.2007947529
H -4.8591235813 -1.8380554020 -1.4414758878
H -3.4288561713 -0.8014061194 -1.6040504382
H -4.9873803596 -0.0938056549 -1.1712206972
H -3.2546756722 -0.1242939431 2.2151930548
H -1.8960017237 -2.8711444132 2.5723500403
H -3.5553236175 -2.3834512248 2.9358928613
H -3.2529998418 -3.7757152282 1.8814509512
H -1.7164504883 -1.7296963639 -0.9417014199
H -2.0996568292 -3.3799586931 -0.4178817319
H -0.8463954212 -2.4486186339 0.4165987139
H -1.2335893444 2.9081601482 -0.0794045572
H 0.8033150666 2.6346389188 -1.1811921426
H 4.1621766356 0.8246965204 0.7877330250
H 2.8389619989 0.6364181696 2.8702760889
H 0.4970359411 1.4548822311 2.9500069417
H 3.0514042127 -0.7256854149 -1.4908458472
H 4.8370029414 -2.2656305226 -2.2651164873
H 7.0081029316 -1.3593182735 -3.0606994215
H 7.3835668231 1.0959419541 -3.0843579885
H 5.5914379570 2.6358519841 -2.2923000345
H -5.8984331232 -2.2829517332 0.8793248380
H -5.2729537572 -1.3993389623 2.2828932305
H -6.0705353384 -0.5227776166 0.9724491009
