44
CONF51
C -5.0410253437 0.6954180651 2.6671692957
C -3.5514251344 0.4951880604 2.4742423649
C -3.1716134009 -0.9071595193 1.9887331765
O -3.1816311929 -0.7608114007 0.5591765785
C -2.6138489640 0.5132718439 0.3328287985
O -3.0857543176 1.3424333402 1.3857854646
C -3.1249298515 1.0983438526 -0.9932449134
N -4.5711253919 1.1799198071 -1.0371517375
C -5.3675400638 2.1595953681 -0.5644092665
N -6.6435719214 1.8416475760 -0.7421775162
C -6.5644182829 0.6176336278 -1.3382679136
N -5.3306725221 0.1727624989 -1.5374531743
C -1.0804977286 0.4622986655 0.3405704082
C -0.3238555589 -0.4297961214 -0.4265916089
C 1.0654928044 -0.4551826766 -0.3886854535
C 1.7302659733 0.4403401337 0.4441181604
C 1.0170428253 1.3533512249 1.2145462802
C -0.3673021485 1.3543911082 1.1482492928
O 3.1012647018 0.5168428479 0.5066454049
C 3.8581488032 -0.5942445577 0.1627395932
C 3.6727025468 -1.8141801408 0.8067859055
C 4.4996729705 -2.8853387098 0.4896723587
C 5.5014918585 -2.7082608540 -0.4591088742
C 5.6970875273 -1.4894709509 -1.0964965005
C 4.8608354408 -0.4221505432 -0.7824375415
Cl 6.5496404264 -4.0638611149 -0.8592434751
Cl -1.0783984796 -1.5969309569 -1.5119698467
H -5.5897453568 0.3450259220 1.7867777267
H -5.3797835118 0.1324195408 3.5428856140
H -5.2687082345 1.7532081348 2.8262512665
H -2.9940630917 0.7709835524 3.3766348897
H -2.1720829070 -1.2023108396 2.3350667250
H -3.9033261067 -1.6718855592 2.2546813344
H -2.7137073596 2.1065837220 -1.0921389358
H -2.7861444664 0.4929264210 -1.8346209958
H -4.9782935028 3.0639932268 -0.1166191059
H -7.4312676276 0.0428965433 -1.6393823362
H 1.6138929830 -1.1582462608 -1.0037003919
H 1.5487236470 2.0482972022 1.8549215653
H -0.9295681159 2.0573177905 1.7512449919
H 2.8907445668 -1.9277804318 1.5503037834
H 4.3699208363 -3.8417530636 0.9829560429
H 6.4845362237 -1.3709308527 -1.8318096281
H 4.9861822686 0.5404435313 -1.2660927317
