41
CONF10
C 2.8496020021 3.5868256753 0.7784753793
C 2.8383617639 2.1109089356 0.5255178187
C 2.8029134299 1.1952488281 1.5718864383
C 2.7770163102 -0.1745949186 1.3617733085
C 2.7919061454 -0.7136863939 0.0795010665
C 2.8453789465 0.1971871161 -0.9698645998
C 2.8618238514 1.5667399677 -0.7533865790
F 2.8935185146 2.3816728393 -1.8266155605
F 2.8668088699 -0.2545810133 -2.2380751578
C 2.7068181780 -2.1894890916 -0.1831348797
O 1.5207022465 -2.5045186760 -0.9638721341
C 0.3339311749 -2.3292417548 -0.3247447565
O 0.2550229503 -2.0471481155 0.8557872499
C -0.7771142583 -2.4740380468 -1.2781967111
C -1.9698639175 -1.4937158376 -1.1377024019
C -2.1727217416 -2.9545148231 -0.8902988739
C -2.8913196992 -3.7287729986 -1.9755343102
C -2.4513805348 -3.4648666323 0.5040783491
C -1.9781976041 -0.5001250046 -0.0542843817
C -1.4952164228 0.7360133299 -0.1746408108
C -1.5365132012 1.7641137841 0.9159330493
F -2.1355206567 1.2863584717 2.0244539096
F -2.2111602454 2.8789817583 0.5401688495
F -0.2917119045 2.1703362952 1.2742496872
Cl -0.7014291375 1.3026148218 -1.6244035113
F 2.7362579267 -0.9847274645 2.4341760818
F 2.7755611000 1.6521070108 2.8403195749
H 2.1468342640 3.8416213957 1.5751034157
H 3.8461901247 3.9119757959 1.0962273868
H 2.5795522944 4.1362614468 -0.1234934978
H 2.7005855392 -2.7498481780 0.7525382810
H 3.5338367422 -2.5238689913 -0.8113794830
H -2.2874219553 -1.1061316488 -2.1035416351
H -2.5843889627 -4.7796204377 -1.9584013804
H -3.9727539692 -3.6845343637 -1.8077509007
H -2.6786980008 -3.3204456547 -2.9674985066
H -1.9023558220 -2.9237752432 1.2739525028
H -3.5242487362 -3.3830673493 0.7097130680
H -2.1746713384 -4.5221800588 0.5690986026
H -2.4171925716 -0.7656812627 0.9023303297
H -0.4691530492 -2.6734033723 -2.2986609835
