45
CONF32
O -0.6010928061 -0.7886173661 -2.9068170592
C -1.9065647288 -1.2770295228 -2.6371742331
C -2.4543735740 -0.8895055233 -1.2803244339
O -1.6807192287 -1.5535568864 -0.2328076300
C -1.5560480663 -0.7165599986 0.9008118058
C -1.9238329376 -1.4832865468 2.1623853853
O -0.9910735257 -2.5243902976 2.4513708763
O -0.2094988388 -0.2240273964 1.0689967228
C 0.8561346513 -0.9033109994 0.4290348447
O 1.1912048526 -0.2905027787 -0.8058627824
C 1.6049200680 1.0967891473 -0.6932508013
C 1.7854131578 1.6339658462 -2.1025062791
O 0.5479932457 1.8771648374 -2.7553599364
C 2.8642567945 1.1636408439 0.1669273189
O 3.2321413587 2.5318779880 0.2950142651
C 2.5680169126 0.5442167101 1.5258427012
O 3.7771451792 0.5807975155 2.2817597911
C 2.0699210001 -0.8858851002 1.3552190969
O 1.8220430868 -1.4780866500 2.6222873562
C -2.4545177679 0.5039044254 0.6247054373
O -2.0881740808 1.6752812690 1.3125916362
C -2.4136986647 0.5840457692 -0.9058090897
O -3.5255553213 1.2409883378 -1.4856427172
H -0.0378601836 -0.9254008713 -2.1244943753
H -2.5732518185 -0.8567204058 -3.3981208641
H -1.9365962493 -2.3742323123 -2.7264543705
H -3.4977981811 -1.2378996961 -1.2214945930
H -2.9445839283 -1.8768742877 2.0603002685
H -1.8932024581 -0.7917625290 3.0098318189
H -1.0819239457 -3.2013960093 1.7694587708
H 0.5707703595 -1.9280621248 0.1757164810
H 0.8090734333 1.6800106236 -0.2082918109
H 2.4233592099 0.9408155849 -2.6735467623
H 2.3023426797 2.5949254666 -2.0304280849
H 0.1447961420 1.0255624894 -2.9929704043
H 3.6694630501 0.5852211329 -0.3193080591
H 3.8900660885 2.5743971896 1.0007814967
H 1.7888771039 1.1431374333 2.0254716490
H 3.5972171563 0.1335455584 3.1186225393
H 2.8606319082 -1.4644170088 0.8541300072
H 0.8757958946 -1.6848585730 2.6938479445
H -3.4857112393 0.2719017503 0.9241768384
H -1.1247151446 1.7457585119 1.2576027655
H -1.4646154119 1.0395659652 -1.2282894691
H -3.4061742375 2.1888685783 -1.3579338551
