48
CONF10
C 3.1452972564 0.8970027142 0.0386699009
C 2.7589716840 0.1110388796 -1.2432001629
C 2.5402852148 -1.3363353743 -0.7356062616
C 2.8287499805 -1.2398564001 0.7876562059
C 1.5790827541 -0.9062261741 1.6094520602
C 0.9035934956 0.4016790095 1.1685449890
C 1.9305049726 1.4683870806 0.7787550250
O 0.0429563230 0.1918772248 0.0235971646
C -1.2314876628 -0.3466475129 0.3528123489
C -2.1035137298 0.6796194944 1.0637396829
C -2.2303739596 1.9688989315 0.5406569577
C -3.0380930369 2.9076785062 1.1735954542
C -3.7335447402 2.5653426055 2.3343294234
C -3.6106666452 1.2819934359 2.8596396531
C -2.7946223295 0.3442226329 2.2271765005
C -1.8964441318 -0.8116897602 -0.9275357546
C -1.5070544557 -0.3225336648 -2.1752396099
C -2.1679786751 -0.7397453574 -3.3299546850
C -3.2221583124 -1.6459580340 -3.2497435682
C -3.6133316633 -2.1376930180 -2.0047000968
C -2.9537886290 -1.7223685351 -0.8522339829
N 3.7725608200 -0.1056131020 0.9331809795
C 5.1265995124 -0.4612191908 0.4937663536
H 3.8558280738 1.7053347657 -0.1670896229
H 3.5736008467 0.1510234773 -1.9722929290
H 1.8679629299 0.5283477430 -1.7169060328
H 1.5282050320 -1.6987790303 -0.9296727789
H 3.2408705916 -2.0286846605 -1.2116253792
H 3.2868576479 -2.1539016203 1.1818728730
H 1.8742351162 -0.8067725749 2.6608953909
H 0.8603500613 -1.7317722586 1.5543531468
H 0.2835774579 0.7878729766 1.9907055983
H 2.2892033737 1.9519997445 1.6945833203
H 1.4323963760 2.2325740072 0.1717238505
H -1.1246831215 -1.2183698516 1.0165258512
H -1.6887993958 2.2334888979 -0.3631867410
H -3.1290568029 3.9083471059 0.7617232554
H -4.3647269193 3.2984077070 2.8271269587
H -4.1427717144 1.0111439818 3.7666094488
H -2.6909354530 -0.6548339039 2.6429013103
H -0.6835249684 0.3794392013 -2.2425794108
H -1.8545280864 -0.3550329249 -4.2959740243
H -3.7339167582 -1.9708030150 -4.1503753387
H -4.4298168311 -2.8497995723 -1.9321628525
H -3.2607508623 -2.1081242588 0.1168217381
H 5.5272472306 -1.2376002705 1.1544311502
H 5.1839004090 -0.8344024319 -0.5427198648
H 5.7737318356 0.4190423688 0.5721394021
