26
CONF65
C -2.8331274962 -0.0250810065 -0.5431886723
C -1.7155067371 0.1765687272 0.4714032676
C -0.3308262497 -0.0967732256 -0.1437816756
C 0.7873918793 -0.1461463875 0.9157130681
C 2.2359796669 -0.1766018479 0.3928483609
C 2.6311736882 -1.3193075122 -0.5413832811
O 2.1664990305 -1.1125418837 -1.8771046157
O 2.5509270408 1.0864861740 -0.2092617901
O 0.6863538505 0.9822208933 1.8062203596
O -0.3615292767 -1.3370240086 -0.8764417820
O -1.8359006364 1.5346236254 0.9071888529
O -4.1075295991 0.2603242218 0.0376547314
H -2.6443629136 0.6209869395 -1.4157906540
H -2.8646752937 -1.0629997741 -0.8781996094
H -1.8738928439 -0.5122368520 1.3207960246
H -0.1225847408 0.6835871714 -0.8870270511
H 0.6218109140 -1.0402659617 1.5340357181
H 2.8646467433 -0.2536332644 1.2901442697
H 2.2806603288 -2.2771104703 -0.1317723445
H 3.7238315157 -1.3488061567 -0.5973521930
H 2.3366513312 0.9958779638 -1.1512986612
H 1.1635846485 1.7044986824 1.3652445891
H -0.5062997409 -2.0621897245 -0.2512997337
H -1.1051847817 1.6755752448 1.5312791902
H 1.2095759602 -1.2949618350 -1.8462485640
H -4.0380787304 1.1387544877 0.4353115547
