78
CONF11
C -0.9998594703 -0.0485965034 -1.9904201901
C -0.3940282391 0.0320593130 -3.3857268609
O -1.1490463452 -0.9692363247 -4.1491017739
C -1.7061576604 -1.8873652042 -3.3128933641
O -2.3167792206 -2.8377426916 -3.7420717620
C -1.3581343399 -1.5237018575 -1.8913135316
C -2.3483561413 -1.7991529975 -0.7569318239
C -3.7715571280 -1.3506614352 -1.0728245500
C -4.6479153421 -2.2541581291 -1.6760614075
C -5.9392122364 -1.8479233894 -2.0036094567
O -6.8903344074 -2.6333144257 -2.5961948193
C -6.5132204477 -3.9691453753 -2.9539858340
C -6.3728982071 -0.5454141612 -1.7304032174
O -7.6385679475 -0.1359285506 -2.0411677535
C -5.4958637745 0.3526949254 -1.1130199180
O -6.0070753145 1.5952161615 -0.8717753543
C -5.1352634428 2.5483993271 -0.2539222520
C -4.2014459230 -0.0537757731 -0.7834597657
C -1.8256764686 -1.1195405439 0.5042802922
C -2.4251985675 -1.5072343178 1.7200308752
C -2.0680529362 -0.8318359221 2.8604040490
C -1.1597671644 0.2207869037 2.8343067043
O -0.9965462455 0.7327996182 4.0943849492
C -1.8482325431 -0.0502127355 4.9592887624
O -2.5171475628 -1.0326296856 4.1363131568
C -0.5623317806 0.6232663200 1.6674887497
C -0.8889929038 -0.0740160851 0.4811347815
C -0.1686757395 0.3431332893 -0.7876080783
O 1.1109696736 -0.3410447933 -0.9622237332
C 1.9922261838 -0.3109596618 0.1050527697
O 2.4136275801 1.0480209590 0.3053711471
C 3.2999613313 1.1343697171 1.4170577819
C 3.6547906799 2.5856526554 1.6809499844
O 4.6298583004 2.6211035020 2.7422746364
C 5.7905817200 1.8498538091 2.4889662705
O 5.4897419869 0.4875625539 2.1916597196
C 4.5809167837 0.3783999269 1.0849749121
C 4.2629576811 -1.0816648351 0.8391110542
O 5.3920703512 -1.8228596011 0.3730049434
C 3.1948815415 -1.1854420302 -0.2515284651
O 2.7324080992 -2.5251360660 -0.3820738284
C 6.6601934109 2.4776918681 1.4283940668
C 6.7243943122 3.7914972634 1.0486384988
C 7.7420936916 4.0465810634 0.0890080710
C 8.4521181590 2.9262674981 -0.2437807533
S 7.8765360459 1.5338262719 0.6130518607
H -1.9209473907 0.5464854565 -1.9724326011
H 0.6602814856 -0.2564273532 -3.4041702916
H -0.5369352223 0.9910265814 -3.8852555767
H -0.4336629039 -2.0848505471 -1.6784500709
H -2.3787108722 -2.8802565242 -0.5792277527
H -4.3117897021 -3.2591464505 -1.8952965044
H -5.6748841941 -3.9605652133 -3.6599715298
H -7.3915631070 -4.4074739962 -3.4280818901
H -6.2440789383 -4.5498188332 -2.0643348754
H -8.0934921059 -0.8836229476 -2.4566500525
H -5.7181327770 3.4655361628 -0.1636028274
H -4.8228197237 2.2111417033 0.7418641929
H -4.2501963162 2.7331108943 -0.8747582084
H -3.5328479424 0.6287776535 -0.2743712943
H -3.1655207929 -2.3004395144 1.7416763236
H -2.5966130220 0.6034736138 5.4195802999
H -1.2325593895 -0.5633764763 5.7057166030
H 0.1465008949 1.4446549881 1.6457376406
H 0.0251149088 1.4219469847 -0.7629116562
H 1.5247194099 -0.6801074150 1.0350293529
H 2.8356715558 0.6978899572 2.3176376629
H 2.7959289346 3.1572159585 2.0402012556
H 4.0455677067 3.0485395236 0.7645572210
H 6.3202103475 1.8140672337 3.4471041500
H 5.0300115427 0.8143994731 0.1783676861
H 3.8685204099 -1.5265309759 1.7668053898
H 5.9992771591 -1.9378365461 1.1148518285
H 3.6171463516 -0.8188218707 -1.2011560969
H 3.5148321774 -3.0822259730 -0.4937347508
H 6.0595785699 4.5485643116 1.4475091449
H 7.9380607262 5.0227261519 -0.3390875106
H 9.2693423883 2.8289261423 -0.9461949116
