33
CONF280
C 1.0684456414 1.5056338707 4.7555605054
C 0.7235858187 1.9065558917 3.3280516261
C 1.4152017913 1.1092597595 2.2553700805
C 2.2603635040 0.0964799047 2.4709265086
C 1.0515868646 1.5175207864 0.8715799228
O 0.1807997164 2.3233967216 0.6136261068
O 1.7946767348 0.9004333482 -0.0840066245
C 1.4306322225 1.2034105387 -1.4439658731
C 0.1594291760 0.4839773799 -1.8829495834
C 0.2877279884 -1.0240484234 -1.8732909168
C -0.8678966193 -1.7907177204 -2.5945980453
C -2.3085017587 -1.4533013671 -2.0991933824
C -3.4089959546 -2.4673440618 -2.5475152181
F -3.2813069470 -3.6301754956 -1.9008957317
F -4.6134643340 -1.9507984462 -2.2625100921
F -3.3357044442 -2.6870043085 -3.8675829817
F -2.3317413987 -1.4002667394 -0.7472488226
F -2.6557099112 -0.2345478275 -2.5854414783
F -0.8049148595 -1.4933994652 -3.9187398980
F -0.6608715179 -3.1207641230 -2.4416875244
F 0.3761633554 -1.5138302004 -0.6037934603
F 1.4291914258 -1.4102204033 -2.5297579615
H 0.5292402491 2.1389180895 5.4648870624
H 2.1389113447 1.6161763950 4.9570035214
H 0.7898732047 0.4666083701 4.9586937742
H -0.3577957595 1.8303527690 3.1603746859
H 0.9526534517 2.9673471984 3.1644616010
H 2.7089997317 -0.4437819928 1.6466741171
H 2.5136500644 -0.2198631084 3.4766432845
H 2.2883192049 0.8872960563 -2.0398619935
H 1.2788200148 2.2812449510 -1.5518178495
H -0.6766271314 0.7778471554 -1.2431987350
H -0.0747418536 0.7983262017 -2.9057969471
