30
CONF23
C 3.5428281196 -0.7133451571 1.0917427090
C 3.3799375343 0.4331517619 0.0937381807
C 1.9230590922 0.7118240953 -0.2882809167
C 1.2342362390 -0.4578619585 -0.9933771903
C -0.1455330661 -0.1106158837 -1.5623777717
C -1.1685503409 0.3344849340 -0.5203959904
C -1.4470534789 -0.7080394301 0.5813727589
C -2.8876078730 -0.4227349785 1.0870301118
C -3.4441088932 0.6872833157 0.1635463400
C -2.5660197496 0.6110511792 -1.0886361015
H 3.2346815194 -1.6709258725 0.6615410438
H 4.5848986732 -0.8158717404 1.4095727435
H 2.9347039159 -0.5399008676 1.9870305812
H 3.9564486857 0.2133608139 -0.8148286092
H 3.8144172946 1.3456623467 0.5202747694
H 1.3651244070 0.9790004660 0.6193138914
H 1.8853678904 1.5929477734 -0.9436395685
H 1.1343694677 -1.3037490151 -0.3019558597
H 1.8780830242 -0.8065185019 -1.8127149659
H -0.5484992796 -0.9897140586 -2.0849857473
H -0.0349834386 0.6783312348 -2.3197249413
H -0.8189247950 1.2622050364 -0.0443254759
H -0.7050592822 -0.6711842944 1.3850147647
H -1.3901541478 -1.7128196298 0.1434741195
H -2.9015976627 -0.1152542862 2.1365526643
H -3.5015074936 -1.3257999292 1.0155000152
H -3.3159594835 1.6688940689 0.6348986006
H -4.5106427099 0.5656892962 -0.0477647548
H -2.8745824766 -0.2357006594 -1.7183296826
H -2.6073723908 1.5161499301 -1.7036074198
