51
CONF139
C 5.2192946077 0.2929054221 3.8571095455
C 4.3308925915 0.2772009659 2.6434715840
C 4.5818080796 -0.5779941343 1.5691276192
C 3.7403645739 -0.6012169827 0.4577012408
C 2.6280057389 0.2338162759 0.3888948375
C 2.3736621072 1.0951952001 1.4599345765
C 3.2110812823 1.1150492102 2.5684755913
C 1.7343184637 0.2323459090 -0.8385024211
C 1.9151958635 1.5013399676 -1.6704457573
N 0.3217895238 0.0952419152 -0.4792036952
C -0.2241966943 -1.0852077875 -0.1346954403
O 0.4024642294 -2.1488423437 -0.1262935974
C -1.7032093537 -1.0771936163 0.2806562931
C -1.8171420437 -1.4164356126 1.7847775716
C -1.1237407976 -0.3874342188 2.6814556591
C -3.2757193156 -1.6295915955 2.1928603796
N -2.4040894762 0.1590739640 -0.0350382826
C -2.8537317527 0.5134691471 -1.2706745729
O -3.4931429365 1.5330045012 -1.4989582079
O -2.4796527981 -0.3921221890 -2.2013488311
C -2.9017450794 -0.1392340786 -3.5835114739
C -4.3201656188 -0.6435684467 -3.7724761088
C -1.8899023111 -0.8583162889 -4.4522460440
H 4.7026139767 -0.1351919100 4.7238020701
H 6.1301367667 -0.2863277676 3.6877806004
H 5.5029249512 1.3159840085 4.1239942278
H 5.4426301918 -1.2406913256 1.6034026338
H 3.9505035472 -1.2818391558 -0.3636600410
H 2.9950468835 1.7909419988 3.3923067432
H 1.9967676524 -0.6405767210 -1.4465285669
H 1.2986236190 1.4621023065 -2.5738999052
H 1.6357364599 2.3868547002 -1.0891648350
H 2.9632916624 1.6035525867 -1.9625980808
H 1.5096071037 1.7543606041 1.4300115929
H -2.1622390498 -1.9006242130 -0.2786059375
H -1.2870268429 -2.3697287302 1.8912716961
H -1.1822162131 -0.7097092537 3.7255088594
H -0.0660270182 -0.2735937323 2.4228334693
H -1.5975595661 0.5996842983 2.6216311413
H -3.7643898004 -2.3638391355 1.5441991841
H -3.3249143929 -1.9946604983 3.2232370831
H -3.8481859644 -0.6971318366 2.1440479858
H -2.6720446162 0.7832535010 0.7100791483
H -2.8542507682 0.9414509706 -3.7487812270
H -5.0109645483 -0.1283002170 -3.1002895178
H -4.6396017468 -0.4608324302 -4.8030562532
H -4.3683400074 -1.7203386648 -3.5801613317
H -2.1343125848 -0.6950968268 -5.5057289234
H -1.9094451973 -1.9347643006 -4.2544870958
H -0.8800513768 -0.4819575010 -4.2664243397
H -0.2507583440 0.9256596479 -0.4211133283
