50
CONF72
C 0.9016551079 -0.2036994917 -1.7658347328
C -0.6042809656 -0.1783885103 -1.8747869576
C -1.3750374919 -1.4378466574 -2.2171318805
C -1.4696527676 -0.8419270182 -0.8040226712
C -0.8473106622 -1.4709572155 0.3678774332
O 0.0363183956 -2.2983248477 0.4056853826
O -1.4016689411 -0.9345977547 1.5054216005
C -0.7579456775 -1.3312859336 2.7294441288
C -1.7053154416 -1.0056351840 3.7973608219
N -2.4132551962 -0.7559733570 4.6745632264
C 0.5651320711 -0.6129279345 2.9574747002
C 0.8613142640 0.5454276521 2.2460514681
C 2.0765964363 1.1849189551 2.4830304203
C 2.9766636311 0.6868933022 3.4240137826
C 2.6589405957 -0.4701197097 4.1241424028
C 1.4540354535 -1.1296810063 3.8963704356
O 2.4926577847 2.2920266119 1.7797589183
C 1.5678638176 3.0641359748 1.0882291959
C 1.8513854606 3.3513456381 -0.2417363103
C 0.9942967887 4.1884711412 -0.9519874444
C -0.1354799571 4.7234343392 -0.3378114731
C -0.4012555593 4.4288823852 0.9988340604
C 0.4521455548 3.6024188540 1.7238807082
C -0.6849103749 -2.7032334421 -2.4713714947
C -1.0667428174 -3.6243817012 -3.3618126506
C -2.3057203771 -3.5002193933 -4.2190153718
F -2.2676530081 -2.3760559449 -4.9827183944
F -3.4255096595 -3.4067037846 -3.4542172954
F -2.4842378744 -4.5359355935 -5.0544221198
Cl -0.1286652054 -5.0820096208 -3.5993359882
C -1.1515169133 1.1171734289 -2.4301400624
H 1.3377733216 -0.1285789149 -2.7675545705
H 1.2359072389 0.6633003826 -1.1863008728
H 1.2895442773 -1.1013203948 -1.2847832901
H -2.2834207301 -1.2634263266 -2.7824294498
H -2.4022302198 -0.3339712512 -0.5840865233
H -0.5941397804 -2.4164153648 2.7340240223
H 0.1670753011 0.9388570001 1.5133598885
H 3.9160016864 1.2044300624 3.5861486927
H 3.3608715703 -0.8639292557 4.8518065752
H 1.2100698487 -2.0366574530 4.4408287947
H 2.7347543420 2.9231405872 -0.7038381257
H 1.2101330815 4.4157716461 -1.9912498746
H -0.8042226533 5.3705553681 -0.8957258571
H -1.2734621136 4.8517531509 1.4872861776
H 0.2578155716 3.3780767865 2.7676885062
H 0.2141242423 -2.9090432796 -1.9028492073
H -0.8661844286 1.9529222195 -1.7812781926
H -0.7317610742 1.3002382020 -3.4252925767
H -2.2414960538 1.0940730478 -2.5115479182
