27
CONF47
C 3.1504191369 -0.4064239215 -0.2423529402
C 4.3650563434 -0.3706712750 0.6843382860
C 5.6741744759 -0.6766395066 -0.0357342627
O 6.0170273997 0.3051523979 -1.0166211681
C 1.8551904496 -0.1427448542 0.5282253214
C 0.6382843561 -0.1779812165 -0.3696581121
C -0.6875180494 0.1397254858 0.3843805316
C -2.0034635752 -0.1467444613 -0.4094598796
C -3.2718475482 0.5531843975 0.1792909411
F -3.3646685883 0.3280688594 1.4983272651
F -4.3612271506 0.0517513036 -0.4203062941
F -3.2377126590 1.8725340410 -0.0377176761
F -2.2342833726 -1.4784225436 -0.4014169891
F -1.8731670427 0.2697347787 -1.6894730691
F -0.6640663765 1.4518769867 0.7396166036
F -0.7224110769 -0.6054853364 1.5205205928
F 0.4964692365 -1.4142146458 -0.9456956669
F 0.7683957995 0.7297697047 -1.3836309951
H 3.2585062220 0.3503599588 -1.0273640043
H 3.0889363937 -1.3848397938 -0.7348712074
H 4.4445339574 0.6160948835 1.1574800671
H 4.2361540571 -1.1065658348 1.4902849695
H 5.6333428418 -1.6814007684 -0.4861086277
H 6.4993544829 -0.6727009813 0.6834775922
H 1.8881244201 0.8411230519 1.0097214422
H 1.7172319130 -0.8907405661 1.3147847289
H 5.4415015190 0.1866879176 -1.7789956250
