43
CONF20
C 0.5232910519 1.6221829034 1.5914065712
O 1.8606665715 1.0091325298 1.4816455777
C 1.7488202112 -0.0361204797 0.6050381770
C 2.8101993125 -0.7255361489 0.0178923327
O 4.0712840320 -0.4038948956 0.4322010167
C 5.1577748917 -1.0814611810 -0.2119502450
C 2.4804650698 -1.6546168822 -0.9805703502
C 1.1573218034 -1.8337584748 -1.4022989327
C 0.1049612888 -1.1380441075 -0.7966102384
C 0.4449438691 -0.3117708786 0.2595282372
C -0.4823421848 0.5918346371 1.0200130769
C -1.2427079117 -0.1445870790 2.1345883079
C -2.1558882618 -1.2263391238 1.5719997910
N -3.0237404189 -0.6792012270 0.5243975884
C -3.9952323489 -1.6736413223 0.0766791215
C -2.2454576840 -0.0925908551 -0.5858650988
C -1.3067866282 -1.0908954749 -1.3279512503
C -1.4909510794 1.1304420780 -0.0193762782
C -0.7641599313 1.9545140462 -1.0442173816
C 0.1931453015 2.7918161863 -0.6389196329
C 0.4615903198 2.9585925329 0.8356265467
O 1.6532123975 3.6920110030 1.1216710198
H 0.3769307712 1.8056557478 2.6590881188
H 5.1006159997 -2.1636050398 -0.0447193633
H 5.1666025998 -0.8747930160 -1.2888227622
H 6.0656233206 -0.6872532981 0.2455186705
H 3.2666609635 -2.2113384569 -1.4771160209
H 0.9601790430 -2.5027659214 -2.2357349179
H -1.8392664340 0.5931553289 2.6865562327
H -0.5279161046 -0.5923242994 2.8348429453
H -2.7917595460 -1.6233490372 2.3721270442
H -1.5487036836 -2.0743129938 1.1983029253
H -4.6500419957 -1.9391051105 0.9141783019
H -3.5394949086 -2.6097351801 -0.2951378837
H -4.6128897017 -1.2526551029 -0.7238657522
H -2.9791449553 0.2714980321 -1.3160747482
H -1.2559714211 -0.8003958666 -2.3848186805
H -1.7651358208 -2.0870103930 -1.3221773662
H -2.2362379812 1.7562859235 0.4953388811
H -1.0155613448 1.8452712789 -2.0971697580
H 0.7552618485 3.4140817019 -1.3312682900
H -0.4089884568 3.4778182249 1.2772524550
H 1.5188280358 4.5968089875 0.8132954156
