110
CONF82
C -3.6808772234 -0.3247601094 1.3889040959
N -4.7247246687 0.0600190268 2.3607911039
C -4.4299509610 1.4441757084 2.7897095228
C -3.5864878653 2.0394080370 1.6448422885
C -3.5568462739 0.9529149198 0.5396070819
C -2.3181167538 1.0146267587 -0.3110436170
C -0.9924911018 0.8755922399 0.0572710195
C 0.0325355041 0.9913783301 -0.8881017479
C -0.3401532698 1.2722977333 -2.2227467847
O 0.6948928650 1.3501112073 -3.1044072954
C 0.4120876529 1.7006649134 -4.4647620973
C -1.6715944167 1.4476974535 -2.6087018748
C -2.6588102825 1.2935076921 -1.6325829531
N -4.0265643878 1.3577672847 -1.8058608832
C -4.5841649663 2.2874750151 -2.7806184417
C -4.7146058994 1.1406510611 -0.5193114358
C -5.7041584755 -0.0768721660 -0.5700259881
O -6.6003322389 -0.0169600924 0.5275038252
C -4.8677523786 -1.3656243151 -0.6279094770
O -5.6652396977 -2.5208841419 -0.9036597379
C -4.0289178828 -1.6366742493 0.6563763676
C -2.7328882819 -2.3531496182 0.1651064120
C -1.7687470364 -2.8476315872 1.2396158135
C -4.7287149117 -2.5735576914 1.6140473761
C -5.0557427239 -2.2738236476 2.8703153361
C -4.8902438725 -0.9013666229 3.4427698011
C -6.5614832290 0.0111272146 -1.8481650256
N -7.6867645975 0.7331424757 -1.7201442600
O -6.2169837403 -0.5281231748 -2.9064442405
C 1.5112258529 0.7829852407 -0.5309271554
C 1.7335835623 0.8978070500 1.0134195410
C 3.2137435049 0.7095912267 1.3355536503
C 3.5390903504 -0.6728998022 1.9156414835
N 4.9549046824 -0.9663865416 1.7545717602
C 5.7867540123 0.0682008354 2.3740106835
C 5.4257963514 1.5460891714 2.1091417966
O 5.8666333686 1.8302234255 0.7594078466
C 6.1453353907 2.4745470683 3.0982390541
C 7.6697055284 2.3706210525 3.0952895929
C 3.8996762733 1.7564983518 2.2041982912
C 5.3059432356 -1.4744492033 0.4217547041
C 4.6633558459 -0.8796205965 -0.8744588550
C 3.2216262904 -1.2578735976 -1.1165729591
C 1.9957704897 -0.5934643579 -1.0089310423
N 0.9847421341 -1.4962607543 -1.3094311951
C 1.5005111553 -2.7193909097 -1.6265634412
C 0.8608609689 -3.9000230941 -2.0037725670
C 1.6649029761 -4.9995465385 -2.2762482075
C 3.0677027489 -4.9148261658 -2.1810535917
C 3.6954858887 -3.7342083594 -1.8062101304
C 2.9092780632 -2.6059826751 -1.5171372384
C 2.2801612302 1.9848419198 -1.1214022372
O 1.9946935343 3.1326534796 -0.8390534508
O 3.3036356484 1.6569512892 -1.9122217648
C 4.0550245555 2.7697502565 -2.4558601121
H -2.7228195498 -0.4642376930 1.9179460014
H -3.8627342617 1.4467438173 3.7321277895
H -5.3683605840 1.9837860560 2.9592586637
H -2.5621014819 2.2168756798 1.9847730767
H -3.9804817860 2.9852554932 1.2659868644
H -0.7549158293 0.6759598568 1.0957699875
H 1.3806700554 1.7362098550 -4.9644359318
H -0.2216640067 0.9435671638 -4.9403894627
H -0.0725103337 2.6818240409 -4.5233486820
H -1.9320281485 1.6679436149 -3.6354759122
H -4.2624768850 3.3222645477 -2.5829828297
H -4.2751383222 2.0096823812 -3.7929125012
H -5.6735953331 2.2496026106 -2.7460874106
H -5.3232366984 2.0189130268 -0.2631606493
H -6.0095766160 0.0260255972 1.3540602436
H -4.1592908089 -1.2159445718 -1.4552311129
H -5.9493155811 -2.4276973871 -1.8243717514
H -3.0595163027 -3.2035983856 -0.4464405369
H -2.2119043197 -1.6627422102 -0.5076312204
H -2.2605854514 -3.5324602867 1.9371294291
H -1.3385675170 -2.0257844124 1.8206856605
H -0.9376242546 -3.3837535233 0.7695132756
H -4.8849399579 -3.5849451661 1.2487081457
H -5.4728249057 -3.0344782292 3.5254655646
H -4.0282235654 -0.8742780066 4.1391946485
H -5.7755509249 -0.6263848728 4.0314772175
H -8.3161245741 0.8223439575 -2.5031790894
H -7.9643469920 1.0697708740 -0.8112077641
H 1.1375174015 0.1282408289 1.5145840648
H 1.3594776411 1.8743332290 1.3377194230
H 3.7462401209 0.7706643902 0.3909390424
H 2.9526835378 -1.4570237723 1.4240278371
H 3.2792513769 -0.6834215445 2.9876119070
H 5.7225869639 -0.0689711330 3.4654603941
H 6.8296641441 -0.0990067174 2.0854420507
H 5.6249567218 2.7459036236 0.5636352206
H 5.8450964799 3.5036945586 2.8553546365
H 5.7585884603 2.2696609890 4.1043280013
H 8.0102367861 1.3982350761 3.4639190975
H 8.1046531567 3.1388941206 3.7418982744
H 8.0703094066 2.5114371965 2.0869783432
H 3.6646427262 2.7762014531 1.8673795134
H 3.5799113595 1.6729616517 3.2519513657
H 6.3937451797 -1.3900463924 0.3170901454
H 5.0679659387 -2.5489742617 0.4130586519
H 5.2442991009 -1.3303339001 -1.6920997713
H 4.8457295400 0.1907644615 -0.9384517983
H 0.0083877572 -1.2472157273 -1.3318704556
H -0.2212593829 -3.9540256231 -2.0796433892
H 1.2052335338 -5.9381673660 -2.5700676995
H 3.6671539963 -5.7918595130 -2.4059294979
H 4.7786572867 -3.6901244130 -1.7415374954
H 4.8622290168 2.3175495813 -3.0309908398
H 3.4110290522 3.3727571376 -3.1011769244
H 4.4544955130 3.3884518113 -1.6486100543
