26
CONF7
C 0.7000056206 2.5615582710 0.4707645485
C 1.2050598592 1.5049354963 -0.5059227091
N 1.2619266945 0.1630012622 0.1086973809
C 2.5460109111 -0.1572881121 0.7624746603
C 3.5144235845 -0.8341468708 -0.2000568030
C 0.2494691849 -0.7102527986 0.0959118114
S 0.3112278752 -2.2416448128 0.8015455622
S -1.2063224031 -0.0894021804 -0.7866249867
C -2.4717115511 -1.3938226447 -0.5365759195
C -3.6189072788 -0.9048909620 0.2758927144
C -4.8644706994 -0.7449119647 -0.1561946416
Cl -3.2174836658 -0.5439809299 1.9642982897
H -0.3189226259 2.3381154000 0.7979439031
H 0.7007515762 3.5389518388 -0.0204158234
H 1.3468115769 2.6193771470 1.3510113611
H 2.2224170826 1.7411174268 -0.8320060026
H 0.5906466287 1.4726367551 -1.4100595643
H 2.9590174060 0.7903546582 1.1218607367
H 2.3455502966 -0.7940051816 1.6261305068
H 3.1051780273 -1.7848830726 -0.5519405258
H 3.7201484816 -0.1961525317 -1.0647469278
H 4.4600634780 -1.0308939282 0.3135820169
H -2.8291740936 -1.6947135530 -1.5246270578
H -1.9554938306 -2.2364696691 -0.0551144189
H -5.0903415897 -0.9604930165 -1.1957451990
H -5.6658804293 -0.4120958365 0.4922033876
