47
CONF17
C 5.1838626008 -1.7422870559 2.3392670815
C 4.7717853878 -0.9832982596 1.1424905919
C 3.5579323744 -0.5817791125 0.6450198189
C 3.8908232474 0.1252697679 -0.5511731296
N 5.1875321489 0.1494860606 -0.7580778935
O 5.7459625849 -0.5679205467 0.3129297239
C 2.9916914626 0.7993600959 -1.5027594310
C 2.8602175171 0.3333240795 -2.8127460634
C 1.9994861732 0.8971389818 -3.7371083011
C 1.2295585577 1.9842755854 -3.3406050299
C 1.3242104529 2.4965650369 -2.0496696221
C 2.2002602418 1.9025093273 -1.1522269856
Cl 2.3223647250 2.5563737112 0.4669319245
F 3.5901384669 -0.7381758864 -3.1802292937
C 2.2544288892 -0.8173638766 1.2902232044
O 2.1565870564 -0.9868274891 2.5056671060
N 1.1783628331 -0.8360476837 0.4487535606
C -0.1659743526 -0.8611505822 0.9248370210
C -1.0985378500 0.3655734119 0.6288802252
N -1.9692995763 -0.5419513837 -0.1294405168
C -1.2078366692 -1.6760349433 0.1220851225
O -1.3590267607 -2.8348354843 -0.1845805794
C -3.3971420697 -0.3613069804 -0.0104284162
C -3.6539884346 0.0486200209 1.4883067148
S -2.1592507488 1.0921970925 1.9457148184
C -3.6983532075 -1.2138091716 2.3489797120
C -4.9140860724 0.8823482296 1.6939023255
C -3.8711844265 0.6926968662 -0.9988447338
O -3.1970099300 1.6171115178 -1.3934574844
O -5.1436401449 0.4707784439 -1.3679459775
H 6.1274394567 -2.2594068128 2.1524722912
H 5.3199421658 -1.0600014401 3.1857324772
H 4.4076711829 -2.4589341787 2.6109902963
H 1.9381150350 0.4837911713 -4.7371102600
H 0.5452123677 2.4428707090 -4.0459601209
H 0.7279241622 3.3477626484 -1.7439434138
H 1.3271769133 -0.7312194690 -0.5450400872
H -0.1786249513 -1.1426409152 1.9815100115
H -0.6388125168 1.1622108609 0.0382401124
H -3.9077721500 -1.3074578987 -0.2157808518
H -3.7570396031 -0.9409797838 3.4056634421
H -2.8102761598 -1.8356683121 2.2086723849
H -4.5836370149 -1.8058691295 2.0896495114
H -4.8952508946 1.8094168579 1.1148389521
H -5.7917860606 0.2974577915 1.4009099447
H -5.0174108722 1.1400263159 2.7515919349
H -5.4227460400 1.1878013037 -1.9643329269
