42
CONF26
C 1.4181940224 -2.8293118994 2.5148250474
O 0.4155468665 -2.0443252538 1.8474243528
C 0.1143022465 -0.8829534063 2.4317752109
C -0.7938728486 -0.0268132204 1.9116159533
C -1.5382817650 -0.3248921519 0.6660151342
C -2.3407509355 -1.4688511835 0.6099916432
C -3.0465040592 -1.7974018545 -0.5394067019
C -2.9603796298 -0.9764244158 -1.6590023038
C -2.1665179744 0.1630149950 -1.6173049148
C -1.4473812621 0.4954168477 -0.4697819012
C -0.5956709271 1.7375618404 -0.4606591390
O -0.0114884642 2.0110534099 -1.7579672900
C 1.0167975386 1.2318426241 -2.1458125948
C 1.5281432779 1.4652435968 -3.4346694411
C 2.5947761052 0.6994624468 -3.8532419022
C 3.1299628728 -0.2713058682 -2.9993392889
C 2.5417160527 -0.4082233672 -1.7555268481
N 1.5046790261 0.3167047140 -1.3237331145
C 3.0302203466 -1.4445946903 -0.7669971357
F 3.2200523726 -0.9154142489 0.4620839547
F 4.2068012185 -1.9898844345 -1.1558727999
F 2.1458538496 -2.4590459108 -0.6345492352
C -1.0257306188 1.1937367795 2.7010494961
O -0.4320800875 1.5213279093 3.7110025603
O -2.0261858267 1.9449202690 2.1632145500
C -2.3158432804 3.1574944740 2.8826592772
H 1.5740120768 -3.7104533185 1.8931329834
H 1.0676850179 -3.1296975910 3.5087651201
H 2.3540342715 -2.2674694065 2.5951202091
H 0.6311187539 -0.6312171103 3.3579177140
H -2.4055319867 -2.1027729498 1.4883180303
H -3.6631292710 -2.6902422412 -0.5598552063
H -3.5098614106 -1.2211423468 -2.5623636737
H -2.0869732150 0.8016055709 -2.4915256305
H 0.1940693544 1.6646679192 0.2922149184
H -1.2027807591 2.6245038281 -0.2613805250
H 1.0822094529 2.2310262432 -4.0581675160
H 3.0189749714 0.8497590272 -4.8405004635
H 3.9680576939 -0.8877882037 -3.2957791147
H -1.4339768481 3.8033845311 2.9195318165
H -3.1240462827 3.6373281545 2.3300542610
H -2.6302191585 2.9301693844 3.9047771950
