20
CONF9
C -2.3814498000 1.4968302805 -0.3710215435
O -2.1197789475 0.1526853166 -0.8509961200
P -0.9734646758 -0.7348411750 -0.2183572777
O -0.7524727743 -2.0260126765 -0.8878742676
O -1.3240071174 -0.7071584231 1.3341926175
C -0.4698359267 -1.4359255482 2.2542022826
O 0.3759405978 0.2232006940 -0.2138785147
C 1.2828960713 0.1142240674 -1.2521563874
C 2.7040357076 0.3532342725 -0.6997265329
Cl 3.8998555284 0.2434824703 -2.0112505708
Cl 3.0275352942 -0.9658866114 0.4870526560
Br 2.8386491527 2.0869518234 0.2102834978
Br 0.8368464139 1.4207980779 -2.6904507790
H -1.4754264222 2.1050916887 -0.4398548717
H -3.1505885201 1.8989171565 -1.0301393414
H -2.7449311121 1.4624135853 0.6591414535
H 0.4846681220 -0.9137982244 2.3640765300
H -1.0021121545 -1.4539212711 3.2051137092
H -0.3073500557 -2.4553761635 1.8931739661
H 1.2509908142 -0.8649097421 -1.7415305058
