55
CONF150
C 2.5131377075 -0.3511329965 1.0789508574
C 2.6436444760 -0.1261161984 2.5771063036
N 3.1598129087 1.2188402586 2.8552484781
C 2.2555795866 2.2106337874 2.2646492795
C 2.1278034798 1.9849954014 0.7672399137
N 1.6110433941 0.6414411320 0.4863993222
C 1.4637291886 0.4550898637 -0.9598414972
C 0.7548351253 -0.8559504431 -1.3415842007
C -0.5130051201 -1.0841129525 -0.5856484990
C -1.7817755464 -1.0651397365 -1.0429040993
C -2.8978689517 -1.4151176423 -0.1393507534
C -2.9418572945 -0.9584410235 1.1844051737
C -3.9567656845 -1.3533586861 2.0472698742
C -4.9661548085 -2.2018536068 1.5941141737
C -4.9667839028 -2.6375301137 0.2742609746
C -3.9404630021 -2.2415730375 -0.5854624938
S -3.9576183467 -2.8690807161 -2.2517013101
C -3.1243261509 -1.5531886419 -3.0981163379
C -2.1578485679 -0.7700287722 -2.4391253040
C -1.5908964697 0.2932421957 -3.1444868926
C -1.9065231780 0.5155086569 -4.4817973621
C -2.8149397156 -0.3090149230 -5.1421642713
C -3.4377254187 -1.3312637590 -4.4402538225
C -1.2241780787 1.6409047784 -5.1944075142
F 0.0931764495 1.3718581686 -5.4235494497
F -1.2500975120 2.7920926605 -4.4725768185
F -1.7789773535 1.9129892224 -6.3962970878
C 3.3474205611 1.4497521721 4.2927828116
C 4.6153148579 0.7642321799 4.7851686732
O 5.7434399029 1.1669612301 4.0003670510
H 2.1121832254 -1.3569201943 0.9150445572
H 3.5172679788 -0.3081851989 0.6101490506
H 1.6553565478 -0.2755900821 3.0555646173
H 3.3298360788 -0.8746058669 2.9866601104
H 1.2505905296 2.1619138391 2.7285953191
H 2.6615839323 3.2124092151 2.4454184360
H 1.4349793202 2.7244071280 0.3485433664
H 3.1175467060 2.1422026617 0.2924448082
H 0.8746227567 1.3009733055 -1.3354616841
H 2.4449801765 0.4878253878 -1.4740443142
H 1.4278508602 -1.6991966938 -1.1405097787
H 0.5840129647 -0.8441510785 -2.4222162927
H -0.3826008336 -1.3486513064 0.4617295462
H -2.1646114796 -0.2836596925 1.5299505654
H -3.9662630443 -0.9914029684 3.0702018513
H -5.7658167340 -2.5090559127 2.2602043762
H -5.7623129232 -3.2794443024 -0.0913449649
H -0.9030079218 0.9581172165 -2.6350574596
H -3.0621245111 -0.1406912210 -6.1836570687
H -4.1807457843 -1.9504217083 -4.9323250850
H 2.4798429603 1.1089940563 4.8890378678
H 3.4545665083 2.5303657141 4.4467459523
H 4.8108796240 1.0581216480 5.8215302048
H 4.5056704111 -0.3306457672 4.7642664025
H 5.4045797184 1.2116533679 3.0911292579
