40
CONF68
C 4.9725188411 -1.8846603060 -0.1919529448
O 4.8838591369 -0.4453933836 -0.3717321896
C 4.1989442487 -0.0412866183 -1.4420318933
O 3.6754042124 -0.7856631311 -2.2462622760
C 4.1619174583 1.4669667228 -1.6029843649
S 4.2625493797 2.4810766555 -0.0917170881
C 2.7722085229 2.0347136945 0.7669043491
C 1.7900006670 1.1921063040 0.2427281667
C 0.6295083348 0.8741516121 0.9574494701
C 0.4899503935 1.4243324457 2.2360670398
C 1.4349164367 2.2657973423 2.7902166058
C 2.5682839509 2.5655310058 2.0484386144
Cl 3.7661555077 3.6399575368 2.7472607840
F -0.6045255036 1.1098744395 2.9674698345
N -0.3020370987 -0.0249299460 0.4376998010
C -1.4586037259 0.3964064537 0.0837478156
N -2.4420743607 -0.4402692448 -0.3897531260
N -3.6890525357 0.1941078996 -0.5311720979
C -3.6821736531 1.5494564167 -0.4442621359
O -4.6056998633 2.3005749178 -0.6953878831
S -2.0340386556 2.0908249320 0.0941496504
C -4.6744723487 -0.5242027729 -1.3564670821
C -4.8426517963 -1.9419742327 -0.8283801636
C -3.4834582267 -2.6329300354 -0.7497648742
C -2.5272474425 -1.8279015218 0.1182503565
H 5.5469838141 -2.0229887360 0.7224094094
H 5.4844781681 -2.3358504661 -1.0445746188
H 3.9705898460 -2.3070820600 -0.0887619252
H 3.2878167182 1.7287850222 -2.2041586625
H 5.0515176581 1.7549759484 -2.1773272254
H 1.8822864067 0.7663828912 -0.7489582749
H 1.2872566198 2.6715527437 3.7844121710
H -5.6013689693 0.0483375977 -1.2995174732
H -4.3202289559 -0.5344555716 -2.3966192192
H -5.3083863349 -1.9110039050 0.1638262478
H -5.5160185331 -2.4835183829 -1.4992343266
H -3.5803941707 -3.6325254780 -0.3158866627
H -3.0597920679 -2.7433517191 -1.7551839808
H -1.5156610480 -2.2332003343 0.0846373752
H -2.8692622536 -1.8027248369 1.1631278069
