68
CONF10
C -1.9063862479 4.1001334154 -3.4124753148
C -1.3907203235 3.4798545981 -2.1156395671
C -1.5652820025 1.9495169715 -2.0023979097
C -0.7163735063 1.2114752120 -3.0610522248
C -3.0371526072 1.5402271559 -2.1438037418
C -1.0053973360 1.5120869334 -0.6467148004
O -0.1611866237 2.1292146081 -0.0166475024
O -1.5021264675 0.3347576146 -0.2535197402
C -1.0255121683 -0.2599664637 1.0033187709
C -1.9749434753 0.1307021412 2.1195663503
C -1.5457053902 -0.5277065868 3.4354129021
C -1.3082566151 -1.9961334883 3.2291178541
C -1.0820528117 -2.5620498572 2.0312734403
C -1.0153840684 -1.7599279064 0.7512653839
C 0.1972863147 -2.2428305972 -0.0768847461
C -0.1013192501 -3.6935649183 -0.5126572922
C -0.4514078767 -4.5227937468 0.6974197043
C -0.8641310889 -3.9895611095 1.8597703484
C 1.0267185706 -4.3305379842 -1.3291582551
C 1.5210083884 -2.1308765389 0.7177549414
C 2.6605273197 -1.4166758969 -0.0165486506
C 2.4648496490 0.0877635780 -0.1183435695
C 3.5850312301 0.8209810845 -0.8245389978
C 3.3373191139 2.3302456604 -0.7783306122
C 3.2254357185 2.7747423761 0.6781820001
C 2.4479548819 1.8620220967 1.6062790415
O 2.0484409554 2.2184188031 2.6859911952
O 2.3075159725 0.5571431784 1.2567453053
O 2.1872352551 2.6926764368 -1.5386717763
C -2.5810199143 -0.2806584885 4.5367431385
H -1.4158871845 3.6760631219 -4.2937669691
H -1.6988508472 5.1740499580 -3.4134523253
H -2.9867518445 3.9778160956 -3.5312876488
H -1.8992759621 3.9464159760 -1.2629015481
H -0.3288761780 3.7193102621 -2.0048115618
H -1.0916035686 1.4403964152 -4.0624482447
H -0.7851178495 0.1282342950 -2.9190763222
H 0.3348892712 1.5129541880 -3.0060529794
H -3.4081733241 1.8291430785 -3.1305330082
H -3.1587591739 0.4608168179 -2.0400377605
H -3.6584074944 2.0303962271 -1.3867482068
H -0.0247704159 0.1265948419 1.2152733624
H -2.9893397463 -0.2012367097 1.8601274755
H -1.9875289077 1.2207886123 2.2271168521
H -0.5980164111 -0.0634696951 3.7551109446
H -1.3253805914 -2.6311793828 4.1148131691
H -1.9238326714 -1.9910039147 0.1731760752
H 0.2580200763 -1.6220586303 -0.9824335356
H -0.9861126428 -3.6566083803 -1.1695741148
H -0.3284850648 -5.6011003217 0.6159482615
H -1.0507429412 -4.6319576535 2.7175551941
H 1.2528101546 -3.7271597415 -2.2146634061
H 0.7374690853 -5.3304587308 -1.6681052313
H 1.9444657090 -4.4331837184 -0.7421537925
H 1.8561917830 -3.1326603370 1.0023455141
H 1.3466686442 -1.6126631445 1.6656669311
H 3.6077217829 -1.6022144637 0.5056278250
H 2.7714962998 -1.8133403821 -1.0342486580
H 1.5177815467 0.3033659559 -0.6330358007
H 4.5451930273 0.5822591405 -0.3470808122
H 3.6294608935 0.4892339927 -1.8670392635
H 4.1780942727 2.8528559652 -1.2499954398
H 4.2291968246 2.8274963336 1.1210899711
H 2.7971941060 3.7776383651 0.7547063023
H 1.3963724714 2.6126643363 -0.9768573368
H -2.2535682139 -0.7148671613 5.4865304299
H -3.5420635929 -0.7337258530 4.2696549698
H -2.7364457119 0.7917157752 4.6901045316
