39
CONF234
C 7.0560377684 3.0086229180 2.2058330214
C 6.5273472335 2.4163380243 0.9015779777
C 5.8502019466 1.0606795728 1.1009251357
C 5.2993063238 0.4759113847 -0.1988429665
C 4.6292463955 -0.8962560645 -0.0334118560
C 5.6576307989 -2.0331171289 0.0835336932
C 5.0959652689 -3.3240425615 0.6783465263
C 3.6899132107 -1.1775863471 -1.2009449988
O 2.5817756308 -0.2318327965 -1.2138426809
C 1.5396752480 -0.5456521489 -0.4186681970
O 1.4272691991 -1.5681101059 0.2125647675
C 0.5655653599 0.5920808440 -0.3754344134
C 1.0876176677 1.8646080785 -0.1673899040
C 0.2517347125 2.9553359994 0.0064338673
C -1.1363035452 2.7984206939 -0.0476667039
C -1.6715116895 1.5197005177 -0.2879669182
C -0.8199230068 0.4172127084 -0.4459435552
Br -1.5258768069 -1.2963730450 -0.8377648783
Br -3.5466970545 1.2923286589 -0.3985714619
Br -2.2669091077 4.2922693652 0.1928130664
Br 1.0707327002 4.6403757384 0.3157348376
H 7.5376366351 3.9769027563 2.0402490614
H 6.2446844161 3.1571181444 2.9264392482
H 7.7925969911 2.3428465274 2.6683971846
H 5.8123452146 3.1122016872 0.4427119620
H 7.3510456144 2.3060481485 0.1841665747
H 6.5669803223 0.3662828232 1.5589618563
H 5.0277611638 1.1697535268 1.8221022378
H 6.1073868056 0.3887779745 -0.9402327822
H 4.5747107309 1.1852246929 -0.6196111505
H 4.0204966412 -0.8873884642 0.8826209095
H 6.4910481762 -1.6870440734 0.7048250305
H 6.0852022459 -2.2278033928 -0.9107744367
H 4.7090959109 -3.1483162715 1.6871322264
H 4.2759587243 -3.7328999949 0.0809640680
H 5.8714524988 -4.0928738651 0.7438538525
H 3.2814324692 -2.1899313051 -1.1649031707
H 4.1967938846 -1.0146455803 -2.1569602967
H 2.1612214491 1.9966263637 -0.1267377537
