46
CONF10
C -4.0277333380 -1.3359478434 -0.1962218183
C -2.8190126221 -2.0436133474 0.3680833678
C -1.5316002528 -2.0820799432 -0.4239549183
C -1.6158929193 -1.2449523455 0.8609580563
C -1.5991954951 0.2315918877 0.8414655433
O -1.9396229189 0.9588586460 -0.0677076919
O -1.1390180534 0.6854947743 2.0407977477
C -0.9922443150 2.1129271480 2.1888793451
C 0.4413506483 2.5423372949 2.0137692003
C 1.3283795768 1.7788608209 1.2623079025
C 2.6368522099 2.2223201527 1.0845074466
C 3.0729740900 3.4155909469 1.6528808422
C 2.1801915587 4.1670858791 2.4071121010
C 0.8691631881 3.7396210619 2.5900013749
O 3.5770233274 1.4845192762 0.3999668252
C 3.1477675440 0.6216332874 -0.5969314774
C 3.6228400956 -0.6832409204 -0.5676099754
C 3.2692943043 -1.5564907613 -1.5932259418
C 2.4461472497 -1.1289290413 -2.6300813695
C 1.9785304767 0.1834263234 -2.6436638962
C 2.3286871350 1.0676846513 -1.6307996559
C -1.4282909818 -1.4702001459 -1.7523116902
C -0.9743843732 -2.1021737896 -2.8338272380
Cl -0.9127103285 -1.3409028499 -4.3998978216
Cl -0.3970208877 -3.7471465373 -2.8369593348
C -3.1530039985 -3.2778806411 1.1759126194
H -4.5453523123 -2.0026210194 -0.8942572870
H -4.7243072137 -1.0865001159 0.6114851974
H -3.7731978279 -0.4147818235 -0.7193941030
H -0.9472107278 -2.9879298660 -0.2959145791
H -1.0993616583 -1.6665641147 1.7163990227
H -1.3396461645 2.3426049624 3.2001483552
H -1.6379973065 2.6158145977 1.4605872158
H 1.0158899399 0.8396485105 0.8222046366
H 4.0993547596 3.7305931448 1.5025432942
H 2.5128988137 5.0963294312 2.8583506627
H 0.1804416227 4.3335966859 3.1836947566
H 4.2619326571 -0.9954464723 0.2510876829
H 3.6376404126 -2.5772517010 -1.5771086023
H 2.1672591630 -1.8128985234 -3.4243172106
H 1.3383126796 0.5218914957 -3.4513540306
H 1.9712933345 2.0919280627 -1.6325867735
H -1.7495029047 -0.4423997897 -1.8785543017
H -3.7811700433 -3.0167222725 2.0347277087
H -2.2522765455 -3.7736251951 1.5488280613
H -3.7044702861 -3.9940600136 0.5570043584
