37
CONF26
C -6.2150961363 3.2511853910 -0.2727821384
C -5.0867470713 2.3296735225 0.1655877453
N -5.6655111928 1.0400918066 0.6067326835
S -4.9320172751 0.0578272359 1.6993622567
O -5.8532863101 -1.0447480710 1.9877701883
O -4.3356618969 0.8759363500 2.7570489190
C -3.4639112449 -0.8582795036 0.8130604663
C -2.0995574548 -0.1183479555 0.9119945093
C -1.0092771570 -0.6784978711 -0.0725412483
C 0.4511713667 -0.2541305273 0.3180852820
C 1.4761249062 -0.4252765153 -0.8601055118
C 2.9694853760 -0.4439096925 -0.3761350704
C 3.9933153790 -0.1647104897 -1.5298815458
C 5.4576131891 -0.6044565073 -1.1963146899
F 5.8217870409 -0.1397630266 0.0068961300
F 6.2814460070 -0.0993500721 -2.1237003147
F 5.5702171525 -1.9366353734 -1.2055578223
F 4.0093608707 1.1599029852 -1.7879318182
F 3.6105700791 -0.8300328090 -2.6441862077
F 3.1353036897 0.5020335283 0.5760451051
F 3.2349360134 -1.6570942252 0.1579715359
F 1.2185381856 -1.5893408931 -1.4974196828
F 1.3135810459 0.5994216297 -1.7266690150
F 0.4405852317 1.0447368750 0.6927411100
F 0.8555058739 -1.0143181240 1.3601162584
F -1.0787935537 -2.0283299080 -0.0772086118
F -1.2777463877 -0.2186480606 -1.3159763111
F -2.3001468051 1.1880265477 0.6181617203
F -1.6431681135 -0.2289631477 2.1788659127
F -3.3626980770 -2.0714600391 1.3804066981
F -3.8092545688 -1.0029042941 -0.4863035617
H -6.7804089007 2.8125588548 -1.1007308270
H -6.9003073398 3.4512181032 0.5551557506
H -5.7910877074 4.1991379630 -0.6155870451
H -4.3779294437 2.1705436985 -0.6554018289
H -4.5465709361 2.7574938654 1.0132415279
H -6.1725403848 0.5160085040 -0.1028040793
