57
CONF32
C 0.8451713402 2.2747988602 -1.9978416858
C -0.2524857847 1.4373606238 -1.3504043664
C -1.6260741233 2.0543738804 -1.7151382819
C -2.8226982541 1.4243509318 -1.0581458026
C -3.3088810080 1.9176201192 0.1555722593
C -4.4077992299 1.3289655640 0.7759107517
C -5.0390340173 0.2351768293 0.1880929920
C -4.5709203563 -0.2578849436 -1.0284019532
C -3.4740830148 0.3356033729 -1.6467544028
C -0.1950547826 -0.0382351960 -1.7072605690
C 0.2851033729 -0.4483884279 -2.9534749025
C 0.2901340066 -1.7968518928 -3.3043611068
C -0.1825908288 -2.7557799298 -2.4132957649
C -0.6698136522 -2.3533852509 -1.1718939215
C -0.6819843428 -1.0066866636 -0.8249197304
O -0.1739402604 1.5665418020 0.1284420502
P 1.1629113953 1.5994100267 0.9798385320
O 1.9375422448 2.8547933399 1.0629015967
O 1.9633915356 0.3262365384 0.3903780358
C 3.3402623167 0.1358616548 0.5082593351
C 4.0312750639 0.4299814776 1.6779535159
C 5.3979239747 0.1636763304 1.7296999003
C 6.0540384614 -0.3933710508 0.6346756165
C 5.3384864177 -0.6875702122 -0.5244585468
C 3.9742540179 -0.4222257954 -0.5951088815
O 0.6424388859 1.1731952312 2.4438741355
C -0.1254019398 0.0099317973 2.6284724703
C -1.5027587702 0.1399175986 2.7278188387
C -2.2710766823 -1.0049077922 2.9207183984
C -1.6597427637 -2.2536174998 3.0171476079
C -0.2729558720 -2.3571130813 2.9321053512
C 0.5083148091 -1.2201814223 2.7379865385
H 0.6616110703 2.3613218145 -3.0710403338
H 1.8343519316 1.8319538696 -1.8521453982
H 0.8315244902 3.2814055452 -1.5734596564
H -1.7114254989 1.9726056544 -2.8039530383
H -1.5775832874 3.1190822116 -1.4624955877
H -2.8199349029 2.7710796165 0.6170160200
H -4.7705637899 1.7246987823 1.7200393926
H -5.8957087613 -0.2252041691 0.6707053259
H -5.0636286906 -1.1035071898 -1.4987771898
H -3.1143057955 -0.0513873164 -2.5963242169
H 0.6617347205 0.2789361028 -3.6637785690
H 0.6716092882 -2.0952833118 -4.2760433713
H -0.1724564996 -3.8069971158 -2.6838802624
H -1.0462569627 -3.0894456280 -0.4677285391
H -1.0687748688 -0.7084465318 0.1423201918
H 3.5175639511 0.8564256050 2.5329418187
H 5.9476286714 0.3919419944 2.6371838884
H 7.1180457401 -0.5992495638 0.6851023813
H 5.8416231971 -1.1238005527 -1.3814687887
H 3.3965289734 -0.6432544545 -1.4867506156
H -1.9590700658 1.1184876907 2.6337665060
H -3.3507818383 -0.9167421946 2.9877331251
H -2.2626187601 -3.1438742847 3.1629730526
H 0.2082857589 -3.3264467773 3.0136362009
H 1.5886486634 -1.2858973097 2.6660395324
