47
CONF34
C -3.3451340591 -3.1619678093 0.6493098175
C -2.8544606455 -1.8365942254 0.0710893180
C -3.9951500068 -0.9775141848 -0.4781196285
C -3.5266311448 0.3795125634 -1.0134069634
C -3.1885153995 1.3966554802 0.0886341213
C -4.4514031587 2.0738630864 0.6436693251
C -4.2588725588 2.7240233765 2.0134848236
C -2.2233886917 2.4570293368 -0.4325666160
O -0.9534746972 1.8778995293 -0.8166853396
C -0.0821262771 1.6386602294 0.2033401213
O -0.3053017558 1.9297955409 1.3622347075
C 1.1323376424 0.9969996595 -0.3106875395
C 2.1303995223 0.6706951355 0.5304828198
C 3.3931578792 0.0361604473 0.2079300308
C 4.3063661978 -0.2342482717 1.2441771039
C 5.5240068639 -0.8369971373 0.9983029973
C 5.8729328146 -1.1934473494 -0.3087547756
C 4.9837865804 -0.9354960947 -1.3595437291
C 3.7655189453 -0.3295367865 -1.0934946777
O 7.0888992266 -1.7805503344 -0.4556224285
C 7.4915688896 -2.1602184156 -1.7702956345
H -2.5144576202 -3.7704201874 1.0195284588
H -4.0343187266 -2.9939338884 1.4840742283
H -3.8787330257 -3.7472709681 -0.1077270907
H -2.3042118886 -1.2835285209 0.8426801927
H -2.1343490349 -2.0279749999 -0.7355127403
H -4.7515446631 -0.8332538158 0.3063409661
H -4.4970888134 -1.5333165819 -1.2809311577
H -4.2981697056 0.8173442961 -1.6622614065
H -2.6431679177 0.2176710874 -1.6435186794
H -2.6846296104 0.8829406797 0.9172670101
H -4.8042499344 2.8199637570 -0.0836324217
H -5.2493989361 1.3250764563 0.7138961882
H -5.1842930952 3.1960576651 2.3575268893
H -3.4800735771 3.4917867493 1.9993342032
H -3.9642221746 1.9763781276 2.7568586523
H -2.6103267155 2.9073976328 -1.3531811225
H -2.0444588723 3.2378795736 0.3116136996
H 1.1694215434 0.8074156161 -1.3778630399
H 1.9710724605 0.9116395868 1.5809103538
H 4.0436444467 0.0396696813 2.2618623416
H 6.2246582903 -1.0433752251 1.7997779210
H 5.2314757715 -1.2011099777 -2.3796396834
H 3.0919802424 -0.1375397561 -1.9219489630
H 7.5533218320 -1.2886649375 -2.4341398653
H 6.8056490578 -2.9026318291 -2.1974678165
H 8.4819527960 -2.6029240977 -1.6599466755
