66
CONF84
C -1.0142507834 -2.5435681049 3.2289901677
C -1.8075325315 -2.3111555576 1.9589915993
O -1.5947889641 -0.9615373855 1.4691784733
C -2.3710279386 0.0266683937 1.9932217561
O -3.2869179099 -0.2020417704 2.7737541237
C -1.9468326903 1.3299760708 1.4920631332
C -2.6518841604 2.4578312311 1.7917016180
N -2.2430756798 3.6593380072 1.2569645448
C -1.2960134566 3.7917238537 0.2655796746
C -0.5538573777 2.7035907897 -0.0883728827
C -0.6499465036 1.4039133725 0.6989364945
C 0.5485257606 1.2413353501 1.6382181236
C 0.6934053226 2.1782437178 2.6653352130
C 1.7492909397 2.1198677518 3.5653423660
C 2.6928413878 1.0981319472 3.4552542820
C 2.5700979864 0.1613434721 2.4429636439
C 1.5130210411 0.2138855146 1.5140296917
C 1.4208092241 -0.7866348569 0.4573776575
C 2.4262806844 -1.5599555365 0.0074022349
C 2.2702326744 -2.5594499141 -1.0586448272
O 3.1941701447 -3.2744631275 -1.4249034575
O 1.0265015097 -2.5841854165 -1.5700769658
C 0.6356001394 -3.5247833060 -2.6505925481
C -0.8295285447 -3.1701139219 -2.8731677102
C 1.4516547074 -3.2474069686 -3.9075443266
C 0.7736167979 -4.9621432686 -2.1631026209
C 0.3661364473 2.7631865655 -1.2197900095
O 0.5828221891 3.7267919492 -1.9449618064
O 0.9876037788 1.5650314177 -1.3957816999
C 1.8690965846 1.4323064911 -2.5410149085
C 1.0818873829 1.0901370248 -3.7895542282
C -1.2218170545 5.1597019920 -0.3387562748
C -3.8753155821 2.5443894378 2.6508402015
H -1.3586677431 -1.8850438215 4.0312025974
H 0.0507031368 -2.3620781757 3.0538524896
H -1.1401727610 -3.5810358719 3.5541939744
H -2.8773742856 -2.4771463481 2.1100560725
H -1.4526270066 -2.9504934973 1.1464186529
H -2.7853966673 4.4780175910 1.4906156662
H -0.6466660479 0.5878431209 -0.0183334265
H -0.0401216606 2.9735729870 2.7613448671
H 1.8323773198 2.8612912317 4.3539377179
H 3.5130816989 1.0290864214 4.1626959417
H 3.2922372935 -0.6459963843 2.3789907041
H 0.4534607755 -0.9163767304 -0.0107690460
H 3.4380616110 -1.4873168149 0.3936444005
H -1.2412674993 -3.8012686601 -3.6653730204
H -1.4075646869 -3.3338252908 -1.9587140758
H -0.9288984966 -2.1222682254 -3.1724314820
H 1.0351398001 -3.8352697089 -4.7313847569
H 2.4991997940 -3.5212234381 -3.7775591550
H 1.3859276779 -2.1883931325 -4.1758247913
H 1.8189294280 -5.2431884770 -2.0292506951
H 0.2394368312 -5.0938954464 -1.2169055204
H 0.3241402993 -5.6283395398 -2.9059363409
H 2.5426237927 0.6174000242 -2.2625107569
H 2.4447717942 2.3538847770 -2.6618007733
H 0.4915435349 0.1822259987 -3.6323052304
H 0.4105010036 1.9067300104 -4.0679932628
H 1.7735037792 0.9109439653 -4.6188945543
H -1.5974364381 5.1446243565 -1.3659802085
H -0.1899956606 5.5100558690 -0.3838552670
H -1.8199866626 5.8670708937 0.2408591841
H -4.2458691926 3.5713578367 2.6917549944
H -4.6653068426 1.8983682173 2.2613366367
H -3.6590947516 2.2007329627 3.6650386836
