31
CONF6
C 3.8433561590 2.4706532784 -0.1060488028
O 3.0177637199 1.4170159520 -0.6538601251
C 2.2716178688 0.7642628007 0.2528307634
O 2.1327310303 1.0850815245 1.4075249973
C 1.5242038144 -0.3667857826 -0.3879824008
C 2.1376023288 -1.4379419421 -1.0378027266
C 1.3895722767 -2.4261136188 -1.6707666758
C 0.0094978245 -2.3650393861 -1.6370110181
C -0.6114972826 -1.3085739455 -0.9696849880
C 0.1360049124 -0.3099172449 -0.3501794956
O -1.9820085350 -1.3110070505 -0.9950308024
C -2.6590298007 -0.4189880536 -0.1863973454
C -2.7839699010 -0.6392820619 1.1874774596
C -3.5252549369 0.2349668289 1.9741421796
C -4.1441832486 1.3209050283 1.3663256830
C -4.0390353346 1.5499807308 -0.0009374547
C -3.2886281541 0.6712820663 -0.7715329616
Cl -5.0815921598 2.4179874692 2.3523295252
Cl -2.0152253477 -2.0150343452 1.9208238276
N 3.5955463524 -1.5936910163 -0.9971350725
O 4.1964508736 -1.0369046980 -0.0837660189
O 4.1149375058 -2.2940402260 -1.8582345394
H 4.5471215995 2.0469126899 0.6148343237
H 3.2227128879 3.2235985885 0.3855986993
H 4.3713655931 2.8957692576 -0.9585753411
H 1.9035177078 -3.2448375220 -2.1590401692
H -0.6007810646 -3.1300358371 -2.1025130835
H -0.3472929483 0.5169689294 0.1575018047
H -3.6195222504 0.0637705547 3.0390064093
H -4.5329821536 2.4008501138 -0.4535155326
H -3.1829999298 0.8181869119 -1.8408811260
