52
CONF13
O 4.4106303042 -2.0235241029 -0.3437992615
C 3.0307191085 -1.6941157482 -0.1625000267
C 2.8080720823 -0.2023636784 0.0655879332
C 3.8270478370 0.5035023647 0.7421663352
C 3.6677121701 1.8555552885 0.9020805252
C 2.5443475923 2.5197342558 0.4222411585
C 1.5308614907 1.8545771538 -0.2169540540
C 1.6609690335 0.4614183486 -0.3988719241
C 0.4947422626 -0.2456405709 -1.0925190803
C -0.8457984772 0.1048059762 -0.4652627888
C -1.9563808487 0.3020745697 -1.2776157375
C -3.2040018557 0.5524364789 -0.6991452234
O -4.3556777755 0.7271549965 -1.4017406007
C -4.2816528177 0.5783491711 -2.8180440483
C -3.3320098980 0.6408693785 0.6928730053
O -4.5363910816 0.9649936983 1.2574002844
C -5.3394173697 -0.1816211336 1.5707786396
C -2.2048953273 0.4333924685 1.5013429961
O -2.4295326630 0.5218104724 2.8425917388
C -1.3038722267 0.3743043085 3.7005484065
C -0.9635056125 0.1647326033 0.9237684531
C 0.7287820923 -1.7540148216 -1.0786348225
C 0.0089679931 -2.6085130190 -2.1091639816
O 0.7854485353 -3.7111688366 -2.3602441020
C 2.0416981771 -3.6186854920 -1.6289669471
C 2.1791710885 -2.1332495112 -1.3302089651
O -1.0383452683 -2.4285818869 -2.6659210145
O 2.6182741639 3.8514926928 0.7459011005
C 3.9519791998 4.0404572768 1.2474213931
O 4.4903517683 2.7424371421 1.5519539290
H 4.7619325788 -1.4346528553 -1.0244471256
H 2.7342399968 -2.2606406677 0.7330383374
H 4.7024490395 -0.0161121913 1.1132903665
H 0.6388879913 2.3722695478 -0.5525264947
H 0.4700097093 0.0821673624 -2.1414286606
H -1.8485914726 0.2097556791 -2.3499301606
H -3.9106971131 -0.4165115060 -3.0950852937
H -5.3025669262 0.7047959088 -3.1808640718
H -3.6393280495 1.3478681417 -3.2656615484
H -5.5693630586 -0.7531705746 0.6629442437
H -4.8278902799 -0.8257998691 2.2971097154
H -6.2644465106 0.2001507786 2.0077533693
H -0.8544102773 -0.6233825013 3.6061403454
H -0.5424710284 1.1379846025 3.4943421192
H -1.6846011473 0.5051181669 4.7144741951
H -0.0810357260 0.0269413099 1.5369046744
H 0.4320343756 -2.1477875780 -0.0912914032
H 2.8242888473 -4.0326196667 -2.2661234859
H 1.9630773516 -4.2132323051 -0.7090794813
H 2.5271611346 -1.6121852183 -2.2361475278
H 4.5684660855 4.5156798730 0.4690441100
H 3.9145619398 4.6407447138 2.1604801711
