47
CONF2
C 0.5901160885 -1.0503781512 -0.3034978414
C 1.2501213203 -2.2035595302 0.4515019440
C 2.7523324381 -1.9494993661 0.6547984661
C 3.0594954548 -0.4625354042 0.9570210290
O 4.2137673153 -0.4498766801 1.7981937820
C 1.8067434730 0.2020940721 1.5608784967
C 0.9525500163 0.3621947032 0.2963982224
C 1.9587110927 1.0581035581 -0.6453296960
C 3.2521153814 0.3395865331 -0.3340017639
C 4.3909119496 0.4086317911 -1.0181803040
C -0.4207853677 1.0860670719 0.4984796406
C -0.3330753124 2.5679095930 0.2539342977
O 0.1583635839 3.2160300883 1.3303970141
O -0.6277099196 3.1318449580 -0.7802787491
C -1.3863712698 0.3699028220 -0.4488188054
C -2.8374559385 0.2050973026 0.0075509116
C -3.5635319920 1.4469299194 0.4930381656
C -3.6293126374 -0.5122369681 -1.1397289358
O -4.0500936744 0.4107037633 -2.1505897416
C -2.8516048511 -1.6450197016 -1.7638470881
C -1.5850898079 -1.9161018262 -1.4397726292
C -0.9234781637 -1.0836695481 -0.3818290790
O -1.5019824550 -1.5151067903 0.9350159057
C -2.6535610072 -0.8276064324 1.1235068858
O -3.3830142290 -1.0486849903 2.0623806350
H 0.9358564985 -1.0737999807 -1.3458339436
H 0.7663634255 -2.3164072487 1.4249618273
H 1.0959451443 -3.1436835365 -0.0884651377
H 3.3273843218 -2.2601637376 -0.2232370249
H 3.1041871294 -2.5387507040 1.5084995901
H 4.5147933435 0.4670408606 1.8600948012
H 2.0617089888 1.1867385108 1.9706826585
H 1.3358695615 -0.3973481998 2.3444905486
H 1.6741106918 1.0138943674 -1.7009330179
H 2.0680946313 2.1163821998 -0.3707825093
H 5.2757268258 -0.1277435105 -0.6854640986
H 4.4729490585 1.0035914060 -1.9235987608
H -0.7200356780 0.9367059773 1.5422768963
H 0.2426624734 4.1596454560 1.1076463397
H -1.2919793139 0.7741156125 -1.4605756753
H -4.5865081466 1.1964808685 0.7901253913
H -3.0549112553 1.8827492890 1.3583028759
H -3.6046695625 2.1912840858 -0.3044089629
H -4.5636586272 -0.8960227866 -0.7105443939
H -3.2817201506 0.6396029651 -2.6917793193
H -3.3769103448 -2.2234374850 -2.5198248362
H -1.0334198895 -2.7316954190 -1.8988540325
