52
CONF56
C -3.0458274192 2.7264070496 2.5204573860
C -1.5679740133 2.4360306138 2.2473538882
C -0.6768160298 3.4455743295 2.9715889661
C -1.2946485141 2.4851262299 0.7310763611
C 0.1206380980 2.1353750046 0.2920970900
C 0.8854673417 1.1661255453 0.9444870007
C 2.1484026940 0.8173470771 0.4778902489
C 2.6349057017 1.4356565823 -0.6670884257
C 1.8953231673 2.3943113272 -1.3469510279
C 0.6397637317 2.7381564576 -0.8562179269
Cl 4.2305956775 0.9992183659 -1.2699224630
C -2.1926103731 1.5622751233 -0.0701270356
O -2.8204540239 1.8682663832 -1.0568703943
O -2.1416964993 0.2913425235 0.4181592268
C -2.6523842960 -0.7254640723 -0.4891130028
C -2.9322227585 -1.8916981529 0.3456139879
N -3.1543015754 -2.8348751878 0.9734467144
C -1.6232726349 -1.0276187919 -1.5563497101
C -0.3596461725 -1.4690488496 -1.1651256349
C 0.6052886804 -1.6939598247 -2.1403250658
C 0.3253789903 -1.4694609430 -3.4877362325
C -0.9371608294 -1.0232355034 -3.8588734927
C -1.9214615562 -0.8039378417 -2.8981566243
O 1.8926662440 -2.0785408721 -1.8343950296
C 2.1224688595 -2.9327895204 -0.7661542874
C 1.2860456099 -4.0109556015 -0.4845363505
C 1.6197574941 -4.8666870849 0.5614832890
C 2.7773281817 -4.6578549135 1.3092551471
C 3.6106536909 -3.5847207626 1.0013816626
C 3.2864117318 -2.7152413622 -0.0361378339
H -3.3182559187 3.7179116518 2.1403834784
H -3.2440111955 2.7096390186 3.5962466771
H -3.7021138713 1.9874789991 2.0478507323
H -1.3409036571 1.4288383617 2.6150366544
H 0.3852709823 3.2455948816 2.8029795627
H -0.8642244988 3.4102185543 4.0490518550
H -0.8926336171 4.4622318256 2.6225378277
H -1.5252392079 3.4938399871 0.3714790319
H 0.5041931119 0.6682589278 1.8294145987
H 2.7390777197 0.0707889219 0.9961989453
H 2.2902463527 2.8682332213 -2.2383708726
H 0.0539414491 3.4873670510 -1.3812071617
H -3.5900807248 -0.3850796819 -0.9420288258
H -0.1285938771 -1.6254687744 -0.1167513128
H 1.0998252335 -1.6474845583 -4.2262379628
H -1.1558160076 -0.8476786982 -4.9069876382
H -2.9062449091 -0.4511487274 -3.1850546736
H 0.3912189868 -4.1803001951 -1.0738433559
H 0.9707647946 -5.7077286820 0.7846525089
H 3.0300227832 -5.3307283509 2.1219272666
H 4.5180635337 -3.4166619085 1.5729113182
H 3.9248735295 -1.8759826683 -0.2903994868
