34
CONF190
C -3.9532892368 -0.9788702181 1.1332306379
C -2.5478509006 -1.5000827387 0.9668683209
O -2.3368838694 -1.9129983414 -0.4418029584
P -1.4655100190 -1.0444771863 -1.4385238036
S -1.3490644786 -1.7877158543 -3.2187675959
O -2.0109397768 0.4357413871 -1.2391507711
C -1.4931229749 1.5601921308 -2.0395037305
C -2.3217702149 2.7699931703 -1.6922368025
O 0.0063947104 -0.8240353767 -0.6669907699
N 0.7211469932 -2.0129432854 -0.5413222984
C 1.8606326223 -1.8319743525 0.0475870527
C 2.5597204737 -3.0743153175 0.2264548682
N 3.1522374712 -4.0557038897 0.3800664695
C 2.5046536098 -0.6098870112 0.5570269466
C 3.2878426713 -0.7032777601 1.7170207442
C 3.9123207655 0.4260828444 2.2295653091
C 3.7850006171 1.6499277103 1.5764983018
C 3.0305495994 1.7409965512 0.4079575758
C 2.3852649572 0.6224669240 -0.1027572348
H -4.6851830916 -1.7340259607 0.8344440745
H -4.1164258804 -0.7383866232 2.1887248464
H -4.1089262972 -0.0725401819 0.5426618403
H -1.7956603320 -0.7551612109 1.2413344161
H -2.3748381087 -2.4104085043 1.5444424148
H -1.5800601334 1.2907849381 -3.0964705589
H -0.4383059301 1.7000535429 -1.7828930939
H -3.3736337400 2.6051929219 -1.9406062662
H -1.9576966814 3.6244001403 -2.2704743694
H -2.2362688314 3.0091961412 -0.6288735554
H 3.3950503487 -1.6566419102 2.2254131689
H 4.5037993919 0.3481421683 3.1357052528
H 4.2800130252 2.5306773947 1.9727825169
H 2.9450012530 2.6893846089 -0.1122303208
H 1.8158017755 0.7002138419 -1.0192690315
