50
CONF14
C 4.2337625522 -2.9393664067 -0.9857958667
C 3.0972355795 -2.3752845326 -0.1883459001
O 3.1654676614 -1.9938688986 0.9604704142
O 1.9570539824 -2.3682427273 -0.9250682519
C 0.7467621550 -1.8666269793 -0.3084589323
C -0.3054337491 -2.9487211726 -0.2905132139
C -1.5602504093 -2.6273169684 0.0449418470
C -1.7953491532 -1.1888711689 0.3887618226
C -3.2137019616 -0.6630562226 0.6499775351
C -3.1515957280 0.8161312332 1.1921935398
C -1.9051949438 1.5916035609 0.8153298263
C -1.0199775748 1.0264206221 -0.0836070974
C -1.1949547562 -0.3020685986 -0.7282680477
C 0.2516325104 -0.6681392049 -1.1195870009
O 1.0782368339 0.5332968524 -0.8823943994
C 0.2967888015 1.4321159802 -0.2121970375
C 0.7132044215 2.5951782652 0.4142089548
C -0.2008897251 3.2763747855 1.2190635275
C -1.4825878174 2.7721421641 1.4475388660
O 2.0179377068 3.0744613660 0.2603209384
C 3.0005809409 2.4145655524 0.9588971092
O 2.7654798655 1.5224992283 1.7378302888
C 4.3486311646 2.9483447649 0.5961907983
C -2.1006180803 -0.3138770014 -1.9712089726
C -3.5476259140 0.0193735937 -1.6473550415
N -4.0269440336 -0.8388176252 -0.5623475539
C -5.4536953263 -0.6407596082 -0.3201203155
H 4.1100648337 -4.0258211659 -1.0497515186
H 4.2276153160 -2.5440218155 -2.0037363413
H 5.1772640345 -2.7150495814 -0.4896173929
H 0.9823701869 -1.5315645077 0.7108561298
H 0.0048743646 -3.9577307329 -0.5440653079
H -1.2165709133 -0.9780924130 1.3018665517
H -3.6770308203 -1.2777625367 1.4307442885
H -3.1986060799 0.7871298369 2.2869712314
H -4.0541595805 1.3512264224 0.8743543822
H 0.3463513302 -0.8951762314 -2.1848846870
H 0.1307926209 4.1818750419 1.7178729221
H -2.1324588751 3.2775824358 2.1558532540
H 5.0830103478 2.6188214378 1.3300134588
H 4.6218512061 2.5550253093 -0.3891346319
H -1.7062837057 0.3965361526 -2.7066627118
H -2.0502053940 -1.3160660337 -2.4146431383
H -3.6468452048 1.0939547511 -1.3965906433
H -4.1712542086 -0.1563550096 -2.5315873211
H -5.7198449977 0.4001881708 -0.0595365773
H -6.0127900973 -0.9077475710 -1.2234787422
H -5.7837834739 -1.2927753950 0.4955442228
H 4.3301580374 4.0378647613 0.5252321747
H -2.3588115721 -3.3630924186 0.0779414106
