59
CONF13
C 0.7467660066 0.1435965581 2.9683184616
C 0.4296295161 1.5260103756 3.5437003948
C 1.6393183732 2.3545497480 3.0953308583
C 2.0053532258 1.8240904255 1.6803411103
C 1.2279684765 0.4759663889 1.5518109080
C 3.5100054665 1.6202667937 1.5298177809
C 3.9330678500 1.2030324713 0.1440706671
O 4.9638343675 0.5741071915 -0.0538192369
N 3.1110749992 1.5596021083 -0.9301646736
C 1.9555388203 2.3397522138 -0.7986979050
O 1.2865975122 2.6383533252 -1.7780955404
C 1.5982948428 2.8099911436 0.5870952432
C 3.4933413491 1.0703887623 -2.2726840550
C 3.0980940302 -0.3912553991 -2.4899973250
C 1.5994785340 -0.6426695391 -2.3436045838
C 1.2381565950 -2.1185174190 -2.5745409780
N -0.0749982666 -2.5511283034 -2.0692308263
C -1.1675377720 -1.7174926778 -2.5848546073
C -2.5153920786 -2.2397626479 -2.0934433453
N -2.5263333671 -2.2659520425 -0.6259911793
C -1.4574405784 -3.1350995340 -0.1214668297
C -0.1065244306 -2.6135035378 -0.6025259715
C -2.8897968049 -1.1464638011 0.0797692557
N -3.6007056396 -0.1970866427 -0.5749928115
C -3.9784833350 0.8604110359 0.1412655675
C -3.6731424530 1.0163070255 1.4885397565
C -2.9474449391 -0.0189326694 2.0658254989
N -2.5487660073 -1.0951232705 1.3899122697
H -0.1039733129 -0.5443616075 2.9722673312
H 1.5576837312 -0.3179829390 3.5461721482
H -0.4902338703 1.9138688606 3.0861716686
H 0.2923336670 1.5290412086 4.6293095514
H 2.4770044898 2.1660609534 3.7777668878
H 1.4540638276 3.4332141690 3.0909487322
H 1.8403720632 -0.3183941112 1.1110510939
H 0.3567774270 0.6175117977 0.8984877537
H 4.0411678694 2.5552939252 1.7613258239
H 3.8877754607 0.8577629410 2.2178754054
H 0.5227200128 3.0069304413 0.5930483489
H 2.1114183897 3.7703112237 0.7422043272
H 4.5739683912 1.1926351082 -2.3723434024
H 2.9943181443 1.7142411145 -2.9981256744
H 3.4313902441 -0.6719790476 -3.4977133058
H 3.6491230114 -1.0261215382 -1.7858953787
H 1.0523108674 -0.0044843364 -3.0465413256
H 1.2843353941 -0.3444939525 -1.3366411565
H 1.9931996425 -2.7548779868 -2.0933510508
H 1.2764752432 -2.3342140107 -3.6515055212
H -1.0742400330 -0.6618449019 -2.2651112597
H -1.1379486872 -1.7378375777 -3.6816350463
H -2.6713339503 -3.2670679718 -2.4433006794
H -3.3269396610 -1.6141984107 -2.4629333272
H -1.6346527433 -4.1416086174 -0.5184190309
H 0.0632958713 -1.6266136423 -0.1322504427
H 0.6900280779 -3.2869455439 -0.2633845154
H -4.5494572442 1.6209347116 -0.3906855835
H -3.9817971242 1.8875914081 2.0523357932
H -2.6689938923 0.0171443866 3.1188751582
H -1.4878977435 -3.1746383996 0.9665773132
