82
CONF414
C -1.5590430541 3.4935911272 -0.7886539451
C -2.4034129301 2.3121160129 -1.1866065522
C -3.0360113127 2.2904902184 -2.3638539651
C -2.4986293262 1.2390994159 -0.1217868083
C -3.4919262230 1.6473548530 0.9971787900
C -3.7708888288 0.3362192969 1.7264813598
C -3.8864863577 -0.7199622486 0.6068132750
C -2.9625806392 -0.1792434099 -0.5410582631
C -1.9507710923 -1.2522072842 -1.0190437325
C -1.0703077714 -0.7888646388 -2.1778692319
C 0.2094487827 -0.1004653733 -1.7280524471
C 1.0866106682 -1.0477368954 -0.8884009351
C 2.5623406424 -0.5139604207 -0.6197657560
C 3.0104454405 0.4368177788 -1.7484470666
C 4.4519777828 0.9503120119 -1.5757422794
C 4.8902661834 1.0777059196 -0.1181052767
C 3.7173095649 1.4313753034 0.8121231947
C 2.6667018000 0.2542134784 0.7485546812
C 1.2917313521 0.7525761686 1.1967337727
C 0.2663488330 -0.3576125323 1.4228854630
C 0.3224968929 -1.5235353941 0.3929617567
C -1.1310912170 -2.0885858158 0.0299489006
C -1.9852777522 -2.2726736375 1.3165061719
C -3.4858212306 -2.1285422586 1.0717193127
C -0.9977412541 -3.4924948868 -0.6128145158
C 1.0943531774 -2.6607834565 1.1017378514
C 4.2395493805 1.5188125473 2.2558352611
C 3.1502847314 2.8135379393 0.4390400992
O 5.9544991937 2.0537459815 -0.0952654795
C 3.5227975489 -1.7269952569 -0.6723186724
C -5.3191534406 -0.7604885858 0.0514560477
O -6.2932332631 -1.3071036277 0.9523162473
H -0.5184475993 3.1831957984 -0.6255400160
H -1.9072193669 3.9214482309 0.1590477214
H -1.5727228878 4.2768577952 -1.5505113594
H -3.6499549405 1.4562593290 -2.6864546619
H -2.9512925450 3.1285367988 -3.0505372824
H -1.5101490516 1.1834325769 0.3417364608
H -3.0900373044 2.4250803857 1.6532886181
H -4.4094980679 2.0382854095 0.5405031937
H -2.9278079270 0.0951478757 2.3840066649
H -4.6628329425 0.3811252446 2.3632385710
H -3.6082168779 -0.0379288027 -1.4174759175
H -2.6328041861 -1.9968051981 -1.4514894985
H -0.7921532064 -1.6563088460 -2.7911331690
H -1.6454664498 -0.1208771360 -2.8291115073
H -0.0308276816 0.8179920019 -1.1844722546
H 0.7501307313 0.2072167385 -2.6261330543
H 1.2219331979 -1.9381796759 -1.5184262317
H 2.3317099062 1.2915484658 -1.7934121556
H 2.9246875313 -0.0740005957 -2.7155826156
H 5.1642234215 0.3075173397 -2.1044746600
H 4.5325929943 1.9428830503 -2.0344539636
H 5.3046833249 0.1258033156 0.2416524569
H 3.0134081178 -0.4747075905 1.4939310285
H 1.3878960245 1.3246289879 2.1266452372
H 0.9195972095 1.4630300124 0.4512687815
H -0.7250009929 0.0946800388 1.4548243293
H 0.4199140340 -0.7745439241 2.4259352628
H -1.7900201093 -3.2627204233 1.7447505879
H -1.6959292507 -1.5553885809 2.0870922227
H -3.8168925219 -2.8637655882 0.3252287835
H -4.0298385769 -2.3655460391 1.9935816200
H -0.4159402737 -3.4770350653 -1.5396501556
H -1.9942821948 -3.8778260692 -0.8540011943
H -0.5326239324 -4.2099314407 0.0655917038
H 0.4575388404 -3.1190059864 1.8658104923
H 1.9703861896 -2.2679517212 1.6198182299
H 1.4281610923 -3.4430388241 0.4160192904
H 3.4102616351 1.6263250043 2.9625583863
H 4.8942750400 2.3872388687 2.3899116807
H 4.7993393002 0.6152421611 2.5254907124
H 2.6564766287 2.8317328074 -0.5351048400
H 3.9703676416 3.5371485533 0.4138022106
H 2.4297312594 3.1560493273 1.1867934958
H 6.4068042173 1.9769511427 0.7535937802
H 4.5708926330 -1.4239944217 -0.6803662560
H 3.3460231337 -2.2930731109 -1.5943158012
H 3.3924542151 -2.4066518828 0.1685035997
H -5.6239940056 0.2458642776 -0.2744791478
H -5.3345324805 -1.4157514878 -0.8283151509
H -6.4297910321 -0.6729011239 1.6663093273
