82
CONF117
C -3.0987336535 2.4706385613 -1.4640104137
C -2.3180336774 2.1866197875 -0.2105444072
C -1.3473352491 3.0095378707 0.2003265009
C -2.7093366152 0.9828629812 0.6124479552
C -4.0461429343 1.1965757876 1.3528046329
C -4.3502963442 -0.1902445122 1.9099717390
C -3.8938349351 -1.1887519825 0.8133691352
C -2.9684259347 -0.3529017623 -0.1365743467
C -1.8023803616 -1.1866071997 -0.7173789938
C -0.9918503306 -0.3996462210 -1.7505923623
C 0.2830891386 -1.1449993735 -2.1131482947
C 1.2767794973 -1.2172758190 -0.9326241662
C 2.3645753492 -0.0500791038 -1.0546560352
C 1.8177492354 1.3129404086 -1.5476092903
C 2.9125139760 2.3797126931 -1.6677507042
C 3.6435807721 2.6475102993 -0.3575381934
C 4.1433039668 1.3408648710 0.3195791190
C 3.0442624545 0.2185358663 0.3164186805
C 1.9769782299 0.5141326337 1.4062778168
C 0.5708631562 -0.0451263888 1.1635172648
C 0.5651219268 -1.4031024193 0.4626929231
C -0.9024016731 -1.9935631744 0.2997016679
C -1.6641653395 -2.0690040925 1.6469057132
C -3.1441665531 -2.3826017171 1.4335150068
C -0.7858081144 -3.4582712086 -0.2062624746
C 1.3943762309 -2.3804333423 1.3235015936
C 5.4357457744 0.9081575466 -0.4055696728
C 4.5863486683 1.6364537850 1.7659916301
O 2.7327505833 3.4186477837 0.4486136382
C 3.3469120363 -0.6187448650 -2.1054496843
C -5.0899508399 -1.7465976578 0.0476613855
O -5.9052260761 -0.6683592121 -0.4268334392
H -2.8709378152 1.7392078195 -2.2471628728
H -2.8632506740 3.4648652683 -1.8507499514
H -4.1781486841 2.4125521081 -1.2862524889
H -0.7798962247 2.8122911036 1.1057159417
H -1.0861860041 3.9062244113 -0.3537269897
H -1.9439585288 0.8401555432 1.3823106921
H -3.9641775713 1.9712134276 2.1215083771
H -4.8258919452 1.4930992832 0.6446429989
H -3.7582743445 -0.3549940049 2.8190903413
H -5.4040582998 -0.3274787725 2.1723291517
H -3.5849117184 -0.0796924088 -1.0038098323
H -2.3204770134 -1.9666043845 -1.2950735596
H -1.6078467253 -0.2488880240 -2.6462485265
H -0.7473107133 0.5963790752 -1.3753847183
H 0.7608086105 -0.6770453843 -2.9783347509
H 0.0147624243 -2.1528128340 -2.4493787494
H 1.8687379061 -2.1304754672 -1.0742233992
H 1.0560156534 1.6945677770 -0.8613809154
H 1.3361134076 1.2110968528 -2.5253479797
H 3.6421663253 2.1039207906 -2.4348074019
H 2.4648129574 3.3240929778 -1.9956979676
H 4.5333775654 3.2680477077 -0.5651290464
H 3.5762098191 -0.7036660112 0.5914885212
H 2.3535120390 0.1363333095 2.3631790815
H 1.8720463395 1.5943026450 1.5209954370
H -0.0056705731 0.6659267389 0.5711498346
H 0.0757061087 -0.1063426794 2.1384915796
H -1.2142900607 -2.8351488070 2.2863996922
H -1.5911590576 -1.1248021559 2.1937183982
H -3.2443192197 -3.2693329287 0.7947853675
H -3.6204244792 -2.6411249867 2.3872124360
H -1.7442181103 -3.8214968393 -0.5864446723
H -0.4824361298 -4.1321547659 0.6000836169
H -0.0597976480 -3.5693444830 -1.0142570687
H 1.5200253656 -3.3496755409 0.8359685568
H 0.9257514472 -2.5446400651 2.2993828082
H 2.3946099844 -1.9900588339 1.5122898863
H 6.2550227982 1.5807521911 -0.1291872758
H 5.3577927705 0.9291255552 -1.4911921660
H 5.7246768974 -0.1056091583 -0.1098878093
H 3.7728321734 1.9535579477 2.4209927475
H 5.3553720106 2.4189442064 1.7682156596
H 5.0328937350 0.7402987180 2.2120637754
H 3.2032205529 3.7012316775 1.2400722040
H 3.9869830624 0.1282033548 -2.5706454599
H 2.7894801184 -1.0964264668 -2.9171477904
H 3.9908412845 -1.3821594563 -1.6561300539
H -4.7258175978 -2.3574220871 -0.7962329198
H -5.6707774514 -2.4028415307 0.7175295894
H -6.6463989357 -1.0430329359 -0.9125354426
