39
CONF252
C -2.0840035296 -0.4202530881 -3.5814900627
C -2.5718850279 -0.7930147344 -2.1839624372
C -1.4471661049 -0.9041733893 -1.1538486940
N -0.6280245566 0.3239281071 -1.0408194068
C 0.7160449317 0.2832536069 -1.6285300171
C 1.7097785288 -0.4058912131 -0.7192328552
O 1.8064072840 0.3882500404 0.4948972389
C 2.6449170357 -0.1326862699 1.4283796277
C 3.9827387352 0.2738326711 1.5074180000
C 4.8456656541 -0.2029516669 2.4858341978
C 4.3480256211 -1.1177678444 3.4042306430
C 3.0304074812 -1.5551764635 3.3762112127
C 2.1978231053 -1.0533725397 2.3842152216
Cl 0.5315578473 -1.5727897792 2.3336823027
Cl 5.4184006174 -1.7373311209 4.6454616859
Cl 4.5761558220 1.4293633243 0.3415639248
C -1.0805528972 1.5128160033 -0.5928330833
O -0.5240998725 2.5962763631 -0.7286227736
N -2.3523293528 1.4781235122 0.0929368822
C -2.7417273962 0.7268025904 1.1897336007
C -3.9984655641 1.1659826965 1.5025679635
N -4.3982366261 2.1617256876 0.6291195417
C -3.3847288482 2.3366082140 -0.1899912238
H -1.6050267597 0.5648779821 -3.5842297396
H -1.3586670030 -1.1519002937 -3.9538061011
H -2.9206884189 -0.3834609815 -4.2849576171
H -3.0740710548 -1.7675858815 -2.2071926842
H -3.3178347925 -0.0670600494 -1.8406379989
H -1.8484179240 -1.1913419628 -0.1802400439
H -0.7553284366 -1.6971088657 -1.4527780567
H 1.0426526078 1.3045298843 -1.8310914685
H 0.6782329969 -0.2628441722 -2.5768068462
H 2.6895623771 -0.4475476013 -1.2103259993
H 1.3913192253 -1.4232443922 -0.4616625064
H 5.8748869388 0.1313206373 2.5256561397
H 2.6572959977 -2.2640321959 4.1047745847
H -2.0890244586 0.0067264792 1.6571484524
H -4.6310696790 0.8302744887 2.3126145221
H -3.3305244993 3.0368426088 -1.0133861321
