35
CONF15
C -5.5788871134 -1.1700061555 -0.2983897366
C -4.3546758410 -0.5082319023 0.3213576184
C -4.8012473570 0.7141173213 1.1174978875
O -5.2040831440 0.6399986194 2.2582960125
O -4.7626811149 1.8483295243 0.4017281371
O -3.4706429130 -0.1852755486 -0.7516429396
C -2.2110555156 0.2588283987 -0.4446562825
C -1.4047613583 0.5663650792 -1.5457065714
C -0.1098500770 1.0216188598 -1.3541917272
C 0.3740583026 1.1651963301 -0.0594600566
C -0.4128483350 0.8710225051 1.0386423239
C -1.7179909322 0.4142452146 0.8519496647
O 1.6528092671 1.7036212756 0.1464645638
C 2.7269647506 0.8776922761 0.0397906393
N 2.5403409494 -0.4157409393 -0.1729012627
C 3.6281405403 -1.1928595140 -0.2664947148
C 4.9175138303 -0.6970899243 -0.1492383880
C 5.0944698115 0.6742141359 0.0798293514
C 3.9847667359 1.4831446394 0.1773706116
C 6.1132553373 -1.5825332184 -0.2583463334
F 6.8553096356 -1.5783896503 0.8831167035
F 5.7902385297 -2.8692011837 -0.5136556768
F 6.9527762141 -1.1785275892 -1.2508231612
H -5.2693297877 -2.0742289161 -0.8273673209
H -6.2883616903 -1.4428373014 0.4861399487
H -6.0637530089 -0.4883442946 -1.0023040293
H -3.8721079668 -1.1972244503 1.0257397058
H -5.0962367603 2.5711940696 0.9615876123
H -1.8087271577 0.4454661024 -2.5452217976
H 0.5239748256 1.2634678316 -2.2009195126
H -0.0129947666 0.9960305534 2.0393364183
H -2.3183029298 0.1879320292 1.7251163073
H 3.4507721378 -2.2505280658 -0.4415337752
H 6.0902967168 1.0950485976 0.1771137151
H 4.0628501900 2.5495800803 0.3517759860
