75
CONF69
C 7.7533665270 -0.0335747883 -0.4831024030
C 7.2618341736 1.2701899540 -1.1132434301
C 7.1393542981 1.1133663188 -2.6311196204
C 5.9524699353 1.7576188096 -0.4335006883
C 5.5935261298 3.1905360138 -0.8522023255
C 4.7906900728 0.8394983184 -0.6832833191
C 4.2023215758 0.0760911698 0.2378551378
C 3.0419500187 -0.8508337952 0.0007084505
C 3.5011943069 -2.2967185099 0.2426171218
C 1.8608099875 -0.4228175793 0.8946961361
C 1.4325179769 1.0477470110 0.6070430322
C -0.0981881419 1.1272518690 0.8248414944
C -0.4321423456 -0.1990713640 1.5010704164
C -1.8431515778 -0.6969820192 1.5719070620
C -1.9313319717 -1.9992892118 2.3263785509
C -0.9519187778 -3.0518474701 1.7739979648
C 0.4803976709 -2.5167596223 1.6476467875
C 0.5318347403 -1.2242901327 0.8216546192
C 0.1258345679 -1.4808488305 -0.6362244829
C -2.8844043659 -0.0355716194 1.0197016104
C -4.2710126556 -0.4463187755 1.0259577304
C -5.3181582710 0.2202735439 0.4915156691
C -5.2217778867 1.5374851052 -0.2286419232
C -5.8375463001 1.4616650899 -1.6286677164
O -4.9722904548 0.6150294749 -2.4120028959
C -7.2634335173 0.9150424818 -1.5762199596
C -7.3316271424 -0.4257956525 -0.8431398224
C -6.7158586247 -0.3524058018 0.5697928096
C -7.6095021413 0.4435964091 1.5372049229
H 7.8810799743 0.0721070402 0.5999541393
H 7.0348354577 -0.8423516055 -0.6589928934
H 8.7146750489 -0.3349668083 -0.9127301061
H 8.0129145797 2.0482472230 -0.9128265440
H 6.7940864487 2.0321638395 -3.1150368423
H 8.1114842154 0.8541280232 -3.0634818635
H 6.4392081521 0.3100354563 -2.8863295529
H 6.1497721629 1.7602551209 0.6478097569
H 6.4434273130 3.8655283907 -0.7014512895
H 5.3050355392 3.2370907536 -1.9075047936
H 4.7496957002 3.5623168763 -0.2620742389
H 4.3988491196 0.8234368835 -1.7029403683
H 4.5851054360 0.0940503675 1.2626716187
H 2.7365563093 -0.7493798709 -1.0500342220
H 3.7205709672 -2.4618572068 1.3040623270
H 4.4125523206 -2.5028589591 -0.3280979733
H 2.7409827353 -3.0185364321 -0.0645841888
H 2.2052145669 -0.4884695629 1.9385818481
H 1.9724877287 1.7395516574 1.2601406408
H 1.6975126295 1.3227674979 -0.4199060647
H -0.3971944788 1.9874595515 1.4317790338
H -0.6166174005 1.2123470024 -0.1358763524
H -0.0717720772 -0.1334304580 2.5432571337
H -1.6613323851 -1.8001599691 3.3752784780
H -2.9452608287 -2.4060292302 2.3320292028
H -1.3065266561 -3.3935482045 0.7941630328
H -0.9593562939 -3.9291251830 2.4312571718
H 1.1147115584 -3.2946157793 1.2116188445
H 0.8768801553 -2.3023593579 2.6507398246
H 0.7135948722 -2.3013025551 -1.0611713013
H 0.2904576890 -0.5973999499 -1.2603849412
H -0.9325227705 -1.7453231442 -0.7169733382
H -2.6570832530 0.9042945036 0.5238988009
H -4.5014968360 -1.3934658022 1.5114650108
H -4.1916138338 1.8904528281 -0.3124862645
H -5.7769667352 2.3048540753 0.3284714360
H -5.8471593263 2.4716830871 -2.0665053647
H -5.3553133951 0.5467158828 -3.2955662273
H -7.8962050560 1.6603003980 -1.0776952669
H -7.6515788552 0.8112731945 -2.5976748775
H -8.3731222565 -0.7622660901 -0.7718724472
H -6.7873731858 -1.1790656357 -1.4246290336
H -6.6414262834 -1.3752767581 0.9599294147
H -7.7483116881 1.4798012850 1.2151587836
H -8.5993213811 -0.0211392112 1.6026703079
H -7.1698917702 0.4598004497 2.5395311153
