119
CONF13
C -7.2772448530 6.5130844913 -0.6812333378
C -7.3933025651 5.2848914890 0.2264268940
C -6.9813220329 5.6131835737 1.6629070506
C -6.6120288873 4.0593459806 -0.2995436187
C -7.2035850721 3.5518473493 -1.6286057229
O -6.8042276727 3.9973699038 -2.7009943959
N -8.1818337804 2.6149293910 -1.5635826838
C -8.8785765613 2.2137484019 -2.8033580199
C -10.0025008392 1.3364015699 -2.2911470535
C -10.0212422564 -0.1364054430 -2.5951627934
C -11.0553268096 0.7864400650 -3.1973174764
C -10.2810340301 1.8245959388 -0.8850748818
C -8.8557835199 2.0784460792 -0.3658242117
C -8.2379079530 0.7939580453 0.1265766198
N -8.9002942608 -0.1288028818 0.8046781437
C -7.9837803906 -1.1060168458 1.0769320421
C -6.7411902699 -0.7813152220 0.5592105383
N -6.9315891544 0.4512023925 -0.0430990793
C -5.4745689981 -1.4894432550 0.5853168739
C -4.2628745275 -0.8536576016 0.2462428801
C -3.0971086572 -1.5819986611 0.3037493957
C -3.0617740516 -2.9271434335 0.6953174583
C -4.2525441892 -3.5627760565 1.0306455284
C -5.4405748089 -2.8444238037 0.9647689720
C -1.6739395397 -3.3968136017 0.6641401259
C -0.8440052418 -2.3406749401 0.2573756978
C -1.6935345052 -1.1210305719 -0.0085587469
F -1.5708164526 -0.6752185061 -1.3108008227
F -1.3146547724 -0.0434648697 0.7709262995
C 0.5195470669 -2.4823432967 0.1352418214
C 1.1068308317 -3.7268295704 0.4334377915
C 0.2732369927 -4.7803974196 0.8405096298
C -1.1064091732 -4.6306049467 0.9565847010
C 2.5663061665 -3.9128072682 0.3333062112
C 3.4284048993 -2.8798754253 0.7147636440
C 4.7909793727 -3.1142689356 0.6037538837
C 5.3262388103 -4.3333181621 0.1252910075
C 4.4596415078 -5.3591019845 -0.2542966684
C 3.0970355884 -5.1342798063 -0.1452071140
N 6.7083837431 -4.2792186784 0.1268393294
C 6.9946409710 -3.0807137353 0.5894171122
N 5.8882046101 -2.3375855075 0.9109936962
C 8.4045728303 -2.5788219623 0.7395635970
C 9.2742526943 -3.5632513324 1.5558427613
C 10.7381495852 -3.0723639100 1.5094767725
C 10.7340249526 -1.8131626814 2.4330656225
C 9.2478706816 -1.7103364967 2.8177666553
C 8.8511503025 -3.1790476588 2.9839365546
N 8.5161537876 -1.3603729088 1.5739576540
C 8.4269691149 -0.0634121868 1.1763290892
O 8.7473797646 0.8705591785 1.9058744900
C 7.9049635598 0.2006401877 -0.2479837891
C 9.0815736752 0.2869634976 -1.2494793760
C 8.5688252991 0.2260764846 -2.6894651600
C 9.9806120469 1.5069972393 -1.0279256238
N 7.1151250746 1.4218407254 -0.2662544567
C 6.0009821986 1.4758431205 0.5186690283
O 5.4439353896 0.5078900557 1.0201275390
O 5.5555311818 2.7437113952 0.6419199867
C 4.3664909313 2.8880386585 1.4451909671
N -5.2044539369 4.3776419581 -0.4825113405
C -4.3836380302 3.3614631327 -0.8711048668
O -4.6868078188 2.1748133822 -0.8261646263
O -3.1821501279 3.8121656259 -1.2720598136
C -2.2462900524 2.7739695919 -1.6465214205
H -7.9921509811 7.2759946223 -0.3591835992
H -6.2832068945 6.9712165193 -0.6155241720
H -7.4757462380 6.2687052018 -1.7278647737
H -8.4493345144 4.9816408769 0.2330340604
H -7.5655423818 6.4560924959 2.0446326007
H -7.1396385241 4.7590135926 2.3291841235
H -5.9225735102 5.8860870302 1.7110511900
H -6.6656394757 3.2710651494 0.4596417031
H -9.2479167095 3.1136175105 -3.3131210577
H -8.1972463788 1.6971541796 -3.4874656017
H -9.2498068337 -0.5273200333 -3.2510859633
H -10.3324612680 -0.8075001315 -1.8017693455
H -12.0704101107 0.7301465989 -2.8170326279
H -10.9795482749 1.0105962764 -4.2570113621
H -10.8325661198 2.7729491028 -0.9057135344
H -10.8126189575 1.1017603449 -0.2651477682
H -8.8538056015 2.8219616397 0.4399581974
H -8.2561075934 -1.9883561973 1.6386233644
H -6.2191686884 1.0197015104 -0.4972640709
H -4.2343837916 0.1894210038 -0.0464556415
H -4.2662089789 -4.6059883578 1.3299911837
H -6.3717637839 -3.3459801352 1.2055990926
H 1.1332265854 -1.6567062042 -0.2109758909
H 0.7251863788 -5.7318854670 1.1015087289
H -1.7184100197 -5.4649439223 1.2845834575
H 3.0455668869 -1.9470936219 1.1149713539
H 4.8482477611 -6.2970767601 -0.6358146323
H 2.4066807261 -5.9063896246 -0.4685479096
H 5.8639745786 -1.3501186176 1.1617817115
H 8.8359564826 -2.4291617001 -0.2589390771
H 9.1124032591 -4.5952137800 1.2466483134
H 11.4063563418 -3.8473923288 1.8950935853
H 11.0588612993 -2.8454809622 0.4875874889
H 11.3528520771 -1.9596475377 3.3239408005
H 11.0749805973 -0.9037793748 1.9322437975
H 9.0071965231 -1.0118421751 3.6177907552
H 9.4425389778 -3.6818713003 3.7532539285
H 7.7850765724 -3.3256619742 3.1778859695
H 7.2519735027 -0.6179825394 -0.5690447527
H 9.6915587340 -0.6077377529 -1.0638713389
H 9.4047605090 0.2550666056 -3.3950352527
H 7.9995921287 -0.6909785361 -2.8718430916
H 7.9153645234 1.0775070273 -2.9041008329
H 10.8917089665 1.4043077751 -1.6246768440
H 10.2623319267 1.6229382871 0.0219345288
H 9.4941062758 2.4313480494 -1.3611469436
H 7.6328413985 2.2876409172 -0.3091608146
H 3.5341979529 2.3377140521 0.9991430500
H 4.5448290682 2.5203599812 2.4586663021
H 4.1571440801 3.9573365274 1.4557852319
H -4.9923078513 5.2726735423 -0.8987507065
H -2.6551961863 2.1667616477 -2.4571697497
H -1.3523018792 3.3034117281 -1.9742940358
H -2.0225476697 2.1332760414 -0.7903217075
