45
CONF6
C -2.9412726357 -2.9051016023 1.6976194872
C -2.4613550346 -1.4885872420 1.6438592359
N -3.1951363403 -0.4874069559 1.3042091229
O -4.4856207418 -0.8892237726 0.9524438756
C -5.2615104082 0.2729884795 0.6219164773
C -1.0728265131 -1.1379136122 2.0096958544
C -0.3324340134 -0.2233508242 1.2372259483
C 0.9241494734 0.1797098873 1.7054649326
C 1.4587498226 -0.3285722604 2.8801682249
C 0.7308979609 -1.2555407083 3.6173927758
C -0.5262766095 -1.6580219526 3.1862385478
O 1.6738356997 1.1610477670 1.0646520990
C 2.1238489457 0.9432767916 -0.2031049704
N 2.0219153117 -0.2798493689 -0.6972526795
C 2.4666797709 -0.4224223591 -1.9536325610
C 3.0242371412 0.6230933111 -2.6803375270
C 3.0880352783 1.8453964515 -2.0147615875
N 2.6326704331 2.0297576260 -0.7696319520
O 3.6286371532 2.8769940761 -2.6763984493
C 3.6905826660 4.1520804156 -1.9961551918
O 2.3793162932 -1.6197558327 -2.5450750545
C 1.7780985751 -2.6965328299 -1.7848017355
C -0.8292341659 0.1828524706 -0.1135543564
O -1.1901263264 -0.6011853050 -0.9670071353
O -0.7796780736 1.5123903310 -0.2840884702
C -1.1437590001 1.9832694580 -1.6073589269
H -3.2850938851 -3.2078468133 0.7023015961
H -3.7980230081 -3.0001623053 2.3728672503
H -2.1471399924 -3.5800719573 2.0163104034
H -5.3520914749 0.9379640182 1.4874203513
H -4.8112916416 0.8115804858 -0.2188969903
H -6.2450917662 -0.1066143668 0.3387854382
H 2.4421448695 0.0017185021 3.1962248531
H 1.1443976352 -1.6563995992 4.5367366637
H -1.1065690106 -2.3545548573 3.7821125207
H 3.3836906032 0.4977494881 -3.6926275836
H 4.1649978595 4.8257537977 -2.7090845691
H 4.2904311179 4.0732534543 -1.0863160930
H 2.6859666723 4.5035255419 -1.7482309900
H 0.7606950855 -2.4313702663 -1.4874034999
H 2.3789625001 -2.9199326823 -0.8995676147
H 1.7718661206 -3.5474695635 -2.4652388340
H -1.0173058093 3.0642518819 -1.5715714720
H -2.1813450005 1.7202772767 -1.8259666606
H -0.4816265592 1.5398159324 -2.3555806535
