41
CONF111
C 2.0105826347 -6.3216245882 2.6807042352
C 1.7686910250 -5.0390878511 3.4420760248
O 2.4617316191 -3.9847843375 2.7287060649
C 2.3417201064 -2.7500462732 3.2856114885
O 1.7074914312 -2.5047352927 4.2944409776
N 3.0632880786 -1.8365257815 2.5683481973
C 2.8769321118 -0.4195383831 2.8272285698
C 1.6309279148 0.1437912401 2.1678427384
O 1.8196066979 0.0177391389 0.7556990182
C 0.7935563369 0.3934791358 -0.0653943789
C -0.4134442487 0.9391580773 0.3777403250
C -1.3935420914 1.2885557143 -0.5481591834
C -1.1642891826 1.1079356736 -1.9051001677
C 0.0374049852 0.5672844748 -2.3507505355
C 1.0113772496 0.2060209296 -1.4328246388
O -2.1476482345 1.3784492762 -2.8446773173
C -2.6751697425 2.6507251051 -2.9044550070
C -3.9343594031 2.7658416601 -3.4902351834
C -4.5097727280 4.0219908397 -3.6320655181
C -3.8414701964 5.1612201440 -3.1888231064
C -2.5839014827 5.0315968754 -2.6078163542
C -1.9900982845 3.7812579743 -2.4624007650
H 1.5043501865 -7.1488324033 3.1867584309
H 3.0786661309 -6.5497531391 2.6300579061
H 1.6209288029 -6.2503606000 1.6616006605
H 2.1575877339 -5.0887746493 4.4645858131
H 0.7040599716 -4.7886039988 3.4981881143
H 3.3427630262 -2.1105809898 1.6393349764
H 3.7596211200 0.1201493384 2.4681515607
H 2.7991932645 -0.2768132401 3.9087040614
H 0.7466472915 -0.4232596825 2.4904190641
H 1.5005641598 1.2013014769 2.4429779658
H -0.6101546944 1.0878528537 1.4320508086
H -2.3371203124 1.7069497671 -0.2138430992
H 0.1941747087 0.4290956743 -3.4149281320
H 1.9539821021 -0.2199458110 -1.7587070001
H -4.4407550171 1.8679268247 -3.8270792752
H -5.4910125952 4.1092900050 -4.0876987213
H -4.2959431614 6.1398920144 -3.2973234887
H -2.0497196209 5.9127960260 -2.2665018535
H -1.0074466888 3.6829669030 -2.0152847876
