55
CONF54
C 1.3968776411 1.4397091147 -1.2766714894
C 2.4439115539 2.3461200370 -1.9070823375
N 3.7871797031 1.7955849151 -1.6971435632
C 3.8642320723 0.4551615231 -2.2820135523
C 2.8215675158 -0.4541229274 -1.6463370222
N 1.4890175827 0.1020738240 -1.8544357388
C 0.4035814231 -0.7856446120 -1.4664151133
C 0.3133814704 -1.1652730236 0.0383012125
C -0.7956487433 -2.1282445314 0.2827448019
C -1.9502530853 -1.9350749706 0.9545439574
C -2.8953503855 -3.0547043524 1.1373322691
C -3.2001658563 -3.9375598844 0.0946114783
C -4.0283702588 -5.0329417062 0.2979791330
C -4.5904234295 -5.2557554661 1.5528493059
C -4.3380578717 -4.3710135241 2.5929876253
C -3.4994379444 -3.2756806634 2.3841554095
S -3.1688167437 -2.2016692500 3.7611592544
C -2.8692377211 -0.6789444494 2.9104153178
C -2.3245892900 -0.6684927074 1.6121614679
C -2.1697076221 0.5672151220 0.9811661689
C -2.4605313663 1.7553575607 1.6442428752
C -2.9430235365 1.7327724061 2.9500299851
C -3.1625057098 0.5135694803 3.5732031288
C -2.2768681621 3.0482152775 0.9096542423
F -1.0434078968 3.1320451126 0.3409778809
F -2.4176569040 4.1246435530 1.7118430485
F -3.1707053334 3.1851672934 -0.1038600288
C 4.8330612207 2.6827045618 -2.2176423380
C 5.0832842034 3.8359064671 -1.2512256779
O 5.3753340014 3.3475633799 0.0513403355
H 0.3989283146 1.8452417326 -1.4798228104
H 1.5449428903 1.4414088392 -0.1794627712
H 2.2264583618 2.4575763258 -2.9875237999
H 2.3809361384 3.3366888398 -1.4445298276
H 3.7027820286 0.4807107313 -3.3775984237
H 4.8641931660 0.0473723205 -2.0936203258
H 2.8693186417 -1.4461974983 -2.1128950649
H 3.0713595718 -0.5690944298 -0.5731552112
H -0.5420764467 -0.3165129331 -1.7706831163
H 0.4956460718 -1.7101198655 -2.0529880770
H 0.2012590264 -0.2677349303 0.6522760499
H 1.2562455737 -1.6470894042 0.3275052710
H -0.6311372575 -3.1313176862 -0.1101648580
H -2.7795794761 -3.7462482051 -0.8876573986
H -4.2458957686 -5.7057549955 -0.5246923754
H -5.2451440646 -6.1049018765 1.7177875240
H -4.7958706591 -4.5215708706 3.5654596677
H -1.8230074165 0.5957851772 -0.0459201729
H -3.1717971525 2.6570433938 3.4666359595
H -3.5784429282 0.4836188209 4.5748341463
H 4.5900378181 3.0716776134 -3.2257323971
H 5.7580021359 2.0991015056 -2.2996135183
H 5.9497390251 4.4138621444 -1.5911064391
H 4.2209537671 4.5224723952 -1.2286005519
H 4.7754776989 2.5952952848 0.1736912871
