119
CONF33
C -7.4503318790 6.4898928909 -0.2124846807
C -7.7411807062 5.1612276250 0.4921058424
C -7.6492429607 5.3061832764 2.0124161062
C -6.8464575991 4.0008584599 -0.0013145412
C -7.1476065705 3.6584252677 -1.4728461298
O -6.5454795258 4.2226120368 -2.3823454389
N -8.1067606170 2.7314897464 -1.7176302336
C -8.5354113008 2.4858923441 -3.1102567570
C -9.7220386706 1.5593504734 -2.9403179603
C -9.6519061240 0.1334164332 -3.4127980301
C -10.5620629003 1.1267549604 -4.0974848108
C -10.2835170617 1.8776112221 -1.5702728727
C -8.9941398887 2.0569055491 -0.7512887241
C -8.4617544804 0.7167616740 -0.3092565990
N -9.2274847759 -0.2805408480 0.1025303226
C -8.3651308020 -1.2938352319 0.4160303859
C -7.0517074426 -0.9156818656 0.1942061886
N -7.1419923199 0.3868237294 -0.2669035133
C -5.8033808301 -1.6356820793 0.3657354075
C -4.5603201200 -0.9711680002 0.3820641200
C -3.4166831404 -1.7169575846 0.5516988477
C -3.4360389784 -3.1080482948 0.7215926308
C -4.6584493753 -3.7712990772 0.7107687198
C -5.8220342094 -3.0341613358 0.5245698910
C -2.0610046090 -3.5871755514 0.8885239245
C -1.1853382026 -2.4925684173 0.8202144030
C -1.9879034987 -1.2319044144 0.6034727537
F -1.6190368217 -0.5774109330 -0.5570647986
F -1.7886337612 -0.3072191841 1.6100292169
C 0.1771727988 -2.6315140329 0.9558386345
C 0.7150825048 -3.9153260337 1.1655534740
C -0.1632125360 -5.0083902265 1.2287575309
C -1.5412713839 -4.8589758258 1.0947349957
C 2.1703165841 -4.1066039272 1.3120585480
C 3.0565516492 -3.3558171864 0.5329316890
C 4.4140499666 -3.5787996687 0.7150896516
C 4.9174178910 -4.5206597997 1.6446992479
C 4.0272675941 -5.2638743111 2.4193713715
C 2.6707620527 -5.0471724784 2.2426175382
N 6.3014191599 -4.5342721421 1.6145825453
C 6.6246648139 -3.6433774784 0.7038165503
N 5.5352161106 -3.0424689816 0.1202230488
C 8.0182242979 -3.2813301890 0.2855535588
C 9.1144472228 -3.9972269569 1.0898939322
C 10.4720489042 -3.7082184587 0.4090590320
C 10.7411383014 -2.2075249171 0.7500400594
C 9.4746890898 -1.8293280933 1.5404472326
C 9.1937199886 -3.1045082437 2.3412652018
N 8.3377345177 -1.8534058030 0.5871310069
C 7.9249940713 -0.8619993672 -0.2275740505
O 7.1313898760 -1.0594951065 -1.1594160223
C 8.4088067091 0.5510098095 0.0974042202
C 7.5975663052 1.1371720811 1.2880294227
C 8.1587146258 2.5051262481 1.6748370314
C 6.1022141291 1.2156415056 0.9826843863
N 8.2927574256 1.3567408200 -1.1012386059
C 9.3630812907 2.0613446110 -1.5670807613
O 10.4003757984 2.2623142501 -0.9629950649
O 9.0963255623 2.5416513667 -2.8132822412
C 10.1536447515 3.3401173671 -3.3743295533
N -5.4377431767 4.3307067892 0.1459562435
C -4.5352401844 3.3617836840 -0.1760669385
O -4.8184617484 2.1791124933 -0.3286941795
O -3.2860226239 3.8501505313 -0.2649687226
C -2.2705125634 2.8573678901 -0.5419133841
H -8.2308284207 7.2155429120 0.0345265321
H -6.5026370027 6.9248971404 0.1262768018
H -7.4098776552 6.3770970289 -1.2989827656
H -8.7698018281 4.8716101639 0.2363775958
H -8.3111363599 6.1049444834 2.3608396788
H -7.9363914660 4.3797606641 2.5202628059
H -6.6283870664 5.5552981881 2.3182114933
H -7.0395548310 3.1286349115 0.6331503903
H -8.8128808514 3.4426712222 -3.5725747786
H -7.7217599010 2.0523880504 -3.7012006799
H -8.7576630837 -0.1811494553 -3.9415824147
H -10.1033357606 -0.6249924194 -2.7821423235
H -11.6314530612 1.0305245676 -3.9383145082
H -10.2799591301 1.4751998593 -5.0863679971
H -10.8357945669 2.8255625702 -1.5879745843
H -10.9154295319 1.0894946350 -1.1592565283
H -9.1632651353 2.6956665051 0.1235296982
H -8.7253272565 -2.2393749882 0.7961377751
H -6.3637976710 1.0038822338 -0.4921005182
H -4.4927088139 0.1051143924 0.2729560205
H -4.7135326193 -4.8486371516 0.8310569954
H -6.7737993811 -3.5534714844 0.4898994342
H 0.8267151365 -1.7621598611 0.9335062665
H 0.2508630990 -6.0030456672 1.3587703453
H -2.1895223379 -5.7282842749 1.1416195884
H 2.6880508621 -2.6557016092 -0.2095662098
H 4.3949931546 -5.9802178502 3.1459421891
H 1.9632590345 -5.5901055500 2.8604434004
H 5.6153706186 -2.3105829034 -0.5761950731
H 8.1197292812 -3.4427325473 -0.7960383317
H 8.8875065134 -5.0485399816 1.2599648724
H 11.2488005540 -4.3526312287 0.8297438624
H 10.4379687238 -3.8930911054 -0.6684429731
H 11.6297421442 -2.0856322061 1.3772557072
H 10.8687657123 -1.5796439590 -0.1359008844
H 9.5215835674 -0.8971437837 2.1032312478
H 10.0264075518 -3.3679534626 2.9988286157
H 8.2608009533 -3.0699334227 2.9070171941
H 9.4678251064 0.5401001134 0.3776414749
H 7.7379260137 0.4491760102 2.1331619286
H 8.0370836265 3.2164772410 0.8518137751
H 7.6264240658 2.9005654172 2.5453914488
H 9.2254549561 2.4515443729 1.9122812510
H 5.5653630327 1.6279003295 1.8421455681
H 5.6766940784 0.2326210006 0.7593121242
H 5.9171102098 1.8725341838 0.1263416390
H 7.5897370878 1.0653112516 -1.7670948975
H 9.7951206827 3.6424565254 -4.3585015227
H 10.3466161205 4.2168635306 -2.7501949873
H 11.0729440920 2.7551518451 -3.4638337559
H -5.1623106583 5.2663883602 -0.1145086792
H -2.2210254772 2.1252391184 0.2674573683
H -2.4845307948 2.3448444718 -1.4824426913
H -1.3384432382 3.4171746144 -0.6105898454
