39
CONF136
C 4.7896227697 -0.1815432848 -0.3491452198
C 3.6102836644 0.7375202879 -0.6617028567
C 2.8640690153 0.3079757645 -1.9238579409
C 1.6937325154 1.2232218925 -2.2844472463
N 0.6455030977 1.2429630009 -1.2601250514
C -0.2801611460 0.2769035249 -1.1944468549
O -0.3657924616 -0.6737603484 -1.9728089169
N -1.2177077625 0.4177834189 -0.1260796860
C -1.6166034470 1.5768061632 0.5600268892
C -1.4204974021 2.9323759036 0.3253826016
C -2.0243078708 3.8200613590 1.2169616370
C -2.8063020213 3.3682199498 2.2866622961
C -3.0256389077 2.0093943023 2.4946808811
C -2.4272530800 1.1105051847 1.6158063542
N -2.5393075150 -0.2743259024 1.5840611750
C -1.8282798875 -0.6500349747 0.5549913002
N -1.6301519193 -1.9278462673 0.0967943085
C -1.9523260200 -3.0923860651 0.7671408879
O -2.4240351168 -3.1815253273 1.8803775964
O -1.6452126553 -4.1350262602 -0.0335103292
C -1.9102562678 -5.4386984200 0.5392732459
H 5.3143359752 0.1376769617 0.5565801192
H 5.5104253538 -0.1852641361 -1.1742096373
H 4.4502007878 -1.2120960893 -0.1971288765
H 3.9650077192 1.7692653829 -0.7865587442
H 2.9185495190 0.7444923306 0.1904422113
H 3.5558160825 0.3053737667 -2.7762163672
H 2.4964860979 -0.7196315010 -1.8096455233
H 1.2360808910 0.9075440516 -3.2258542276
H 2.0400548585 2.2550361946 -2.4033138645
H 0.7624715648 1.8641934514 -0.4733488040
H -0.8474258346 3.3084879679 -0.5138759229
H -1.8863200724 4.8857525912 1.0673282931
H -3.2584902574 4.0916991012 2.9573445310
H -3.6498454898 1.6524724047 3.3073841127
H -1.1938070059 -2.0002072198 -0.8193093287
H -1.3204351611 -5.5786697526 1.4480377392
H -1.6081289349 -6.1512963606 -0.2268010118
H -2.9743518815 -5.5434145603 0.7631106329
