47
CONF8
C -4.0041369680 -1.9631625899 0.2441415037
C -3.1663393840 -0.7822163679 0.6780461066
C -1.8480229789 -1.0148564079 1.3826192658
C -1.8496097310 -0.5839207362 -0.0802074482
C -1.3903932831 0.7690307781 -0.4214650241
O -1.2083777691 1.7026810818 0.3276574743
O -1.2126795332 0.8671226816 -1.7805306108
C -0.7297285442 2.1331396239 -2.2725379457
C -1.6761803967 3.2102709079 -1.9621329819
N -2.4305326608 4.0657005744 -1.7831277134
C 0.6919175051 2.4396107621 -1.8308998740
C 1.5580590588 1.3723076736 -1.6143113918
C 2.8766411633 1.6121745966 -1.2457868694
C 3.3190391987 2.9296587235 -1.1393931984
C 2.4741206595 3.9970672465 -1.3756996069
C 1.1465796351 3.7509702076 -1.7140045679
F 4.6026108427 3.1557631552 -0.7898112039
O 3.7851110680 0.6068070258 -1.0352894663
C 3.3577627397 -0.5161522717 -0.3316550990
C 2.5689051046 -0.4001285696 0.8099594587
C 2.2300279878 -1.5537001929 1.5099086669
C 2.6734978891 -2.8026379479 1.0774036449
C 3.4679818078 -2.8950099773 -0.0629606629
C 3.8141518856 -1.7502309780 -0.7772502149
C -1.3767496177 -2.3623253957 1.7172077967
C -0.9281322224 -2.7394895833 2.9143186038
Cl -0.8200365846 -1.6771037213 4.2908989298
Cl -0.3744331830 -4.3617549823 3.2347919387
C -3.9772512158 0.4196097659 1.1018811641
H -4.5948200414 -2.3286148868 1.0914190746
H -3.4009824895 -2.7887353552 -0.1385091622
H -4.6975657738 -1.6533512288 -0.5443324043
H -1.5693343189 -0.2253417566 2.0743063101
H -1.6306043846 -1.3416565943 -0.8251973795
H -0.7524179901 2.0030764723 -3.3617925297
H 1.2177372622 0.3469723095 -1.7106312929
H 2.8523132891 5.0083975754 -1.2739442161
H 0.4764295547 4.5876800522 -1.8792855041
H 2.2309255566 0.5743810197 1.1471900580
H 1.6230699765 -1.4699824844 2.4052837452
H 2.4043403771 -3.6964771774 1.6301421892
H 3.8199568973 -3.8628944104 -0.4056685519
H 4.4299483042 -1.8033212691 -1.6688412610
H -1.3923893397 -3.1253623267 0.9447675542
H -4.6584515333 0.1255512397 1.9072468278
H -4.5815116636 0.7837425123 0.2634725922
H -3.3504458650 1.2367113213 1.4622333623
