22
CONF11
C 2.4850728399 -0.3703757449 0.4978795150
C 1.1717179329 0.4003734931 0.5267277166
C -0.0199030776 -0.4693445071 0.1194140063
C -1.3674556584 0.2117777191 0.4043105668
C -2.5590340666 -0.6685918801 0.0529552893
O -2.6217738556 -0.9574736174 -1.3577027404
O -1.5454895668 1.4397902061 -0.3113269338
O 0.1641797928 -0.7989952436 -1.2627766121
O 1.2731882471 1.5640356613 -0.3240029098
O 3.5791599008 0.4479477418 0.9201886742
H 2.6602863320 -0.7672851259 -0.5131998687
H 2.4301380609 -1.2114694576 1.1965678455
H 1.0061676195 0.7876738433 1.5388218466
H 0.0030694773 -1.3808077367 0.7414975027
H -1.4025076104 0.3873386352 1.4937535551
H -2.4764280268 -1.6304680040 0.5672220905
H -3.4838793591 -0.1744407039 0.3782828106
H -2.7904081038 -0.1161135001 -1.8048134548
H -0.6736582011 1.8659846025 -0.3677124344
H -0.7176405710 -1.0174017702 -1.6135900636
H 1.3093744196 1.2278668280 -1.2340220155
H 3.5758242684 1.2299787567 0.3515256190
