40
CONF135
C 3.0665507795 1.9271336807 -2.3834011842
O 3.9930574804 1.7896099442 -1.2745850922
C 4.7089485470 0.6540983939 -1.2520293514
O 4.6623574069 -0.1996152917 -2.1145653718
C 5.5276849059 0.5639100462 0.0089030090
S 4.6260147439 -0.4953754166 1.2327607455
C 3.0844990132 0.3954778234 1.3540760866
C 1.9643509312 -0.1233944493 0.7031725912
C 0.7152611735 0.5050937147 0.7510089577
C 0.6497300792 1.7101467677 1.4633336033
C 1.7334248570 2.2613134286 2.1201871685
C 2.9497335492 1.5916995840 2.0714209420
Cl 4.3101426256 2.3038178035 2.9096837383
F -0.5212885057 2.3832739014 1.4908662637
N -0.3624287028 -0.0020067785 0.0314671693
C -1.4395229760 -0.3419565028 0.6398313251
N -2.5796388516 -0.7175708675 -0.0267080873
N -3.5106680667 -1.3802361807 0.7954649110
C -3.2975233599 -1.2697511066 2.1336356489
O -4.0559040263 -1.6098623500 3.0215388858
S -1.6791296306 -0.4935134448 2.4062263884
C -4.8733076979 -1.4982187565 0.2471427655
C -4.8135493675 -2.1285965278 -1.1362580526
C -3.8630563092 -1.3339598586 -2.0272483488
C -2.4793762461 -1.2619335335 -1.3982617189
H 3.6113440286 1.9360366662 -3.3300435346
H 2.5616285971 2.8779436571 -2.2193105227
H 2.3501558467 1.1019596660 -2.3710508901
H 5.7296655546 1.5461375450 0.4394769479
H 6.4605354010 0.0324999267 -0.1926435115
H 2.0571926139 -1.0407921436 0.1318060040
H 1.6212754918 3.1975214464 2.6546716462
H -5.4368544252 -2.1092457729 0.9537156576
H -5.3214261312 -0.4958119219 0.2011595480
H -4.4732430869 -3.1675702030 -1.0524979394
H -5.8238199331 -2.1381828044 -1.5556769698
H -3.7665956460 -1.8043744850 -3.0101938300
H -4.2500825104 -0.3190749286 -2.1782360726
H -1.8223307222 -0.5894264211 -1.9501398318
H -2.0138086324 -2.2572043456 -1.3519947058
