41
CONF126
C -4.3684331817 0.6696364048 2.0233007321
C -4.0479712795 1.9171122193 1.2005558868
N -3.4206620181 1.6154078975 -0.0946942981
C -4.2698687794 1.7913746069 -1.2730201613
C -5.3120473608 0.6990918281 -1.4516344529
O -4.6362716265 -0.5483513351 -1.6293308440
C -2.1442741735 1.1543455774 -0.1715006883
C -1.5910705147 0.6479782136 -1.3802477042
C -0.2847771794 0.2267592089 -1.4324717117
C 0.5534601644 0.2667218548 -0.2989892198
C 0.0088395844 0.7530043343 0.9123141069
C -1.2937988171 1.1753481808 0.9773097983
N 1.8405601061 -0.1852422419 -0.4792897064
N 2.5995671557 -0.1554266478 0.5486460129
C 3.8943805622 -0.6314751809 0.3185615722
C 4.3616625432 -1.1612776287 -0.9026436210
C 5.6622176032 -1.6084434874 -1.0114145111
C 6.5086725389 -1.5301419516 0.0990020591
C 6.0711895980 -1.0116038079 1.3180777839
C 4.7669056051 -0.5673653586 1.4204113298
N 7.8781112908 -2.0024171405 -0.0198602056
O 8.2462540204 -2.4626903714 -1.1033841274
O 8.6123430995 -1.9220852493 0.9679320964
H -4.8282973610 0.9666756400 2.9707023432
H -3.4670966115 0.0930544549 2.2470359619
H -5.0656174592 0.0185345419 1.4892436707
H -3.4095425743 2.6031318066 1.7693066972
H -4.9707704624 2.4620321899 0.9852659197
H -3.6490451528 1.8662732826 -2.1671861521
H -4.7965049681 2.7479190983 -1.1702335370
H -5.9796212433 0.6635606938 -0.5788949094
H -5.9190905124 0.9538519326 -2.3331804602
H -5.3023785889 -1.2452359491 -1.6647326909
H -2.2020657951 0.5564618960 -2.2670596764
H 0.1220514857 -0.1652716424 -2.3598517434
H 0.6318844139 0.7966806246 1.7980895504
H -1.6667530159 1.5477201579 1.9222584640
H 3.6938719323 -1.2175481205 -1.7531058255
H 6.0324111526 -2.0183346782 -1.9429195150
H 6.7463107669 -0.9624642871 2.1628043344
H 4.3952660473 -0.1601430633 2.3548269493
