26
CONF144
C -2.4297167109 -0.7578556629 -0.3037883683
C -1.5619643142 -1.3483557472 0.8026685531
C -0.2981658533 -0.5301380926 1.1059669199
C 0.5812304569 -0.2836946602 -0.1276654465
C 1.9364602207 0.3445923999 0.2459773252
C 2.8179876422 0.5888228206 -0.9744132041
O 3.2399194983 -0.6839376098 -1.5001737362
O 1.7757448901 1.6317692309 0.8436653425
O 0.7618639465 -1.5582345971 -0.7483861973
O -0.6585586754 0.7192787095 1.7365985400
O -2.3207506790 -1.5150626000 2.0088538922
O -2.8303142185 0.6019141750 -0.0269615448
H -1.8714353375 -0.7322287719 -1.2445153542
H -3.3128705961 -1.3927783976 -0.4443337247
H -1.2559743215 -2.3498745791 0.4830597040
H 0.2904718640 -1.0788069276 1.8524000679
H 0.0613171013 0.4175076904 -0.8063483393
H 2.4578237616 -0.3474488012 0.9308723158
H 3.6859580722 1.1847725088 -0.6629871912
H 2.2512372552 1.1552243108 -1.7264545673
H 0.9632366498 1.5918491121 1.3794803973
H 1.5844341483 -1.5094391370 -1.2688497993
H -1.3323508703 1.1245187100 1.1578941972
H -2.2806292575 -0.6737546505 2.4862980751
H 3.6244253011 -0.5369163228 -2.3728334823
H -3.5615406474 0.5677438539 0.6035639418
