49
CONF28
C -5.5983219683 -1.1542710119 -1.9028873591
C -4.2452985675 -1.5833225983 -1.3276840410
C -3.3490957065 -2.1466366379 -2.4345551216
C -3.5620174278 -0.4036458674 -0.6340805602
C -4.2660146743 0.1901829494 0.6224846607
C -4.1409189358 -0.9881819895 1.6338301760
C -2.7501925206 -1.5974339612 1.2978812148
C -2.2358984901 -0.6994174090 0.1307407204
C -1.9792079245 0.6606097001 0.7279263953
C -3.2367259326 1.2114437121 1.0331521228
C -3.3642110144 2.4736801335 1.5881734129
C -2.1993541618 3.2149377423 1.8178999912
C -0.9495663429 2.6864862604 1.5154274038
C -0.8262302799 1.3961017510 0.9751154232
N 0.4660149051 0.9350650323 0.6194102532
C 0.9957968122 -0.2694372922 0.9830861911
O 0.4025117166 -1.0864125769 1.6890096264
C 2.3599600345 -0.5491345176 0.4872762971
C 3.1767932190 -1.5107464548 1.0651330876
N 4.3308777731 -1.5269594119 0.3704997191
N 4.3316595042 -0.6485745405 -0.6442650015
C 3.1426591569 -0.0421647671 -0.5830701242
C 2.8542085523 0.9681478510 -1.6313141209
F 1.6868598588 0.6696271476 -2.3009418656
F 2.6485540354 2.2244074734 -1.0667449737
C 5.4921538918 -2.3756833620 0.6185523682
H -5.4680392937 -0.3371930828 -2.6231755990
H -6.2799672453 -0.8088649361 -1.1195222783
H -6.0792611341 -1.9887424918 -2.4239671068
H -4.4261733821 -2.3821777366 -0.5981809806
H -3.1160465773 -1.3686385388 -3.1719402256
H -2.4044062793 -2.5288868627 -2.0359059155
H -3.8501597027 -2.9674733670 -2.9583585914
H -3.3971839514 0.3863336472 -1.3806024213
H -5.2779625541 0.5786786382 0.4969474608
H -4.9480077675 -1.7110663269 1.4798056924
H -4.2061197706 -0.6310093171 2.6650969544
H -2.8366257408 -2.6360728408 0.9640380361
H -4.3406769384 2.8916120569 1.8149799196
H -2.2659698596 4.2168990331 2.2305680036
H 3.0042302942 -2.1585237359 1.9121949392
H 3.6662176553 1.0564492262 -2.3582141931
H 6.2591514133 -2.1175712649 -0.1107492308
H 5.2139186084 -3.4266258864 0.5070066768
H 5.8685765619 -2.2001043304 1.6291923770
H -2.0576977742 -1.5718342760 2.1394516905
H -1.4131992902 -1.1261366324 -0.4425789087
H 1.1012576664 1.6334970078 0.2583197362
H -0.0519981706 3.2726121840 1.6914685414
