43
CONF7
C -1.0511255513 -2.0604529216 -0.4362048809
C -1.8467455710 -0.9635279570 -1.1415983026
C -2.3381707527 0.1170531119 -0.2169081902
C -3.7200839584 0.0641344404 -0.1311937789
C -4.4265138087 0.9194845257 0.7049782602
C -3.7042657828 1.8540161683 1.4456591688
C -2.3164028065 1.9397072554 1.3535068217
C -1.6136738490 1.0633216550 0.5153926205
N -0.2211258079 1.1216826211 0.3292159956
C 0.7247835221 1.5813671045 1.2137200997
O 0.4457017493 2.0038262481 2.3361162109
C 2.1201846505 1.5226778147 0.7510657743
C 2.6806540839 1.3829964386 -0.5209335265
N 4.0195935316 1.4072073581 -0.3986375970
N 4.3898204053 1.5511497452 0.8979374969
C 3.2584982672 1.6290082918 1.5989644295
C 3.3137525985 1.7854034802 3.0782713458
C 5.0163836043 1.3260327915 -1.4568881069
Cl 1.9559662005 1.2408100019 -2.0784040108
C -4.2494094726 -1.0155531607 -1.0396623731
O -3.0542782618 -1.5107840997 -1.7140246868
C -4.8999849670 -2.1565635158 -0.2573112774
C -5.1935484540 -0.4662575049 -2.1050266478
H -1.6293121628 -2.4653236562 0.3993401863
H -0.8285004188 -2.8660420290 -1.1416091418
H -0.1032656053 -1.6715558067 -0.0492960035
H -1.2476821130 -0.5528668181 -1.9703127408
H -5.5087700251 0.8697416908 0.7753156757
H -4.2273676292 2.5436415215 2.1009478477
H -1.7802878011 2.6873194412 1.9207109630
H 0.1205429743 0.6759554098 -0.5090600089
H 2.8981023927 2.7489564407 3.3851263544
H 2.7243407919 1.0102280143 3.5753898002
H 4.3522614942 1.7190097152 3.4103333750
H 4.9325137418 2.1878548861 -2.1251820623
H 5.9955789474 1.3246471318 -0.9796034992
H 4.8833582267 0.4047770457 -2.0299883247
H -5.1867524384 -2.9615144043 -0.9411267428
H -4.2070447857 -2.5524734419 0.4901464125
H -5.7988499052 -1.7967747796 0.2537223179
H -5.4667944774 -1.2610500639 -2.8060938795
H -4.7116970623 0.3462804637 -2.6558318138
H -6.1079467298 -0.0848921842 -1.6399062451
