51
CONF23
C -1.0753768289 -1.2778213443 -3.0134171491
N -2.1340124674 -0.9871510915 -2.0385713555
C -2.9153363947 0.1611475114 -2.5335107782
C -4.0860654493 0.4882893966 -1.6179660277
C -3.5781345870 0.7892413644 -0.2126083036
C -2.7069114887 -0.3618502910 0.2808256457
C -1.5743616239 -0.6837451976 -0.6996229946
C -0.7148814421 -1.8489425842 -0.1940019613
C -0.1424321508 -1.6430064747 1.2128670714
N 0.4622145201 -0.3163443369 1.3822857332
C 0.3224444373 0.3557313552 2.6088511622
C 0.0978791398 -0.3271897070 3.8109930854
C -0.0834814333 0.3760092696 4.9997098470
C -0.0040439916 1.7652194191 5.0218444523
C 0.2592461248 2.4555418094 3.8402234372
C 0.4012671565 1.7589487527 2.6442524770
S 0.5930990801 2.6380670286 1.1066066533
C 1.6678647040 1.4835171608 0.2843346601
C 1.4651893807 0.1081791163 0.4964250729
C 2.2718400111 -0.8012076918 -0.1887944583
C 3.2218128588 -0.3567650718 -1.1175827491
C 3.4084117217 1.0103548149 -1.3282620397
C 2.6437090922 1.9211255204 -0.6010769478
S 4.1355944766 -1.6273378951 -1.9626793050
C 5.2879247218 -0.6908707992 -3.0221846786
H -0.2861113387 -0.5000411697 -3.0223358628
H -1.5162841668 -1.3240886220 -4.0139172501
H -0.6041637561 -2.2438481479 -2.8168038044
H -3.2784750071 -0.0863488448 -3.5377934420
H -2.2681581154 1.0585524063 -2.6309532084
H -4.6373466271 1.3418004341 -2.0291069446
H -4.7746014511 -0.3666343244 -1.5908204630
H -4.4109741879 0.9616310708 0.4785894212
H -2.9781306818 1.7101602386 -0.2333140512
H -2.2763000276 -0.1042484563 1.2541026403
H -3.3186928959 -1.2645779047 0.4182919380
H -0.9268799169 0.2156527236 -0.7809429256
H 0.1021835746 -2.0348953286 -0.8923613800
H -1.3239433064 -2.7616324312 -0.1652501898
H -0.9509320195 -1.7111564601 1.9431428988
H 0.5638902651 -2.4533897331 1.4479943456
H 0.0671307947 -1.4107544360 3.8213437725
H -0.2712178341 -0.1743650210 5.9161515354
H -0.1368235348 2.3119497884 5.9493332119
H 0.3307452594 3.5389736358 3.8387880478
H 2.1627472230 -1.8642529891 -0.0045725179
H 4.1378168839 1.3824326324 -2.0360880436
H 2.7928783708 2.9861571557 -0.7511211517
H 5.9550818932 -0.0681252662 -2.4212425250
H 5.8764445564 -1.4453019590 -3.5491934035
H 4.7466552824 -0.0827890314 -3.7508607898
