50
CONF29
C 2.7792012647 1.5331545511 -1.7916684236
C 2.1414697661 0.1754721044 -1.6107223733
C 1.7679973393 -0.2167034238 -0.3245752772
C 1.3093762675 -1.5257198612 -0.0964555339
C 1.2412225288 -2.4529200410 -1.1075922275
C 1.5854495670 -2.0931350059 -2.4258687464
C 1.9775644119 -0.7439212944 -2.6895533641
C 2.1325443590 -0.4528207105 -4.1001122346
N 2.1265243757 -1.4136671937 -5.0189124309
C 1.8770499735 -2.6807140466 -4.6097856493
N 1.5403895183 -3.0619119298 -3.3859314060
N 1.8966939931 -3.6322842131 -5.5966505493
N 2.2768333770 0.8086680037 -4.5795932642
C 1.8762418463 0.7541153639 0.8491314932
N 1.1117887042 0.3990988278 2.0294610725
C -0.2725935768 0.3175437307 2.0060364556
C -0.9311183023 -0.2936780322 3.0870575227
C -2.3234063267 -0.3381614983 3.1117633113
C -3.0797095762 0.2100344068 2.0630583812
C -2.4105749385 0.8108418415 0.9897138845
C -1.0148884826 0.8631236778 0.9485862189
O -3.2140471697 1.3111136577 0.0076092715
C -2.5765366186 1.9225431587 -1.1212346779
O -4.4572722857 0.1255983858 2.0745047150
C -5.0779249642 1.2553609963 2.7191323178
O -3.0512541312 -0.9045886540 4.1157811204
C -2.3285504803 -1.4802140789 5.2114848636
H 3.5235546196 1.5246090914 -2.5887408541
H 2.0404511198 2.3155050957 -2.0153145506
H 3.2938346630 1.8397383859 -0.8801945624
H 1.0224771553 -1.8151295412 0.9096699453
H 0.9286520234 -3.4743281992 -0.9153699141
H 1.9698294151 -4.5910879543 -5.2941030948
H 2.3957969883 -3.3969907768 -6.4402925302
H 2.1889590465 0.9098776616 -5.5799907351
H 2.9244685984 0.8430676979 1.1615660211
H 1.5741980848 1.7573590102 0.5252112554
H 1.5639941294 -0.2444183962 2.6612479338
H -0.3421583538 -0.7143269073 3.8931271546
H -0.5103316934 1.3064036913 0.1024350720
H -3.3863781461 2.2449285280 -1.7764246432
H -1.9381006150 1.2050076084 -1.6504458431
H -1.9814048342 2.7911090500 -0.8159686060
H -4.8281311973 2.1844522588 2.1926710523
H -6.1564740536 1.0875067048 2.6771853940
H -4.7560133227 1.3269538041 3.7650157463
H -3.0869427365 -1.8679336131 5.8922888911
H -1.6848360328 -2.2997614572 4.8713992904
H -1.7235444290 -0.7241249649 5.7254046281
H 1.9819199231 1.5958021028 -4.0291161922
