70
CONF92
C -1.4708255982 -1.2710263167 1.4770130414
C -2.6159242421 -1.0335914340 2.4897905641
C -2.0795124925 -1.1219337126 3.8802987378
C -2.6101489097 -1.4522841830 5.1004460462
N -1.6085450369 -1.3786851063 6.0669458066
C -0.4195465340 -1.0139380293 5.4726751156
C 0.8769846760 -0.8146910486 5.9482028794
C 1.8376003083 -0.4608370611 5.0066144894
C 1.5444796196 -0.3028357674 3.6351809858
C 0.2524488452 -0.4916872552 3.1623423905
C -0.7071050071 -0.8483334580 4.1058029703
C -0.2548302488 -0.3324268646 1.7448700501
C 0.8400335396 -0.5481943678 0.7023634928
C 0.2563146291 -0.3618179744 -0.7042307216
C -0.8920177611 -1.3503531221 -0.8851752266
N -1.9418826985 -1.0553809638 0.0973051475
C -3.1821354844 -1.7744447345 -0.2556356056
C -3.1106464777 -3.2739275560 -0.1460509243
C -3.1841082494 -4.1024414166 -1.1836850559
C 1.3280202687 -0.5801117428 -1.7570641226
O 1.5121498779 -1.7100653860 -2.2125111580
N 2.0750567130 0.5238576483 -2.1423348015
C 1.7937025181 1.8603751555 -1.5874378977
C 0.7070868105 2.6233729221 -2.3491481720
C 0.1075293002 3.7192530901 -1.4670482439
N -0.6585854831 3.1582702808 -0.3453115696
C -0.7357049683 4.0919653056 0.7743012061
C -2.0037461874 2.7635919808 -0.7587077949
C 3.0609997547 0.5254051758 -3.2010335314
O 3.5194856207 1.5929629211 -3.5884815913
N 3.4303174583 -0.6798839121 -3.6802240033
C 4.3278171106 -0.7635099622 -4.8260063388
C 3.6204070950 -0.5033206461 -6.1541816497
H -1.1038836879 -2.3089968451 1.6209198871
H -3.0465799688 -0.0410247524 2.2901616276
H -3.4156207830 -1.7662248807 2.3457907806
H -3.6145279860 -1.7376611846 5.3798960138
H -1.7370437353 -1.5867140592 7.0408481985
H 1.1379198302 -0.9312393830 6.9950157593
H 2.8586106490 -0.3026468102 5.3392271206
H 2.3517879996 -0.0324546933 2.9630106604
H -0.6260358899 0.6993013256 1.6248657660
H 1.6635783193 0.1526690621 0.8749485264
H 1.2527395118 -1.5618219347 0.7938067589
H -0.1627511980 0.6463915757 -0.7615333403
H -1.3204578793 -1.2410689479 -1.8890171884
H -0.5127492114 -2.3831056967 -0.8106832630
H -3.9985110466 -1.3911672411 0.3667163356
H -3.4281815956 -1.5017459099 -1.2889937124
H -2.9713439124 -3.6870361413 0.8528826429
H -3.3147730057 -3.7260712614 -2.1959108158
H -3.1175278557 -5.1791823229 -1.0635262400
H 2.7286655577 2.4226603085 -1.6212761042
H 1.5003760999 1.7556224897 -0.5427760157
H 1.1331116343 3.0604275358 -3.2577880019
H -0.0774572281 1.9289611525 -2.6728328178
H -0.5090343926 4.4084488281 -2.0754192710
H 0.9278483144 4.3197398074 -1.0519246793
H -1.2469841199 5.0393428929 0.5125891616
H 0.2709317307 4.3323464798 1.1315728806
H -1.2861817419 3.6297927059 1.6009127856
H -2.6231627073 3.6312327408 -1.0599559780
H -1.9606187495 2.0681468084 -1.6020832082
H -2.5053155004 2.2407450350 0.0621849306
H 2.8942486781 -1.4820537044 -3.3595538999
H 5.1338873268 -0.0373330361 -4.6828502545
H 4.7719513491 -1.7645675988 -4.8161059759
H 3.1945890468 0.5034615957 -6.1617484101
H 2.8150092400 -1.2263331805 -6.3159728779
H 4.3283166385 -0.5841735096 -6.9852816300
