31
CONF21
C -1.6692884495 0.1976147075 0.4132330917
C -0.4111880048 -0.5163061585 -0.1991516151
C 0.9345803752 0.2229715390 0.1299048456
C 2.1217472216 -0.2083397046 -0.8033973645
C 3.5219272745 0.1753101873 -0.2323884572
F 3.4882835256 1.4227025440 0.2766617680
F 3.8745786331 -0.6903624423 0.7361514668
S 4.8993826627 0.1335957316 -1.5733560882
O 4.7653296390 -1.1661209516 -2.2328378885
O 4.7999809923 1.3983168706 -2.3007984974
N 6.3127185314 0.1404316345 -0.7215678825
F 1.9703069938 0.3956183858 -2.0042679864
F 2.0801251269 -1.5485027239 -0.9716208353
F 0.7442456280 1.5546002623 -0.0035854951
F 1.2758775434 -0.0508761487 1.4095202260
F -0.3435331142 -1.7729503785 0.2945869125
F -0.5581340962 -0.5733320123 -1.5415889467
C -2.9305047284 -0.7352736589 0.4798290268
C -4.2728774195 0.0549381990 0.6525585617
C -5.4669835719 -0.8275461543 1.1472735009
F -5.5600543768 -1.9407989721 0.4065630546
F -6.6014662173 -0.1267581708 1.0231283629
F -5.3125626380 -1.1653557089 2.4315802528
F -4.0967636970 1.0496418174 1.5526737265
F -4.6224128352 0.5892644037 -0.5363120261
F -2.7885431740 -1.5818287400 1.5243743378
F -3.0042991771 -1.4547431346 -0.6628379566
F -1.3706651217 0.6054620722 1.6670252082
F -1.9674540089 1.2757473362 -0.3453347830
H 6.4549744572 -0.6942057838 -0.1567000743
H 6.4730054249 1.0051153844 -0.2082056671
