39
CONF116
C 4.8286004734 2.0322695500 -2.8939733843
C 4.3893504454 0.8811688439 -1.9914469903
C 2.9887251861 1.0966602199 -1.4203231432
C 2.5643922233 -0.0578269586 -0.5154754817
N 1.2402808220 0.1699441417 0.0604764146
C 0.1819530287 -0.6069721129 -0.2002692694
O 0.2024839026 -1.6620129378 -0.8353685971
N -1.0491616531 -0.1248198010 0.3443285166
C -1.4458283652 1.1960527916 0.6067233776
C -0.8970879413 2.4317348613 0.2853272973
C -1.6141105233 3.5609214190 0.6821846980
C -2.8371032197 3.4549593926 1.3557590845
C -3.3960225225 2.2130274939 1.6439406104
C -2.6915687430 1.0758376758 1.2574475980
N -3.0614963922 -0.2579965124 1.3818532270
C -2.0866039345 -0.9337547864 0.8344930933
N -1.9844953444 -2.2957886541 0.6998563192
C -2.7628547334 -3.2370801470 1.3460182153
O -3.6281420357 -3.0213166727 2.1672919337
O -2.3903703444 -4.4593346725 0.9105315936
C -3.1040136237 -5.5642374732 1.5168487627
H 4.8404317813 2.9780900116 -2.3413248508
H 4.1427168136 2.1476162986 -3.7403693309
H 5.8328908626 1.8626856948 -3.2942127947
H 5.1023629562 0.7652064697 -1.1648444881
H 4.4087714678 -0.0605873114 -2.5551561677
H 2.9634502840 2.0342208887 -0.8491029266
H 2.2623086135 1.1975591796 -2.2370821113
H 3.2834636502 -0.1827315522 0.3033298432
H 2.5259440872 -0.9954086138 -1.0750222065
H 1.1387133552 0.9380600881 0.7081917010
H 0.0321815746 2.5386051691 -0.2625311119
H -1.2120817219 4.5425025419 0.4541286110
H -3.3633181399 4.3582576417 1.6471055783
H -4.3545258506 2.1236082300 2.1447007591
H -1.2551772245 -2.6204368059 0.0698785982
H -2.6816732894 -6.4583240932 1.0605265718
H -4.1717133370 -5.4892375536 1.2984155271
H -2.9416707991 -5.5711234476 2.5971453304
