47
CONF3
C 0.6095192485 -1.0436976463 -0.2989330579
C 1.2591772134 -2.2008412533 0.4587497750
C 2.7613075864 -1.9531552352 0.6710999063
C 3.0726725704 -0.4677928726 0.9759155800
O 4.2237181258 -0.4600740088 1.8218196729
C 1.8198653827 0.2001690209 1.5756102414
C 0.9722978440 0.3660065174 0.3075433073
C 1.9850868426 1.0616486512 -0.6269432796
C 3.2735605497 0.3355711980 -0.3131017347
C 4.4145718186 0.3989577033 -0.9938753568
C -0.4001062968 1.0919844064 0.5043242100
C -0.3062298312 2.5752758442 0.2720647353
O 0.1759109555 3.2142412195 1.3582862439
O -0.5908730791 3.1485654909 -0.7596656139
C -1.3597777209 0.3854654278 -0.4550060365
C -2.8164149196 0.2247981113 -0.0118290130
C -3.5353447200 1.4652810736 0.4928068204
C -3.5895935758 -0.4622051644 -1.1717186314
O -3.8417157859 0.5502729398 -2.1623848780
C -2.8207037466 -1.6070357664 -1.7912572348
C -1.5618373821 -1.8958009422 -1.4559575173
C -0.9034782349 -1.0702414101 -0.3907625630
O -1.4957885954 -1.5068552877 0.9191426143
C -2.6506842869 -0.8248592680 1.0954058741
O -3.3913935705 -1.0495101761 2.0240457092
H 0.9649447795 -1.0660686408 -1.3380023255
H 0.7690205049 -2.3126551768 1.4291165188
H 1.1042429558 -3.1395776180 -0.0833437041
H 3.3403319209 -2.2656614418 -0.2036404187
H 3.1056882847 -2.5441475864 1.5266512164
H 4.5295278168 0.4552596363 1.8834062878
H 2.0764160670 1.1829578715 1.9887313398
H 1.3433735213 -0.3992129023 2.3558048494
H 1.7048339036 1.0234270112 -1.6838797281
H 2.0977706029 2.1182059689 -0.3471297245
H 5.2952003530 -0.1433638849 -0.6598265988
H 4.5027303038 0.9950005460 -1.8979389254
H -0.7063841209 0.9353085955 1.5450704873
H 0.2633207518 4.1594729790 1.1438445031
H -1.2688345791 0.7914605066 -1.4651211646
H -4.5661971093 1.2202978119 0.7657869992
H -3.0362383218 1.8685586337 1.3789916649
H -3.5513207000 2.2327999375 -0.2825441756
H -4.5481700416 -0.8315387724 -0.7746954859
H -4.3629418147 0.1448048505 -2.8678893696
H -3.3458277325 -2.1830272527 -2.5503577318
H -1.0152331352 -2.7184698151 -1.9084142976
