45
CONF328
C 8.0553588871 1.5865302187 -2.6801665599
C 8.2443006087 1.7081715534 -1.3660139741
C 7.7445860601 0.7587913484 -0.3531380677
O 7.8946902611 0.9253711682 0.8431720548
O 7.1101589938 -0.3041372870 -0.8989407071
C 6.5303698674 -1.2834069872 -0.0043288457
C 5.0103565424 -1.2285435621 -0.0727456223
C 4.4177097531 -0.0228350992 0.6241497942
C 2.8580510680 -0.0738497054 0.6850758899
C 2.1560481493 1.2507908837 1.1259282866
C 0.6491040475 1.1425935532 1.5830458544
C -0.3608014674 0.5105653830 0.5684692276
C -1.8634030226 0.8138477566 0.9245742243
C -2.8657183287 -0.1782118512 0.2329592500
C -4.3395133411 0.3632164244 0.1996422123
C -5.4023692442 -0.7645957073 -0.0347474597
C -6.7960800753 -0.2309478611 -0.5062155654
F -7.6923067731 -1.2216064088 -0.4123189468
F -6.7450967393 0.1807639832 -1.7770140139
F -7.1917106371 0.7870418192 0.2711154332
F -4.9497117296 -1.6223097370 -0.9782155799
F -5.5883183258 -1.4349429323 1.1218536510
F -4.6139764393 0.9657611175 1.3788031764
F -4.4447751840 1.2735638691 -0.7940789075
F -2.4611282252 -0.3961287360 -1.0381650222
F -2.8489015404 -1.3470360297 0.9120595854
F -2.0303424910 0.7253295744 2.2621727540
F -2.1529968840 2.0722086110 0.5248751553
F -0.1145675745 0.9994403377 -0.6660744652
F -0.1762634154 -0.8305212097 0.5612220900
F 0.2502510381 2.4164502311 1.8298506891
F 0.6064237528 0.4451061568 2.7372415332
F 2.8123476889 1.7622351500 2.1963511702
F 2.2255130881 2.1438646781 0.1149012820
F 2.5101244478 -1.0673217952 1.5421665754
F 2.3891002830 -0.3903244142 -0.5510589285
F 4.7689609341 1.1434823684 -0.0072257811
F 4.8747244784 0.0632010653 1.9100783481
H 8.4468675787 2.3316465979 -3.3651708696
H 8.7872441850 2.5489457592 -0.9451343341
H 6.9016641300 -1.1288347858 1.0102004864
H 6.8623353268 -2.2566604790 -0.3716861610
H 4.6141342729 -2.1253393434 0.4158639011
H 4.6761579502 -1.2358819111 -1.1133314551
H 7.5090600630 0.7501809552 -3.1030370771
