47
CONF127
C -5.8984305236 1.0719489989 -1.8547290452
O -5.6558799537 0.4508652031 -0.5713467765
P -4.9600461662 1.2976246359 0.5995895241
S -3.4555420113 2.4136317093 0.1292970902
O -6.2347727788 2.0103415155 1.2630359125
C -6.0412583906 3.0007166046 2.2978667016
O -4.6912130082 0.1243721702 1.6896652594
C -3.5585614316 -0.6868534791 1.5881954752
C -3.6012359802 -1.8202196964 0.7907797233
C -2.4757403916 -2.6351467597 0.7162861223
C -1.3335246393 -2.3231190622 1.4541177616
C -1.3200644414 -1.1897220787 2.2725009523
C -2.4292574267 -0.3592945194 2.3286167712
S 0.0658516109 -3.4312134188 1.3842518210
C 1.4141063975 -2.3233558737 0.9964177186
C 1.2465038436 -1.1862963983 0.2023753190
C 2.3399354311 -0.3882611866 -0.1073613470
C 3.5972706175 -0.7444645094 0.3621837695
C 3.7848929391 -1.8774048517 1.1401303809
C 2.6854173136 -2.6621562763 1.4665264122
O 4.6870267082 0.0905933004 0.0966117512
P 5.6177228722 -0.1573552358 -1.2127568333
S 6.4294563150 -1.8796228759 -1.4667726334
O 6.6796154927 1.0285402834 -1.0305595484
C 6.2266330786 2.3838213803 -0.7918805585
O 4.5845270166 0.3445536387 -2.3530715664
C 4.8557018146 0.0477644317 -3.7409606295
H -6.2731304779 0.2780943880 -2.5015539478
H -4.9694740858 1.4861229176 -2.2567536439
H -6.6510476617 1.8603517459 -1.7569586058
H -5.6335754945 2.5308751800 3.1985727613
H -5.3689033828 3.7893023143 1.9474469320
H -7.0305442960 3.4084818198 2.5076088621
H -4.4976845084 -2.0443242654 0.2241290064
H -2.4808136979 -3.5108096444 0.0761885937
H -0.4341783756 -0.9534336879 2.8520688088
H -2.4315491956 0.5355928199 2.9401653133
H 0.2634510132 -0.9194916125 -0.1696525053
H 2.2277772021 0.4998210953 -0.7186802065
H 4.7791859909 -2.1292662054 1.4899410575
H 2.8156235977 -3.5385302397 2.0929887880
H 5.8048806277 2.4675078345 0.2130744028
H 7.1134935896 3.0121682373 -0.8808128041
H 5.4816623162 2.6797198614 -1.5368235773
H 4.9715482534 -1.0304091567 -3.8810024187
H 3.9920185603 0.4143153999 -4.2974635936
H 5.7621246219 0.5636237388 -4.0744467335
