44
CONF17
C 4.3510328111 -1.8647154764 -2.3168603368
C 4.0177789167 -1.9089713026 -0.8298058309
N 2.8428008782 -1.0761269545 -0.4974981736
C 3.0465096365 0.1642467049 0.2859198781
C 3.5443590495 -0.1458367265 1.7028541129
C 3.6640410959 1.1548593794 2.5039707545
C 4.5848163893 2.1531735185 1.7991801918
C 4.0953096134 2.4393615042 0.3780766963
C 3.9695142852 1.1477674521 -0.4366462405
C 1.6512082235 -1.5916583334 -0.8325903455
O 1.4334897564 -2.7082574065 -1.2786545775
N 0.5156466958 -0.6926592956 -0.6549078544
C -0.6529545864 -0.9896446270 0.0374934822
O -0.9291397560 -1.9394754365 0.7431967161
N -1.4260295392 0.1236742088 -0.2898185329
N -0.7580218161 0.9577021994 -1.1358551801
N 0.3944622463 0.4727584673 -1.3557455571
C -2.7403472861 0.3995262702 0.1560531337
C -3.7985646589 0.3421790191 -0.7469943727
C -5.0913343883 0.6068046540 -0.3138192835
C -5.3251612514 0.9128891337 1.0244555082
C -4.2737618831 0.9721606859 1.9338862304
C -2.9791587803 0.7246009329 1.4942659059
Cl -1.6466300345 0.8508186540 2.6170500553
H 3.5155037684 -2.2338654465 -2.9169600664
H 4.5884551970 -0.8453505250 -2.6333603078
H 5.2203691592 -2.4995195682 -2.5127860226
H 3.8161922723 -2.9358476598 -0.5100550161
H 4.8580142244 -1.5366853158 -0.2421716767
H 2.0716519905 0.6443463386 0.3928631934
H 4.5254414563 -0.6353882554 1.6649302947
H 2.8462798672 -0.8382822350 2.1876216950
H 4.0352978634 0.9329750277 3.5105288707
H 2.6661713752 1.5999819009 2.6209898586
H 4.6434356574 3.0846799711 2.3735473898
H 5.6012552449 1.7375977930 1.7547164495
H 4.7764513472 3.1296752375 -0.1315027232
H 3.1144775768 2.9326778196 0.4237475519
H 4.9651386418 0.7030809773 -0.5632724685
H 3.5699155653 1.3568703201 -1.4353075282
H -3.5911322131 0.0845072531 -1.7802071775
H -5.9146573145 0.5639323170 -1.0180111414
H -6.3340761367 1.1112098410 1.3704057910
H -4.4510797988 1.2198056925 2.9741429828
