20
CONF6
C 3.0791730214 -0.1976275192 -0.3530705798
C 2.9858807934 1.1273769944 -1.0877459843
O 2.1579310412 1.4230184128 -1.9072475391
O 4.0073605651 1.9306026300 -0.7037254846
O 1.9660702533 -1.0311500841 -0.6395909220
C 0.7796916546 -0.6428932997 -0.1229933347
N 0.7418785772 0.3788631443 0.7247539863
C -0.4263886502 0.7268977689 1.2128262551
C -1.6228765858 0.1030774261 0.9204487222
C -1.6075187631 -0.9944778739 0.0312825852
C -0.3556108479 -1.3579531300 -0.4943619436
Cl -0.2448708856 -2.6913360376 -1.6130244211
N -2.7390275937 -1.6801811729 -0.2680217366
Cl -3.1257292333 0.6490248455 1.6146403503
F -0.4264727316 1.7681533529 2.0523752238
H 3.1927965135 -0.0143921342 0.7201198448
H 3.9239142181 2.7547341187 -1.2088510785
H -2.7144632386 -2.3109693590 -1.0517721630
H -3.6224706212 -1.2569542521 -0.0380844035
H 3.9560697544 -0.7404288665 -0.7179360021
