45
CONF136
C 5.3466058610 -0.7884201448 4.4367160654
C 5.3777006892 0.0055876131 3.1328515849
C 4.4688248108 -0.5883595206 2.0568908724
C 4.4854666624 0.2132920583 0.7549016873
C 3.7057970481 -0.4327199261 -0.3931678453
C 2.2046957709 -0.5647155558 -0.1328526491
C 1.4461608974 -1.1260474710 -1.3335184821
C -0.0730721259 -1.2492235014 -1.1144958432
C -0.7855942832 0.0731309120 -0.9648464769
C -1.0416134674 0.5920631208 0.3035721420
N -1.6936015919 1.7839331623 0.3488711963
C -2.0944492308 2.4738920803 -0.7955854334
N -2.6912465596 3.6087416558 -0.4085356442
C -2.6195707362 3.5487050415 0.9364216922
N -2.0275853960 2.4732367388 1.4708082606
N -1.8636384555 1.9936400812 -2.0158408136
C -1.2263154418 0.8243079592 -2.0874361744
C -1.0650680024 0.2903099318 -3.4886232843
C -2.3156917458 -0.4901677814 -3.9197003556
N -0.7646420669 0.0130541056 1.5035408901
H 6.0074802549 -0.3497292229 5.1902147909
H 5.6662765413 -1.8232460868 4.2728409556
H 4.3348459726 -0.8166466710 4.8556830624
H 6.4059997892 0.0491251935 2.7509686783
H 5.0782165202 1.0443891051 3.3242176934
H 3.4460155033 -0.6462673498 2.4528434063
H 4.7778287330 -1.6235105252 1.8509573028
H 5.5281451982 0.3493097577 0.4392614655
H 4.0886710183 1.2206554062 0.9428440065
H 4.1253219216 -1.4261495112 -0.6047094869
H 3.8502893975 0.1632518482 -1.3036720588
H 1.8000092675 0.4225400328 0.1309756718
H 2.0425376293 -1.2239447888 0.7325822253
H 1.6317531946 -0.4828397505 -2.2031492214
H 1.8477015712 -2.1168569524 -1.5835008554
H -0.5104558814 -1.7954310862 -1.9553173593
H -0.2642338055 -1.8804780331 -0.2368684018
H -3.0166090471 4.3249195324 1.5791796154
H -0.1781951710 -0.3425238836 -3.5763438753
H -2.4926694141 -1.3509960134 -3.2666353862
H -0.0140313972 -0.6545539343 1.5366530157
H -0.8728450373 0.6131996612 2.3090341964
H -3.1951279561 0.1573141535 -3.8701834880
H -0.9284424743 1.1483830484 -4.1522420247
H -2.2098204701 -0.8553409351 -4.9453997728
