32
CONF3
C -1.1277375879 -3.1048168589 1.3598185933
C -1.1926162693 -1.8008750515 0.6202214682
C -2.3972047618 -1.3125646285 0.1240959701
C -2.3708246956 -0.0912605139 -0.5539406940
N -1.2316700288 0.5850635741 -0.7198537568
C -0.1212128063 0.0281100365 -0.2016065850
N -0.0418644855 -1.1344858796 0.4618697646
N 1.0129711405 0.7774369412 -0.4083172692
C 2.3517273939 0.5924965141 -0.0509645199
C 2.8448651436 -0.5061883074 0.6651240492
C 4.2022255110 -0.5756542671 0.9623442332
C 5.0873277918 0.4206507340 0.5657862420
C 4.5953436243 1.5118305341 -0.1463270551
C 3.2465012713 1.5989572588 -0.4518865266
C -3.6045166066 0.4946756654 -1.1125812341
C -3.5293682842 1.2827534513 -2.4061088002
C -3.7696511838 2.0020262850 -1.1234587434
H -1.4926603952 -3.9221348952 0.7291562082
H -0.1018977210 -3.3179809519 1.6622610890
H -1.7642641897 -3.0730954320 2.2502534348
H -3.3234524735 -1.8600941543 0.2580329705
H 0.8135557647 1.6235939443 -0.9200813645
H 2.1680656923 -1.2865132083 0.9783477119
H 4.5686757838 -1.4334456872 1.5180746211
H 6.1424967138 0.3501670611 0.8061558860
H 5.2651657883 2.3030287688 -0.4679495701
H 2.8741489886 2.4553435180 -1.0085514928
H -4.5009674998 -0.0946365891 -0.9500138532
H -2.5424319013 1.3663483854 -2.8471517307
H -4.3543919283 1.1656704573 -3.1001633485
H -4.7626734464 2.3881351947 -0.9210566762
H -2.9436643483 2.5674580056 -0.7066852203
