44
CONF10
C -4.5741113507 -3.4482185745 -1.1107389276
C -3.2231128090 -3.1239836648 -0.5028238622
C -2.0728609999 -3.0931261216 -1.5183553487
O -2.0152572907 -1.7123152098 -1.8938262003
C -2.2655322019 -1.0088189451 -0.6936063077
O -3.2441516785 -1.7679918652 0.0025258421
C -2.9035941874 0.3543321234 -1.0431004672
N -1.9173391294 1.3535174967 -1.3986912458
C -1.3034548893 2.2418823906 -0.5822048665
N -0.3034808438 2.8346736385 -1.2131745463
C -0.3427766874 2.2438874742 -2.4420330642
N -1.2952661881 1.3353012984 -2.6021986062
C -0.9730288133 -0.8148693107 0.1055409995
C 0.2458195274 -0.8985895001 -0.5772663619
C 1.4521564513 -0.5722356535 0.0187192856
C 1.4511059903 -0.1304972330 1.3379224196
C 0.2687077512 -0.0523540508 2.0600131869
C -0.9274660336 -0.3876884580 1.4349322689
Cl -2.3888389319 -0.1423441918 2.3831960990
O 2.6139237886 0.2110108077 1.9913448917
C 3.4766056385 1.0907902657 1.3583312115
C 4.8281971004 0.9588665910 1.6581640273
C 5.7444786313 1.8491005279 1.1120600901
C 5.2933230765 2.8553362028 0.2656336463
C 3.9429981500 2.9909356359 -0.0341456434
C 3.0242113845 2.1057999294 0.5181416432
Cl 6.4494392856 3.9754487515 -0.4326185048
H -4.7566929948 -2.8125116477 -1.9827441910
H -5.3697234383 -3.2782841122 -0.3808564082
H -4.6095288025 -4.4972338470 -1.4230140511
H -2.9978222419 -3.7947547886 0.3353314486
H -1.1226989849 -3.4100797803 -1.0653713892
H -2.2703166511 -3.6771830323 -2.4197620675
H -3.5969767729 0.2060199246 -1.8742168022
H -3.4476235506 0.7068661923 -0.1641208986
H -1.6215099388 2.4166090567 0.4376724395
H 0.3397990023 2.4951415739 -3.2432050389
H 0.2230706121 -1.2007887493 -1.6178786601
H 2.3813764489 -0.6264846751 -0.5371122699
H 0.2842683758 0.2996126234 3.0841223926
H 5.1510390614 0.1631187841 2.3201152106
H 6.8005242812 1.7578492906 1.3372176645
H 3.6024608799 3.7868624020 -0.6861051332
H 1.9696589577 2.2173906262 0.2866636935
