36
CONF385
C 3.7269116595 2.4866875186 -2.7950038822
C 2.7343697737 3.2928529898 -1.9635432559
C 1.4981012068 2.5578909027 -1.5347449257
C 1.1895503868 1.2909370797 -1.8195760674
C -0.0620486370 0.6090258088 -1.3499531736
C 0.2006236561 -0.6144445690 -0.4599459495
C -0.9898362993 -1.1092374018 0.3815582014
C -0.5909214490 -2.5518485054 0.7459767184
C 0.0557069173 -3.0866432130 -0.5332132096
C 0.6391638986 -1.8626363352 -1.2153205379
O 1.3151902312 -1.8801308385 -2.2275722474
C -1.2754786336 -0.2323081386 1.5929560821
C -2.5006841283 -0.6685194811 2.3553307405
O -3.4712852948 -1.2151287972 1.8690650951
O -2.4087255919 -0.3458289433 3.6593080067
C -3.5709711028 -0.6610562504 4.4680532449
H 4.5940682572 3.1005572160 -3.0549718432
H 3.2714706029 2.1337432749 -3.7262003335
H 4.0855779148 1.6107335142 -2.2442662793
H 2.4274578501 4.1900437140 -2.5204333984
H 3.2346333263 3.6793812927 -1.0637915086
H 0.7965911708 3.1386003420 -0.9317611116
H 1.8684975452 0.6849302055 -2.4150579455
H -0.6588426383 0.2761932326 -2.2110034303
H -0.6752856455 1.3264637409 -0.7923627239
H 1.0297694581 -0.3910141929 0.2347409834
H -1.8798611149 -1.1365245170 -0.2621481862
H -1.4420350145 -3.1493812416 1.0812402667
H 0.1464848499 -2.5231391844 1.5579131556
H -0.6994411236 -3.4948694562 -1.2194257654
H 0.8152525769 -3.8605917598 -0.3911138306
H -0.4124687187 -0.2075267617 2.2664953146
H -1.4655097402 0.8054260184 1.2846612118
H -3.3208383425 -0.3281128122 5.4744515446
H -3.7581193726 -1.7372827572 4.4542664664
H -4.4470681595 -0.1272422974 4.0923161932
