26
CONF204
C -2.7882970754 0.5353145040 0.1619987398
C -1.3034815178 0.3016672494 0.4327894453
C -0.7534984415 -0.8509708605 -0.4168013401
C 0.6611790848 -1.3300448812 -0.0382511266
C 1.7493798209 -0.2491362327 -0.0167335065
C 3.1339608827 -0.8740172853 0.0363205980
O 4.1526268208 0.1195594597 0.1637384755
O 1.7163372216 0.5559164146 -1.1995258902
O 0.6193452484 -2.0263756500 1.2184729932
O -1.6350584285 -1.9742013495 -0.3468312751
O -0.5751562127 1.4899590806 0.0866490838
O -3.2059485585 1.7774088850 0.7526133862
H -2.9531070682 0.6417748370 -0.9160131751
H -3.3853256049 -0.3029701630 0.5331969231
H -1.1679523505 0.0862225612 1.5081250904
H -0.7483150004 -0.5214710840 -1.4628304610
H 0.9320080866 -2.0952465060 -0.7777497714
H 1.6095787912 0.3837288784 0.8745068341
H 3.2851340398 -1.4778926856 -0.8728032070
H 3.2154462140 -1.5292361396 0.9072745235
H 0.9799835852 1.1773709536 -1.0799200272
H 0.5902238804 -1.3721721885 1.9308303587
H -1.4173293521 -2.4371232259 0.4771305292
H -1.1365060030 2.2375516468 0.3452276511
H 4.0163579556 0.7434132386 -0.5621213574
H -3.2753690749 1.6439167246 1.7070198275
