24
CONF82
C 2.9329929165 -0.4970937562 -0.2116447125
C 1.5780022065 -0.3038901138 -0.8827382780
C 0.4351912486 -0.1248117516 0.1254428495
C -0.8857011839 0.2161296976 -0.5832064475
C -2.0899733561 0.0577483681 0.3703210772
C -3.3372657998 0.4877842945 -0.3516108483
O -4.0340792208 1.3951606851 0.0569836006
O -1.9211076966 0.7927759185 1.5736131437
O -0.8456792079 1.5306808139 -1.1334784081
O 0.8123245685 0.9338203100 1.0130571426
O 1.2848242673 -1.4118376917 -1.7389351515
O 2.9712250705 -1.7162316841 0.5467693414
H 3.6934692015 -0.5991108352 -0.9922816744
H 3.1803699275 0.3693241043 0.4111879777
H 1.6315343255 0.5858334348 -1.5223753312
H 0.2982486543 -1.0702660552 0.6757373841
H -1.0266870603 -0.4837126304 -1.4146315411
H -2.1909537302 -1.0152917785 0.6036952934
H -3.5717132612 -0.0584424507 -1.2848421270
H -2.5798138468 1.5088186834 1.5584765458
H -0.4019630830 2.0931247798 -0.4799666865
H 0.0581786046 1.0734738550 1.6099612271
H 1.4657830022 -2.2101216840 -1.2203646271
H 2.5427936648 -1.5538643179 1.3965236531
