52
CONF292
C 1.4452752226 -2.4429308104 -1.7183570062
C 1.5382514455 -0.9476441361 -1.5123113222
C 2.5608799444 -0.2713661332 -2.4183290961
C 2.6829489606 1.2216671423 -2.0815315435
C 3.0368649207 1.3847301338 -0.5937357005
C 2.0963159497 0.5679789608 0.2931382875
O 1.9287136549 -0.7524935100 -0.1252642093
O 0.8316215230 1.2965699363 0.3093250876
C -0.0456204126 0.8530726321 1.2716589145
C -1.2002349182 0.2193498969 0.9078375776
O -2.0661335677 -0.2688308444 1.8370014814
C -1.8057890966 -0.1424400597 3.1727329973
C -2.7254453426 -0.7089398280 4.0397533137
C -2.4916644383 -0.5662043750 5.4085496383
C -1.3771658999 0.1227852817 5.9026363258
C -0.4731281582 0.6795367075 5.0140962530
C -0.6697639529 0.5525053708 3.6105364430
C 0.2653819087 1.1012139692 2.6632516737
O 1.2905029236 1.7408123374 3.0188774065
O 0.6015410787 1.3389953587 5.4792710682
O -3.3348398707 -1.0844990129 6.3335230956
C -1.6493047798 -0.0254117892 -0.4594528639
C -1.5991857613 1.0003950645 -1.4137827030
C -1.9565482619 0.7454234759 -2.7275719757
C -2.3735276257 -0.5466188543 -3.0988777793
C -2.4510498634 -1.5555455879 -2.1449244904
C -2.0979162059 -1.2981837889 -0.8256092321
O -2.6903433863 -0.7064659942 -4.4122179626
O -1.9015824245 1.7542245561 -3.6388727886
O 4.3433191938 0.8818324256 -0.3120965996
O 1.5129212965 1.9667671892 -2.4220499057
O 2.1343175534 -0.4848516906 -3.7637402824
H 0.7358314209 -2.8737420709 -1.0059889046
H 1.0930617227 -2.6576098512 -2.7296333577
H 2.4245097137 -2.9119121688 -1.5764890295
H 0.5526122966 -0.4921447417 -1.6762294067
H 3.5419307826 -0.7385439529 -2.2408026837
H 3.4928658772 1.6558664658 -2.6828890178
H 2.9476576832 2.4433428709 -0.3137160915
H 2.4906976876 0.5103224616 1.3110083755
H -3.5934445256 -1.2353808287 3.6584338317
H -1.2249473434 0.2175072356 6.9717276064
H 1.1025648145 1.6460024224 4.6700514476
H -4.0688023928 -1.5385984393 5.8956582489
H -1.3106591361 2.0085700067 -1.1337580159
H -2.7791218421 -2.5472156291 -2.4437155350
H -2.1365908702 -2.0940861820 -0.0905574404
H -2.9848433749 -1.6125703764 -4.5791619048
H -2.1839973695 1.4159132118 -4.5015546350
H 4.9811838384 1.4449210182 -0.7691770412
H 0.8174487838 1.7466550373 -1.7852452541
H 2.7424300049 -0.0127312222 -4.3474472812
