63
CONF58
C 2.8128063477 0.0324874114 2.2590468248
C 1.6008934490 -0.8161762912 2.6281140184
N 0.7519461603 -1.0658186767 1.4571820129
C 1.5077052268 -1.8092590673 0.4429437566
C 2.7201044144 -1.0109544980 -0.0287398116
C 3.6133612507 -0.6713965647 1.1638317216
N 4.8040889719 0.0813578708 0.7716352719
C 4.8781737935 1.3407204798 0.1814826574
C 3.9097032295 2.2582277030 -0.2080390439
C 4.3425511184 3.4561764238 -0.7846204541
C 5.6988456236 3.7310803589 -0.9665053495
C 6.6769679595 2.8132536067 -0.5756512801
C 6.2470489130 1.6268726802 -0.0051771197
N 6.9509074709 0.5385607725 0.4758952837
C 6.0885860671 -0.4286909005 0.9597501085
O 6.3906247289 -1.5126472535 1.4528236598
C -0.4576351732 -1.7913472737 1.8679763400
C -1.4958702903 -1.9569310890 0.7596528520
C -1.8769241075 -0.6391191212 0.0889606620
C -3.0165926822 -0.7904156569 -0.9338629673
C -4.3310720031 -1.2763991762 -0.3456092890
C -4.7406360763 -0.9636622160 0.9534059310
C -5.9755715213 -1.3843556635 1.4431729382
C -6.7940959349 -2.1253373669 0.6100636666
C -6.4304861569 -2.4637861213 -0.6821731005
C -5.1923845983 -2.0321593471 -1.1477718477
F -7.9991072351 -2.5453306665 1.0806992390
C -3.2122705745 0.5072936732 -1.7018038100
C -3.7916389837 1.6253955548 -1.0939718552
C -3.9346210551 2.8264800197 -1.7815919029
C -3.4900487002 2.8882578282 -3.0920864594
C -2.9127920665 1.8085050391 -3.7350304074
C -2.7775963814 0.6168646126 -3.0245131866
F -3.6304691042 4.0575923345 -3.7732069533
H 3.4433283526 0.1818589277 3.1424457535
H 2.4746330050 1.0161190047 1.9159887245
H 1.0039142142 -0.2971370393 3.3866205315
H 1.9458766830 -1.7704623337 3.0787839941
H 1.8401051497 -2.7915694077 0.8397946173
H 0.8589666272 -2.0083090600 -0.4154891239
H 2.3755482602 -0.0962759495 -0.5230661921
H 3.2859887127 -1.5965621880 -0.7615677404
H 4.0040419183 -1.6100847874 1.5760440412
H 2.8521299965 2.0677804527 -0.0761400405
H 3.6015887719 4.1850459139 -1.0960825648
H 6.0015484767 4.6702747665 -1.4175528714
H 7.7336735037 3.0172636203 -0.7121930077
H 7.9524312364 0.4300377044 0.4870462086
H -0.9135706468 -1.2192774125 2.6870865114
H -0.2009908183 -2.7897493423 2.2769433838
H -1.1501535228 -2.6666575023 -0.0022433513
H -2.3821749984 -2.4146159791 1.2154439381
H -2.1446405937 0.1088591602 0.8466377516
H -1.0082299893 -0.2298618565 -0.4384136716
H -2.6980406950 -1.5450938159 -1.6641143043
H -4.0930849428 -0.3907217727 1.6091004475
H -6.2953409792 -1.1474960542 2.4522601948
H -7.0986036984 -3.0524356679 -1.3015581602
H -4.8901347068 -2.2871238142 -2.1600859672
H -4.1439513752 1.5619842322 -0.0687368754
H -4.3842892089 3.6975448749 -1.3171766377
H -2.5804002620 1.8980877164 -4.7636563128
H -2.3246671484 -0.2417243318 -3.5124004836
