51
CONF6
C 1.4260143254 1.0231489613 -1.5986812456
C 1.4668265492 0.4923702564 -0.1545719820
C 2.3217001943 1.4424620979 0.7129230638
C 3.8011125923 1.4504576501 0.3192187378
C 4.4186032484 0.0531136192 0.3507064684
C 3.5892776158 -0.9241976890 -0.4716663864
C 2.1145897826 -0.9175268596 -0.0621574272
C 1.3083786281 -1.9722684204 -0.8159794176
C -0.1082240158 -2.0662082576 -0.2564283906
C -0.8198833479 -0.7115123442 -0.2651905336
C 0.0291299936 0.3820141839 0.4371273606
C -0.7206720030 1.7273173591 0.5079736501
C -2.1212648099 1.6136388989 1.1314441886
C -2.9331865252 0.5543450455 0.4000856931
C -2.1719572681 -0.7827902795 0.4323352780
C -3.2190270727 -1.8249798875 0.0072345073
C -4.4904955801 -1.3377675905 0.7307233286
C -4.2621228444 0.1514147074 1.0303029351
O -5.0111404271 0.8666396451 1.6539656347
C -3.3104022422 1.0200631373 -1.0243062558
O 4.4579051316 -0.4739642505 1.6898090276
H 1.1612878670 2.0850768298 -1.6096387560
H 0.6971134906 0.4947743577 -2.2181052689
H 2.3941943089 0.9308290906 -2.0970072140
H 2.2330322676 1.1312547754 1.7623064207
H 1.9362931992 2.4655361970 0.6465634114
H 3.9257867322 1.8632752387 -0.6900731573
H 4.3621711858 2.1169047632 0.9887730092
H 5.4432904309 0.0940901056 -0.0539261990
H 3.9996369086 -1.9320816939 -0.3377299006
H 3.6987418704 -0.6771765851 -1.5350933975
H 2.0854354166 -1.1897357710 1.0035383109
H 1.2785549716 -1.7315442446 -1.8875875424
H 1.8099584023 -2.9445886759 -0.7317615277
H -0.6973404309 -2.7977507588 -0.8225220824
H -0.0588464584 -2.4329367849 0.7801275404
H -0.9835634540 -0.4243902787 -1.3138828930
H 0.1619484779 0.0356781186 1.4774158612
H -0.1377504859 2.4425099211 1.0965200666
H -0.8046428200 2.1554008389 -0.4978223580
H -2.6328297472 2.5823173532 1.1100133046
H -2.0315635778 1.3248864418 2.1869384107
H -1.9605173253 -0.9776819553 1.4995291412
H -3.3511960665 -1.8219861230 -1.0805225383
H -2.9404056488 -2.8410372702 0.2982813766
H -4.6311832329 -1.8446044851 1.6925394586
H -5.4209608485 -1.4704485144 0.1701734043
H -2.4260125398 1.1959208731 -1.6407329672
H -3.9381990474 0.2913264032 -1.5457627646
H -3.8740271270 1.9555106538 -0.9542474047
H 4.9364306682 0.1549012173 2.2409988109
