15
CONF11
N 0.1594854638 0.8411314476 1.8697274473
C -0.1589130297 -0.2362353108 0.9521929514
C 1.0952995691 -0.6712281778 0.1821693610
S 1.9146238279 0.6761907583 -0.7778141552
S 0.7790202613 0.8176977894 -2.5200865807
C -1.3071821810 0.0852388978 -0.0065953904
O -1.7320564068 -1.0299644963 -0.6551793069
O -1.8022586390 1.1740780055 -0.1606422993
H 0.4305748980 1.6557447970 1.3247277161
H -0.6786112741 1.1167382068 2.3703670103
H -0.4781942661 -1.1177704600 1.5286694374
H 0.8866651072 -1.5090558344 -0.4866716472
H 1.8558625911 -0.9726155231 0.9114344153
H 1.4634221849 -0.0806508772 -3.2617465490
H -2.4277383979 -0.7492992228 -1.2705521138
