41
CONF19
C -2.3858519061 2.4987318945 -1.3185360303
C -1.5777096461 2.9978928439 -0.1149619726
C -0.5410696733 4.0296448413 -0.5482123297
N -0.8888742745 1.9279914057 0.6296428836
C -1.7671256847 0.8743108945 1.1491534206
C -1.1454380289 0.2606901490 2.4029876045
O -0.9542210190 1.2610684272 3.4046373349
C 0.2086377213 -0.4008707774 2.1501483761
O 0.0638264348 -1.2997915276 1.0456887366
C 1.1733676247 -1.9501821273 0.5886929966
C 2.3754859761 -2.0282436358 1.2928340480
C 3.4469656806 -2.7350074512 0.7474544470
C 3.3264374303 -3.3566376539 -0.4889851530
C 2.1230676769 -3.2590485337 -1.1871620411
C 1.0369561704 -2.5587943870 -0.6720717994
C -0.2329667272 -2.3852035129 -1.4561647387
C -0.3596736500 -1.0481930128 -2.1424432074
C 0.5693923187 -0.0956937528 -2.1812359746
H -2.8996997132 3.3315992601 -1.8101111362
H -1.7219655924 2.0260790517 -2.0516983289
H -3.1420295092 1.7657596532 -1.0214517073
H -2.2702199253 3.4729865277 0.5955187108
H -1.0200550923 4.8677064121 -1.0629560996
H 0.1787083653 3.5772536863 -1.2418524794
H 0.0099259294 4.4155404350 0.3143132325
H -0.2012223212 1.5019395693 0.0108733874
H -2.7196505424 1.3289577004 1.4488409467
H -1.9906561737 0.0824266523 0.4182880894
H -1.8398621458 -0.4798204052 2.8175643648
H -0.6001084246 2.0243725293 2.9179739827
H 0.5239493738 -0.9333590672 3.0564520105
H 0.9606436882 0.3652027640 1.9105270087
H 2.4846970240 -1.5513760307 2.2593006692
H 4.3782794508 -2.7948627818 1.3020552060
H 4.1596129806 -3.9080492600 -0.9114829683
H 2.0241975756 -3.7267775635 -2.1633727337
H -0.2995653105 -3.1708667798 -2.2205655989
H -1.1068729951 -2.5232668279 -0.8069880463
H -1.3074899853 -0.8872103197 -2.6567574091
H 1.5290380643 -0.2166402115 -1.6847042591
H 0.3991393365 0.8303813298 -2.7212334536
