46
CONF32
C 0.7530268443 1.2544158213 -3.0924272958
C -0.4179145891 2.1094486365 -2.6148872873
C -0.9165149994 1.6740417564 -1.2373220257
C -2.1085633554 2.4956626202 -0.7827609123
O -2.5862450627 2.0076894248 0.5016605739
C -1.9909371254 2.5165193125 1.5905975673
O -1.1912147259 3.4238633027 1.5998144239
C -2.4925605706 1.8301805352 2.8635434044
C -3.8194470190 2.4318949810 3.2964110469
O -2.7137876801 0.4325206281 2.6731015502
C -1.6500300901 -0.3346327738 2.2870857068
C -1.9610220341 -1.6406468789 1.9005177671
C -0.9565212749 -2.5073836631 1.4998569784
C 0.3611614678 -2.0668534147 1.4893043760
C 0.6854748180 -0.7761227631 1.8753380413
C -0.3219060508 0.1006965083 2.2712762180
O 1.3553782448 -2.9946139195 1.1769248931
C 2.1607717394 -2.7703016225 0.1066974347
C 3.2934620298 -3.5915482961 0.0085238988
C 4.1783328125 -3.4928113148 -1.0401018392
C 3.9396320412 -2.5388998767 -2.0413308184
C 2.8124293672 -1.7138432927 -1.9614973059
C 1.9305641758 -1.8283940680 -0.8964731590
C 4.8403763205 -2.4166576691 -3.1344417446
N 5.5727359371 -2.3144268453 -4.0262915001
F 3.5068935818 -4.5019118396 0.9719499807
H 1.1178689686 1.5797760786 -4.0707862498
H 1.5882595741 1.3127269020 -2.3855277058
H 0.4530917091 0.2037809402 -3.1791692534
H -0.1150014568 3.1633009523 -2.5768760802
H -1.2393484601 2.0466843611 -3.3404778479
H -1.2041799045 0.6145932185 -1.2563325551
H -0.1111507109 1.7764890699 -0.4993099117
H -1.8572911323 3.5567447795 -0.6938904792
H -2.9599701655 2.3727012472 -1.4573311482
H -1.7306405199 2.0004170337 3.6354294752
H -3.7038825216 3.5067408284 3.4574305608
H -4.5771224416 2.2611649647 2.5278833966
H -4.1457748109 1.9660540024 4.2292540103
H -2.9977831870 -1.9570668433 1.9193563037
H -1.1813141297 -3.5254067777 1.2016995089
H 1.7215295124 -0.4537553775 1.8756326194
H -0.0495389682 1.1057870826 2.5694635820
H 5.0422133667 -4.1457074586 -1.0768459113
H 2.6291324525 -0.9844311865 -2.7411589824
H 1.0573283246 -1.1884792286 -0.8364906185
