45
CONF60
C 4.7345967131 1.8978654011 -0.1806663977
C 3.6196814155 1.5752859968 0.8138462847
C 2.3976686000 2.4912019819 0.6844588830
C 1.7140149018 2.4688313320 -0.6888745142
C 1.2824605242 1.0804898242 -1.1692949732
C 0.2986062221 0.3504041133 -0.2367000219
C -0.0383349836 -1.0414006763 -0.8007732148
C -0.9137080464 -1.8874538896 0.1209926066
C -1.2064817691 -3.2754324895 -0.4462443471
C -2.0797355307 -4.1289737043 0.4730707572
C -2.3730882675 -5.5109735783 -0.1078522638
C -0.9507467453 1.1677206492 0.0135371790
C -1.7845704688 1.5484482135 -1.0448575601
C -2.9364190546 2.2953925454 -0.8155959186
C -3.2794191048 2.6784271953 0.4809010547
C -2.4602829893 2.3047865573 1.5430336607
C -1.3077532984 1.5564218205 1.3071359517
H 4.4143287731 1.7284862830 -1.2138422111
H 5.6158765869 1.2737030862 -0.0012466940
H 5.0416001377 2.9468391123 -0.0951368148
H 3.3137473583 0.5278387596 0.6944769818
H 4.0106840719 1.6613499337 1.8353752412
H 1.6680137953 2.2209897895 1.4583586994
H 2.7047843649 3.5232869372 0.9017272162
H 0.8351648373 3.1255724788 -0.6505647287
H 2.3851834065 2.9038151723 -1.4398257383
H 2.1648643441 0.4410233438 -1.2993560470
H 0.8243606785 1.1729809030 -2.1627548265
H 0.7902029522 0.1992492436 0.7337950756
H -0.5331702508 -0.9256558299 -1.7752990353
H 0.9049761975 -1.5711431864 -0.9919767588
H -0.4192848834 -1.9881648807 1.0978861761
H -1.8621507810 -1.3655425498 0.3072153473
H -0.2594027546 -3.8005002397 -0.6360102412
H -1.7021195281 -3.1711425350 -1.4219947220
H -3.0233024071 -3.6008137915 0.6648792241
H -1.5817579733 -4.2346234288 1.4460966634
H -1.4445646171 -6.0659225155 -0.2830165642
H -2.8965950601 -5.4273827001 -1.0668699211
H -2.9982629691 -6.1060366148 0.5655284661
H -1.5316512462 1.2581064893 -2.0610460882
H -3.5692486103 2.5805160607 -1.6511284280
H -4.1775912254 3.2615345908 0.6597834313
H -2.7175776391 2.5948972471 2.5576070611
H -0.6735946557 1.2656986228 2.1410968625
