21
CONF51
C 0.7711903004 -1.2277400761 -0.2463860093
C -0.0651969361 0.0438440469 -0.0216027492
C 0.8094882211 1.2971849687 -0.0542611803
O 1.6769791787 1.3069215338 1.0954416089
C -1.1011352551 0.2168313705 -1.1532973527
O -1.6838169048 -1.0139421802 -1.5978543512
C -0.8188977477 -0.0649312610 1.3164950118
O 0.0015186805 -0.4623050811 2.4194530081
O 1.2867951773 -1.3283555566 -1.5787304984
H 0.1640366793 -2.1096355922 0.0001853954
H 1.6383522414 -1.2226891785 0.4187008967
H 1.4047386668 1.3039545354 -0.9785253121
H 0.1662898494 2.1897820943 -0.0473916555
H 2.0991348824 2.1725807022 1.1473586635
H -1.8787090822 0.9251589864 -0.8319395439
H -0.6118515850 0.6407869642 -2.0365202935
H -2.2237354942 -1.3760232192 -0.8844636692
H -1.3124186610 0.8987615778 1.5227997563
H -1.6014507727 -0.8299248658 1.2381150259
H 0.7474742304 0.1577218875 2.4237373189
H 0.5312146273 -1.5179813606 -2.1513140702
