45
CONF22
C -4.2540940075 -1.1622829569 1.2367720440
C -3.2944604717 -0.0425602917 0.9806342296
N -3.4507922639 0.8429443078 0.0587498948
O -4.6011892077 0.6072729969 -0.6956826918
C -4.7359565733 1.6452225230 -1.6799090658
C -2.0813538191 0.1297097123 1.8055636756
C -0.8578341976 0.5160662715 1.2263893305
C 0.2228275135 0.7985325682 2.0694153504
C 0.1237777619 0.6701955118 3.4463525552
C -1.0809050226 0.2586678225 4.0064942578
C -2.1744149444 -0.0103780321 3.1947627725
O 1.4249302790 1.2959269476 1.5794379063
C 2.1488430249 0.5662963013 0.6830778618
N 1.8297041550 -0.6988881882 0.5015566028
C 2.5633508856 -1.3493368462 -0.4211315707
C 3.6053266409 -0.7446470095 -1.1091200839
C 3.8463901212 0.5934975747 -0.7751295326
N 3.1238987535 1.2731995468 0.1151826320
O 4.8580428514 1.1980903438 -1.4072778849
C 5.1202586564 2.5850725144 -1.0848923905
O 2.1745318057 -2.6211440525 -0.5868718525
C 2.8866922154 -3.4164200299 -1.5575369179
C -0.6762562743 0.6005055250 -0.2536850905
O -0.2325244583 1.5731263699 -0.8329481312
O -0.9986474434 -0.5532734123 -0.8541578151
C -0.8414789751 -0.5691752549 -2.2940999686
H -5.2472974497 -0.7724398932 1.4836434854
H -3.9064918091 -1.8096103772 2.0414180740
H -4.3643324482 -1.7588035214 0.3246065184
H -4.8568827489 2.6218134958 -1.1993601761
H -3.8669296085 1.6601910184 -2.3466437726
H -5.6356282536 1.3933386689 -2.2443884063
H 0.9912502421 0.8859774643 4.0602848760
H -1.1665212094 0.1573515533 5.0831532233
H -3.1202343742 -0.2981699357 3.6409074477
H 4.2120117601 -1.2413061286 -1.8520381913
H 5.3699929367 2.6908508838 -0.0265447472
H 4.2525500749 3.2035714676 -1.3261725986
H 5.9708071490 2.8600358059 -1.7075593944
H 3.9419779440 -3.5042736579 -1.2808542502
H 2.7907911405 -2.9784185769 -2.5559607757
H 2.4113077755 -4.3959430103 -1.5323391254
H -1.1352385348 -1.5708454317 -2.6045940319
H 0.2006753929 -0.3721068028 -2.5597207926
H -1.4904759583 0.1834266533 -2.7497833791
