35
CONF39
C 4.4797532556 0.8751967436 1.0291230790
C 3.5913740997 0.2308660991 -0.0059736047
O 2.2499689169 0.1459458114 0.5698613710
C 1.3022883796 -0.3818520083 -0.2199054810
O 1.4918822190 -0.7909915354 -1.3412926492
C -0.0786403013 -0.3205097757 0.4805532521
C -0.6597195078 1.0582858782 0.1484355443
C -0.6629838335 1.5337177774 -1.1660002311
C -1.2013570484 2.7775897555 -1.4713394105
C -1.7414263149 3.5461055388 -0.4461756160
C -1.7558562584 3.0942611680 0.8661022992
C -1.2113275373 1.8461255557 1.1561724363
Cl -2.4216359513 5.1215079081 -0.8216803203
C -0.9555983865 -1.4700843922 0.0028033908
C -0.4717838061 -2.7734450248 0.1412205336
C -1.2435920931 -3.8651651840 -0.2277976761
C -2.5185776630 -3.6411760717 -0.7383273718
C -3.0273575836 -2.3591341741 -0.8800674571
C -2.2358751484 -1.2754410453 -0.5051118739
Cl -3.5042701628 -5.0165063702 -1.2111001627
O 0.0697875923 -0.5067783211 1.8866499716
H 4.1266480448 1.8798408709 1.2769553940
H 4.5150289393 0.2761768969 1.9431696053
H 5.4953444903 0.9555421884 0.6310308598
H 3.5274888386 0.8187683822 -0.9265830819
H 3.9155955892 -0.7823152891 -0.2615592290
H -0.2494783671 0.9262301302 -1.9648505497
H -1.2025368123 3.1439914787 -2.4913625585
H -2.1867267061 3.7043650323 1.6516646856
H -1.2283623576 1.4794438072 2.1758135051
H 0.5214470881 -2.9413023787 0.5459286858
H -0.8638029148 -4.8748180230 -0.1233685107
H -4.0249125157 -2.2037369074 -1.2740736977
H -2.6351350566 -0.2732351781 -0.6121318867
H 0.7943489739 0.0625301641 2.1832172628
