45
CONF20
C 3.8035652878 -0.3341533532 -0.1107194758
C 3.2117267506 -0.2417275952 -1.5157840536
C 2.7850822995 1.1770476357 -1.9139026402
C 1.7825736680 1.8284774017 -0.9645430406
N 0.5939013580 0.9977175236 -0.8475924117
C -0.3904252001 1.1985596493 0.0653396880
C -1.4796280695 0.2933936897 0.1310902369
C -2.5061131809 0.4836865492 1.0466218414
C -2.5032410719 1.5466799543 1.9429458013
C -1.4165780862 2.4230672424 1.9079974237
C -0.3815800953 2.2572057967 0.9869375850
C -1.3303394335 3.5794106274 2.8343333713
O -0.4112033917 4.3768326926 2.8537123678
O -2.3875146340 3.6632118826 3.6675840015
S -3.8568729381 -0.7075689943 1.1079511281
O -3.2823709563 -2.0504978959 1.2824430278
O -4.8362002980 -0.1990674105 2.0796533989
N -4.6264069902 -0.7118030466 -0.3821959494
O -1.5652852533 -0.7309533959 -0.7852279664
C -0.6282370548 -1.7638066105 -0.7057968765
C -0.4832385022 -2.5386788813 -1.8509633601
C 0.4278066461 -3.5904226543 -1.8396847911
C 1.1858631191 -3.8568229653 -0.7004743789
C 1.0204017950 -3.0687943863 0.4361182462
C 0.1076180810 -2.0168385373 0.4454950808
H 4.1791059663 -1.3429207784 0.0876816954
H 4.6361295688 0.3681547712 0.0123008679
H 3.0552298428 -0.1064636403 0.6558890834
H 2.3579478793 -0.9276608009 -1.5962293509
H 3.9500650450 -0.5898016592 -2.2479146588
H 2.3600806944 1.1611345004 -2.9260934720
H 3.6666036980 1.8281520239 -1.9537712394
H 1.5301475783 2.8373729313 -1.3267112476
H 2.2294273040 1.9461321646 0.0308776919
H 0.3961990693 0.3710038473 -1.6122876652
H -3.3152447481 1.6724049661 2.6452104462
H 0.4250885881 2.9795281757 0.9760811514
H -2.2572653225 4.4404481249 4.2364101291
H -3.9846357602 -1.0029586061 -1.1184062118
H -5.0152158508 0.2064047047 -0.5922292974
H -1.0739170328 -2.3095839566 -2.7318559742
H 0.5484455646 -4.1987181558 -2.7304936224
H 1.9002878333 -4.6732411433 -0.6986732390
H 1.6041029209 -3.2697247907 1.3289977310
H -0.0258863756 -1.4038173961 1.3307399385
