24
CONF38
C 2.6290675894 0.7057541052 0.9559469459
C 1.2224944548 0.1631986520 1.1409614540
C 0.4700747441 0.0214241289 -0.1921764682
C -0.9451862358 -0.5286789682 0.0224543993
C -1.7613532774 -0.4913406846 -1.2981259939
C -3.1622869678 -0.9696389465 -1.0354204047
O -4.1286339918 -0.2793731253 -1.3047972989
O -1.7648033861 0.8061496322 -1.8540904060
O -0.8985734068 -1.8641524223 0.5130339425
O 1.2130424389 -0.9049691638 -0.9994862160
O 0.4792305701 0.9961407337 2.0354208601
O 2.5097181385 2.0246957565 0.3974249743
H 3.1206485307 0.7444505729 1.9368107808
H 3.2023328617 0.0455004710 0.2933461056
H 1.2922782897 -0.8242148180 1.6122711595
H 0.4083314476 1.0033630157 -0.6742906373
H -1.4562723381 0.0818747519 0.7738684852
H -1.2983008860 -1.2158660309 -1.9938990333
H -3.2669227834 -1.9678338369 -0.5763422267
H -2.6998769201 1.0609452260 -1.9434360330
H -0.2304841074 -2.3251321401 -0.0188448883
H 1.0954713118 -0.6699600587 -1.9281544531
H 0.6200276541 1.9076379271 1.7400063957
H 3.3499757670 2.4800249362 0.5232115520
