47
CONF134
C -2.7688566364 4.3321546042 1.7129084494
C -2.6145865509 2.8787656895 1.3239032283
C -1.3697808005 2.1594570796 1.7184996318
C -1.5365917785 2.6200137741 0.2608429864
C -1.6271619176 1.5593812065 -0.7450374937
O -2.0338656799 0.4263847837 -0.5896818344
O -1.1368776717 2.0024783410 -1.9474177212
C -0.8554747018 0.9777238837 -2.9387012830
C -2.0614222783 0.2374331709 -3.3176922868
N -2.9933114017 -0.3228888090 -3.7067932174
C 0.3015965124 0.1041365754 -2.5007214667
C 1.5659192794 0.6947173580 -2.4561878093
C 2.6505802914 -0.0400790343 -1.9891073411
C 2.4903784193 -1.3585875002 -1.5749800839
C 1.2230332090 -1.9346223197 -1.6333953988
C 0.1255118733 -1.2146500949 -2.0933841824
O 0.9996963471 -3.2562075233 -1.3023149174
C 1.6678502782 -3.7929218077 -0.2106548665
C 1.7899735665 -3.0909551641 0.9865755548
C 2.4077940388 -3.7094795421 2.0694014002
C 2.8881944055 -5.0140854031 1.9618443029
C 2.7467710536 -5.7037541349 0.7595802431
C 2.1388657120 -5.0952086593 -0.3358619560
C -0.3023927950 2.7643443364 2.5394190226
C 0.9750877642 2.4031650080 2.4280164137
Cl 2.2437880589 3.0678057559 3.4177627827
Cl 1.5182985224 1.2320831032 1.2578001847
C -3.9137283272 2.1087352694 1.2834644082
H -3.1727714479 4.4036460403 2.7288602241
H -3.4671053145 4.8294637186 1.0324395521
H -1.8170650601 4.8689330241 1.6809453556
H -1.4715522595 1.0791277579 1.8144587278
H -0.9655067182 3.4912061048 -0.0403839170
H -0.5604178179 1.5602569226 -3.8178585436
H 1.6974169266 1.7238307718 -2.7753501505
H 3.6359017314 0.4133848929 -1.9560786635
H 3.3370393386 -1.9347760365 -1.2177534630
H -0.8504057836 -1.6872284487 -2.1098105658
H 1.4053560295 -2.0795667693 1.0682487041
H 2.5047951888 -3.1684108042 3.0055559632
H 3.3666924574 -5.4902409248 2.8112151305
H 3.1162932087 -6.7202136031 0.6670417851
H 2.0249964508 -5.6167859830 -1.2804626589
H -0.5532096914 3.5171230085 3.2816882046
H -3.7614341098 1.0566926578 1.0383048462
H -4.5914867808 2.5474347384 0.5434534933
H -4.3968245424 2.1707832972 2.2644450206
