58
CONF64
C -4.7616989193 -3.9193013783 0.8225440836
C -4.3918459502 -3.4925207971 2.0974775619
C -3.3019234728 -2.6440262919 2.2591162800
C -2.5637138166 -2.2000318751 1.1560038338
C -2.9390411270 -2.6351224042 -0.1151885366
C -4.0297344098 -3.4888254901 -0.2800746974
C -1.3615620575 -1.2980396291 1.4131909093
C -0.5474580056 -0.9562906217 0.1561144876
C 0.7081616583 -0.1487625052 0.4691131463
C 1.5413936212 0.0724489141 -0.7679241552
C 1.4618157471 1.2842126342 -1.4553258013
C 2.1844848937 1.4854346810 -2.6250257528
C 3.0189368225 0.4810607241 -3.1337019586
C 3.0999260358 -0.7316622572 -2.4340243863
C 2.3679193147 -0.9349643475 -1.2714160206
C 3.7951094159 0.6959313396 -4.3714166807
C 5.0894908549 0.1762599768 -4.5088356909
C 5.8273026575 0.3731727668 -5.6709887276
C 5.2577211468 1.1008272628 -6.7078917059
C 3.9781389379 1.6322825206 -6.6102039214
C 3.2560030630 1.4250720878 -5.4401306494
Br 6.2647570361 1.3782008546 -8.3185655722
O 1.4411285433 -0.8889812935 1.4814669012
C -1.7555198910 -0.0738241753 2.2159394937
C -1.0671695515 0.3253485408 3.3379440313
C -1.5637562382 1.3928101608 4.1704515065
C -0.9516705594 1.7939600424 5.3692189744
C -1.5068089104 2.8101407917 6.1279537509
C -2.6755113160 3.4501249123 5.6981553324
C -3.2895146912 3.0787597406 4.5109761244
C -2.7275658628 2.0519859463 3.7578781320
O -3.3427165792 1.7304119924 2.5839544271
C -2.8802929508 0.7000350381 1.7633962966
O -3.4855161739 0.5486721516 0.7161225472
O 0.0735512257 -0.2398287261 3.7527517942
H -5.6110010639 -4.5826615749 0.6917321083
H -4.9505720707 -3.8247456706 2.9673919615
H -3.0158258330 -2.3164894231 3.2558034054
H -2.3930159135 -2.3052513634 -0.9919873819
H -4.3080446022 -3.8140688708 -1.2781447496
H -0.7084171448 -1.8976790172 2.0588667170
H -0.2448128893 -1.8847419827 -0.3426753265
H -1.1522134599 -0.3778249683 -0.5502156867
H 0.4231291909 0.8302088853 0.8816733222
H 0.8342261928 2.0818358326 -1.0664032533
H 2.1245871384 2.4441751727 -3.1308136791
H 3.7224135167 -1.5340064617 -2.8181454707
H 2.4345040424 -1.8861466361 -0.7520934009
H 5.5425849969 -0.3723905430 -3.6893018734
H 6.8309191692 -0.0269107456 -5.7578843391
H 3.5432997354 2.1894576895 -7.4319981353
H 2.2473275881 1.8199675822 -5.3724207682
H 2.2854869879 -0.4368968129 1.6231418613
H -0.0459114088 1.2937855464 5.6912807368
H -1.0334115080 3.1132550285 7.0555426123
H -3.1067534904 4.2481893471 6.2937073408
H -4.1899115948 3.5685525953 4.1565224131
H 0.5485916493 -0.6645830975 2.9934467444
