52
CONF7
C -3.9958172580 1.6182719140 2.8962781007
O -4.1391046898 1.2086222340 1.5291232156
C -3.0173046170 0.7856736445 0.8843805874
C -1.7413070168 0.7591793339 1.4529358734
C -0.6552054937 0.3067228160 0.7028157484
C -0.8347240350 -0.1033901293 -0.6188508369
C -2.1100035551 -0.0786156374 -1.1883914105
C -3.2098730895 0.3576937106 -0.4372908062
O -4.4712381294 0.3456131756 -0.9842124320
C -4.8033406581 1.5810657425 -1.6529060009
O -2.3882083658 -0.4605521972 -2.4658468409
C -1.2903788651 -0.9154254347 -3.2683622665
C 0.7196830920 0.2471455919 1.3604464813
C 0.9819832604 -1.0725867349 2.0919006297
C 1.1450763146 -2.2280021425 1.1189666000
C 0.9642227215 -3.4299478978 2.0338247594
O -0.0050552956 -2.9660573274 3.0360578053
C -0.0101541962 -1.6077421432 3.0970945186
O -0.6937604783 -1.0153635046 3.8986813061
C 2.4572200743 -2.0766860675 0.3777352753
C 2.6243870517 -0.6403963606 -0.1190941131
C 3.6382396370 -0.4169156608 -1.0769963885
C 3.8221807229 0.8647475185 -1.5297107399
C 3.0479628627 1.9229180818 -1.0669740575
C 2.0614170892 1.7365169962 -0.1316474728
C 1.8479630346 0.4289802693 0.3535327879
O 3.4295750733 3.0878034698 -1.6768826910
C 4.5345700255 2.7445804289 -2.5436537845
O 4.7304014686 1.3161324312 -2.4520615601
O 2.5912525858 -3.0360241524 -0.6788479793
H -3.3320066930 2.4866051076 2.9798537040
H -4.9986067340 1.8899074548 3.2269934002
H -3.6121165814 0.7975723475 3.5132747462
H -1.5813176813 1.0786409530 2.4742539590
H 0.0224938508 -0.4169878449 -1.2008257113
H -4.7804729573 2.4177614934 -0.9450383638
H -5.8137439723 1.4583102671 -2.0476069275
H -4.1043911883 1.7712105314 -2.4756173430
H -1.7220417072 -1.1735552793 -4.2357432575
H -0.8198814370 -1.8015666682 -2.8258725904
H -0.5418976686 -0.1247777880 -3.3971638809
H 0.7717731476 1.0648547491 2.0884222826
H 1.9208993418 -0.9577884187 2.6615504613
H 0.3189170876 -2.2000204287 0.3961215952
H 1.8890910543 -3.6958562217 2.5588396202
H 0.5332367864 -4.3100671424 1.5564641902
H 3.2836358185 -2.3090468877 1.0647886867
H 4.2429682580 -1.2388995460 -1.4424462376
H 1.4539506839 2.5626170915 0.2240344305
H 4.2793040550 3.0092901045 -3.5746784508
H 5.4386053950 3.2567420400 -2.1960204680
H 1.9209422626 -2.8289087029 -1.3456285510
