49
CONF143
C -3.6274567766 1.4637735234 2.6625557217
C -3.3656571743 -0.0253065800 2.7468199880
C -1.9417321121 -0.5732901510 2.5084260967
C -3.0927134156 -0.8218987215 1.5063292435
C -3.5565540749 -2.2627589207 1.4064407383
C -3.0731355534 -0.1491697057 0.1501710418
C -0.8001565556 0.2811842496 2.1930744608
O -0.7613550441 1.3046139477 1.5406624698
O 0.3400497605 -0.2535678782 2.7666029480
C 1.5618153342 0.4562479103 2.4521214776
C 2.4813991546 0.1581380810 3.5502538224
N 3.2317080368 -0.0592257299 4.4008013450
C 2.1333576276 0.0163235209 1.1203819772
C 2.4438748580 -1.3277531390 0.9063021958
C 2.9426820298 -1.7215725626 -0.3300713326
C 3.1385963907 -0.7932596094 -1.3493227163
C 2.8188323420 0.5432443602 -1.1191426652
C 2.3164259029 0.9566834882 0.1125958464
O 3.0341745520 1.5342053883 -2.0523625465
C 2.9510360479 1.2158744313 -3.4025214940
C 1.8409796575 0.5518096407 -3.9182925786
C 1.7718346582 0.3225649999 -5.2891145483
C 2.7927869268 0.7597776359 -6.1326245649
C 3.8899813469 1.4317073753 -5.5987802494
C 3.9771972745 1.6607218558 -4.2272116358
C -4.1111512050 -0.6563367634 3.9074386572
H -3.0622624545 1.9627915605 1.8782597278
H -3.3729583322 1.9380748473 3.6166677544
H -4.6960189329 1.6279800443 2.4821311234
H -1.6784189885 -1.4326371745 3.1161051854
H -3.4621752469 -2.8083969564 2.3456993799
H -4.6066535813 -2.2938840315 1.0932052258
H -2.9643243357 -2.7886616678 0.6500944082
H -2.4425041476 -0.7216457477 -0.5389345429
H -2.7022489977 0.8730729432 0.1755190024
H -4.0908916031 -0.1411852005 -0.2566589477
H 1.3752049989 1.5363097174 2.4459855791
H 2.2959610923 -2.0567484466 1.6968318369
H 3.1944289534 -2.7625695111 -0.5048547966
H 3.5377203710 -1.1040957225 -2.3084734744
H 2.0675381619 2.0013674302 0.2676003154
H 1.0469768624 0.2224761916 -3.2558354400
H 0.9093525388 -0.1932683088 -5.6995319473
H 2.7305520777 0.5796508254 -7.2007797768
H 4.6878287397 1.7766797966 -6.2488991112
H 4.8263025745 2.1783453575 -3.7932500336
H -5.1913976150 -0.5929220453 3.7317229968
H -3.8881490875 -0.1101002718 4.8300165309
H -3.8506834390 -1.7033644726 4.0655143284
