52
CONF103
C 1.6548301164 -2.4215762234 -1.6489808587
C 1.6259256396 -0.9202709160 -1.4772268123
C 2.5561886472 -0.1846474592 -2.4448163429
C 2.6383322970 1.3095507488 -2.1060030597
C 2.9741378980 1.5200119815 -0.6233477439
C 2.0646863880 0.6862911450 0.2809057576
O 2.0294367571 -0.6596131612 -0.0991484176
O 0.7466695010 1.3059593565 0.2384834261
C -0.1230607633 0.8332582404 1.1971257907
C -1.2294829144 0.1205584471 0.8279907133
O -2.0799512503 -0.4004915864 1.7528659335
C -1.8518450494 -0.2317021732 3.0905153214
C -2.7458849505 -0.8390482585 3.9535545028
C -2.5458446374 -0.6541098375 5.3223327018
C -1.4868301975 0.1161300481 5.8197916877
C -0.6057501341 0.7147689100 4.9325818063
C -0.7707828557 0.5467785835 3.5305676484
C 0.1427142667 1.1363469958 2.5869806315
O 1.1158697425 1.8514408862 2.9451492431
O 0.4145475681 1.4521414002 5.4015903722
O -3.4333761119 -1.2566559464 6.1489446479
C -1.6341101055 -0.1846699733 -0.5401544375
C -1.6197195658 0.8172857045 -1.5223421784
C -1.9115558725 0.4989007995 -2.8379566081
C -2.2376034217 -0.8251062317 -3.1878643299
C -2.2870787175 -1.8073748131 -2.2046184445
C -1.9923789535 -1.4919892037 -0.8846964090
O -2.5159381994 -1.1562061023 -4.4738537749
O -1.9132663669 1.3948329986 -3.8659479433
O 4.3327435567 1.1764379057 -0.3546965352
O 1.4197078771 1.9710648878 -2.4776716135
O 2.1144525832 -0.3596269041 -3.7891398812
H 0.9689484982 -2.8962600758 -0.9415713489
H 1.3419955492 -2.6817592214 -2.6628759366
H 2.6660219007 -2.8060934995 -1.4796881561
H 0.6029621113 -0.5494086429 -1.6199751938
H 3.5588201716 -0.6278624616 -2.3846317300
H 3.4247266203 1.7718252114 -2.7121561783
H 2.8636001608 2.5794361823 -0.3707381943
H 2.4360552227 0.6972413699 1.3089858213
H -3.5736783064 -1.4297309765 3.5810770465
H -1.3495969812 0.2484658796 6.8885427398
H 0.9082001429 1.7764735158 4.5942866551
H -3.2106197546 -1.0655325789 7.0710679476
H -1.4086628839 1.8486403131 -1.2536800637
H -2.5442741620 -2.8217361936 -2.4914906941
H -2.0035181960 -2.2681823970 -0.1278427500
H -2.4380565768 -0.3651446336 -5.0286520598
H -1.6432651486 2.2684484742 -3.5516753998
H 4.4172104322 0.2127027982 -0.3774470774
H 0.7564796060 1.7862829138 -1.7954351381
H 1.3808682347 0.2635230748 -3.9130370746
