65
CONF101
C 8.0199700302 -3.7848478436 -0.5281893152
O 6.6468842268 -4.1899294545 -0.5321607717
C 5.7360460885 -3.3189560728 -1.0614498568
C 4.4046751871 -3.7475793267 -1.0497613121
C 3.4084946077 -2.9324923091 -1.5685602668
C 3.7019915623 -1.6764766981 -2.1111251552
C 5.0355968014 -1.2685645411 -2.1152752858
C 6.0546322772 -2.0698851477 -1.5998154245
C 2.6179785934 -0.7727319490 -2.6375117649
C 2.2733613151 0.3748736019 -1.6765811938
N 1.8357336532 -0.0695275430 -0.3503769662
C 0.5199600899 -0.7189624831 -0.4082820133
C 0.1010080856 -1.2378717063 0.9622954717
C 0.0672954147 -0.1140986702 2.0062051269
C 1.3990819148 0.6371480976 1.9787293131
C 1.7875106698 1.0739867746 0.5677271636
N -1.0316991136 0.8385023963 1.7684909788
C -2.3230036816 0.4434268246 1.9458495521
N -2.7247082712 -0.6114010085 2.6390238971
C -4.1094896008 -0.5599222136 2.5846801485
C -5.0571082275 -1.4209589975 3.1349904260
C -6.4065261496 -1.1429391041 2.9144748048
C -6.8097134754 -0.0327118290 2.1615520601
C -5.8751905005 0.8431170134 1.6027632594
C -4.5365384025 0.5601161969 1.8310496869
N -3.3679272748 1.1970671779 1.4376230855
C -3.2398481991 2.3859710830 0.6093313790
C -2.6026237690 2.0949279987 -0.7337677019
C -1.6268617230 2.9495291641 -1.2478808428
C -1.0321385810 2.6961454340 -2.4818931882
C -1.4328566060 1.5709057807 -3.1792254857
C -2.3984114404 0.6981001016 -2.7038352122
C -2.9810417045 0.9697324826 -1.4708059798
F -0.8445078388 1.3021056048 -4.3727352315
H 8.1609237042 -2.8719747780 0.0630450964
H 8.3871666884 -3.6227150467 -1.5488069231
H 8.5703484299 -4.6063611374 -0.0684436932
H 4.1691922872 -4.7217029393 -0.6323580863
H 2.3788686567 -3.2803922370 -1.5519389305
H 5.2959835649 -0.2992552488 -2.5341207651
H 7.0774162465 -1.7142752955 -1.6301448868
H 2.9423151112 -0.3106246022 -3.5776454594
H 1.7240812177 -1.3590987564 -2.8722516520
H 1.5073266358 1.0207596861 -2.1531855194
H 3.1719752160 0.9895150101 -1.5387519058
H 0.5639470162 -1.5593035586 -1.1072790970
H -0.2456907845 -0.0171735489 -0.8017045814
H -0.8822903298 -1.7140709793 0.8938804603
H 0.8180597358 -1.9983337554 1.2954603108
H -0.0943537121 -0.5401463111 3.0009888600
H 1.3563412806 1.5097867786 2.6393721695
H 2.1730837176 -0.0365125064 2.3629649665
H 1.0871288984 1.8530300581 0.1935034948
H 2.7790139050 1.5407261529 0.5943865966
H -0.8845073515 1.4688425628 0.9912888515
H -4.7473400988 -2.2837526666 3.7167396497
H -7.1609305967 -1.8015056454 3.3337065656
H -6.1934891576 1.7003240551 1.0179451635
H -4.2457597684 2.7952796519 0.4721844775
H -2.6569630738 3.1460258192 1.1440619208
H -1.3172976379 3.8212139883 -0.6779233678
H -0.2658839196 3.3470192362 -2.8882215172
H -2.6773510021 -0.1746535721 -3.2841168425
H -3.7313596750 0.2909777602 -1.0754051066
H -7.8675822004 0.1534134656 2.0063058726
