76
CONF1703
C 3.4961163118 -1.6776602848 -1.4168466684
C 3.6627041984 -0.1724758755 -1.1638125123
C 4.9612239441 0.1274667775 -0.3813313225
C 4.9468554316 -0.1635947528 1.1344051699
C 4.6292379848 -1.5776030811 1.5113756392
O 5.4806781953 -2.5487458635 1.0990746387
N 3.5998654994 -1.8738917783 2.2030516008
C 3.3234205292 -3.2674221594 2.5021493027
C 1.9985617674 -3.3710684062 3.2399342657
O 1.3825654123 -2.2025408088 3.4540442726
O 1.5215389417 -4.4232295225 3.6142879340
C 2.4452558876 0.4761606102 -0.4885286457
C 2.6107864521 2.0145242873 -0.3219844945
C 1.1845830987 2.6229221137 -0.3427195204
C 0.2656909598 1.3988562677 -0.3340578946
C -1.1845499954 1.5817204775 -0.7670719222
C -1.8890164492 2.6778991838 0.0373923653
O -1.6601514051 2.4223664941 1.4405277343
C -3.3780690422 2.7621609240 -0.3015858060
C -4.1215244819 1.4190315247 -0.2743308810
C -4.3735113772 0.9300034791 1.1644196239
C -5.1245571279 -0.3933469443 1.2116330379
O -5.3649111271 -0.8108080952 2.5712098965
C -4.3774432344 -1.4536453618 0.4142174967
C -4.1857603678 -0.9740106935 -1.0235388388
C -3.4103847477 0.3551836871 -1.1557507381
C -3.5033184846 0.7652348250 -2.6358511289
C -1.9299830786 0.2286430255 -0.6852023752
C -1.1561682938 -0.8788772239 -1.4183644576
C 0.3188144050 -1.0090127830 -1.0099295020
O 0.4430121990 -1.5864923497 0.3053015886
C 1.0455306608 0.3436466623 -1.1547587648
C 1.1352189569 0.7066877378 -2.6466168492
H 2.7957494199 -1.8647747018 -2.2342703489
H 3.1183346689 -2.2014021188 -0.5335600473
H 4.4541972953 -2.1280693813 -1.6981655279
H 3.8003677828 0.3096600244 -2.1428672425
H 5.7850926525 -0.4215777718 -0.8556639588
H 5.2120809745 1.1888400322 -0.4832072078
H 4.2267192143 0.4795165560 1.6431326221
H 5.9403345269 0.0766656891 1.5364983609
H 6.2058153956 -2.1650958315 0.5839185016
H 4.0920351443 -3.7328731449 3.1359480605
H 3.2456140591 -3.8905176416 1.5986483146
H 1.9754854494 -1.5221696349 3.0438650436
H 2.3433534181 0.0279288529 0.5077994714
H 3.1362721669 2.2571907306 0.6068783532
H 3.2188227405 2.4179003894 -1.1401183158
H 1.0206725268 3.2123056331 -1.2527014823
H 0.9980602793 3.2827798183 0.5091783577
H 0.2500229010 1.0311703529 0.7032736586
H -1.1877152792 1.9316567210 -1.8074534072
H -1.4231975936 3.6434729070 -0.2189045154
H -2.2180126877 3.0331284402 1.9378277519
H -3.4585748475 3.2047148081 -1.3021026433
H -3.8640759123 3.4710840242 0.3833279621
H -5.1116293079 1.5868465962 -0.7266130522
H -3.4246221572 0.8069885377 1.6985965152
H -4.9455957254 1.6951503289 1.7048748764
H -6.1269553541 -0.2651032519 0.7799491652
H -4.5011351803 -0.9223825681 2.9906005792
H -3.4077347904 -1.6493560629 0.8942630144
H -4.9416838589 -2.3936791257 0.4277488006
H -5.1799142828 -0.8156419275 -1.4661349620
H -3.7068538077 -1.7512859091 -1.6280366284
H -3.1191299210 -0.0261116719 -3.2873300875
H -4.5532003172 0.9301490084 -2.9032321238
H -2.9556205916 1.6817056741 -2.8662660377
H -1.9572662217 -0.0413765032 0.3799040796
H -1.6272978994 -1.8503668077 -1.2360514304
H -1.1973161511 -0.7092572256 -2.4997339156
H 0.7828741217 -1.7514898342 -1.6655880726
H 0.0124464863 -1.0025219325 0.9424323304
H 0.1564789677 0.8994803676 -3.0917076716
H 1.7475787728 1.5995428654 -2.7993462784
H 1.5968095321 -0.1109075149 -3.2107367694
