37
CONF104
C -2.3774787460 -2.1652939919 -2.5501128211
C -2.0547161965 -0.7036707918 -2.7716284982
O -0.9109285953 -0.2662441909 -1.9691752769
P -1.0890817238 -0.1198096939 -0.3917857883
O -2.4110056352 0.3243439014 0.0999858623
O -0.5404840709 -1.4977749796 0.1950922288
C -1.1179208106 -2.0697678541 1.4210744232
C -0.0836553358 -2.9975162974 2.0069175810
O 0.1223172869 0.9373198997 -0.1533144955
P 1.0509842381 1.0644250379 1.1876646957
O 0.4122931060 0.5625506704 2.4208044718
O 2.3917836015 0.3149789101 0.8084651294
C 3.0681265479 0.5383488529 -0.4753157825
C 2.9789524189 -0.7175903494 -1.3091373788
O 1.4549876654 2.6030602249 1.1435814977
C 0.6023295829 3.5993620712 1.8052249779
C -0.7060227534 3.8111349725 1.0764258800
H -3.1648820086 -2.4667620926 -3.2482953953
H -2.7414864129 -2.3432783161 -1.5337252252
H -1.4971948356 -2.7897398681 -2.7255660024
H -1.7385708829 -0.5154943904 -3.7998222512
H -2.9083032547 -0.0601611696 -2.5358932416
H -2.0326991101 -2.5984057396 1.1342132129
H -1.3653539438 -1.2592818529 2.1098197165
H -0.4913336258 -3.4676059470 2.9072021724
H 0.1857632620 -3.7835840570 1.2958947392
H 0.8143588633 -2.4386033568 2.2829472786
H 4.1010995286 0.7858200326 -0.2175305943
H 2.6201957084 1.3968317443 -0.9850545916
H 1.9404766168 -0.9452883537 -1.5636837326
H 3.5410682728 -0.5752798576 -2.2377147951
H 3.4058061911 -1.5680065437 -0.7707654480
H 0.4436205388 3.2767350100 2.8389397625
H 1.2147818184 4.5033562863 1.8023707070
H -1.2394564777 4.6424052025 1.5486107983
H -0.5318386796 4.0624470982 0.0265000233
H -1.3465313337 2.9260394615 1.1267865519
