38
CONF30
C 2.8406956574 -0.1603155339 -2.8671960283
N 1.6369682073 -0.9617794119 -2.6308953168
C 1.8680798017 -2.3330321740 -3.0924193379
C 1.2716703556 -0.9776495405 -1.2089817760
C 0.8010599670 0.3774839113 -0.6907643359
C 0.2639090392 0.2668961717 0.7458762975
C -0.9693522961 -0.6174414849 0.8346493401
C -0.9638913753 -1.7631814998 1.6317902651
C -2.0828150571 -2.5883324193 1.7212279433
C -3.2178732142 -2.2487795261 0.9986020375
Cl -4.6429279911 -3.2840330504 1.0964709821
C -3.2604004050 -1.1131976777 0.1978119640
C -2.1318882168 -0.3039810664 0.1235628540
C -0.0336440144 1.6239198898 1.3604430112
C 0.2256449273 1.8468200192 2.7158418969
C -0.0889660506 3.0791220555 3.2728789993
C -0.6557162117 4.0567773685 2.4605897046
C -0.8768784347 3.7500607565 1.1232731382
N -0.5760717880 2.5646570120 0.5748027008
H 3.7080227085 -0.5254624796 -2.2828054132
H 3.1027142314 -0.2030982140 -3.9292926920
H 2.6665643415 0.8870021503 -2.6059667370
H 2.7002666552 -2.8268504678 -2.5537523379
H 2.1108822441 -2.3278442866 -4.1602091785
H 0.9631581407 -2.9319983545 -2.9455860510
H 2.1155539579 -1.3398370951 -0.5844614966
H 0.4561522230 -1.7026514007 -1.0898093043
H 0.0226034054 0.7726308312 -1.3512419986
H 1.6222066913 1.1024842842 -0.6879441208
H 1.0385568406 -0.1986006666 1.3665092505
H -0.0699694416 -2.0240644392 2.1913088239
H -2.0661587246 -3.4785007772 2.3400621838
H -4.1574841045 -0.8636436383 -0.3577714724
H -2.1635151813 0.5862994491 -0.4963903239
H 0.6682783017 1.0594678485 3.3183946981
H 0.1066239370 3.2747021524 4.3226840013
H -0.9173977392 5.0347246722 2.8499711927
H -1.3146618797 4.4912269285 0.4562717072
