31
CONF12
C 4.9694906300 1.0291568575 -2.0304014833
C 4.0791126559 0.6183850631 -0.8985734582
N 2.8474216237 0.2297978211 -1.1914604379
C 2.0630272530 -0.1320275569 -0.1717444017
N 0.7988077931 -0.5611947651 -0.1790695834
C 0.5569038350 -0.7615197839 1.1294070839
N 1.5382909888 -0.5036129203 2.0007649536
N 2.5129025822 -0.1013595696 1.1614160319
C 3.7712445320 0.2869476797 1.4753555668
C 4.5761568739 0.6558308198 0.4363561914
S -1.0815337579 -1.2195514290 1.7376854935
O -1.7418134348 -1.9824879997 0.6904365467
O -0.9398499504 -1.6646908054 3.1177110015
N -1.8771356112 0.3092366622 1.8299054318
C -2.0703227066 1.0038240062 0.6118733359
C -1.1951865135 1.9975068100 0.1686614281
C -1.3715643210 2.6938378041 -1.0101171797
C -2.4680354241 2.3707582834 -1.8041074175
C -3.3717606112 1.3903453154 -1.4105033568
C -3.1674698760 0.7300734138 -0.2102399662
F -4.0566654755 -0.1839063220 0.1897521712
F -0.1306829701 2.2859473920 0.9553933285
H 4.4341251510 0.9489538058 -2.9761244684
H 5.8616586799 0.3944389606 -2.0664614210
H 5.3125467364 2.0605910154 -1.8945581808
H 4.0466165272 0.2782783761 2.5233539107
H 5.5917497635 0.9766661043 0.6333631805
H -0.6540868055 3.4525299219 -1.2980278947
H -2.6212477840 2.8940988829 -2.7411579382
H -4.2359856012 1.1342918756 -2.0114610120
H -1.4147091976 0.8667156382 2.5442609325
