47
CONF195
C -1.7569940177 2.9224710850 2.8606393381
C -2.0844479132 2.2476874257 1.5469786258
C -2.0128855929 0.7491804331 1.4312954806
C -0.8936375718 1.6189047089 0.8241833071
C -0.7746256688 1.6102304962 -0.6385936431
O -1.6370630335 1.3438532591 -1.4484283459
O 0.5027044621 1.9455080120 -1.0116579043
C 0.8287682449 1.7133350431 -2.4048868234
C 0.0434401147 2.5840749333 -3.2831547005
N -0.5123915363 3.3073036649 -3.9910592112
C 0.7428161709 0.2379017749 -2.7534743652
C 0.0936967908 -0.2347478982 -3.8881953939
C 0.0496840741 -1.6091446048 -4.1217854733
C 0.6216803378 -2.5025104624 -3.2268164922
C 1.2687388040 -2.0101396232 -2.0923938930
C 1.3544810288 -0.6419072991 -1.8603134302
O 1.8421106772 -2.9484551801 -1.2652291684
C 2.2175919616 -2.5818133701 0.0233431885
C 3.5308379061 -2.8345000316 0.3991681806
C 3.9285072911 -2.5504143640 1.7040485822
C 3.0224668786 -2.0101226390 2.6128082462
C 1.7082099077 -1.7631681796 2.2173742345
C 1.2925975972 -2.0548713992 0.9215505405
C -1.6954858864 -0.1258043245 2.5594964685
C -2.0534895103 -1.4076534003 2.6554851069
Cl -1.6633124675 -2.3819274493 4.0490829222
Cl -2.9369215447 -2.2706366543 1.4266695375
C -3.1617305376 2.9532811161 0.7556649710
H -0.9046903326 2.4682459758 3.3702682162
H -2.6253946591 2.8814650426 3.5272444190
H -1.5171253958 3.9750181935 2.6793153703
H -2.6674122678 0.3293420475 0.6737998956
H 0.0476197374 1.6532976164 1.3618200865
H 1.8691502176 2.0518473053 -2.4767415857
H -0.3885535720 0.4503878339 -4.5770921457
H -0.4572189498 -1.9883126216 -5.0031696020
H 0.5744427022 -3.5738164811 -3.3907360893
H 1.8698973049 -0.2612722567 -0.9862300552
H 4.2237686257 -3.2489042048 -0.3256046466
H 4.9525023630 -2.7476545553 2.0052266787
H 3.3363407450 -1.7831440583 3.6263432126
H 0.9980461136 -1.3461056360 2.9237617762
H 0.2699497952 -1.8690972763 0.6072317005
H -1.1301019957 0.2813188887 3.3922787708
H -4.0610927613 3.0380017936 1.3747150195
H -3.4202658317 2.4183828354 -0.1589662873
H -2.8352082292 3.9650847757 0.4917811914
