50
CONF25
C 3.5475505682 -0.8852853328 0.1463423027
C 2.4030973288 -0.6675511376 -0.8162105843
C 1.6312661572 0.4864340275 -0.6782729231
C 0.6615254684 0.8007418440 -1.6461128065
C 0.4659984060 0.0125696163 -2.7541193505
C 1.2044110494 -1.1763633459 -2.9190995310
C 2.1336209961 -1.5537150174 -1.9008040689
C 2.6802789485 -2.8826858566 -2.0819395740
N 2.5117402553 -3.5613992524 -3.2125241733
C 1.7228330099 -3.0126937118 -4.1674626100
N 1.0007687010 -1.9069339187 -4.0540401159
N 1.6849454738 -3.6870360681 -5.3605560761
N 3.3744726721 -3.5281058064 -1.1107433758
C 1.8419913442 1.4286098774 0.5043147173
N 0.7266854781 2.3060497090 0.8086208088
C -0.5128061317 1.8003279456 1.1746822136
C -0.6606094039 0.4688293741 1.5896991482
C -1.9157845504 0.0113903278 1.9991664499
C -3.0273208474 0.8628356235 2.0068211301
C -2.8677779272 2.1892625766 1.5745835368
C -1.6235663946 2.6613609245 1.1623039553
O -4.0027031868 2.9442482131 1.5959201107
C -3.8988679727 4.3056040208 1.1603015086
O -4.2565810843 0.4103232287 2.4408729286
C -5.0620690735 -0.1231683232 1.3714613759
O -2.1576354715 -1.2673787655 2.4073990123
C -1.0578552477 -2.1864220393 2.3902817198
H 3.9517960378 0.0725675415 0.4781687069
H 3.2354005192 -1.4264288728 1.0504550831
H 4.3683130666 -1.4329805168 -0.3175683282
H 0.0685725980 1.7020501273 -1.5246329950
H -0.2513220519 0.2866880339 -3.5211364671
H 0.9152740251 -3.4663821880 -5.9734809315
H 1.9647076690 -4.6553948599 -5.3394064536
H 3.5447581456 -4.5100297768 -1.2706681627
H 2.0820389646 0.8448769070 1.4007494404
H 2.7141374747 2.0685939547 0.3199054177
H 0.6914288079 3.1603777678 0.2730380726
H 0.1855408787 -0.2029433368 1.5747513169
H -1.4934580662 3.6856453553 0.8344803083
H -3.2067762468 4.8708155992 1.7953918820
H -4.9029071157 4.7209376418 1.2524155110
H -3.5714493001 4.3614511375 0.1155164764
H -6.0042909060 -0.4471976689 1.8192742955
H -5.2581681351 0.6468766760 0.6156901107
H -4.5620937594 -0.9797324843 0.9034031576
H -1.4649293943 -3.1373344605 2.7356030346
H -0.6573155643 -2.3039755753 1.3761218246
H -0.2597671113 -1.8603066844 3.0673925118
H 3.2791917012 -3.2475754211 -0.1504242282
