46
CONF72
C 5.6161703805 3.1925618208 3.0906686531
C 4.8670735016 2.0231029291 2.4991646582
O 3.8418221028 2.5824039002 1.6236723010
C 3.0370093274 1.7371515725 0.9805369484
N 3.1922023921 0.4275277695 1.1520543831
C 2.3268567037 -0.3275753495 0.4442694478
N 1.3774610429 0.1678103479 -0.3861543443
C 1.3298074986 1.4945892959 -0.4410695486
N 2.1273684502 2.3509325354 0.2097828417
N 0.3685321240 2.0996694947 -1.2360468528
C -0.6583348138 1.5579247891 -2.0054051295
O -1.4783111167 2.2850178531 -2.5450732658
N -0.6480617585 0.1810185075 -2.1135162196
S -1.9556089618 -0.6743349148 -2.7766726206
O -2.1693752817 -0.2144417609 -4.1497891804
O -1.6250538560 -2.0815962033 -2.5152556849
C -3.4021006440 -0.2312366478 -1.8036498660
C -4.3222559099 0.6365988555 -2.3791222534
C -5.5044122425 0.9230789092 -1.7026518963
C -5.7662778124 0.3235494918 -0.4759112583
C -4.8472664038 -0.5581845904 0.0853090381
C -3.6442346006 -0.8371017901 -0.5637700007
C -2.6396123097 -1.6919561538 0.1419564233
O -1.5093786755 -1.3349673247 0.4039902110
O -3.1718518818 -2.8635444796 0.5035197544
C -2.2922689204 -3.7382642958 1.2613012051
N 2.4017494508 -1.6582233328 0.5580790281
C 3.3514561828 -2.3404001903 1.4253666731
H 4.9463250359 3.8333328380 3.6706594692
H 6.3969343536 2.8153559556 3.7572950956
H 6.0900858709 3.7906511087 2.3074598897
H 5.5187639034 1.3758013205 1.9046188160
H 4.3771011106 1.4177640335 3.2677396492
H 0.3639792059 3.1112210521 -1.2097797335
H -0.0329398486 -0.3281176307 -1.4546053841
H -4.1178821706 1.0721575892 -3.3494401647
H -6.2216063525 1.6058009805 -2.1450557994
H -6.6918719017 0.5366696911 0.0481612559
H -5.0512181605 -1.0252834943 1.0427314939
H -1.9880525633 -3.2474162218 2.1882869658
H -1.4129719854 -3.9868818616 0.6628657596
H -2.8843538830 -4.6279798699 1.4683998846
H 1.7244533465 -2.1989405748 0.0429191666
H 4.3806903672 -2.0795160221 1.1605034535
H 3.1866328253 -2.0810807162 2.4766480297
H 3.2128266132 -3.4146496290 1.2979514141
