61
CONF24
C -1.3228822146 -0.1133669306 -4.0912552042
C -0.7983743112 -0.3511066022 -2.6787163248
C -1.7640399120 -0.0490522959 -1.5517575600
C -3.0099829073 0.5327002044 -1.7930565920
C -3.9071458920 0.7943475743 -0.7576797822
C -3.5429968245 0.4577444750 0.5473470569
C -2.3085946620 -0.1244256451 0.8333317166
C -1.4120393515 -0.3692480645 -0.2264034400
C -0.0874683618 -0.9437223104 0.0608437421
C 1.1088344429 -0.2883455180 0.0350839336
N 2.1459028241 -1.0721502607 0.4511318241
C 3.5199595843 -0.9614408373 -0.0457409058
C 3.8182950888 -1.8553941346 -1.2497236863
O 4.1598955449 -3.1923852770 -0.8890521906
C 3.0521521384 -3.9862820747 -0.4646939444
C 2.4128175848 -3.5107963512 0.8385772172
N 1.5910934463 -2.3273811497 0.6756294070
C 0.2155530807 -2.3072016502 0.4459335428
O -0.5219193303 -3.2949610773 0.5883233739
O 1.3552825827 0.9931344846 -0.3557403968
C 1.0259722459 2.0046725458 0.5528802218
O 0.7627210046 1.7587386257 1.6988278133
C 1.0239260594 3.3563765149 -0.1290220757
C 0.9415591490 4.4469959080 0.9415888642
C 2.2891625283 3.5363560108 -0.9828667296
C -0.2320930674 3.3994149920 -1.0257817866
C -1.9043598727 -0.4904893235 2.2438336878
C -2.8378778311 -0.0171398326 3.3532742260
C -5.2557148805 1.3994194583 -1.0405123985
H -1.5673478422 0.9402598901 -4.2607951331
H -2.2211600747 -0.7063973107 -4.2918087004
H -0.5610851405 -0.3991251290 -4.8222690192
H -0.4768298372 -1.3959599553 -2.5786894584
H 0.1126550722 0.2432349893 -2.5325877293
H -3.2977406947 0.7899177185 -2.8073402540
H -4.2414657093 0.6634930152 1.3525689257
H 3.6535136537 0.0889165335 -0.3187315677
H 4.2178965259 -1.1883057659 0.7671468992
H 4.6992498385 -1.4540078481 -1.7594846130
H 2.9686030606 -1.8438902149 -1.9518480281
H 2.2857165090 -4.0247896477 -1.2548077047
H 3.4534674239 -4.9925924337 -0.3110814114
H 1.7307499937 -4.2860850920 1.2016930415
H 3.1747819725 -3.3385389517 1.6070960880
H 0.9175306599 5.4247809962 0.4520254880
H 0.0377560151 4.3376659309 1.5461118089
H 1.8097647152 4.4122441166 1.6064500651
H 2.2765882528 4.5402716295 -1.4178546073
H 3.1922022718 3.4388082339 -0.3718405131
H 2.3335167465 2.8084025168 -1.7959715100
H -0.2864638482 4.3823627137 -1.5039862073
H -1.1412693430 3.2498363003 -0.4339932315
H -0.1898160208 2.6325597843 -1.8035506594
H -0.8972044625 -0.0938993923 2.4187440700
H -2.9548649140 1.0717620116 3.3400855605
H -3.8329433538 -0.4658154528 3.2701289478
H -5.2634986869 1.9207901452 -2.0013306362
H -6.0287415025 0.6224184434 -1.0778397127
H -5.5441748710 2.1057220805 -0.2563275024
H -1.7994338545 -1.5825374126 2.2968169649
H -2.4280371541 -0.2987741245 4.3275688766
