44
CONF2
C -4.0946911879 -3.4116691131 0.9385997883
C -2.9501885506 -2.6952063710 0.2636378486
C -2.9044406355 -2.8292929932 -1.2726080301
O -2.6579570867 -1.4958371556 -1.7493012130
C -2.3730197150 -0.6917414194 -0.6026837777
O -3.1051413697 -1.2763826522 0.4468464097
C -2.9497089565 0.7082588340 -0.8555502774
N -2.2050027307 1.4029660287 -1.8858247555
C -2.2284812066 1.2116697646 -3.2255411788
N -1.2987616956 1.9470633100 -3.8119708410
C -0.7111014160 2.5747628369 -2.7552395913
N -1.2179198267 2.2757195216 -1.5662439040
C -0.8655962027 -0.6514616695 -0.3482728701
C 0.0069906911 -1.0366085342 -1.3690057436
C 1.3834646698 -0.9174159926 -1.2512786201
C 1.9144925508 -0.3999698852 -0.0775518607
C 1.0842703224 -0.0238268958 0.9736630922
C -0.2901104305 -0.1411512337 0.8208071552
Cl -1.2674781633 0.4077060026 2.1726975108
O 3.2860015732 -0.3325709190 0.0241522339
C 3.8568420353 0.7564735455 0.6565981955
C 5.0093064503 0.5197577847 1.3971424498
C 5.6737283381 1.5830579664 1.9966291342
C 5.1673099680 2.8692075214 1.8529204989
C 4.0157370658 3.1105623444 1.1118539990
C 3.3576348978 2.0481890259 0.5045525981
Cl 5.9946385294 4.2115661473 2.6199022641
H -4.0899578342 -3.2132369249 2.0131965257
H -4.0012764221 -4.4917407486 0.7881784526
H -5.0495699948 -3.0788944591 0.5213711492
H -1.9868533531 -3.0030948323 0.6975785204
H -2.1063789165 -3.5061763376 -1.6018374547
H -3.8634356625 -3.1638252968 -1.6841081903
H -3.9927760787 0.5929802093 -1.1624952732
H -2.8954800384 1.2984577442 0.0603467390
H -2.9270396227 0.5406813974 -3.7063824845
H 0.1047796188 3.2776091465 -2.8619524281
H -0.4223976725 -1.4076489087 -2.2919833777
H 2.0468364348 -1.2022858789 -2.0594610096
H 1.5004052153 0.3714782641 1.8923580132
H 5.3794442739 -0.4946720007 1.4944597005
H 6.5728554976 1.4125843437 2.5768960766
H 3.6391461046 4.1208895781 1.0035006479
H 2.4608795431 2.2230690792 -0.0801185188
