61
CONF34
C -6.5407658327 0.6400554450 -3.6058602638
C -5.5477640313 -0.2944602827 -2.9171784526
C -5.1154194370 0.2240223214 -1.5462537695
C -4.1646379121 -0.7138437193 -0.8079175101
C -2.8206828413 -0.9416353280 -1.5176905229
C -1.8945466935 -1.3246150703 -0.3571695288
N -2.2937459091 -0.3980733788 0.7009877806
C -3.7585600744 -0.2008186090 0.5922816703
C -1.8556489069 -0.8100271853 2.0322126806
C -0.4305679343 -1.1855842881 -0.7436221413
O 0.1900134364 -2.1323301990 -1.2628894218
N 0.1097176816 0.0154288987 -0.5045833319
C 1.4647585411 0.4116314815 -0.8530472158
C 2.4285301270 0.3073342349 0.3399613932
C 3.0116233877 -1.0844973423 0.5891731588
C 3.9054529415 -1.0558774946 1.8356656830
C 3.1674950955 -0.4144376909 3.0225831388
C 2.5206568338 0.9272817885 2.6472872992
O 1.7154887968 0.7979775930 1.4884492231
S 3.7581848955 2.3081544922 2.5320435230
C 2.5747101203 3.7017593387 2.6681179134
O 2.1559460497 -1.2967133686 3.5142893197
O 5.0762448471 -0.3192886164 1.4857896431
O 2.0329781979 -2.0982171104 0.8316904491
C 1.4372232150 1.8477327273 -1.4271867196
C 0.4902556714 1.9791980045 -2.6107261091
O 2.7638474090 2.2512436153 -1.7856018139
H -7.4482684007 0.7577387304 -3.0032948975
H -6.1044920539 1.6349455289 -3.7488413399
H -6.8356826451 0.2578875751 -4.5881112140
H -5.9951783586 -1.2905985996 -2.7999762969
H -4.6641342541 -0.4243015711 -3.5549202203
H -6.0078453173 0.3885417894 -0.9262647592
H -4.6280384131 1.2036344344 -1.6592755380
H -4.6543440170 -1.6896380755 -0.6930421444
H -2.8583261641 -1.7149888013 -2.2878767871
H -2.4672591638 -0.0078637443 -1.9744918971
H -2.0515184151 -2.3843202552 -0.0837973332
H -4.2908666428 -0.7580781151 1.3783167220
H -4.0019779631 0.8629349535 0.7189122601
H -2.1269137860 -0.0433606802 2.7652095199
H -0.7651967553 -0.9220428468 2.0506464368
H -2.3107592738 -1.7676054960 2.3438465609
H -0.4768460316 0.6603939802 0.0161189740
H 1.8194153678 -0.2623713574 -1.6443733292
H 3.2802884092 0.9694148960 0.1340703359
H 3.6367040661 -1.3476630057 -0.2779773192
H 4.1550691417 -2.0921119256 2.1055365862
H 3.8720585602 -0.2542392987 3.8471976548
H 1.8296552479 1.2068859789 3.4490075219
H 1.8537916433 3.6667520082 1.8476581861
H 2.0546500004 3.6758060677 3.6294232100
H 3.1552324707 4.6243061378 2.5946048662
H 1.6869101437 -1.6441799903 2.7360425324
H 5.6705695291 -0.3233453642 2.2471709084
H 1.4967450166 -2.2219107780 0.0223407876
H 1.1376755673 2.5362484752 -0.6260726366
H -0.5455365942 1.7866793794 -2.3196048039
H 0.5520617613 2.9917351961 -3.0185114352
H 0.7634288960 1.2650405112 -3.3972440527
H 3.0185616857 1.7561750403 -2.5765005886
