51
CONF69
C 1.9767164111 -1.4220987487 0.7381433363
C 1.3592742914 -0.3245424802 1.5653707597
C 0.3378130365 -0.6156668802 2.4904909226
C -0.1816437566 0.3835686823 3.3138419886
C 0.3001940874 1.6842762401 3.2385885625
C 1.2836153493 1.9915754966 2.3082298250
C 1.8111020614 1.0083729991 1.4608740208
C 2.8329881949 1.4214998636 0.4678289483
C 3.9519418494 2.1628325926 0.8677871063
C 4.8913411565 2.5935011331 -0.0653774607
C 4.7234315186 2.2974121056 -1.4163364635
C 3.6097671033 1.5662341017 -1.8269290181
C 2.6763352327 1.1299241654 -0.8929814378
C -0.2352327295 -2.0039026131 2.5956320583
O -0.7195110300 -2.4660450927 1.2954644376
C -1.7831005697 -1.7947744214 0.7975508727
O -2.4588478820 -1.0297660035 1.4593920337
C -1.9266369629 -2.0903581508 -0.6448910675
C -1.8322459322 -0.8940371308 -1.6337813195
C -3.1116055924 -1.7087795751 -1.4890362419
C -3.4036490218 -2.6487860616 -2.6409147865
C -4.3573843668 -1.0857978352 -0.8998408914
C -1.7303719484 0.4627826193 -1.1183951217
C -1.1289435221 1.4891329402 -1.7254378442
C -1.0729168359 2.8712729387 -1.1472055156
F -1.6369862625 2.9234512863 0.0769879336
F 0.1988862904 3.3255141253 -1.0233524006
F -1.7244819326 3.7729932599 -1.9275602330
Cl -0.3552360502 1.3796249546 -3.2919140993
H 1.9954805290 -2.3654931611 1.2894316217
H 1.4117110005 -1.6015620938 -0.1830909869
H 2.9994185576 -1.1662741954 0.4547775334
H -0.9788439549 0.1357496290 4.0085444934
H -0.1062937834 2.4588378012 3.8811558876
H 1.6394937170 3.0132070437 2.2122905346
H 4.0909884810 2.3915670929 1.9205987215
H 5.7570706761 3.1597543676 0.2646074255
H 5.4540311278 2.6352778516 -2.1446509217
H 3.4639829240 1.3393413289 -2.8788653480
H 1.8038192259 0.5749505772 -1.2227933391
H -1.0510864561 -2.0341442381 3.3212510937
H 0.5170984216 -2.7475761074 2.8685488778
H -1.3548977071 -2.9525278505 -0.9723465365
H -1.2374757023 -1.1100590451 -2.5153041526
H -2.4871382721 -3.0786244676 -3.0542975929
H -4.0466379622 -3.4668049322 -2.2984409922
H -3.9271306786 -2.1117620948 -3.4386323787
H -4.9028379723 -0.5642341049 -1.6933857679
H -4.1520671338 -0.3865777211 -0.0921718773
H -5.0066400494 -1.8756256487 -0.5074679027
H -2.1766569687 0.6766714417 -0.1519878850
