23
CONF14
C -1.5274285269 -2.4951849531 -1.2251188297
N -0.5273766901 -1.5481548403 -1.6997281550
C 0.2947765796 -0.8591179268 -0.9064663477
N 1.2604045964 0.0217741394 -1.2708330633
N 1.4759828993 0.2824737704 -2.5731207255
O 2.3957052247 1.0761323060 -2.8091907798
O 0.8006540001 -0.2221399480 -3.5037988001
N 0.2043634016 -1.0489322177 0.4318280455
C 0.9646471103 -0.2832702583 1.4049590885
C 0.3889239945 1.0887953750 1.6213677069
C -0.7842996765 1.6141522339 1.1652109102
N -1.0652226358 2.9119908642 1.5389639495
C -0.1124429114 3.3751588990 2.2764268463
S 1.2188857847 2.2840510740 2.5856838320
Cl -0.0982554424 4.9694917578 2.9434514327
H -2.2883698068 -2.0009545486 -0.6083832859
H -1.0662922090 -3.3061693138 -0.6490312325
H -2.0195841093 -2.9267668882 -2.0966505426
H -0.4137741127 -1.3677329357 -2.6898719787
H -0.5680768333 -1.5915566468 0.7848240865
H 2.0070584310 -0.2110976121 1.0830629826
H 0.9491023207 -0.8474138730 2.3437882175
H -1.4893807907 1.0844713519 0.5355500540
