45
CONF9
C -4.2259034890 -3.6801084347 -2.5042173584
C -3.7938093681 -2.3014189439 -2.8879898703
C -3.0627957367 -1.4907217295 -2.1149221967
C -2.6836801395 -0.1291561649 -2.5246539157
C -1.2727880529 0.4572066137 -2.2806791491
C -2.5069928174 1.0108237429 -1.5625643962
C -2.6846026447 0.7996233246 -0.0773305016
C -2.9500364841 2.3790789549 -2.0349473868
C -0.2363343834 -0.3054443689 -1.5751848854
O -0.3837172369 -1.1594126250 -0.7219443129
O 0.9991322997 0.0809136519 -2.0141961740
C 2.1235686976 -0.5739046598 -1.3732978216
C 2.3098053441 -0.0876018025 0.0355576352
C 2.2006939215 -0.9253338384 1.1391686349
C 2.3522979165 -0.4429071526 2.4328894998
C 2.6188966328 0.8954114428 2.6924908155
C 2.7389343238 1.7292119713 1.5847892161
C 2.5912986409 1.2515562923 0.2932525463
F 2.7210950549 2.1082361728 -0.7355517911
F 3.0087965123 3.0345662519 1.7652130570
C 2.8347632575 1.4312217341 4.0885511414
O 4.2155575982 1.6559030293 4.3656457117
C 4.9572767377 0.4390193202 4.4777596147
F 2.2350502715 -1.3137459014 3.4536194478
F 1.9549652240 -2.2346799580 0.9724123168
H -5.3194154168 -3.7666463118 -2.5109138627
H -3.8639467011 -3.9481012698 -1.5074717497
H -3.8513346639 -4.4220664106 -3.2200966558
H -4.1074698547 -1.9491175885 -3.8720490765
H -2.7399595077 -1.8395471115 -1.1382490201
H -3.0689720559 0.1543819736 -3.5024165201
H -0.8875617632 1.0793344462 -3.0812277116
H -2.1437467253 1.5762487312 0.4747080265
H -2.3252055453 -0.1710858034 0.2620585934
H -3.7474585256 0.8860738511 0.1744919369
H -2.3823180914 3.1643293501 -1.5234783906
H -4.0122934592 2.5245396853 -1.8083216750
H -2.8093874625 2.4960509809 -3.1130828208
H 1.9856432050 -1.6558503082 -1.3907197660
H 2.9807695452 -0.2980338420 -1.9899517498
H 2.3996139821 0.7400289691 4.8215462732
H 2.3443186736 2.4027722767 4.1847312790
H 4.9804520664 -0.1088903070 3.5252042760
H 5.9766150449 0.7168777913 4.7525385277
H 4.5301859635 -0.2096363328 5.2554973085
