44
CONF24
C -4.8209352984 -0.5179616721 2.6590795386
C -4.0455550191 -0.2729874834 1.3822610618
C -4.4145554467 1.0250150825 0.6894144719
O -2.6272529845 -0.2081942750 1.7839521996
C -1.7118280227 -0.4966387774 0.8534831453
O -1.9518298320 -0.8326807078 -0.2881221875
C -0.3057056025 -0.4373354443 1.4562941196
C 0.0297181014 -1.8055668750 2.0439104390
N 0.6505792661 0.0152785200 0.4262571905
C 1.4628758872 -0.9272937955 -0.2804508293
C 2.6348511051 -1.4012747096 0.3067274493
C 3.4259983446 -2.3091400025 -0.3832257396
C 3.0477534036 -2.7238485037 -1.6571567637
C 1.8885386169 -2.2529171225 -2.2486267975
C 1.0866778154 -1.3573639798 -1.5521436485
F 3.8212090984 -3.5969896443 -2.3274332524
Cl 4.8994318837 -2.9178701785 0.3244040237
C 0.3968772321 1.2656243416 -0.0865557173
O -0.5611697657 1.9314544784 0.3137600918
C 1.3263795318 1.8091424830 -1.1209662906
C 0.7674748759 2.4337027448 -2.2390900017
C 1.5916363775 2.9963130982 -3.2073312901
C 2.9760785151 2.9654341784 -3.0493123265
C 3.5345801303 2.3697846768 -1.9199648127
C 2.7146204401 1.7837246676 -0.9613371988
H -4.6807456396 0.3107334358 3.3601515728
H -5.8864036930 -0.5966693989 2.4246918637
H -4.5011190378 -1.4475278671 3.1375888388
H -4.1492261359 -1.1191967215 0.6962079393
H -3.8058142165 1.1788716282 -0.2047753139
H -5.4669047540 0.9911275594 0.3914923771
H -4.2727452940 1.8712376767 1.3691131093
H -0.3143921210 0.3109051693 2.2536511299
H 1.0051284469 -1.7907733158 2.5348915657
H 0.0267695276 -2.5839754105 1.2765628923
H -0.7267244409 -2.0506803903 2.7936813456
H 2.9410869867 -1.0496076425 1.2851093458
H 1.6227799427 -2.5983760162 -3.2417410533
H 0.1669875855 -0.9882677183 -1.9904014338
H -0.3121222814 2.4643311790 -2.3463404053
H 1.1537013818 3.4636037024 -4.0836014922
H 3.6188791997 3.4110743403 -3.8018755430
H 4.6114272352 2.3609702369 -1.7846059053
H 3.1529869559 1.3248084744 -0.0817591212
