50
CONF207
C 0.2433627559 -0.5458046100 -2.0161841799
C -1.2026367086 -0.1769091865 -1.7829834959
C -2.2700532046 -1.2338718115 -1.6971087743
C -1.8633790565 -0.4701036442 -0.4295964534
C -1.0903083034 -1.1376909927 0.6222273522
O -0.4859525652 -2.1855958209 0.5503028182
O -1.0980986252 -0.3670602472 1.7580878438
C -0.1729392974 -0.8086460984 2.7748350199
C -0.5296434114 -0.0580952599 3.9795249507
N -0.7657976707 0.5243308310 4.9481479681
C 1.2703267677 -0.5382682833 2.3837302757
C 1.5629257108 0.5732650426 1.5966125392
C 2.8864481325 0.8093579697 1.2351727852
C 3.9068496578 -0.0415533334 1.6623421826
C 3.5923265602 -1.1405836611 2.4504292066
C 2.2726986467 -1.3998102953 2.8164854842
O 3.2655950688 1.8442737994 0.4122788104
C 2.3751142941 2.8922626763 0.1973687852
C 1.9641340011 3.1379514611 -1.1061730881
C 1.1294904523 4.2255397111 -1.3573403012
C 0.7115435804 5.0467526193 -0.3133178873
C 1.1379913632 4.7859453014 0.9887486292
C 1.9773730039 3.7079537275 1.2523691393
C -1.9424997308 -2.6598492837 -1.8691018800
C -2.7837068264 -3.6952009570 -1.8181547171
C -4.2419631056 -3.6870841090 -1.4585392313
F -4.6496943117 -2.4850835600 -1.0051442474
F -4.5206367732 -4.5900464905 -0.4879317996
F -5.0255793976 -4.0046289572 -2.5205132112
Cl -2.2193748919 -5.3167460765 -2.1927606825
C -1.5985804644 1.1406704603 -2.4121190683
H 0.5556474618 -1.4472371741 -1.4880939479
H 0.4130116370 -0.6918732580 -3.0884236816
H 0.8836097910 0.2770564911 -1.6816267841
H -3.2487325978 -0.9319601125 -2.0530858411
H -2.5617197989 0.2802018455 -0.0753768219
H -0.3123614291 -1.8773866450 2.9767662206
H 0.7707331528 1.2299120680 1.2559018860
H 4.9292981921 0.1641263561 1.3639909043
H 4.3838317126 -1.8071187207 2.7769828367
H 2.0266817366 -2.2666764802 3.4212831451
H 2.3000408721 2.4859710186 -1.9056197211
H 0.8047962310 4.4262348080 -2.3734575588
H 0.0597575484 5.8909646858 -0.5125250977
H 0.8223872402 5.4285012312 1.8045893169
H 2.3206172156 3.4963913328 2.2601290611
H -0.9131336396 -2.9027936101 -2.1124006462
H -0.9897674705 1.9532041510 -2.0003543424
H -1.4272418261 1.1000389517 -3.4933420707
H -2.6527917911 1.3717725499 -2.2370316037
