45
CONF3
O -0.7959460152 -0.2663696341 -2.9303521282
C -2.0601883873 -0.9050216808 -2.7646819353
C -2.5253096932 -0.9604931406 -1.3262796356
O -1.5634091742 -1.7419207805 -0.5519109624
C -1.3494176145 -1.1575455630 0.7155806234
C -1.3088068631 -2.2774444838 1.7501233017
O -0.9131895505 -1.8015295866 3.0381041032
O -0.1370691484 -0.3891110607 0.7743225264
C 1.0230270042 -0.9126811502 0.1485114322
O 1.3244780111 -0.1683155940 -1.0212413261
C 1.5745647452 1.2413879422 -0.7715835767
C 1.7417710431 1.9228829078 -2.1192469932
O 0.5010946205 2.2563028063 -2.7376581765
C 2.8028216392 1.3670439672 0.1286638207
O 3.0217607386 2.7566558351 0.3740584333
C 2.5416515509 0.6189374290 1.4279363648
O 3.7279428778 0.7111139397 2.2203638471
C 2.1846546964 -0.8364230404 1.1411613920
O 1.9045222778 -1.5540417059 2.3361103314
C -2.4748133110 -0.1189332810 0.8769209765
O -2.2243428427 0.8896116999 1.8350976217
C -2.6469832907 0.3567214364 -0.5717333534
O -3.9056826237 0.9465537556 -0.8520554247
H -0.1700766424 -0.6294029091 -2.2797049563
H -2.7927141011 -0.3361975628 -3.3466755725
H -2.0248626491 -1.9290476330 -3.1632463339
H -3.4983843148 -1.4731585723 -1.2980119689
H -0.5651372865 -3.0231492421 1.4493797079
H -2.2944163855 -2.7602894766 1.7821379296
H -1.5076500623 -1.0819175824 3.2939516549
H 0.8609437280 -1.9423968653 -0.1855455925
H 0.7074311379 1.6821332292 -0.2593051761
H 2.3605307349 1.2822813946 -2.7670013478
H 2.2723179636 2.8656564902 -1.9633323902
H -0.0116651104 1.4386212585 -2.8712622642
H 3.6753141932 0.9194657576 -0.3767851591
H 3.7029659896 2.8176150024 1.0572329611
H 1.6997061980 1.1060067658 1.9471721383
H 3.5604118085 0.2301711688 3.0420357588
H 3.0516206171 -1.3246394034 0.6794028729
H 1.0026967309 -1.3252922862 2.6327722173
H -3.3948466172 -0.6286694573 1.1878188246
H -1.3528847776 1.2636599246 1.6363492118
H -1.8201478089 1.0335898588 -0.8373818669
H -3.9042830521 1.8375792127 -0.4802117047
