39
CONF45
C -0.9452799078 -5.8731513756 -0.7519943371
C -1.2266224846 -4.4222392509 -0.5028787007
C -1.0825330103 -3.8469355383 0.7645185292
C -1.3265669902 -2.4846640108 1.0082645764
C -1.8076663428 -1.7140350916 -0.0614874686
C -1.9843783766 -2.2568915096 -1.3233699934
C -1.6721128096 -3.5929579333 -1.5338032868
Cl -2.2342480877 -0.0333036655 0.1992903330
N -1.1359054512 -1.9442440119 2.3057522620
S 0.4274079533 -1.3946361147 2.7339713731
O 0.3078619042 -0.9358322296 4.1177520921
O 1.3822779454 -2.4216520209 2.3241270070
C 0.7326607176 0.0391619104 1.6966246608
N 0.4105871385 1.2528570543 2.1316151540
N 0.7028580729 1.9890596030 1.0291911674
C 0.5765246051 3.3476737722 0.8751343753
C 0.9419440345 3.8570706241 -0.3455476073
C 1.4183769595 2.9627160658 -1.3388168079
N 1.5432308599 1.6533137885 -1.1910510247
C 1.1811091435 1.1766002759 0.0003157780
N 1.2001762631 -0.0889825034 0.4391375365
O 1.7545224898 3.5388251753 -2.4954958814
C 2.2560600929 2.6786639419 -3.5477327321
O 0.1130886134 3.9763325220 1.9368621061
C -0.0447868982 5.4156063418 1.8326605221
Cl -0.6429243812 -4.8827033661 2.1025808991
H 0.0806191277 -6.1291724511 -0.4686821236
H -1.6107828374 -6.5089770986 -0.1586626207
H -1.0876320591 -6.1098936041 -1.8078380905
H -2.3543533240 -1.6398836739 -2.1335904880
H -1.7959532049 -4.0131811011 -2.5267281039
H -1.8194780503 -1.2338219088 2.5652106023
H 0.8750875843 4.9130591031 -0.5637643354
H 3.1679733250 2.1734479027 -3.2210706041
H 2.4644125047 3.3495248415 -4.3800004854
H 1.5004178276 1.9404593457 -3.8260994121
H -0.7592102872 5.6543267225 1.0401494400
H 0.9243668794 5.8826558845 1.6384192023
H -0.4311287296 5.7258042885 2.8012974790
