51
CONF82
C 3.2683274590 -1.4806866847 1.1086573766
C 2.5625073756 -0.1539777691 1.0125645132
C 1.1587239158 -0.1280559049 0.8905497260
C 0.4807227514 1.0811414521 0.7598099532
C 1.1842604758 2.2813314253 0.7283079370
C 2.5654627004 2.2715686449 0.8505268738
C 3.2644164688 1.0671513425 1.0100936446
C 4.7367515451 1.1394169190 1.1862933868
C 5.5282780003 1.8067893306 0.2436460454
C 6.9050978313 1.9158657621 0.4205761387
C 7.5121613104 1.3658338908 1.5474395769
C 6.7327267334 0.7068870083 2.4967942138
C 5.3576078526 0.5935518692 2.3171190623
C 0.4169187848 -1.4422176803 0.9137873135
O -1.0165721832 -1.2773211713 0.8337508222
C -1.5385028758 -1.1401032600 -0.4101375777
O -0.8719457607 -1.1640903545 -1.4262147410
C -3.0020007146 -0.9616355342 -0.3253868199
C -3.7058852395 -0.2874543866 -1.5112555632
C -3.9665402524 -1.7480275858 -1.1990196096
C -3.4423017748 -2.7577346758 -2.1942181403
C -5.2665352456 -2.1613274260 -0.5453561182
C -4.6827631958 0.7556768393 -1.2323555788
C -4.8995995572 1.8451303909 -1.9732052314
C -5.9215109384 2.8885915305 -1.6361496143
F -6.5913546971 2.5843939038 -0.5061750743
F -5.3586691517 4.1104407630 -1.4538288340
F -6.8430527332 3.0365364362 -2.6216718050
Cl -4.0200014331 2.2132593218 -3.4405675487
H 2.9150905427 -2.1686841255 0.3335025627
H 4.3465014244 -1.3710432865 0.9939921401
H 3.0815873822 -1.9650054261 2.0752151344
H -0.6010950845 1.0936078437 0.6824396817
H 0.6516844496 3.2209420096 0.6199280079
H 3.1200351328 3.2052160068 0.8487508526
H 5.0592704737 2.2323664172 -0.6389255494
H 7.5044802090 2.4295033472 -0.3250374247
H 8.5852939422 1.4517921173 1.6866551211
H 7.1962353388 0.2835049202 3.3827212767
H 4.7537415894 0.0890251166 3.0657896940
H 0.5810515952 -1.9639881154 1.8615190325
H 0.7448909478 -2.0947148627 0.0982610342
H -3.3730519033 -0.7149698187 0.6637326495
H -3.0545146945 -0.1258582543 -2.3642168104
H -2.5341593945 -2.4133952589 -2.6896374818
H -3.2290756546 -3.7063294091 -1.6891347870
H -4.2080475419 -2.9430168632 -2.9546857572
H -5.1437357551 -3.1480011228 -0.0871621522
H -6.0574321658 -2.2328854830 -1.2997798792
H -5.5900616751 -1.4681187877 0.2335847478
H -5.2954164086 0.6526246491 -0.3418870187
