94
CONF66
C 9.4628262932 -1.0356061793 -4.6792366354
C 8.3340214228 -1.5231564847 -3.7914891568
C 7.2304859093 -2.2380094989 -4.5798440860
C 6.1091243521 -2.6923317993 -3.7036926318
C 4.9619130124 -2.0020629049 -3.5543857690
C 3.9062756057 -2.3543169529 -2.6481731267
C 2.8244040491 -1.5655124192 -2.4147829256
C 1.7726869483 -1.8967667970 -1.5047148516
C 0.7305321578 -1.0746998654 -1.2151919349
C -0.3425511115 -1.4299014417 -0.3291066512
C -1.3489131642 -0.6008547954 0.0020966218
C -2.4593482748 -0.9723055188 0.9270473644
C -2.3288848361 -0.3643772221 2.3308534622
C -2.1990587555 1.1530734013 2.3379176698
C -2.7289736577 1.7965481712 3.6366227330
C -2.4918957336 3.3141082944 3.5704071202
C -1.0145765560 3.5852441564 3.3236305013
C -0.5083339057 2.8536027215 2.0782733114
O -0.8066663085 1.4527173153 2.1927562721
C 1.0136945450 2.9368181446 1.9541193692
C 1.6033298778 2.1793238481 0.7646773876
C 3.1285493589 2.2659778419 0.7784720803
C 3.7629849318 1.6429931153 -0.4333037070
C 5.1090839916 2.0744895455 -0.8652758173
O 3.9159857895 2.4846238938 -1.5876734520
C 5.9935920215 1.1598336565 -1.5881107839
C 7.3162474712 1.1005607636 -1.3811953550
C 8.1938011444 0.1090555938 -2.0258060483
O 9.2705652035 -0.2316411882 -1.5622073966
O 7.6683161107 -0.3819934377 -3.1617657619
O 1.0643463620 2.6606021867 -0.4910855178
O -1.1641039142 3.4198774889 0.9595491605
O -2.9667261852 3.9695955402 4.7501378149
C -4.2034764379 1.5282234274 3.7808338396
O -5.0375651259 1.8190250627 2.9461815412
O -4.5103364272 0.9151737205 4.9424439070
O -3.6738889301 -0.4901161796 0.2812458964
C -4.8714767729 -1.0412778765 0.7399382054
C -6.0127962328 -0.2367513380 0.1161368762
C -7.3426357991 -0.8925976350 0.4987264787
C -7.3223102177 -2.3858763404 0.1592820660
C -6.1121152225 -3.0661133189 0.7995212235
O -4.9174454132 -2.4088779757 0.3384436090
C -5.9920398929 -4.5289751396 0.4308290681
O -8.5054689228 -3.0155474809 0.6553978927
N -8.5328842237 -0.2886726406 -0.1093452318
O -5.9181387003 -0.2078417402 -1.3076414880
H 9.9422346483 -1.8919952057 -5.1629270978
H 10.2146743715 -0.5018547579 -4.0935751412
H 9.0737968826 -0.3699790881 -5.4561468177
H 8.7158517799 -2.1675948232 -2.9923199041
H 7.6994052232 -3.0887832650 -5.0884066555
H 6.8594617026 -1.5498919329 -5.3487350491
H 6.2696127322 -3.5926773788 -3.1099968870
H 4.8221595403 -1.0910580627 -4.1386030658
H 4.0011274490 -3.2954870609 -2.1056457830
H 2.7461109827 -0.6145807358 -2.9443420245
H 1.8216061959 -2.8723771130 -1.0194570878
H 0.6887943724 -0.0893090385 -1.6805933811
H -0.3254891707 -2.4372712142 0.0894269812
H -1.3736525756 0.4123166954 -0.3975051243
H -2.5132577008 -2.0635764848 1.0222152881
H -3.1994896374 -0.6708935861 2.9217475496
H -1.4543381775 -0.8010534949 2.8258868514
H -2.7604845830 1.5814945815 1.4968049306
H -2.1860740994 1.3795830845 4.4937651890
H -3.0940134309 3.7238184133 2.7524808733
H -0.4375672804 3.2349493703 4.1884969751
H -0.8480905070 4.6602671726 3.2067237121
H 1.2917968455 3.9960987158 1.8869486586
H 1.4561923119 2.5373764030 2.8734029649
H 1.2954157206 1.1285905819 0.8040196654
H 3.4969705029 1.7513483369 1.6747175300
H 3.4428143721 3.3157553984 0.8483685242
H 3.4570049607 0.6215526524 -0.6715478783
H 5.5840013072 2.8721846463 -0.2930361108
H 5.5154441117 0.4890943579 -2.2985762707
H 7.8017996388 1.7361911761 -0.6455743179
H 1.4886984262 3.5068679005 -0.6943110995
H -0.6370582649 3.1657848512 0.1782828199
H -2.4282137482 3.6694979521 5.4952961693
H -5.4737930269 0.7779339170 4.9657696840
H -4.9602994848 -0.9884524159 1.8414133626
H -5.9736545608 0.7835932795 0.5286353560
H -7.4431402527 -0.8089038768 1.5907462623
H -7.2520037477 -2.5110298724 -0.9341330285
H -6.1890555448 -2.9537425761 1.8956084424
H -6.8730597637 -5.0754423233 0.7751766436
H -5.9129104324 -4.6384390679 -0.6557106700
H -5.1042165007 -4.9660382341 0.8962883065
H -9.2200661476 -2.3846456202 0.4733123958
H -8.3659769100 -0.1615510806 -1.1037342570
H -8.6868276620 0.6374635380 0.2760774892
H -5.0323968849 0.1095805400 -1.5282482924
