65
CONF220
C 7.5855730780 -0.2711795181 0.2261230882
O 7.2840850277 -0.7448882220 -1.0908392993
C 6.2400089551 -1.6175776524 -1.2206511747
C 5.4549799495 -2.0776697940 -0.1623584480
C 4.4142811900 -2.9722341177 -0.4214262510
C 4.1327017748 -3.4222712112 -1.7092800583
C 4.9367480611 -2.9486501429 -2.7542884858
C 5.9761164448 -2.0608696698 -2.5221191924
C 2.9839048708 -4.3549269952 -1.9882602471
C 1.7926977187 -3.6524933854 -2.6575055009
N 1.2601827170 -2.5274315973 -1.8842480219
C 0.3385673022 -1.7379671754 -2.7094003503
C -0.1519827391 -0.5022556569 -1.9613788442
C -0.8367585502 -0.9071507526 -0.6608503547
C 0.0999226131 -1.7939672158 0.1620190580
C 0.5755040614 -2.9812595386 -0.6680069536
N -1.2578851778 0.2932987139 0.0658907678
C -2.1966315582 0.2146016981 1.0449565998
N -3.0194928183 -0.8056292875 1.2432042742
C -3.8467936966 -0.3939861254 2.2768326306
C -4.9028165589 -1.0606286180 2.8955302977
C -5.5863300886 -0.4045470977 3.9200404991
C -5.2303006726 0.8881244923 4.3244783423
C -4.1716034682 1.5713780595 3.7194742793
C -3.4960539835 0.9085744521 2.7057592787
N -2.4168478629 1.2738235719 1.9108890210
C -1.7630980672 2.5703690987 1.8681632144
C -2.1469494962 3.3913440523 0.6547083107
C -3.4432543612 3.3431195851 0.1382413323
C -3.8013958036 4.1192847881 -0.9594778788
C -2.8392610280 4.9407126771 -1.5233598119
C -1.5435939789 5.0150200841 -1.0427286186
C -1.2047214554 4.2270537737 0.0543184993
F -3.1797770979 5.6987394613 -2.5977705326
H 8.4339568969 0.4043300690 0.1115902087
H 7.8623236659 -1.0989457908 0.8902701430
H 6.7359660289 0.2750260474 0.6534311634
H 5.6382068343 -1.7565865097 0.8558690706
H 3.8092133872 -3.3240082804 0.4104201745
H 4.7463415671 -3.2853646267 -3.7706140882
H 6.5987539656 -1.7025775088 -3.3361127064
H 3.3073276513 -5.1513302958 -2.6696100275
H 2.6706812175 -4.8463381909 -1.0618156206
H 1.0058077097 -4.4041388684 -2.8702162680
H 2.1272705476 -3.2574947600 -3.6250462080
H -0.5359656369 -2.3453499176 -3.0241867299
H 0.8642055224 -1.4312559568 -3.6208467592
H 0.7042217362 0.1482885809 -1.7355404607
H -0.8460714412 0.0616495324 -2.5943396479
H -1.7454265904 -1.4736223498 -0.8978961240
H 0.9666847038 -1.1998468760 0.4811879122
H -0.4156212516 -2.1518065874 1.0597246879
H 1.2640417126 -3.5861456280 -0.0705551740
H -0.2916577311 -3.6271945516 -0.9211156773
H -0.5411485147 0.9970667063 0.1801808913
H -5.1841297819 -2.0611927195 2.5816206629
H -6.4138077582 -0.9053940987 4.4130225961
H -3.9032881401 2.5750782103 4.0335789091
H -2.0372840368 3.1012795368 2.7862320715
H -0.6748454572 2.4387725077 1.9051506947
H -4.1840748069 2.6899079039 0.5899911406
H -4.8036436729 4.0901655856 -1.3727415736
H -0.8195192071 5.6650247356 -1.5216163339
H -0.1900521267 4.2627462104 0.4411474664
H -5.7857933320 1.3722575733 5.1212456281
