57
CONF66
C 1.1914296344 2.2991379429 -1.4169470171
C 0.1232932961 1.2547446787 -1.1059538560
C -1.2716578545 1.9175677084 -1.0355971709
C -2.3896389681 1.0030072461 -0.6115598655
C -2.8381729982 1.0078861195 0.7121142622
C -3.8750165834 0.1710731744 1.1169791379
C -4.4735729948 -0.6926613958 0.2034394252
C -4.0363229052 -0.7049077093 -1.1199674659
C -3.0060274758 0.1397150997 -1.5242599700
C 0.1558219734 0.1177267928 -2.1170451251
C 0.2861779861 -1.2183226501 -1.7371914046
C 0.2771238749 -2.2310390724 -2.6951415774
C 0.1373420300 -1.9245305605 -4.0444781035
C 0.0078482139 -0.5921444267 -4.4316127526
C 0.0172203906 0.4186965193 -3.4768241230
O 0.4076828415 0.6219417864 0.1979614918
P 0.8691304396 1.3573888476 1.5255097705
O 0.1670039567 2.5980232269 1.9175770829
O 2.4538235715 1.6172969628 1.4331547152
C 3.4015633783 0.8055571789 0.8034714097
C 3.2585951107 -0.5708340475 0.6693824155
C 4.2693325343 -1.2868498139 0.0302691198
C 5.4032487591 -0.6417133385 -0.4549899722
C 5.5302742495 0.7373445406 -0.2991837237
C 4.5279093173 1.4689062847 0.3288291454
O 0.8351949092 0.1454872109 2.5833688560
C -0.3718944886 -0.4333758174 3.0099288151
C -0.7206251868 -1.6728885462 2.4930442751
C -1.8689891854 -2.2969244369 2.9726237089
C -2.6463121046 -1.6817056301 3.9512591887
C -2.2769447658 -0.4352701899 4.4521058563
C -1.1298906949 0.2012778224 3.9838709959
H 0.9859185878 2.7550071999 -2.3876153764
H 2.1806787820 1.8357634155 -1.4562212992
H 1.1849141644 3.0962267433 -0.6671942287
H -1.4741906865 2.3236145990 -2.0324130097
H -1.1989087275 2.7623617847 -0.3439566166
H -2.3707667733 1.6771509644 1.4290236269
H -4.2099785420 0.1905819960 2.1489248537
H -5.2812095245 -1.3467478665 0.5179029704
H -4.5043501925 -1.3675447724 -1.8419333448
H -2.6784728568 0.1334142952 -2.5598667864
H 0.3910056466 -1.4744922252 -0.6906866862
H 0.3778123435 -3.2648215868 -2.3787278899
H 0.1291701601 -2.7142790552 -4.7890052756
H -0.1029797006 -0.3366285674 -5.4809039866
H -0.0974517491 1.4485184011 -3.8005864502
H 2.3839304960 -1.0820397453 1.0514984728
H 4.1624167038 -2.3611255899 -0.0820449295
H 6.1841860091 -1.2095269149 -0.9496374494
H 6.4105919441 1.2514870029 -0.6715025959
H 4.6039910365 2.5439477036 0.4520461045
H -0.0964623735 -2.1349856416 1.7357291400
H -2.1541901701 -3.2667676528 2.5776896728
H -3.5407795727 -2.1720137657 4.3214828200
H -2.8800015197 0.0467249532 5.2150413572
H -0.8198248365 1.1665621078 4.3688192724
