50
CONF68
C -2.7904386126 0.3106642749 -2.3798905472
C -2.4312165573 -1.1430882035 -2.1800781769
C -0.9852625915 -1.5848965786 -2.1110188298
C -1.8857990781 -1.6430121469 -0.8508112502
C -1.6347785734 -0.7492686277 0.2891899625
O -1.2580660934 0.4034112034 0.2675322448
O -1.8973841688 -1.4130667725 1.4575256141
C -1.5766167247 -0.7112173416 2.6931513833
C -2.3128141694 0.5508620928 2.7980912440
N -2.9186192531 1.5222670267 2.9489861730
C -0.0828716689 -0.5734317273 2.8967876505
C 0.5798095635 0.6280291022 2.6655438726
C 1.9636453982 0.6752531254 2.8076292273
C 2.6830642580 -0.4498163959 3.2015285823
C 2.0042846409 -1.6382316567 3.4496490969
C 0.6235995107 -1.7098785784 3.2957703321
O 2.6776055039 1.8400014112 2.6225284824
C 2.2359826096 2.7516764957 1.6721340321
C 1.8462067107 2.3445289159 0.3981789386
C 1.4715155432 3.3097441067 -0.5311858752
C 1.4995823166 4.6632829281 -0.1981945584
C 1.9075307755 5.0519531223 1.0757360199
C 2.2739468048 4.0967097599 2.0208458160
C 0.1159641868 -0.6268326910 -2.1992795943
C 1.2844400271 -0.8510328660 -2.8096811032
C 1.6356862208 -2.1536621691 -3.4925287767
F 1.5965828052 -3.1952576947 -2.6202159203
F 2.8569816395 -2.1526179057 -4.0497988301
F 0.7471782693 -2.4458559376 -4.4790250759
Cl 2.5154643026 0.3892518054 -2.8758361386
C -3.3747617660 -2.0985581229 -2.8789952927
H -2.1311021052 0.9986076285 -1.8534724853
H -2.7599191629 0.5417663581 -3.4498096343
H -3.8120803669 0.4832384202 -2.0258231290
H -0.7984480355 -2.5748417267 -2.5109313193
H -2.1781784140 -2.6476140384 -0.5661621548
H -1.9864370607 -1.3758700885 3.4604810085
H 0.0320584366 1.5111944414 2.3590507052
H 3.7603114305 -0.3822245825 3.3098853249
H 2.5600033850 -2.5163736135 3.7615982343
H 0.0968688157 -2.6406976780 3.4808541512
H 1.8314087621 1.2904849066 0.1404813215
H 1.1648606390 2.9979805442 -1.5246984185
H 1.2078488244 5.4100275467 -0.9291848121
H 1.9351486585 6.1037027000 1.3427381027
H 2.5873290359 4.3807470606 3.0199566521
H -0.0256588493 0.3447402992 -1.7382836829
H -4.3941273513 -1.9609827300 -2.5030567180
H -3.3762381918 -1.8958882769 -3.9552064164
H -3.0840903697 -3.1409067418 -2.7226854171
