21
CONF2
C -2.3821813074 0.6590356552 -0.1989034305
C -0.9437738616 0.2591266290 -0.0977642774
C -0.5032834327 -1.0702699828 -0.1733355039
C 0.8113271416 -1.4746846329 -0.0128092327
C 1.7674068760 -0.4912667212 0.1701938378
C 1.4334257952 0.8505283425 0.2177432665
C 0.0937647467 1.1833409767 0.1116923804
N -0.2113923882 2.6258283606 0.2342893286
O 0.5413427646 3.4004804833 -0.3386496799
O -1.1801374472 2.9443092775 0.9078540638
N 3.1814346350 -0.8853760616 0.3175288710
O 3.9981472090 0.0063276750 0.5027035562
O 3.4438540857 -2.0781521056 0.2449005420
N -1.4619145797 -2.1672728396 -0.4428688885
O -1.4716138192 -3.0951611791 0.3513406610
O -2.1423423859 -2.0849169892 -1.4546331674
H -2.4934928307 1.5479870332 -0.8241809580
H -2.9937121740 -0.1367290568 -0.6149483827
H -2.7582017715 0.9149419245 0.7959453981
H 1.0829745729 -2.5223137182 -0.0496541429
H 2.1883682349 1.6142368503 0.3535554677
