21
CONF60
F -0.0741903391 -1.6230541710 -0.8440994024
C 0.0033133894 -0.5668242721 0.0078301707
F -0.1719630661 -1.0335350461 1.2738664434
C 1.4375663303 0.0371384982 -0.0937888318
F 1.5794204926 0.9352543219 0.9293380615
F 1.5033642533 0.7312538599 -1.2640064784
C 2.5112442920 -1.0344229437 -0.0077593743
C 3.9112571474 -0.4827249717 0.2141874110
O 4.3199301178 0.1986387138 -0.9689704062
C -1.1668336538 0.4104957802 -0.3372699850
F -1.2385865576 0.5460742289 -1.6797041635
F -0.9371353821 1.6222341046 0.2177100844
C -2.5700592408 -0.0668381209 0.1602102787
F -2.6640118595 0.0187364067 1.4924166152
F -2.7973673743 -1.3347743566 -0.2138424775
F -3.5121042843 0.7179492630 -0.3824045255
H 2.2554071869 -1.6959089315 0.8267671132
H 2.4833516426 -1.6233833522 -0.9285974305
H 4.5749453451 -1.3342838568 0.4299349380
H 3.9182150536 0.1852819065 1.0866677146
H 5.1611104496 0.6321437152 -0.7930683260
