58
CONF6
C 6.1018811488 1.0834605114 -2.5760547198
C 6.6505080903 0.6624407754 -1.2108030578
C 7.6823379856 1.6807580890 -0.7206404873
C 5.5354631646 0.4920731277 -0.1708855240
C 4.5604910176 -0.6515104716 -0.4452052660
C 3.4880589475 -0.7755686518 0.6344724043
C 2.4762177423 -1.8850306270 0.3568644837
C 1.2936710980 -1.8474489877 1.3211156783
C 0.1900989811 -2.8474623175 0.9687991648
C -1.1575649934 -2.4702102688 1.5544562281
O -1.5945375920 -1.1537398925 1.0783335959
P -2.0510930419 -0.9949774901 -0.4464298073
O -2.6242914185 -2.1942880867 -1.0797208181
O -0.7942122372 -0.4484159814 -1.2900741764
C 0.0730384944 0.5981309645 -1.0021161810
C 1.1166873277 0.7538860957 -1.9098513016
C 2.0478714028 1.7654890342 -1.7142131317
C 1.9413512748 2.6171307697 -0.6176710717
C 0.8924389060 2.4483159883 0.2797345016
C -0.0514249341 1.4395772008 0.0989836581
O -2.9511901961 0.3401846244 -0.3715751320
C -4.1151812224 0.4031472663 0.4008442379
C -4.3093541904 1.5690875891 1.1293225544
C -5.4687144517 1.7067275171 1.8845435363
C -6.4153853103 0.6862160703 1.9117851736
C -6.2020636096 -0.4721462253 1.1708904078
C -5.0514781501 -0.6238412830 0.4016782902
H 5.5777514120 2.0441097026 -2.4932250953
H 6.9113109673 1.2090397367 -3.3026237429
H 5.4018012090 0.3487525515 -2.9841775042
H 7.1548633682 -0.3083845010 -1.3274304269
H 7.2144008483 2.6626817666 -0.5797735870
H 8.4985361359 1.8007263414 -1.4406026564
H 8.1167787239 1.3769771387 0.2373152359
H 5.9943145535 0.3331837257 0.8149521587
H 4.9722380020 1.4352738969 -0.0970645882
H 5.1171243216 -1.5959302939 -0.5290910593
H 4.0604237878 -0.4980748300 -1.4101027021
H 3.9626124060 -0.9405362122 1.6120116370
H 2.9500577876 0.1800697268 0.7082200135
H 2.0931656390 -1.7658383158 -0.6664175615
H 2.9690634513 -2.8666963171 0.3909463137
H 0.8742039983 -0.8348247721 1.3015359670
H 1.6373390116 -2.0183825514 2.3502088210
H 0.0854302115 -2.9286765674 -0.1214183891
H 0.4425671461 -3.8545373971 1.3250226766
H -1.1094350849 -2.3517821932 2.6405447099
H -1.9300776069 -3.2015837574 1.2980503018
H 1.1797902520 0.0803407128 -2.7572940400
H 2.8628261409 1.8840073940 -2.4209920259
H 2.6694371806 3.4063514119 -0.4645818688
H 0.8009892029 3.1045606387 1.1392213746
H -0.8601395209 1.3125429348 0.8071426783
H -3.5594401552 2.3514688368 1.0907442469
H -5.6293202124 2.6157174862 2.4550058610
H -7.3176073350 0.7960647062 2.5037096462
H -6.9400185012 -1.2676936612 1.1801345287
H -4.8807270066 -1.5149158561 -0.1920071178
