39
CONF40
C -3.9215008444 3.6882165156 -0.9862381578
N -3.3378737527 2.3528188321 -1.0269207223
C -2.4167364808 1.8351680206 -0.1911856375
C -2.1340096752 0.5505288582 -0.6347927116
C -2.9719084047 0.3939400595 -1.7689714030
N -3.7007951604 1.4913584386 -1.9892124378
C -3.2140372123 -0.7678248673 -2.6604305948
F -2.0610721775 -1.1015551717 -3.3667742132
F -3.5287580777 -1.8913865806 -1.9242318862
C -1.1808505485 -0.3371319582 0.0617176798
O -0.9262812654 -0.1802391125 1.2577107472
N -0.5946738484 -1.3029693261 -0.7011036047
C 0.3344407913 -2.2513077474 -0.1981181468
C 1.5348360030 -1.8472092068 0.4147463615
C 2.3839251584 -2.8321794340 0.9310196670
C 2.0451937506 -4.1647510887 0.7897463627
C 0.8885650310 -4.5831230654 0.1558408696
C 0.0272781231 -3.6054444152 -0.3272031710
F 2.8953292014 -5.1005598247 1.2815036781
C 1.9450607126 -0.4288939497 0.4987905035
C 2.4006613944 0.0904974330 1.7118780828
C 2.8035458194 1.4169726603 1.8023534773
C 2.7591564992 2.2422919796 0.6777549195
C 2.3205598726 1.7258783127 -0.5380887280
C 1.9180080633 0.4014183718 -0.6266066891
Cl 3.2518980767 3.9147718769 0.7627119737
Cl 3.3525228594 2.0265379719 3.3450873940
H -3.6153417368 4.2526728734 -1.8705976129
H -3.5658416166 4.1909515756 -0.0867576746
H -5.0103748943 3.6076400495 -0.9593861424
H -2.0165795298 2.3935336480 0.6425144986
H -4.0110795498 -0.5827836875 -3.3854892680
H 0.6624717621 -5.6389476089 0.0582830319
H 2.4199124509 -0.5310307759 2.6003723825
H 2.3039908085 2.3650259101 -1.4137521636
H 3.3222813105 -2.5617890833 1.4033712421
H -0.9067485302 -3.8914304416 -0.8002888607
H 1.5934406844 0.0107707366 -1.5842374171
H -0.8616125226 -1.3881349219 -1.6718870261
