36
CONF1
C -2.3674097012 -2.2607780937 -1.2287380901
C -1.6258525422 -1.1208414526 -0.5789703517
C -2.3068442526 -0.0767382918 0.0931041168
C -3.7261396868 0.0490252732 0.0821980391
C -4.3698076144 1.0340399425 0.7868424156
C -3.6275842230 1.9551104110 1.5560525649
C -2.2587352736 1.8712358179 1.5936034413
C -1.5483932103 0.8774062157 0.8619908690
C -0.1278649695 0.8501387153 0.8649878396
C 0.5331607722 -0.0355169154 0.0005071980
C -0.2234255665 -1.0981206305 -0.6208610378
C 0.4966512399 -2.1869954493 -1.2255408314
C 1.8503609103 -2.2182654777 -1.2744528470
C 2.6254159676 -1.0910438195 -0.8543491661
C 1.9665772964 0.0359089301 -0.2875200564
C 2.7277078533 1.2125768287 -0.1303032717
C 4.0868420761 1.2404448216 -0.3966861300
C 4.7461517658 0.0900969396 -0.8457321145
C 4.0129145281 -1.0547942073 -1.0910733330
C 0.5957260842 1.7003318991 1.8805464241
H -3.4462644497 -2.1712516019 -1.1299864959
H -2.1362382955 -2.3306492936 -2.2969617968
H -2.0835680070 -3.2160187529 -0.7735589810
H -4.3215231260 -0.6361825505 -0.5075799100
H -5.4521491815 1.1085140238 0.7481720456
H -4.1391643981 2.7384658448 2.1066187158
H -1.7063064445 2.6061510088 2.1661720156
H -0.0617015437 -3.0216638420 -1.6304354441
H 2.3681078782 -3.0726193677 -1.7015679880
H 2.2431214171 2.1341462282 0.1608777084
H 4.6371634457 2.1674291109 -0.2691791124
H 5.8141572690 0.1103741400 -1.0383930813
H 4.4919480496 -1.9384411583 -1.5039199782
H 0.0557618108 1.6680042502 2.8306864828
H 0.6744078002 2.7551653766 1.5906458889
H 1.6027961216 1.3253550266 2.0628039518
