52
CONF6
C -1.0783128525 4.0241454717 -3.1050560260
O -2.0978282111 3.2315182060 -2.4803453735
C -1.6898839133 2.2218097559 -1.6631934210
C -0.3539399655 1.9018145797 -1.4081722450
C -0.0434417151 0.8422006114 -0.5550890039
C -1.0617073161 0.0900083744 0.0318577582
C -2.3978666673 0.4102806579 -0.2193979446
C -2.7195578146 1.4833557430 -1.0617288926
O -4.0340106099 1.8219815308 -1.2812239647
C -4.6075304332 1.1375585077 -2.4154102198
O -3.4599638551 -0.2608609745 0.3061053064
C -3.1731869077 -1.3614259297 1.1803337015
C 1.4216065837 0.5355387174 -0.2652291346
C 1.9739010402 1.2940458149 0.9446150084
C 1.4019294792 0.7682628736 2.2501214246
C 1.7417089416 1.8970745302 3.2115021265
O 1.6483635064 3.1056776255 2.3803675569
C 1.7877086629 2.7876610732 1.0662863491
O 1.7977858278 3.6400919299 0.2091894184
C 1.9706991302 -0.6078473665 2.5249067238
C 1.8784609858 -1.4770451268 1.2700851887
C 2.0588271020 -2.8667169615 1.4477103792
C 2.0060382345 -3.6669001219 0.3353352083
C 1.7824282665 -3.1435453046 -0.9344465678
C 1.6028169128 -1.7985533572 -1.1361631425
C 1.6574721367 -0.9483264227 -0.0114769901
O 1.7312852550 -4.1600578008 -1.8545415942
C 2.2056986940 -5.3267788876 -1.1477803046
O 2.1044637900 -5.0350872504 0.2618805345
O 1.3575387112 -1.2275924519 3.6613868581
H -0.4497574371 3.4111375019 -3.7611468702
H -1.6090098071 4.7700934678 -3.6972222144
H -0.4542678986 4.5236921260 -2.3549640573
H 0.4493144780 2.4693177300 -1.8592335929
H -0.8072652355 -0.7532883947 0.6609198668
H -4.0612594162 1.3897669730 -3.3316912690
H -5.6407396829 1.4809134773 -2.4950985980
H -4.5885263653 0.0528301603 -2.2584947886
H -4.1435790861 -1.7486196968 1.4920011544
H -2.6087411837 -1.0281268877 2.0592143364
H -2.6139040161 -2.1455195692 0.6567137853
H 1.9978296559 0.8288895009 -1.1502262771
H 3.0683255260 1.1479955523 0.9579360063
H 0.3104490926 0.6929112936 2.1553081304
H 2.7689418159 1.8264204654 3.5874457029
H 1.0429351969 2.0235419676 4.0384928626
H 3.0290762726 -0.5060256290 2.8050546540
H 2.2237039022 -3.2792000329 2.4363933531
H 1.4148433829 -1.3929579494 -2.1252181453
H 1.5698439465 -6.1802836225 -1.3893224773
H 3.2591381014 -5.5004719806 -1.4060959703
H 0.4311461605 -1.3953052992 3.4368052989
