32
CONF1
C -3.6875946050 -0.6753856856 0.2017576009
C -3.6949131186 0.6605292270 -0.0806200742
C -2.4959850906 1.3964427764 -0.2204838023
C -1.2638199672 0.7049538305 -0.0931494537
C -1.2561089009 -0.6957953725 0.2023110238
C -2.4807011971 -1.3925015043 0.3683556022
N -2.5609150041 -2.7115027455 0.7103195690
C 0.0077353313 -1.4189453196 0.2995509182
O 0.0145669385 -2.6541542137 0.5614087523
C 1.2637936012 -0.7046671394 0.0945107916
C 2.4959457830 -1.3963912734 0.2207807839
C 3.6948889372 -0.6607204057 0.0797478303
C 3.6875782393 0.6752136249 -0.2025524458
C 2.4806704181 1.3926017724 -0.3679226113
C 1.2560837100 0.6960891017 -0.2008945305
C -0.0077582280 1.4192114295 -0.2983110945
O -0.0145534244 2.6545137405 -0.5597427881
N 2.5608259411 2.7115301068 -0.7100662145
N 2.5905583850 -2.7403198275 0.4400568233
N -2.5906387147 2.7402893502 -0.4401920020
H -4.6289698596 -1.2063941785 0.3163014856
H -4.6420181642 1.1826682467 -0.1885511044
H -1.6913814309 -3.2310175554 0.6812846773
H -3.4406928151 -3.1787178732 0.5772604631
H 4.6419951175 -1.1830904347 0.1865914192
H 4.6289582166 1.2060036367 -0.3180993106
H 1.6914022965 3.2312011794 -0.6807894756
H 3.4408957466 3.1785683372 -0.5783454867
H 3.4752076461 -3.1050195396 0.7473116643
H 1.7265240867 -3.2131573110 0.6781150842
H -3.4750888957 3.1047762143 -0.7482453883
H -1.7264909681 3.2131878055 -0.6776988970
