26
CONF62
C -3.1634568618 0.4819907261 1.5066550014
C -2.9336754480 -0.2592828072 0.1975823425
C -1.7587333786 0.1721266095 -0.6995247031
C -0.3611901696 0.1512957537 -0.0480102694
C 0.7531272152 0.5084417300 -1.0521316616
C 2.1261074018 0.5177058601 -0.4013606023
O 2.4243131918 -0.8532917290 -0.0800113715
O 0.7802871421 -0.3854883217 -2.1804268184
O -0.2668631784 1.1560667980 0.9534035096
O -1.8551589282 -0.7428112563 -1.7980454018
O -2.8143389407 -1.6397911710 0.5481370081
O -2.2099538004 0.1159239563 2.5161211120
H -3.0809002347 1.5627183321 1.3592965215
H -4.1755474149 0.2510938340 1.8652703026
H -3.8345098016 -0.1078162927 -0.4223227062
H -1.9508842536 1.2080263638 -1.0324677359
H -0.1619838923 -0.8531340868 0.3598853955
H 0.5451580824 1.5102028366 -1.4489166124
H 2.1077687855 1.1449394861 0.4961877916
H 2.8560145427 0.9112868802 -1.1228797712
H 1.2847720158 -1.1589176129 -1.8852815920
H -0.9841589435 -0.7532326611 -2.2357438416
H -2.1533721529 -0.8506591513 2.4758768948
H -0.7920388592 0.8445708096 1.7166001441
H 3.3442292603 -0.9110279409 0.1939224397
H -2.5128406539 -2.0823224540 -0.2592732486
