48
CONF7
C -3.4517696824 -1.9832961590 -1.6198480807
C -3.1684087348 -0.7403881727 -0.7769319277
C -3.1587153026 0.5687591382 -1.5853663510
C -3.5430514698 1.6081207462 -0.5310357773
N -4.5989942914 0.9650055886 0.2882701764
C -4.2624427701 -0.4740922473 0.3230356110
N -3.6277658174 -0.8994692957 1.5758778430
C -2.2588025411 -0.9552369910 1.4190852095
C -1.9156649132 -0.9036111422 0.0566188624
C -0.5976796485 -0.9959427012 -0.3427733818
C 0.3790631268 -1.1381594106 0.6443723036
C 0.0601960182 -1.1772729480 1.9920444567
C -1.2731266613 -1.0805515160 2.4012440019
O 1.7228398481 -1.2931969732 0.2547428512
C 2.4527949864 -0.1362207179 0.1223957041
O 2.0075856145 0.9775180532 0.3213905866
N 3.7185130287 -0.4657725790 -0.2565779740
C 4.8069374889 0.3927866165 -0.4860504577
C 4.7361500041 1.7866273836 -0.3755539459
C 5.8745448739 2.5504550742 -0.6227195039
C 7.0815325484 1.9554556484 -0.9779348304
C 7.1453200041 0.5671569427 -1.0871009421
C 6.0212459386 -0.2104664437 -0.8440498678
C -4.2451602845 -0.5811262084 2.8477599208
C -5.9394364699 1.2025702117 -0.2655617974
H -2.6579316554 -2.1321043224 -2.3593024119
H -3.5030220371 -2.8769472900 -0.9891298060
H -4.4035182537 -1.8740868239 -2.1505128339
H -2.1875341407 0.7590575700 -2.0518181346
H -3.9171790537 0.5216217950 -2.3752056879
H -3.9075592699 2.5501981291 -0.9504598436
H -5.1767027517 -1.0596833671 0.1670481253
H -0.3114572610 -0.9518728076 -1.3899886643
H 0.8544525419 -1.2754608641 2.7254365511
H -1.5213447399 -1.1024063012 3.4567534670
H 3.8958648293 -1.4541599395 -0.3724466641
H 3.8071474263 2.2649520580 -0.1012521567
H 5.8076934207 3.6305531066 -0.5335132745
H 7.9602601415 2.5628685796 -1.1674867295
H 8.0762559167 0.0816948235 -1.3631053300
H 6.0782062853 -1.2919337552 -0.9309926203
H -5.3303210961 -0.6719399481 2.7482235010
H -3.9125872977 -1.2890661031 3.6144429199
H -4.0117823298 0.4391305419 3.1882407229
H -6.0599059528 0.8604064563 -1.3086902037
H -6.1595022910 2.2741290004 -0.2304764786
H -6.6836388601 0.6856330811 0.3485666129
H -2.6767216238 1.8329077053 0.1057604519
