31
CONF17
C 5.2654017417 -0.8005133171 1.5659926876
O 3.9694559414 -0.8692739904 0.9192356413
C 3.3248318878 0.3014761427 0.8216819647
O 3.6753781931 1.3402137377 1.3302047550
C 2.0285145742 0.1367002474 0.0850512534
C 1.9387892455 -0.2377133991 -1.2600559592
C 0.7087064541 -0.4276494380 -1.8777477069
C -0.4608085894 -0.2308894695 -1.1620514908
C -0.3767830821 0.1593351232 0.1745519900
C 0.8584459280 0.3418990559 0.7975700033
O -1.4705610632 0.3682089352 0.9700260704
C -2.7265178547 0.3335452242 0.3927332659
C -3.2254600083 1.4348014138 -0.3055052270
C -4.5163695242 1.4155932782 -0.8210066919
C -5.2950726761 0.2819194138 -0.6200439501
C -4.8184666816 -0.8217625983 0.0782753717
C -3.5244082856 -0.7863549922 0.5825179262
Cl -6.9222871262 0.2537787232 -1.2641964310
Cl -2.2270791158 2.8424707763 -0.5322896198
N 3.1484414189 -0.3617209522 -2.0709554767
O 4.1632634876 0.2006822736 -1.6654383201
O 3.0757422198 -0.9957660401 -3.1186433250
H 5.6476097208 -1.8200246111 1.5515051370
H 5.1569257578 -0.4389692897 2.5910484764
H 5.9204934113 -0.1310914986 1.0032586086
H 0.6765288388 -0.7066055328 -2.9237229663
H -1.4227002112 -0.3663815960 -1.6421515019
H 0.8939490472 0.6347584999 1.8409383899
H -4.9025307115 2.2710740897 -1.3612046319
H -5.4447645387 -1.6931710905 0.2253352297
H -3.1186689866 -1.6285691246 1.1325865307
