37
CONF42
C -2.9221197060 -1.9254369442 -1.0644091483
C -4.2911949306 -1.8847517688 -1.3010657566
C -5.0439183334 -0.8102505918 -0.8377547128
C -4.4342198305 0.2190618294 -0.1234669278
C -3.0545796062 0.1808876966 0.1277107723
C -2.3093597219 -0.8950703938 -0.3580889150
C -2.3511815150 1.1988818072 0.9859998725
O -2.6926439736 1.3956197371 2.1547565678
N -1.3162128742 1.8206796827 0.3863454402
C -0.3992941147 2.6878627683 1.1150698863
C 0.6837716866 1.9018270947 1.8505100547
C 1.6150776795 1.1418398536 0.9486537103
C 2.6163557742 0.3011803038 1.4643463802
C 3.4667903110 -0.3898737504 0.6224548954
C 3.2983398417 -0.2206141030 -0.7493342543
C 2.2952022607 0.6247758077 -1.2043034450
N 1.4821645746 1.2841626948 -0.3748559490
C 4.1761812855 -0.9786172748 -1.6984366485
F 4.1013328616 -0.5005206821 -2.9585984790
F 5.4781673197 -0.9331711329 -1.3246034582
F 3.8364406396 -2.2939874313 -1.7515239982
Cl 2.8070911483 0.1221269809 3.1945355484
C -5.2833298124 1.3707915413 0.3445938627
F -5.6843791132 1.2353330812 1.6338100229
F -4.6378344733 2.5595343307 0.2515621571
F -6.4153577369 1.4897190159 -0.3931218831
H -2.3283244838 -2.7581528186 -1.4267733495
H -4.7771177308 -2.6822677396 -1.8527405817
H -6.1075195733 -0.7690468574 -1.0418379518
H -0.9757734319 3.2605238829 1.8461880945
H 0.0452259596 3.3864917777 0.4025714928
H 0.2152862771 1.2018688637 2.5534568816
H 4.2395809082 -1.0378817752 1.0214053294
H 2.1378040821 0.7817187509 -2.2678033892
H -1.2415268945 -0.9307449291 -0.1623988070
H 1.2748047747 2.5912015354 2.4683032238
H -1.0594537740 1.5511552774 -0.5515238705
