64
CONF383
C 8.9906060301 -1.1080459727 3.8903724669
C 8.6686696151 0.2956730816 3.4082482515
O 8.8973090291 1.2722641859 4.1129442039
N 8.1372678726 0.4176260328 2.1481276584
C 7.6919277827 -0.6739232535 1.2948300299
C 6.1779568626 -0.6128218152 1.0862834372
N 5.8084420411 0.6843298270 0.5353418513
C 6.2313676890 1.7717975588 1.4326383844
C 7.7391575034 1.7286436112 1.6468154094
C 4.4883068675 0.8049176157 0.0315484308
C 4.1632424966 1.9202036220 -0.7585994068
C 2.9003462620 2.0707897690 -1.2985564396
C 1.9211534042 1.0972540677 -1.0815328891
C 2.2229795027 -0.0232321509 -0.3150135661
C 3.4966914638 -0.1544490676 0.2433815112
O 0.7031178635 1.3304622903 -1.6717659940
C -0.3109221449 0.3564140365 -1.4445444617
C -1.5674772934 0.8770857896 -2.1204134048
C -2.2046701119 2.0444327347 -1.3753675501
O -3.0229062414 1.3713070796 -0.4085443373
C -3.5604921139 0.2570935645 -1.0851544466
O -2.5798418093 -0.1468387735 -2.0418649996
C -3.7721449362 -0.9008103834 -0.0918664807
N -2.5520296089 -1.2702066338 0.5908926244
C -2.0081944698 -0.6521140861 1.6984116943
C -0.8038020154 -1.2712425638 1.9106131703
N -0.5866525321 -2.2480222923 0.9626095865
C -1.6482917358 -2.2154366256 0.1865770923
C -4.8691932993 0.6000423696 -1.8063214210
C -5.9490535244 1.2411780269 -1.1867540556
C -7.1219433724 1.5363334680 -1.8748128838
C -7.2237224148 1.1735199729 -3.2105229822
C -6.1831447959 0.5258474311 -3.8616560002
C -5.0243201719 0.2485168092 -3.1497516493
Cl -8.6949789262 1.5434734629 -4.0791410552
Cl -5.9072401371 1.7260779361 0.5001678511
H 9.6571719740 -1.6350687591 3.2006012263
H 9.4814869276 -1.0114901956 4.8577986686
H 8.0847810569 -1.7106010261 4.0140598716
H 8.1886349472 -0.5914083852 0.3166752876
H 7.9615739486 -1.6364992511 1.7304110115
H 5.8852129097 -1.3961761672 0.3784194268
H 5.6772441622 -0.8177417518 2.0541771450
H 5.9558332992 2.7334503909 0.9929846365
H 5.7212466018 1.6913416438 2.4115120217
H 8.0480112798 2.4787815705 2.3772381915
H 8.2491174668 1.9175482814 0.6913781722
H 4.9239565686 2.6635020380 -0.9743950575
H 2.6588099248 2.9302240887 -1.9150894554
H 1.4883471937 -0.7968205973 -0.1197008764
H 3.6921736603 -1.0281421333 0.8537242202
H -0.0290558537 -0.6141720402 -1.8754062393
H -0.4948496974 0.2274442849 -0.3689534805
H -1.3732557945 1.1053308597 -3.1744091430
H -1.4802405901 2.6613191343 -0.8410313299
H -2.8212907831 2.6671533653 -2.0383804290
H -4.5349194176 -0.6200961313 0.6379585570
H -4.1392236843 -1.7604303903 -0.6606103008
H -0.0841058221 -1.0694583584 2.6911757900
H -7.9381948128 2.0400979225 -1.3730066099
H -6.2758681906 0.2463837343 -4.9040937060
H -4.1992860954 -0.2505915247 -3.6433144940
H -2.5172313984 0.1536203062 2.2032775424
H -1.8305585454 -2.8416904581 -0.6771010079
