29
CONF3
C -3.3467906295 -2.1064658384 -0.4086109348
C -3.3186317727 -1.3014655261 -1.5463760455
C -2.5504741752 -0.1437958679 -1.5621214900
C -1.7984599783 0.2235227060 -0.4432880110
C -1.8249937122 -0.5916544362 0.6870292958
C -2.5993831035 -1.7493750444 0.7084791375
C -0.9552113773 1.4743598389 -0.4783646824
O -0.0465779819 1.5059796340 -1.5839907191
C 0.8973533794 0.4297744563 -1.5687428710
C 1.7786280307 0.4354071341 -0.3439277112
C 2.5054956457 1.5814729525 -0.0115469577
C 3.3080006175 1.6033063855 1.1224483508
C 3.3962892004 0.4763926723 1.9383283711
C 2.6742614101 -0.6676538199 1.6159034076
C 1.8653292775 -0.6840044729 0.4819073690
H -3.9482061313 -3.0098665976 -0.3956868780
H -3.9000222546 -1.5775057303 -2.4206087975
H -2.5178936158 0.4824887413 -2.4491404465
H -1.2276182460 -0.3196639456 1.5533386855
H -2.6136646963 -2.3749563458 1.5955279070
H -0.4126153660 1.5838242281 0.4723108237
H -1.5864542307 2.3588981946 -0.6155173468
H 1.4968021233 0.5766676774 -2.4735824183
H 0.3819223366 -0.5386060617 -1.6516896708
H 2.4255549446 2.4596188184 -0.6460147298
H 3.8694062447 2.4985118918 1.3712928513
H 4.0245759344 0.4929737447 2.8231763019
H 2.7354756769 -1.5464085034 2.2503017737
H 1.2879030528 -1.5717772669 0.2374653285
