49
CONF2
C -5.6273359336 -0.1547013773 -2.3594533338
C -4.3796085461 -0.8746636554 -1.8400554229
C -3.4673321086 -1.2688067873 -3.0054551694
C -3.6265495311 0.0082712921 -0.8429878587
C -4.3446711734 0.3587300088 0.4910747565
C -4.4197899903 -1.0387326312 1.1802986634
C -3.0834363846 -1.7166350970 0.7583584701
C -2.4011934975 -0.6274687755 -0.1250957091
C -2.0411489200 0.4975355840 0.8175190548
C -3.2413751847 1.1074112807 1.1968756281
C -3.2621845754 2.1398923885 2.1199700765
C -2.0402424311 2.5663412820 2.6451263852
C -0.8354453311 1.9679829594 2.2882701359
C -0.8274019640 0.9024607895 1.3720645041
N 0.3310613827 0.2160102640 0.9676179200
C 1.6228671028 0.3912063577 1.3816665166
O 1.9836416919 1.2368555292 2.1940084284
C 2.6267899464 -0.5248557491 0.7808132302
C 3.9691783713 -0.3924395527 1.0992835658
N 4.6423178639 -1.3454081912 0.4212340425
N 3.8353297732 -2.1108542777 -0.3272473310
C 2.6091891152 -1.6239531049 -0.1207594385
C 1.5079955478 -2.3034879103 -0.8475511541
F 0.5477513557 -2.7741211837 0.0267962976
F 0.8442980960 -1.4188175192 -1.6820144553
C 6.0698048687 -1.6164624949 0.4462386854
H -6.3278352892 0.0798909277 -1.5522876576
H -6.1567105003 -0.7720139330 -3.0923497239
H -5.3519843495 0.7866119112 -2.8497828797
H -4.7039661075 -1.7952826103 -1.3388392563
H -3.0953688075 -0.3762602126 -3.5224998993
H -2.6012242737 -1.8451237737 -2.6666363618
H -4.0096496866 -1.8777934209 -3.7358998399
H -3.3192923721 0.9301829389 -1.3556246885
H -5.2983794501 0.8850868011 0.4250529045
H -5.2860762758 -1.6003989548 0.8170930177
H -4.5178828943 -0.9381231750 2.2638488399
H -3.2583106431 -2.6287227857 0.1792767389
H -2.4558122616 -1.9821178635 1.6125459486
H -1.6079809456 -1.0050890039 -0.7719008772
H -4.1928820150 2.6115512844 2.4198961352
H -2.0177977075 3.3891573689 3.3529682718
H 4.4469055395 0.3175597454 1.7573115586
H 1.8727014154 -3.1401151698 -1.4509154214
H 6.5606625437 -0.8452426357 1.0414916679
H 6.4650379582 -1.6011275701 -0.5723067709
H 6.2577457072 -2.5977738249 0.8907313988
H 0.1647764430 -0.5074627990 0.2863539811
H 0.0965747802 2.3141494455 2.7098404966
