35
CONF66
C -5.4672977515 -0.9912879193 -0.7048113559
C -4.2660279606 -0.4353491442 0.0496642353
C -4.7296045984 0.6537111518 1.0137236718
O -4.6838690950 1.8416917009 0.7952132809
O -5.2425738140 0.1059811592 2.1306916320
O -3.3801651980 0.1081522055 -0.9235772986
C -2.1320872937 0.5040582569 -0.5238824473
C -1.3317155877 1.0499527556 -1.5328586118
C -0.0432643310 1.4739530901 -1.2464955579
C 0.4390207243 1.3479697700 0.0509101270
C -0.3433160468 0.8156894723 1.0610100713
C -1.6403043701 0.3897994523 0.7779921544
O 1.7180057641 1.8287044431 0.3585881251
C 2.7783370755 0.9901946437 0.1988142155
N 3.9388911060 1.5539535752 0.5173035356
C 5.0451445228 0.8165259542 0.3969276360
C 5.0290605113 -0.5018151289 -0.0428387297
C 3.8014730419 -1.0792189352 -0.3753992958
C 2.6477425060 -0.3297047631 -0.2543255312
C 6.2854936321 -1.2938727483 -0.1888273344
F 6.6003698115 -1.5150799266 -1.4957334388
F 7.3530099756 -0.6842948753 0.3726363008
F 6.1786102614 -2.5222096269 0.3833649159
H -6.1766571347 -1.4346676021 -0.0027584190
H -5.9642341036 -0.1937597931 -1.2638201953
H -5.1292304817 -1.7620509817 -1.4010478919
H -3.7761609376 -1.2375652984 0.6164728259
H -5.5852266425 0.8201159301 2.6960232181
H -1.7351075661 1.1373021943 -2.5359786320
H 0.5871090620 1.8996264910 -2.0203501504
H 0.0542962466 0.7341315751 2.0672302204
H -2.2385257690 -0.0203776376 1.5828385890
H 5.9796080836 1.3020526869 0.6658587695
H 3.7482188519 -2.1062530649 -0.7225169067
H 1.6809774951 -0.7499642778 -0.5000418498
