53
CONF207
C -3.1005174760 -3.5206023503 -2.6514078112
O -2.9068514108 -2.4533929193 -1.6803730312
C -3.1589846676 -1.2196991136 -2.1189366778
O -3.4953135855 -0.9301101805 -3.2435597582
C -3.0303624117 -0.1909389822 -0.9739639133
C -4.2608641126 -0.3535358626 -0.0449243910
C -3.7325130961 -1.2223075278 1.0715660812
C -2.3293114401 -1.2511210908 1.0744085632
C -1.8638593940 -0.4482899998 -0.0410672692
N -0.7374160128 0.1683963359 -0.0906095601
N -0.5732104709 1.0550213111 -1.1150564594
C -1.6372062063 1.2738236164 -2.1139828883
O -2.9114374900 1.1181325626 -1.5063472842
C 0.5579705689 1.8357723320 -1.1675933341
O 0.8257416836 2.5146616415 -2.1468228310
N 1.4256974310 1.7400913210 -0.0462580499
C 2.8178529455 1.5643319770 -0.2963619235
C 3.2265798261 0.6256466594 -1.2428068699
C 4.5792161585 0.4559942454 -1.5110309236
C 5.4973446109 1.2160236334 -0.8040203319
C 5.1106445173 2.1557235222 0.1393581884
C 3.7559704953 2.3365667523 0.3873279999
O 6.8718199664 1.0819598367 -1.1094648478
C 7.5532313330 0.1686545948 -0.3828131223
F 7.0627176957 -1.0850335110 -0.5204517997
F 7.5486427715 0.4407606087 0.9426931324
F 8.8220305793 0.1717494106 -0.8068061370
C 0.9586930097 1.7984621095 1.2726275619
O 1.5517862463 1.3398085463 2.2248701746
O -0.1907748265 2.4874492078 1.3293713894
C -0.8956348797 2.3918959554 2.5920561571
C -1.6225119425 -1.9262175658 2.0653272942
C -2.3348107726 -2.5982248705 3.0519481479
C -3.7297542744 -2.5713741409 3.0245561524
C -4.4535728411 -1.8880692653 2.0489774218
Cl -4.6112873150 -3.4339095478 4.2754658143
H -4.1388145053 -3.5280861200 -2.9892716696
H -2.4290285429 -3.3735919921 -3.4996340321
H -2.8582602926 -4.4376209689 -2.1174714698
H -4.5304340697 0.6390736166 0.3349758479
H -5.1322125276 -0.7737088210 -0.5537330191
H -1.5654433160 2.2994375889 -2.4746938246
H -1.5096735611 0.5683535053 -2.9456879373
H 2.4912291711 0.0273637658 -1.7711748036
H 4.9167171540 -0.2627829434 -2.2489072069
H 5.8564305530 2.7483471729 0.6569202643
H 3.4310520306 3.0786120171 1.1078576853
H -0.2941418711 2.8248337909 3.3939043436
H -1.1201759893 1.3441458620 2.8103290487
H -1.8140007298 2.9593825831 2.4489055475
H -0.5376199489 -1.9406945725 2.0651412845
H -1.8176838226 -3.1454012089 3.8315516570
H -5.5376863628 -1.8757623263 2.0650931186
