50
CONF189
C -1.4510857476 -0.2206916398 -2.1563971323
C -1.9568612829 -1.6218310289 -1.9066177961
C -1.1549936369 -2.8262872743 -2.3530349159
C -1.3004785101 -2.5074385820 -0.8511480324
C -0.1710603023 -2.0240739802 -0.0441423950
O 0.8183618962 -1.4287249253 -0.4140286865
O -0.3942567844 -2.3303155183 1.2735002465
C 0.6001134085 -1.7988385181 2.1874750238
C 0.4650012536 -2.5905226222 3.4098948882
N 0.3797120167 -3.1881189850 4.3940719746
C 0.3767006061 -0.3259144451 2.4594350458
C 1.4167992848 0.5713103384 2.2454421555
C 1.2018882616 1.9274285823 2.4778091200
C -0.0369665062 2.3902671733 2.9169844649
C -1.0679211141 1.4769628282 3.1200419058
C -0.8710474245 0.1184789802 2.8984897306
O 2.2902577541 2.7547223500 2.3086175742
C 2.0817332503 4.0684589524 1.9082319103
C 1.2788713646 4.3698961920 0.8110611821
C 1.1643536128 5.6962041134 0.4059752333
C 1.8502430375 6.7048585060 1.0815856338
C 2.6567563349 6.3819631159 2.1703180324
C 2.7743382042 5.0597828381 2.5928275930
C 0.1281251647 -2.6763597314 -3.0384760857
C 0.5783123352 -3.4679237373 -4.0172252883
C -0.1809670224 -4.6635271967 -4.5455271363
F -0.3951921528 -5.5830441779 -3.5676682674
F 0.4478717880 -5.2954089886 -5.5493983013
F -1.4072976395 -4.3022957696 -5.0079943739
Cl 2.1253524809 -3.1617935408 -4.7749890331
C -3.4606799133 -1.7523064157 -2.0066307209
H -0.3728367681 -0.1197498265 -2.0380256684
H -1.7208527905 0.0832901757 -3.1731997544
H -1.9350303964 0.4695148646 -1.4573490671
H -1.7567754853 -3.6824246778 -2.6361660255
H -1.9727774135 -3.1676839983 -0.3146215713
H 1.6036395115 -1.9620303491 1.7784295165
H 2.3856710429 0.2352433432 1.8908439086
H -0.1925523702 3.4476515763 3.1003535495
H -2.0322756417 1.8335721366 3.4669365621
H -1.6780775752 -0.5886105464 3.0619829179
H 0.7563441699 3.5778808449 0.2843313501
H 0.5421139819 5.9392600058 -0.4496205933
H 1.7585291935 7.7363382886 0.7578867623
H 3.1955426112 7.1611099527 2.7002401615
H 3.3950159950 4.7897698563 3.4407186508
H 0.7651798714 -1.8540428285 -2.7347486559
H -3.9444407684 -1.0963142131 -1.2751387243
H -3.7927523129 -1.4537344942 -3.0067210801
H -3.7896489519 -2.7789565885 -1.8246157940
