56
CONF29
C -2.8724925760 0.8298840912 -1.3372037073
C -2.5953989587 -0.2891485087 -0.2935961675
C -3.1215115905 -1.6431236609 -0.8117606662
C -4.6434378903 -1.7381980834 -0.8223513948
C -5.2124040553 -1.4810758482 0.5575235098
O -6.2411129069 -2.0107528220 0.9505585322
C -4.4924453401 -0.4891421877 1.3589843809
C -3.3504003116 0.1095864397 0.9667178787
C -2.7915850818 1.2738263293 1.7256978174
C -1.3171060249 1.0751367500 2.0749630010
C -0.4751541107 0.7495560969 0.8412281731
C -1.0796675615 -0.4557911326 0.0862764572
C -0.1821117096 -0.9573255541 -1.0711514823
C 1.2720369872 -1.1870418204 -0.6332464260
C 1.8680087735 0.0152066302 0.0942508152
C 0.9428827930 0.3794069289 1.2678615494
C 1.7654718541 1.3696251906 2.0996152087
C 3.2290730316 0.8688550322 1.9357999431
C 3.1837409006 -0.2920376723 0.9143076623
C 4.3809255724 -0.4568835471 -0.0129358569
O 4.5772649762 -1.5440695059 -0.5378946911
C 5.3646677050 0.6603811011 -0.2702772474
O 6.2898903670 0.3280214203 -1.2704777109
O 3.0509474178 -1.5053686895 1.6541541316
C 2.1173150860 1.1958210373 -0.8567536600
O -0.1501874854 -0.0634797087 -2.1965509964
H -3.8908466657 1.2132827250 -1.2212139215
H -2.8004432453 0.4525488199 -2.3622425844
H -2.1825595053 1.6691082256 -1.2348848708
H -2.7295415170 -2.4401518713 -0.1658375083
H -2.7341089925 -1.8329875188 -1.8194165961
H -4.9885938293 -2.7156561978 -1.1694611816
H -5.0759347180 -0.9857422448 -1.4968677819
H -4.9852169221 -0.1823812498 2.2787888622
H -3.3880307566 1.4564158727 2.6246492579
H -2.8857465434 2.1700322244 1.0936749028
H -1.2276102025 0.2478699470 2.7933249840
H -0.9306043552 1.9731107817 2.5693874782
H -0.4501245034 1.6306190625 0.1843776256
H -1.0714082043 -1.2842613555 0.8152640000
H -0.5659241357 -1.9326322782 -1.4035935334
H 1.8551727486 -1.4592849448 -1.5200379330
H 1.2761206328 -2.0443585717 0.0493397475
H 0.8524602675 -0.5396525026 1.8654401319
H 1.6530462258 2.3897881573 1.7150541988
H 1.4605193651 1.3838540851 3.1488545037
H 3.8810838128 1.6770220926 1.5968817525
H 3.6449420635 0.4849966656 2.8699014595
H 5.8677822735 0.8461317438 0.6986410932
H 4.8411631573 1.5889649839 -0.5323455319
H 6.1648880989 -0.6204038268 -1.4407373109
H 3.3359954925 -2.2161389659 1.0599347048
H 1.1830041345 1.5625243896 -1.2786685749
H 2.7388391046 0.8813861755 -1.7020688400
H 2.6156158932 2.0297091826 -0.3551477925
H -0.9811489400 -0.1455821033 -2.6728303911
