45
CONF29
C 3.2013481840 -2.5886741320 3.6274961698
N 2.9527409298 -1.7185988708 2.4779022351
C 3.6438411776 -0.4432214154 2.6716191081
C 1.5091201095 -1.5280722484 2.3058753358
C 1.1451175162 -0.7970468741 1.0169286982
C -0.3680634315 -0.8091524416 0.8088253152
N -0.7543728609 -0.0716564433 -0.3982904596
C -0.3119588148 1.2785846140 -0.4932601368
C -0.3106364559 2.1252094777 0.6187600264
C 0.1580748417 3.4300448703 0.5060277207
C 0.6201939914 3.9017767114 -0.7197428220
C 0.6174595145 3.0571116274 -1.8262843579
C 0.1683069001 1.7405800313 -1.7257524752
C 0.1418304171 0.8077369058 -2.8953267135
C -1.2945586948 0.5587023977 -3.3622198487
C -2.2327714884 -0.1380727574 -2.3939675027
C -3.4595838555 -0.5456297888 -2.9283187869
C -4.4217371637 -1.2194746070 -2.1877662827
C -4.1608190930 -1.4950985371 -0.8508675090
C -2.9594480092 -1.0913895157 -0.2850013607
C -1.9739904756 -0.4203523098 -1.0323355878
H 2.8271550404 -2.1571504868 4.5771877267
H 4.2772167366 -2.7619850386 3.7340275159
H 2.7112313266 -3.5559821605 3.4751459819
H 3.5476248194 0.1886741685 1.7847859674
H 3.2544030865 0.1184235265 3.5443423761
H 4.7100800157 -0.6299135404 2.8343495101
H 1.0463215181 -2.5240384654 2.2927623539
H 1.0735604842 -0.9842414817 3.1717270094
H 1.5031915905 0.2358997010 1.0503990727
H 1.6326780244 -1.2853406402 0.1648104216
H -0.6917690452 -1.8456386080 0.6679281197
H -0.8748813921 -0.4396281506 1.7178488194
H -0.6773085879 1.7634996498 1.5739255373
H 0.1534321328 4.0796981436 1.3758113832
H 0.9855451943 4.9195228473 -0.8124021999
H 0.9876018413 3.4151345243 -2.7835067998
H 0.7126521348 1.2348978650 -3.7256990455
H 0.6101451051 -0.1448233350 -2.6197317748
H -1.2731939648 -0.0336328084 -4.2852647993
H -1.7356377530 1.5274963169 -3.6344654302
H -3.6489978349 -0.3343591965 -3.9783627425
H -5.3551162422 -1.5246953464 -2.6490906425
H -4.8936701209 -2.0104506037 -0.2375663736
H -2.7923576659 -1.2846729768 0.7675977495
