52
CONF62
C 2.3233010284 -0.6840949327 -2.6747584403
C 1.9088243566 0.6082790332 -2.0098540946
C 2.7132655230 1.8196729648 -2.4893409697
C 2.3819026275 3.0689251337 -1.6616123158
C 2.5310758909 2.7773624518 -0.1590708203
C 1.8043762174 1.4942072136 0.2407579385
O 2.1202301334 0.4118553176 -0.5773202981
O 0.3874507560 1.8407533793 0.2179490578
C -0.5359752812 0.8372883793 0.0950236163
C -0.6587434158 -0.2067907976 0.9717682410
O -1.5504993198 -1.2114019033 0.7360194279
C -2.3902076435 -1.1796897305 -0.3391068493
C -3.2472544182 -2.2575922972 -0.4913437700
C -4.1239023325 -2.2332621211 -1.5776955784
C -4.1473527879 -1.1709016124 -2.4898206419
C -3.2793083295 -0.1067771326 -2.3173390571
C -2.3753062897 -0.0874904945 -1.2183615477
C -1.4270860246 0.9730178097 -1.0327245754
O -1.3471787505 1.9588951250 -1.8198280822
O -3.2870301332 0.9094936132 -3.1958138214
O -5.0029076048 -3.2380903790 -1.8091828639
C 0.0841755463 -0.4112667708 2.2088603451
C 0.4314725887 -1.7118336230 2.6061980746
C 1.1056967686 -1.9193023259 3.7968608276
C 1.4290724685 -0.8228406866 4.6171207336
C 1.0749996565 0.4653556632 4.2304616148
C 0.4079286207 0.6753642235 3.0311816802
O 2.0853157732 -1.1240783216 5.7706867615
O 1.4472211550 -3.1874324909 4.1562212745
O 3.9073041989 2.6663736810 0.2044659126
O 1.0956108324 3.5811398544 -2.0133025622
O 2.4703821886 2.0656843155 -3.8709699823
H 2.1767605100 -0.6050716620 -3.7542491306
H 3.3795747173 -0.8926046382 -2.4759295696
H 1.7194525935 -1.5148502896 -2.2988284235
H 0.8422619282 0.7942844077 -2.1916021683
H 3.7828072533 1.5907882138 -2.3904373237
H 3.0944236996 3.8603398234 -1.9201945470
H 2.1229033888 3.6151601519 0.4150366163
H 2.0922383441 1.1901382186 1.2530170032
H -3.2318303462 -3.0797509700 0.2155912558
H -4.8380904785 -1.1858479711 -3.3249347838
H 0.1906922216 -2.5672920774 1.9850178797
H 1.3172006211 1.3032834427 4.8780303813
H 0.1196126060 1.6803745549 2.7463913561
H 2.2564369002 -0.3201459729 6.2799514896
H 1.9068478444 -3.1604765517 5.0082104382
H 4.2498922564 1.8291151238 -0.1381073642
H 0.3901373881 2.9790526772 -1.7050648849
H 1.6579879107 2.5954308722 -3.9064333992
H -4.9125039139 -3.9235742246 -1.1324144910
H -2.5771872336 1.5406168508 -2.8939701879
