44
CONF42
C -3.4032889670 -3.1537589869 0.3920410839
C -2.2394597246 -2.3263470312 -0.0977448515
C -2.0408726493 -2.2939800256 -1.6042488112
O -1.3761632436 -1.0423028021 -1.8098661286
C -1.7665476018 -0.1633559231 -0.7597548760
O -2.4983737462 -0.9341268473 0.1797920915
C -2.6941954963 0.9316099262 -1.3331454398
N -3.8837661937 0.3586162741 -1.9246250031
C -4.9945274675 -0.0986816018 -1.3003586736
N -5.8069278328 -0.6772042021 -2.1692301140
C -5.1209421313 -0.5492421201 -3.3409935368
N -3.9492575921 0.0657804589 -3.2471299937
C -0.5167857995 0.4646737815 -0.1472460421
C 0.7081403560 0.3465751542 -0.8103992295
C 1.8786034825 0.9071535255 -0.3203488056
C 1.8347259178 1.6105134170 0.8795179915
C 0.6364767022 1.7589472127 1.5680701462
C -0.5216832897 1.1987134388 1.0449753560
Cl -1.9889214391 1.4536509024 1.9801034236
O 2.9253976416 2.2529042067 1.4182708321
C 4.1878089912 1.7272465826 1.2104349833
C 4.4624418978 0.3774048138 1.4134426966
C 5.7634664942 -0.0862237655 1.2639615173
C 6.7727316938 0.8086389929 0.9237902232
C 6.5035815675 2.1585257021 0.7325466831
C 5.1991839706 2.6183501193 0.8734665788
Cl 8.4136494567 0.2218133208 0.7372667764
H -3.2247371236 -4.2119991059 0.1773910811
H -4.3266457513 -2.8442134063 -0.1066323926
H -3.5276212500 -3.0400236686 1.4717360516
H -1.3028010082 -2.6218159363 0.4014213538
H -1.3909228671 -3.0883595449 -1.9808922574
H -3.0048117021 -2.3133782010 -2.1338520111
H -2.9838415843 1.6229485138 -0.5382968780
H -2.1525266435 1.4760309470 -2.1095823634
H -5.1523079060 0.0143062074 -0.2365992636
H -5.4958707043 -0.9079128822 -4.2906412148
H 0.7302923157 -0.2054864927 -1.7417874428
H 2.8099618479 0.8026086015 -0.8644983189
H 0.6161266289 2.3119980294 2.4989020962
H 3.6656222805 -0.3048510887 1.6889084468
H 5.9943578163 -1.1332689880 1.4212536982
H 7.3025482321 2.8420435287 0.4705871273
H 4.9586814319 3.6654791585 0.7284710020
