39
CONF1227
C 3.3816189610 -1.0909697104 -0.8994058021
C 2.5918414112 -0.8119317917 -2.1769913638
O 1.1757494473 -0.8613053832 -2.0097500874
C 0.6621307747 -2.1639434735 -1.7400668257
C -0.8305114278 -2.0453883891 -1.5663738290
O -1.0537660757 -1.3164054346 -0.3475413491
C -2.2821556131 -0.7641324563 -0.1464861356
C -3.4353601435 -1.1026711770 -0.8478014547
C -4.6396778157 -0.4466339281 -0.5735539382
C -4.6919786439 0.5424329652 0.3985666845
C -3.5408642069 0.8807970747 1.1168711401
C -2.3406295478 0.2289127697 0.8580946340
O -1.1703908458 0.4679990414 1.5139915265
C -0.9720214032 1.7721586177 2.0847428013
C 0.4961602258 1.8855206402 2.4104118980
O 1.2329951655 1.7630616815 1.1995719116
C 2.6456585858 1.7022921233 1.3975005039
C 3.2676619766 1.0397336982 0.1930527541
O 2.9329280312 -0.3489273895 0.2318488941
H 3.2933271713 -2.1431572011 -0.6117245718
H 4.4455326812 -0.8898314235 -1.1078364973
H 2.8017270352 0.1949961489 -2.5498532050
H 2.9221537344 -1.5318138600 -2.9442437662
H 0.8740757067 -2.8452175110 -2.5794284884
H 1.1026038379 -2.5907845681 -0.8279344438
H -1.2701778585 -1.5011200734 -2.4122021899
H -1.2823857674 -3.0442790304 -1.5052170192
H -3.4022665987 -1.8689205113 -1.6138556281
H -5.5306009416 -0.7173285403 -1.1309085821
H -5.6231430868 1.0579548881 0.6099224447
H -3.5841486641 1.6514265189 1.8786021961
H -1.5597182165 1.8946272473 3.0040473640
H -1.2745581988 2.5385688004 1.3589543298
H 0.6781022220 2.8577739451 2.8961401426
H 0.7862259423 1.0894072138 3.1137769400
H 3.0622070838 2.7138411687 1.5235727078
H 2.8805111685 1.1171449154 2.2994784939
H 2.8898378204 1.5177987300 -0.7222824597
H 4.3613057661 1.1683138756 0.2243104821
