49
CONF2
C -1.8044790537 -1.4854365693 -3.9633959465
C -1.1034751322 -2.3484870943 -2.9282466352
O -0.2005539461 -1.5900495644 -2.1110407221
C -0.7122837882 -0.7762970559 -1.1308316582
C -2.0466405193 -0.7455432140 -0.7435538801
C -2.4784300746 0.0991032505 0.2899967426
C -1.5312389617 0.9031797165 0.9181892235
C -0.1917613150 0.8679581380 0.5284090475
C 0.2382186756 0.0387858447 -0.4944824238
C 1.6767873515 -0.0432650841 -0.9453653401
C 2.3446000353 -1.4127771168 -0.6175003227
O 3.4181277265 -1.0671567941 0.3053943413
C 3.4068868333 0.2929231908 0.3744538394
N 2.5268804104 0.9482348463 -0.2690037730
C 4.4468615257 0.8872795223 1.2282400394
C 4.1415766529 1.8342770815 2.2080458353
C 5.1019094950 2.4123295154 3.0209900816
C 6.4299722685 2.0362188862 2.8540873989
C 6.7897738264 1.0978695718 1.8929920494
C 5.7946537255 0.5445402405 1.1062256111
F 6.1469468599 -0.3391150771 0.1567663135
F 2.8586729442 2.1822013130 2.3948559976
C -3.9607137990 0.1004454193 0.6736887268
C -4.8064079534 0.4976562883 -0.5510726098
C -4.2656589147 1.0896417249 1.8050102399
C -4.3698548700 -1.3080668552 1.1444380440
H -1.0678179546 -0.9934067618 -4.6043289531
H -2.4204053502 -0.7137535948 -3.4947421866
H -2.4494873875 -2.1081936380 -4.5914413423
H -0.4642363457 -3.0891829724 -3.4172356192
H -1.8169073030 -2.8938370139 -2.2961144781
H -2.7689864042 -1.3765973663 -1.2457991593
H -1.8183720912 1.5735448030 1.7182271018
H 0.5362974087 1.5049248869 1.0189895057
H 1.7116394315 0.1417576919 -2.0262560371
H 2.7903567169 -1.8941791806 -1.4918574418
H 1.6735152110 -2.1076639337 -0.1084194205
H 4.7987652569 3.1356639229 3.7681623594
H 7.1950957003 2.4809207979 3.4808470467
H 7.8188331732 0.7967026015 1.7389445016
H -4.5209223218 1.4914735575 -0.9103393288
H -5.8694744841 0.5172399462 -0.2866018224
H -4.6803001160 -0.2084123793 -1.3772733749
H -4.0196066926 2.1172824153 1.5193907378
H -3.7151974657 0.8409638966 2.7178311348
H -5.3341087981 1.0552756382 2.0400461818
H -3.7708859723 -1.6145086991 2.0078785229
H -5.4261726303 -1.3175769044 1.4353380674
H -4.2319914942 -2.0548867482 0.3571333632
