45
CONF191
O -0.8075379251 -0.2522612996 -2.9107266894
C -2.1024637016 -0.8336480970 -2.7599442312
C -2.5793768117 -0.8636271398 -1.3244504874
O -1.6404892043 -1.6615663433 -0.5442318161
C -1.4511049176 -1.1016398105 0.7416966829
C -1.4785009459 -2.2551486755 1.7421092606
O -1.1327992704 -1.8493056525 3.0558071385
O -0.1969636273 -0.3995721094 0.8521428226
C 0.9358665046 -0.9648344388 0.2288360012
O 1.2720965387 -0.2371357915 -0.9436680480
C 1.5653077502 1.1654653208 -0.6978177855
C 1.7660924063 1.8372478147 -2.0457415763
O 0.5448593605 2.2284139911 -2.6694764089
C 2.7926791717 1.2570629322 0.2150013155
O 3.1457390925 2.6112392207 0.5038116396
C 2.5213759546 0.4922341898 1.5101411449
O 3.6816523775 0.4193139394 2.3389403438
C 2.1122814548 -0.9376317884 1.2023204336
O 1.7193327057 -1.6529882950 2.3744049673
C -2.5230269150 0.0012504661 0.8773791274
O -2.2295087184 1.0245713371 1.8021010749
C -2.6625288726 0.4642074888 -0.5755664645
O -3.8945544175 1.1432025986 -0.7648554244
H -0.2141935326 -0.6364243577 -2.2414210765
H -2.8021047177 -0.2344349140 -3.3529795670
H -2.1071138734 -1.8582467395 -3.1585210939
H -3.5675103020 -1.3467241053 -1.2953249464
H -0.8050881297 -3.0436315021 1.3700110723
H -2.4933205144 -2.6643133528 1.7719560327
H -0.1937992832 -1.5978339241 3.0220017750
H 0.7384571571 -1.9884713855 -0.1042564851
H 0.7044928449 1.6332510063 -0.1950710477
H 2.3563835351 1.1682999932 -2.6912107363
H 2.3404309984 2.7541432381 -1.8872377210
H 0.0044955417 1.4311520511 -2.8201640671
H 3.6636976146 0.8210441108 -0.2907444062
H 2.3856736903 3.0363841043 0.9270427792
H 1.6983907598 0.9935693561 2.0477921088
H 3.9467039107 1.3256592577 2.5448951588
H 2.9562916805 -1.4475234858 0.7137167408
H 2.4526031085 -1.6098209677 3.0032366903
H -3.4692872298 -0.4540914443 1.1940357016
H -1.3171303483 1.3034196217 1.6371207136
H -1.8082380865 1.1079000131 -0.8337910661
H -3.8282618189 1.6718436636 -1.5692993587
