85
CONF368
C 3.8966669480 0.9385913815 -4.3029259619
C 4.8549143127 1.5165655325 -3.2636788201
C 4.5376943922 1.0632187394 -1.8463722067
C 5.4828954211 1.6244405133 -0.7785298302
C 4.9552329551 1.2354500170 0.6070874898
C 3.5052479442 1.6725085453 0.7786817733
C 2.6378704923 1.1161021755 -0.3580540414
O 3.1791451481 1.4948020029 -1.5978330169
C 1.2069245674 1.6640315176 -0.3509041013
C 0.3911347795 1.0703514455 0.7840778249
C 0.4477919817 -0.4416791920 0.7218196936
C 1.8957784953 -0.9068908510 0.7413856336
O 2.6230497106 -0.3231737912 -0.3446819154
C 2.0006481611 -2.4276749787 0.6095518914
C 1.5172605015 -3.0927725647 1.8610777810
C 0.5795748619 -4.0354846639 2.0168212807
C -0.1905437649 -4.6972181501 0.9045310562
C -1.6961868506 -4.2980218808 0.8349727780
C -1.9207876748 -3.1612526924 -0.1096081340
C -2.4965699172 -1.9824769049 0.1800787941
C -2.7202357210 -0.9818000706 -0.8422288162
C -3.3076466498 0.2235947178 -0.7482619119
C -3.4903926049 1.1547408181 -1.8998698715
O -4.8063811479 1.7128950352 -1.7302189935
C -5.2091273964 1.5791983387 -0.3600378837
C -4.0636539771 0.8453783788 0.4082052157
C -3.2234115493 1.8593067528 1.2681826722
C -3.1774729279 3.2409779029 0.6728917854
C -4.2702335290 3.8048258108 0.1551615943
C -5.5354362946 2.9816297605 0.1408943558
O -6.1252732123 2.8283129784 1.4429129652
C -4.3086145016 5.1719533410 -0.4490374598
C -1.8455570193 1.3226836891 1.6014411131
O -1.5559927724 0.7750595699 2.6398162931
O -0.9719824134 1.5585278941 0.5949006916
O -4.5653433935 -0.0971814085 1.3447694198
C -2.5402487695 -5.5022985631 0.3852116871
C 0.2594847658 -4.5641139583 3.3901776927
C 6.9191274371 1.1370409440 -0.9652479645
H 3.9045569676 -0.1563344010 -4.2712997541
H 2.8729522790 1.2697198553 -4.1161564377
H 4.1823582457 1.2494440471 -5.3123142201
H 5.8791703655 1.2090120545 -3.4999662450
H 4.8324326855 2.6139015950 -3.2936009746
H 4.5658715837 -0.0372772588 -1.8005452815
H 5.4577047824 2.7219286961 -0.8613928864
H 5.0300330472 0.1458816537 0.7257154321
H 5.5810275694 1.6880962924 1.3854919319
H 3.4353406990 2.7661130473 0.7318901852
H 3.1155018118 1.3708266164 1.7560533015
H 0.7469476381 1.3823819000 -1.3042258659
H 1.2341143329 2.7563597786 -0.2924260580
H 0.7317517381 1.4261110310 1.7646105291
H -0.0134910591 -0.7767581664 -0.2137005809
H -0.0979503346 -0.8910183738 1.5532813191
H 2.3630816942 -0.6164120480 1.6984880377
H 1.4452523109 -2.7476618425 -0.2774359408
H 3.0593504823 -2.6698827153 0.4414187841
H 2.0069545941 -2.7355481859 2.7690089081
H -0.1370561021 -5.7821779404 1.0704354990
H 0.2729938950 -4.5137733870 -0.0699874698
H -2.0327987925 -3.9914342133 1.8323778001
H -1.6212932772 -3.3527197408 -1.1440993726
H -2.7864417591 -1.7561985363 1.2032982353
H -2.3464326042 -1.2537859263 -1.8313180692
H -2.7415441953 1.9647897308 -1.8794651812
H -3.4449912918 0.6527946622 -2.8717447291
H -6.1113711289 0.9526766879 -0.2977251877
H -3.7654746136 1.8896966703 2.2192850293
H -2.2337766279 3.7780571084 0.7029950232
H -6.2659276973 3.4237760958 -0.5542781763
H -6.1438261303 3.6963497474 1.8606035163
H -4.5729554014 5.1072629595 -1.5118451949
H -3.3455449015 5.6808725096 -0.3599324736
H -5.0749019396 5.7971197412 0.0273611194
H -4.9866835453 -0.8051078711 0.8406598100
H -2.2086209738 -5.8590582106 -0.5968165943
H -2.4398868677 -6.3290917128 1.0962611294
H -3.5977561441 -5.2338830259 0.3085424529
H 0.8061098073 -4.0261784762 4.1681089327
H 0.5152570362 -5.6290951209 3.4621398272
H -0.8108306858 -4.4838380140 3.6143863712
H 6.9536122376 0.0420583829 -1.0149902731
H 7.5398887190 1.4494963302 -0.1190949241
H 7.3779402490 1.5323617940 -1.8752115573
