48
CONF8
C -0.2530569468 1.8063919043 -1.2972051881
C -0.3495166329 0.2997875782 -1.4588999857
N -1.3238269182 -0.3234052263 -0.5560026993
C -1.4418176676 0.2603729486 0.7878235312
C -1.2759355384 1.7695300522 0.8088796410
N -0.0617304497 2.1542018360 0.1037030722
C 0.2756640419 3.5654973490 0.2993049037
C 1.7423259492 3.8766108914 -0.0009389204
C 2.7332365723 3.2495044569 0.9851455869
N 2.7860111488 1.8033185930 0.9056218143
C 2.1038629359 0.9658840061 1.7556138850
O 1.5157722061 1.1947971570 2.8015179157
N 2.2574395525 -0.2811247150 1.1133646389
C 1.7422483908 -1.4939832128 1.4876681284
C 1.9209165041 -2.5555715812 0.6612426916
C 2.6416175393 -2.3935678274 -0.5628855310
C 3.1564596403 -1.1831505466 -0.9315572705
C 2.9427886249 -0.0678764679 -0.0843592008
N 3.2634906651 1.1985743243 -0.2367805163
C -1.3953438142 -1.7142680239 -0.6157781380
C -0.8296411238 -2.4258432726 -1.6945823250
C -0.8944684698 -3.8091230892 -1.7205941203
C -1.5039908381 -4.5572823105 -0.7241170315
C -2.0670616923 -3.8517972800 0.3351535057
C -2.0158979420 -2.4674335330 0.4034528570
Cl -0.1346249641 -4.6484360438 -3.0710409527
H -1.1609781903 2.2966904487 -1.7072304821
H -0.6497500868 0.0967618100 -2.4935262980
H 0.6498460593 -0.1386164502 -1.3077853245
H -2.4364458171 0.0342411421 1.1862683119
H -0.6975506956 -0.1839019344 1.4682227002
H -1.1974121327 2.0720979023 1.8586047755
H -2.1709514352 2.2604407089 0.3723914336
H 0.0787067912 3.8105837000 1.3508086738
H -0.3749565040 4.2245179709 -0.3105024303
H 1.8767715708 4.9642092687 0.0458631892
H 2.0127841498 3.5742111411 -1.0184173702
H 2.4568018291 3.4873375664 2.0179121486
H 3.7413997735 3.6345159762 0.7961591891
H 1.2184804219 -1.5109374043 2.4363980796
H 1.5008065904 -3.5170459950 0.9273833428
H 2.7667539195 -3.2524711792 -1.2131218854
H 3.6981598825 -1.0371429634 -1.8582085936
H -0.3154602118 -1.9234697219 -2.5000001464
H -2.5550234064 -4.3990638818 1.1357740952
H -2.4614323149 -1.9797491383 1.2589470511
H -1.5363462051 -5.6380280244 -0.7748086773
H 0.6043733244 2.1406060899 -1.8906642210
