44
CONF143
C 3.7790264178 -2.1421755199 -1.6220432232
C 3.3682215043 -0.6741989090 -1.5016370339
C 3.9696965599 0.0081587581 -0.2128841137
N 3.0219961877 -0.1926266615 0.8706821637
C 1.7618150210 -0.8984873620 0.5548612972
S 1.5134024343 -0.5654844440 -1.2287998214
C 1.0291028431 0.0623883997 1.5472966662
C 2.3681413025 0.8398181690 1.5331428779
O 2.7394938569 1.9390414195 1.8672164011
N -0.1253906185 0.7767977815 1.1206075341
C -1.3361306218 0.6515281711 1.7187554523
O -1.5510806640 -0.0809808288 2.6830074136
C -2.4427368996 1.5391870204 1.1254939186
C -3.7349923142 0.7595035306 0.9966672506
C -4.9220018754 1.2378080331 1.5485991509
C -6.1242854863 0.5563762256 1.3732372313
C -6.1434185700 -0.6255376032 0.6335262084
C -4.9620021120 -1.1222268475 0.0762652260
C -3.7735856391 -0.4302973139 0.2612666434
O -7.2878323525 -1.3418334501 0.4210043904
N -2.0083437289 2.1958589153 -0.1211347198
C 5.3431231583 -0.5551462492 0.1240967635
O 6.2691193701 -0.0512444792 -0.7101855516
O 5.5796300517 -1.3502408832 1.0038478380
C 3.7231081581 0.0997267572 -2.7652539981
H 3.2657873497 -2.5961265251 -2.4726673533
H 3.5367458031 -2.7136024035 -0.7217645432
H 4.8582615049 -2.2179813596 -1.7998206951
H 4.0781733116 1.0844320178 -0.3959578873
H 1.7516328302 -1.9648036089 0.7900419872
H -0.0708764794 1.4305727724 0.3468436342
H -2.5896279057 2.3259322346 1.8775914730
H -4.9134911505 2.1587322715 2.1256019953
H -7.0432644581 0.9398366801 1.8089501936
H -4.9886893976 -2.0463587562 -0.4923903598
H -2.8589317262 -0.8267823690 -0.1746262672
H -8.0287683227 -0.8988297512 0.8563938765
H -2.1748283876 1.5701077328 -0.9051230067
H -2.5964235756 3.0062680091 -0.2850412894
H 3.4183748075 1.1468378828 -2.6888209603
H 4.8040990411 0.0567035595 -2.9278829357
H 3.2339283758 -0.3527411866 -3.6324805378
H 0.8249653918 -0.4233257898 2.5061880516
H 7.1297562002 -0.4553707635 -0.5012382805
