49
CONF5
C -4.7360248698 2.0794009486 -1.2129304278
C -3.5656250184 1.1934141370 -1.5808137580
C -2.8787400932 0.3679489057 -0.5335197398
C -2.2148175445 1.6462158388 -1.0332089815
C -0.9340180929 1.4819183907 -1.7441795591
O -0.5837998815 0.5263527973 -2.3981886158
O -0.1436494669 2.5761593520 -1.5229020117
C 1.2467356335 2.4074214892 -1.9286676702
C 1.7591941996 3.7508262711 -2.1798315989
N 2.1895547790 4.8018301859 -2.3870349329
C 2.0004224021 1.6890954922 -0.8325882031
C 2.3343013728 0.3496320093 -1.0013299963
C 2.9328401227 -0.3406255641 0.0492024156
C 3.2001425544 0.2942701638 1.2601661140
C 2.8578920422 1.6339121134 1.4140277874
C 2.2596469738 2.3385537300 0.3754158939
O 3.2929107032 -1.6447272140 -0.1946287179
C 3.1554785580 -2.5768287946 0.8228700860
C 4.1503488854 -3.5403643815 0.9367764242
C 4.0159634671 -4.5413265748 1.8937850225
C 2.9040728258 -4.5735038986 2.7306756587
C 1.9156330839 -3.6008502433 2.6002799134
C 2.0315664205 -2.5987003463 1.6437400450
C -3.3204552384 0.2813609698 0.8929405199
C -2.2955855486 -0.3686845708 1.8376558385
Br -2.9314797025 -0.3161900868 3.6950711871
Br -0.6188365206 0.6883323490 1.7447481955
Br -1.8828538725 -2.2194137601 1.3345618821
Br -5.0413119274 -0.7265243085 0.9642364184
C -3.6640901239 0.6019725584 -2.9682084937
H -5.6696966457 1.5120589543 -1.2663542794
H -4.8006189079 2.9136229659 -1.9189549168
H -4.6541987070 2.4997557836 -0.2072998665
H -2.4174767696 -0.5397174319 -0.9147968054
H -2.2509303905 2.5050194453 -0.3718535811
H 1.2808551208 1.8304599925 -2.8594516667
H 2.1101776419 -0.1751042205 -1.9231647810
H 3.6673824425 -0.2573413720 2.0682614125
H 3.0719443899 2.1339290473 2.3529797117
H 1.9972719587 3.3846248788 0.4975316357
H 5.0089229658 -3.4965919476 0.2758081229
H 4.7896103665 -5.2966712630 1.9865800528
H 2.8062875418 -5.3537765938 3.4776213560
H 1.0389303973 -3.6226345176 3.2400120860
H 1.2584335416 -1.8465519157 1.5309640695
H -3.5644910038 1.2582068301 1.3147829974
H -2.8009089958 -0.0188689212 -3.2106817793
H -4.5688767846 -0.0111541638 -3.0349654920
H -3.7380351789 1.3995181902 -3.7151385642
