71
CONF268
C 6.6972293708 -1.5271579999 2.2770302457
C 6.2649828644 -1.5755999138 0.8402275033
C 5.0573886190 -1.0024677364 0.4084586656
C 4.6214890692 -1.1147267245 -0.9239494829
C 5.4322408678 -1.7939461716 -1.8332066355
C 6.6469551942 -2.3423289981 -1.4325836506
C 7.0531922605 -2.2348674633 -0.1081472848
C 3.3173621802 -0.5071635676 -1.3594354816
N 4.2179487692 -0.3288797548 1.3327420486
C 4.5480913168 0.7826493678 2.0381535864
O 5.6389195488 1.3492034021 1.9869171350
C 3.4445211672 1.2638485367 2.9805067123
N 2.1137536771 0.8483628511 2.5569984116
C 1.5837616868 1.7395832622 1.5179866178
C 0.2535741021 1.2142069648 1.0088715169
N -0.7201231034 1.1227513705 2.1039970723
C -0.1782449991 0.2445289102 3.1484590750
C 1.1543300403 0.7670226501 3.6628999258
C -2.0076527931 0.6019984215 1.6220998926
C -2.7898079934 1.6266144647 0.8045855394
C -4.1267749856 1.0997413476 0.2766303355
C -3.9924632085 -0.0448636004 -0.7462410781
C -5.3260143876 -0.5766140519 -1.2509928491
C -6.5184321772 0.1464428080 -1.1796740740
C -7.7094573069 -0.3716496834 -1.6893262001
C -7.6852250398 -1.6247041406 -2.2712006735
C -6.5276494020 -2.3807792503 -2.3624625243
C -5.3537189308 -1.8432685071 -1.8479778589
F -8.8417703825 -2.1389101291 -2.7691607077
C -3.1070687631 0.3648630474 -1.9114410919
C -1.8475144265 -0.2098806745 -2.0887807428
C -1.0109065753 0.1864914192 -3.1314473532
C -1.4650911142 1.1685024199 -3.9924288658
C -2.7100762076 1.7625058585 -3.8587163752
C -3.5263189692 1.3500738808 -2.8107655193
F -0.6619380058 1.5637841966 -5.0164481204
H 7.4272586659 -2.3141416486 2.4803144960
H 7.1509281271 -0.5605301962 2.5187435998
H 5.8438605329 -1.6549175103 2.9505320718
H 5.1078962838 -1.8832205238 -2.8660876678
H 7.2711640663 -2.8636917459 -2.1517860992
H 7.9895687744 -2.6841774334 0.2107007251
H 3.2957035810 0.5681766447 -1.1522166361
H 2.4650210217 -0.9507270272 -0.8305841122
H 3.1639444134 -0.6568708950 -2.4302431023
H 3.2341586123 -0.5799702169 1.3974166607
H 3.6675907027 0.8219809377 3.9611029799
H 3.5518238869 2.3564891268 3.0854987688
H 1.4532719192 2.7663915538 1.9096411425
H 2.2972610492 1.7875088108 0.6869896056
H 0.4112880845 0.2227847827 0.5353332035
H -0.1209892186 1.8933696844 0.2369038937
H -0.8928641208 0.2013116566 3.9785761300
H -0.0356897521 -0.7880609727 2.7697461772
H 1.5440777078 0.0790794393 4.4215880357
H 1.0038047497 1.7543802037 4.1397211446
H -2.6073330202 0.3224797602 2.4982862372
H -1.8476900400 -0.3244239243 1.0374404574
H -2.9782841586 2.5008815678 1.4386445362
H -2.1927440095 1.9771271696 -0.0446200811
H -4.7504271301 0.7510748890 1.1105627240
H -4.6576495283 1.9382670495 -0.1883249905
H -3.4949310445 -0.8869585267 -0.2518454453
H -6.5410257711 1.1280320713 -0.7202619437
H -8.6381557301 0.1860728938 -1.6337124838
H -6.5513038041 -3.3633765871 -2.8213342369
H -4.4350263343 -2.4205623734 -1.9134434645
H -1.5074756239 -0.9792096180 -1.4014574165
H -0.0307251534 -0.2560869375 -3.2738410944
H -3.0279320950 2.5244666473 -4.5622945512
H -4.5078678083 1.8016846313 -2.6964084902
