45
CONF5
C 0.5381115153 -2.9922719644 2.8160511814
N 1.5059803911 -1.8992480072 2.7151631048
C 2.4395568150 -1.9681965611 3.8387301651
C 2.2329490156 -1.9487929444 1.4385677958
C 1.3954533642 -1.4400137664 0.2669643714
C 1.1729283587 0.0724987618 0.3581533687
N 0.1156487037 0.5302545823 -0.5524647161
C 0.3277361831 1.7955253204 -1.1649686449
C 0.9134901134 2.8494961552 -0.4559927800
C 1.1564982723 4.0683446107 -1.0814288473
C 0.8079990129 4.2486662028 -2.4170653055
C 0.2242688616 3.1987406659 -3.1210227792
C -0.0105394755 1.9651446387 -2.5146724630
C -0.6451338396 0.8233318172 -3.2428094023
C -2.0697518753 0.5855405015 -2.7384118546
C -2.2235303339 0.1159364109 -1.3040347272
C -3.4973814034 -0.3486429884 -0.9580172341
C -3.8071713274 -0.8492471052 0.2990123413
C -2.8051847039 -0.8889077772 1.2615467686
C -1.5348420848 -0.4213786360 0.9577369565
C -1.2117835015 0.0894821580 -0.3148014665
H 1.0251384775 -3.9872058457 2.7938653140
H -0.1849727526 -2.9474363128 1.9968949757
H -0.0175181837 -2.9040332923 3.7555893960
H 3.1335068976 -1.1219678957 3.8008375137
H 1.8861173987 -1.9152751666 4.7822356470
H 3.0339881514 -2.9031903599 3.8439140168
H 3.1238016765 -1.3137720589 1.5358384136
H 2.5957490799 -2.9740866574 1.2266256372
H 1.9098896261 -1.6696799972 -0.6731115152
H 0.4360377406 -1.9642576322 0.2299659426
H 0.9930516322 0.3621535783 1.4043605302
H 2.0921923054 0.5774398141 0.0469930329
H 1.1685712629 2.7189742917 0.5906152751
H 1.6074287691 4.8798842267 -0.5187192959
H 0.9936037338 5.1981164939 -2.9088746796
H -0.0383435803 3.3274898929 -4.1679496324
H -0.6800653293 1.0394517816 -4.3150627235
H -0.0490765872 -0.0866000736 -3.1014482053
H -2.5588848627 -0.1569152183 -3.3807259275
H -2.6368340109 1.5178014497 -2.8664092439
H -4.2679067027 -0.3271663992 -1.7254431362
H -4.8075931143 -1.2081759764 0.5169493950
H -3.0060543163 -1.2744618762 2.2566656007
H -0.7771296734 -0.4533482415 1.7310183358
