41
CONF35
C 3.6966712555 2.5676918936 -2.7945770454
C 2.9358620663 2.4422967447 -1.4705351084
C 1.7056298321 3.3528610637 -1.4896008062
C 3.8344161090 2.8089476408 -0.2850923753
N 2.4095725069 1.0626878101 -1.3099581439
C 3.1643187345 -0.0478357489 -1.2473788777
O 4.3801417522 -0.1148885357 -1.2855344546
O 2.4679885149 -1.2462030132 -1.1174174251
C 1.0715547583 -1.2537671027 -1.0991626797
C 0.3723858877 -1.3269973587 -2.2978064674
C -1.0178362744 -1.3835849155 -2.2363788493
C -1.6945512298 -1.3686491776 -1.0218502559
C -0.9713224823 -1.2839403619 0.1766278673
C 0.4287833959 -1.2267373829 0.1289950616
N -1.5737499952 -1.3126138435 1.4386612504
C -2.8588789413 -0.8613796773 1.7418483984
O -3.5712176551 -0.2915459298 0.9099813400
N -3.2614656766 -1.1167925798 3.0240064814
C -4.4455305284 -0.4421615258 3.5446028148
C -2.4324084778 -1.8081804096 4.0066260998
H 3.0457966097 2.3059484959 -3.6347517378
H 4.0318043872 3.6012643868 -2.9237544317
H 4.5725309977 1.9151425113 -2.8080971048
H 2.0234131934 4.3918210854 -1.6064673059
H 1.0448926449 3.0982351488 -2.3253685196
H 1.1435440947 3.2667262520 -0.5535191197
H 4.7132793470 2.1620625819 -0.2436628990
H 3.2818754314 2.7176567250 0.6553314492
H 4.1694483907 3.8450783962 -0.3919234960
H 1.4057051252 0.9586619221 -1.2769805194
H 0.9069153118 -1.3443920485 -3.2412086151
H -1.5898001454 -1.4533446249 -3.1562403831
H -2.7732170509 -1.4278393785 -0.9982512049
H -5.1112180640 -1.1712438383 4.0191205362
H -4.9732668553 0.0451249142 2.7260013322
H -4.1631225611 0.3112183101 4.2920350884
H -1.6456412551 -1.1607921536 4.4215746836
H -3.0739350455 -2.1282749435 4.8307034446
H -1.9770666066 -2.7050622275 3.5768939356
H -0.9368740134 -1.4530195895 2.2080206863
H 1.0169793063 -1.1602080164 1.0395050264
