20
CONF1
C -0.2249423168 -0.2767512210 0.6659675243
O -0.1527420567 -1.2482916818 -0.4102038257
C 1.1670403386 -1.4997309383 -0.7027558556
O 1.5037496247 -2.2591438615 -1.5888072755
C 2.0022764797 -0.7374211565 0.2019755848
O 3.3568749787 -0.7707421642 0.1772415825
C 1.2040100578 -0.0199440726 1.0152648617
O 1.4765992104 0.8475579235 1.9971934048
C -0.9846314758 0.9765540395 0.2012041777
O -0.2736062340 1.6640436448 -0.8164522890
C -2.4119339146 0.6586977208 -0.2587406547
O -2.4334770544 0.1202581035 -1.5849221047
H -0.7689609361 -0.7388744088 1.5005609833
H 3.6300669652 -1.3942383259 -0.5132352328
H 2.4354863636 0.9457585863 2.1011398108
H -1.0416635468 1.6376835225 1.0758292172
H -0.5647156556 1.2761563251 -1.6569619844
H -2.9789897887 1.5924586664 -0.3077313817
H -2.9018332294 -0.0120656046 0.4601514996
H -2.0386076035 -0.7619651872 -1.5567183495
