59
CONF128
C 5.6659793297 -3.2128978452 -1.1234800755
C 4.8754098751 -2.1508957653 -1.9413878667
C 4.7631265005 -0.9182684475 -1.0224145602
C 4.8832714503 -1.4829321608 0.4073443263
C 5.9801404542 -2.5429588780 0.2285586904
C 3.5678617865 -2.1216090066 0.8595154494
C 2.4626996922 -1.1233933714 1.0860459293
O 1.2854695896 -1.4064627723 0.9126360859
N 2.8263212260 0.1508992764 1.5339566012
C 4.1484285204 0.5782570466 1.6923036807
O 4.3886472488 1.7270873093 2.0360794061
C 5.2408564728 -0.4291966551 1.4466996608
C 1.7518682074 1.1376579719 1.7526861283
C 1.4503105498 1.9252567794 0.4805701588
C 0.3791484776 2.9956393699 0.6990560105
C -0.9409931278 2.4584955189 1.2591244813
N -1.4490680853 1.2876996130 0.5364067970
C -1.8654529572 1.6299784570 -0.8273946419
C -2.3592696789 0.3865983441 -1.5624376109
N -3.4575261857 -0.2337499191 -0.8222186984
C -3.0590986745 -0.5718477493 0.5442465275
C -2.5658419700 0.6789420408 1.2658411819
C -4.7642929553 -0.0182844802 -1.1585680589
N -5.0158247769 0.5405422955 -2.3682232632
C -6.2972036545 0.6859876293 -2.6985650587
C -7.3466045718 0.3030029016 -1.8710498385
C -6.9789372876 -0.2494684500 -0.6493967150
N -5.7125066187 -0.4151276618 -0.2740845606
H 6.5799292223 -3.5291957189 -1.6332060134
H 5.0577946075 -4.1103884780 -0.9744441017
H 5.3740693411 -1.8995858709 -2.8812701799
H 3.8819945597 -2.5296260878 -2.2005958108
H 3.8413980853 -0.3477350654 -1.1840475981
H 5.6055571236 -0.2376617602 -1.1950280516
H 6.0168834697 -3.2492250533 1.0645585763
H 6.9488775786 -2.0300990498 0.1814628490
H 3.1882805115 -2.8550764575 0.1440476781
H 3.7244539310 -2.6484243577 1.8121604157
H 5.4473779000 -0.9150175096 2.4120632771
H 6.1372670399 0.1313441810 1.1666149996
H 2.0753869202 1.8058389232 2.5540621160
H 0.8712743037 0.5827481441 2.0793469701
H 2.3718868373 2.4047142164 0.1306349626
H 1.1282591034 1.2242947381 -0.2978594705
H 0.2071810023 3.5245472637 -0.2450609004
H 0.7507732627 3.7489633885 1.4054047246
H -1.6870288279 3.2779496317 1.2712497254
H -0.7960944327 2.1562773581 2.3038498193
H -2.6699595130 2.3940199651 -0.8229658637
H -1.0128511962 2.0444041205 -1.3757015001
H -1.5421873887 -0.3435512953 -1.6297357825
H -2.6875986944 0.6425578803 -2.5686176848
H -3.8980108414 -1.0164714279 1.0771427073
H -2.2439095089 -1.3049502176 0.4870357587
H -3.4136856167 1.3856018051 1.3798542220
H -2.2213375242 0.4037743169 2.2699960295
H -6.4925737103 1.1347450534 -3.6722682241
H -8.3828197051 0.4325587145 -2.1566495547
H -7.7360953400 -0.5717549152 0.0650487960
