59
CONF23
C 0.2424450353 1.2090703001 2.6465918059
C 1.2241199388 1.5618489764 3.7684952285
C 2.2277788076 0.4095189930 3.6915348399
C 2.4662414074 0.2028309769 2.1784786913
C 1.1448089061 0.7033007968 1.5035374435
C 2.7739065604 -1.2510118811 1.8385599080
C 3.0804030158 -1.4762252261 0.3802576592
O 2.8365001731 -2.5398570604 -0.1719885875
N 3.6755852982 -0.4223808992 -0.3253780862
C 4.0045611128 0.8088278743 0.2496506308
O 4.5648378732 1.6678191732 -0.4176841691
C 3.6722706411 1.0143931538 1.7039904399
C 3.9864897763 -0.6101471111 -1.7593678697
C 2.9833346720 0.0908482646 -2.6758428584
C 1.5353955884 -0.3271730408 -2.4341040211
C 0.5806340726 0.3515466366 -3.4293393727
N -0.8436145468 0.3631224429 -3.0658326152
C -1.3639618160 -0.9803424772 -2.7933298738
C -2.8683798872 -0.9225055875 -2.5354268683
N -3.1437797313 -0.0137002174 -1.4178066233
C -2.6365373343 1.3323583881 -1.7012693419
C -1.1313520603 1.2700629250 -1.9493774035
C -3.1933352128 -0.4801208829 -0.1302979790
N -3.3488983681 -1.8144866616 0.0482514782
C -3.4539833692 -2.2357596579 1.3076126526
C -3.4062595171 -1.3818991329 2.4034783408
C -3.2407676280 -0.0333668676 2.1098691967
N -3.1289059595 0.4344959377 0.8681320771
H -0.3942532248 2.0449311316 2.3412361529
H -0.4158916066 0.4003122144 2.9858230107
H 1.7214754905 2.5160560561 3.5533157567
H 0.7457500947 1.6469031082 4.7489137080
H 1.7680430089 -0.4954353010 4.1093401342
H 3.1613779344 0.5917232342 4.2335909334
H 0.6593819915 -0.0939442444 0.9300913603
H 1.3637674596 1.5154247507 0.8003670128
H 3.6508094659 -1.5917645675 2.4090605350
H 1.9411733248 -1.9122324660 2.0941956612
H 3.5340257653 2.0888162286 1.8520556692
H 4.5650296855 0.7173371216 2.2736909891
H 3.9822788526 -1.6854246590 -1.9415640072
H 4.9939318166 -0.2241090599 -1.9318640968
H 3.0753355594 1.1766663724 -2.5587363352
H 3.2739700676 -0.1424142613 -3.7087730387
H 1.2488439958 -0.0563321042 -1.4110966481
H 1.4485129323 -1.4172577731 -2.5094105067
H 0.6766872607 -0.1382225594 -4.4084819940
H 0.8860656542 1.3981092222 -3.5638625084
H -1.1620821689 -1.6201639132 -3.6615373938
H -0.8818606163 -1.4456544099 -1.9116483233
H -3.2585541769 -1.9150166147 -2.3141342172
H -3.3827872953 -0.5264719205 -3.4193184420
H -2.8614411733 1.9986504876 -0.8698332970
H -0.7590352149 2.2699152560 -2.2030081721
H -0.6431525021 0.9552134851 -1.0065013498
H -3.5787567507 -3.3095092561 1.4451560689
H -3.4882113014 -1.7441182773 3.4204817132
H -3.1906812011 0.7071442087 2.9076553786
H -3.1470427146 1.6981161484 -2.6003299364
