37
CONF5
C -7.9767124167 1.0351547537 0.3798852044
C -6.4963206234 0.7486185241 0.1793017589
N -5.6979701942 1.8955427684 0.6698970545
S -4.2757254010 1.7276080017 1.4642423526
O -4.3565423837 0.5625012024 2.3479480791
O -3.8601346947 3.0504327098 1.9334811665
C -2.9939870404 1.2366758182 0.1201526142
C -1.6602104033 0.6937118966 0.7203447675
C -0.4695690027 0.7015116188 -0.3033012439
C 0.7221803127 -0.2261400738 0.1268974713
C 2.0609413503 0.1035309246 -0.6256745923
C 3.1066735133 -1.0654276352 -0.5527115782
C 4.5678284761 -0.6093564521 -0.8879942936
C 5.5347858087 -1.7909920327 -1.2331838907
F 5.4354120171 -2.7579411706 -0.3101353814
F 6.7922423041 -1.3302453213 -1.2453273389
F 5.2560452105 -2.3020072273 -2.4366413713
F 5.0794054259 0.0405992496 0.1783168716
F 4.5453694965 0.2275292866 -1.9508430874
F 3.0993806368 -1.5816457936 0.6973208614
F 2.7415013904 -2.0278161605 -1.4293003430
F 1.7815803959 0.3488501003 -1.9254157470
F 2.6068658484 1.2094677769 -0.0729454421
F 0.9281051422 -0.0806375339 1.4546702634
F 0.3848040165 -1.5091988135 -0.1334835494
F -0.9322934143 0.2797023889 -1.5024306745
F -0.0134733833 1.9684101845 -0.4250276167
F -1.3223324219 1.4617792704 1.7808081889
F -1.8653710470 -0.5756428045 1.1384298440
F -3.5619959590 0.2895108827 -0.6540310415
F -2.7506296641 2.3313710981 -0.6306108045
H -8.5618893052 0.1954431436 -0.0061396008
H -8.2078346225 1.1666311544 1.4402737503
H -8.2787288500 1.9372596147 -0.1607816207
H -6.1938775559 -0.1332107896 0.7493736253
H -6.2729145597 0.5670286297 -0.8775913153
H -5.7567849472 2.7579905650 0.1342331337
