47
CONF15
C -1.5049811694 0.5554220956 3.1894521849
C -1.5306301207 -0.3316642916 1.9649040111
C -2.8245906905 -0.9729895506 1.5281080315
C -2.2815706000 0.2323424058 0.7561773731
C -1.7805794507 0.0083854265 -0.6080811119
O -1.4501261468 -1.0499766803 -1.0951536724
O -1.6997999053 1.2055394323 -1.2728761761
C -1.1814320817 1.1371808372 -2.6272379093
C -2.0855877291 1.9157334287 -3.4681862094
N -2.7909878999 2.5219668835 -4.1518615406
C 0.2529003289 1.6261171457 -2.6736396207
C 1.1570105443 1.0568244462 -1.7745772081
C 2.4937607929 1.4328243741 -1.7960647078
C 2.9076782292 2.3868537915 -2.7326715390
C 2.0198798597 2.9591078899 -3.6194871951
C 0.6802025980 2.5773594657 -3.5932776739
F 4.2000179396 2.7537164448 -2.7483452358
O 3.4465561139 0.9825304730 -0.9255333543
C 3.2532479019 -0.2087967048 -0.2418363659
C 3.5573486958 -0.2044096425 1.1141570475
C 3.4641709589 -1.3916705223 1.8336934714
C 3.0595441696 -2.5654481436 1.2052888122
C 2.7615236014 -2.5522781964 -0.1551195936
C 2.8637563116 -1.3768257987 -0.8909385446
C -4.0737164536 -0.8286908525 2.2790580018
C -4.9944916560 -1.7820383806 2.4339268279
Cl -4.8619501114 -3.3776371829 1.7588465332
Cl -6.4509717764 -1.5187920174 3.3492372987
C -0.2570315758 -1.1188846697 1.7625881865
H -0.6290664833 1.2113145020 3.1539469173
H -1.4335420131 -0.0570114492 4.0948968605
H -2.3908715297 1.1879576275 3.2753963364
H -2.6965188451 -1.9089431523 0.9933542246
H -2.7650914319 1.1901683674 0.9142789790
H -1.2255165926 0.0873698951 -2.9486464139
H 0.8285491443 0.3146700257 -1.0562359899
H 2.3833412130 3.6999649895 -4.3225327347
H -0.0204763404 3.0267879407 -4.2880427450
H 3.8712388524 0.7220623494 1.5822855671
H 3.7047835183 -1.3945020506 2.8918997216
H 2.9813201159 -3.4879495052 1.7703424093
H 2.4553395365 -3.4657054762 -0.6544392418
H 2.6476110379 -1.3643397961 -1.9535523060
H -4.2877625242 0.1229287091 2.7547625906
H -0.0660391549 -1.7330117719 2.6491044644
H 0.5992460535 -0.4460061825 1.6377705977
H -0.3056949385 -1.7775568285 0.8944907599
