43
CONF1
C -3.4395357061 -2.0583574214 -1.5821176880
C -3.3854094988 -1.6103449568 -0.1112392646
C -3.6097835388 -2.8333799452 0.7927699367
C -4.5492508652 -0.6297966049 0.1193375328
C -1.9997175219 -0.9219954247 0.1712635598
C -0.8008342505 -1.8459095361 -0.2124890350
C -0.0682776200 -1.4786342621 -1.5155418625
C 0.9062309490 -0.3353806861 -1.3681316722
C 0.7328861075 0.8678911539 -2.0563325965
C 1.6291308652 1.9241879120 -1.9113435004
C 2.7163770864 1.7630671268 -1.0635757438
C 2.9314434018 0.5768446754 -0.3737499339
C 2.0217206155 -0.4623627586 -0.5343255426
Cl 3.8497979576 3.0983508104 -0.8510081708
C -1.8952450160 -0.5520879395 1.6716272841
N -0.6608013410 0.1545400274 1.9985129847
C 0.3550936276 -0.2385352283 2.7908342319
N 1.2946567000 0.6998674181 2.8415212389
C 0.7938266361 1.6687805126 2.0305979787
N -0.3923143409 1.3897689382 1.5006643320
O -2.0084178841 0.2798749409 -0.6076045140
H -3.2649440132 -1.2151783041 -2.2559452270
H -4.4327633369 -2.4661000693 -1.7970321234
H -4.5160022777 -3.3534129437 0.4657461117
H -3.7606134688 -2.5458015356 1.8380199795
H -2.7851857852 -3.5514330089 0.7486413542
H -5.4905798542 -1.1378921169 -0.1150795942
H -4.6130417948 -0.2942673761 1.1587167446
H -4.4633096405 0.2481222472 -0.5239662229
H -1.1549905405 -2.8758508355 -0.2928976820
H -0.0637752387 -1.8539718152 0.5974361602
H -0.7870771902 -1.2449202687 -2.3037796746
H 0.4905067769 -2.3662894275 -1.8378367136
H -0.1230378975 0.9891257016 -2.7136778415
H 1.4791621793 2.8552513589 -2.4463966005
H 3.7879512660 0.4676074108 0.2819777682
H -1.8995377876 -1.4554173646 2.2858322540
H -2.7319801560 0.0853036100 1.9669401264
H 0.3596213397 -1.1903402878 3.3062484531
H 1.3031876259 2.6013440376 1.8233550536
H -1.2961767098 0.8576637183 -0.2888795613
H 2.1881346329 -1.3901229059 0.0067099853
H -2.7067963523 -2.8398980522 -1.8039652899
