29
CONF352
C -2.2603188662 -0.7134061151 -1.7601877279
N -2.6725840932 -0.3236131510 -0.4002878498
C -2.9738642905 -1.4176556260 0.5499847820
C -4.3411463902 -2.0279113234 0.2663344784
O -5.4058033129 -1.1032507714 0.4826273709
S -2.3360909288 1.1767581911 0.1758681767
O -2.2309634597 2.1152833950 -0.9437657405
O -3.1979870282 1.4510828741 1.3299506121
C -0.5841492402 1.1716758658 1.0028229898
C 0.5249582729 0.4654654885 0.1733925459
C 1.9811321172 0.7897084693 0.6506108349
C 3.0645999112 -0.2087283805 0.1256387736
F 4.2784482526 0.2929639946 0.3883454042
F 2.9521546794 -1.3960095748 0.7301123832
F 2.9417811887 -0.3755758626 -1.1986800666
F 2.0264541875 0.7704356399 2.0028445821
F 2.3125788760 2.0241790681 0.2156391664
F 0.4124653257 0.8410544686 -1.1213382214
F 0.3223394901 -0.8726230618 0.2592909167
F -0.7057681890 0.5587668058 2.1957665546
F -0.2517811428 2.4657308014 1.2008822797
H -2.0534760698 0.1732262481 -2.3582479629
H -1.3758985427 -1.3584858344 -1.7289315353
H -3.0869733886 -1.2560725950 -2.2258116666
H -2.9631396839 -1.0244464563 1.5692353453
H -2.1950400113 -2.1867653674 0.4630560597
H -4.3800527968 -2.4436399797 -0.7497858739
H -4.4899881977 -2.8514884715 0.9715097465
H -5.3144462483 -0.3918075347 -0.1650616195
