48
CONF20
Cl -2.1187604742 -2.9057909828 4.4706441265
C -2.7572481907 -2.2949071346 2.9463660850
C -4.1212621748 -2.0885831623 2.8206508623
C -4.5827893279 -1.5842621998 1.6050601936
C -3.7155850401 -1.3020982485 0.5629372535
C -2.3317354136 -1.5121281723 0.7032805363
C -1.8585297228 -2.0178571781 1.9246063618
N -1.4680389727 -1.2352032484 -0.3701122883
C -0.0721614712 -1.6302501539 -0.1928590711
C 0.7210468683 -1.4317685928 -1.4752947238
N 0.6510404463 -0.0368199340 -1.8968318729
C 1.5270367269 0.2429642951 -3.0389039278
C 1.8486992356 1.7328848825 -3.1758658490
C 2.8944153682 2.2428212359 -2.1765891974
N 2.5832402792 1.9096497896 -0.7969749717
N 3.2290734423 0.8649297592 -0.1724744806
C 2.5394181969 0.6780674421 0.9312189883
C 2.7192090575 -0.2502874079 1.9856348241
C 1.8096547390 -0.2676915363 3.0051944740
C 0.6974839442 0.6317109607 3.0274918169
C 0.5391296619 1.5386053040 2.0290659507
N 1.4599017387 1.5610096240 1.0165418427
C 1.4503410957 2.3456728908 -0.1556610904
O 0.6305850339 3.1906938784 -0.4829438047
C -0.7449609479 0.2946695138 -2.1709330429
C -1.5792109713 0.1303987061 -0.9129111957
H -4.7971815560 -2.3164647334 3.6350697647
H -5.6477265089 -1.4246946716 1.4687665253
H -4.1132047832 -0.9465903031 -0.3803608760
H -0.8031512907 -2.1721006728 2.1012614498
H 0.4140336138 -1.0526021638 0.6120847986
H -0.0408198722 -2.6906297754 0.0822113935
H 1.7676558477 -1.6886378053 -1.2738978295
H 0.3397457785 -2.1202613750 -2.2574955413
H 2.4619654284 -0.3119710466 -2.8871707387
H 1.0834326060 -0.1302690175 -3.9832099798
H 0.9383776421 2.3309099495 -3.0749553234
H 2.2416654592 1.9255288877 -4.1812990531
H 2.9798339738 3.3324386245 -2.2571401267
H 3.8749101032 1.8021096023 -2.3770283009
H 3.5640591735 -0.9272729874 1.9457306268
H 1.9220863683 -0.9804744193 3.8148763628
H -0.0250242819 0.5913745308 3.8324613818
H -0.2626103306 2.2641288322 1.9522539382
H -1.1574317988 -0.3433605777 -2.9798109211
H -0.8223521811 1.3400831608 -2.4866044129
H -2.6229202474 0.3458383560 -1.1507219241
H -1.2453356838 0.8709269597 -0.1653585320
