52
CONF26
C -0.9688285364 3.8151227900 -3.4137849760
O -1.9879944836 2.9347435032 -2.9198023578
C -1.6006825993 1.9533190361 -2.0591385156
C -0.2819564929 1.7311790395 -1.6546227346
C 0.0068348955 0.6973868608 -0.7630643732
C -1.0127277593 -0.1292123515 -0.2898237223
C -2.3322937771 0.0930608204 -0.6905431927
C -2.6328494600 1.1320639086 -1.5819725169
O -3.9233179183 1.3167502689 -2.0192219354
C -4.6674747898 2.2376668578 -1.1937602779
O -3.3953123055 -0.6520677885 -0.2785582967
C -3.1322871202 -1.7077094552 0.6564300472
C 1.4485079322 0.4973199705 -0.3090526736
C 1.8095454535 1.3008063988 0.9425687428
C 1.1277409957 0.7506159045 2.1823345768
C 1.2873928157 1.9051404280 3.1605006301
O 1.2100101049 3.0983410803 2.3062756802
C 1.5134087398 2.7796915407 1.0201685300
O 1.5626591001 3.6241135598 0.1565229530
C 1.7339577894 -0.5834058322 2.5441268569
C 1.8564027900 -1.4670896593 1.2993205831
C 2.1109374491 -2.8396056217 1.5131771203
C 2.2289339608 -3.6511611116 0.4137596997
C 2.1207009468 -3.1523834717 -0.8805069409
C 1.8927009578 -1.8213990571 -1.1195809284
C 1.7565588212 -0.9637154207 -0.0071784938
O 2.3337741197 -4.1605578128 -1.7869963331
C 2.3141900555 -5.3748997906 -1.0055995098
O 2.5186104009 -4.9929616847 0.3711081757
O 0.9033026265 -1.1752188711 3.5558703707
H -1.4841779733 4.5267614077 -4.0593296247
H -0.4788900323 4.3492005762 -2.5913957211
H -0.2208343620 3.2641485694 -3.9954596937
H 0.5230705429 2.3575987604 -2.0155220519
H -0.7693463997 -0.9503177421 0.3722529222
H -4.1928828771 3.2257759347 -1.1973624381
H -4.7354102435 1.8624652785 -0.1659912071
H -5.6665447170 2.3065150132 -1.6284355575
H -4.1020483382 -2.1573057311 0.8712960858
H -2.6940459091 -1.3133817152 1.5808206978
H -2.4645708464 -2.4612585981 0.2227030919
H 2.0982558276 0.8227394959 -1.1296091268
H 2.9026275807 1.2292866989 1.0812759364
H 0.0601325665 0.6080684267 1.9708246568
H 2.2689097116 1.9033859760 3.6486604595
H 0.4937636903 1.9909817123 3.9025762010
H 2.7435825113 -0.4195794738 2.9539134269
H 2.2093392966 -3.2466827801 2.5137821156
H 1.8118906932 -1.4316263682 -2.1293302863
H 1.3296983366 -5.8517005303 -1.1059691363
H 3.1288941895 -6.0263414060 -1.3265037811
H 1.4381424256 -1.7846683484 4.0778464355
