50
CONF57
C 1.3771786949 3.3408572123 1.0588882380
C -0.0650297879 3.0948415488 1.4354269896
C -1.1799782145 3.8025686195 0.6978894836
C -0.9807569269 2.2843468062 0.5243072149
C -0.4960714250 1.7031339622 -0.7391811581
O 0.2327798345 2.2132410235 -1.5628073994
O -0.9949251374 0.4363246523 -0.8717962846
C -0.5120659142 -0.2893044590 -2.0399657677
C -1.5735787352 -1.2268161484 -2.3976032329
N -2.3814374292 -1.9940771581 -2.7003460670
C 0.7904105348 -0.9938288757 -1.7356891473
C 0.7830616293 -2.1152352187 -0.9071312832
C 1.9879017528 -2.7425817416 -0.6077022531
C 3.1900052430 -2.2512528933 -1.1185744159
C 3.1801898469 -1.1276690196 -1.9323622811
C 1.9826004976 -0.4927709636 -2.2517477589
O 2.0834456795 -3.8275405488 0.2285219185
C 0.9746217932 -4.6418092599 0.4173002641
C 0.6332808532 -4.9562173592 1.7262154799
C -0.4254183601 -5.8291924027 1.9589657580
C -1.1376454892 -6.3711514391 0.8935603279
C -0.7805464287 -6.0464386466 -0.4129935405
C 0.2824957868 -5.1854810637 -0.6608792249
C -0.9052474196 4.7346043507 -0.3992996278
C -1.4756903485 5.9340184405 -0.5458878492
C -2.5024696804 6.4925270749 0.4172417155
F -3.6352089827 5.7415148147 0.4136237463
F -2.8575904727 7.7536787200 0.1449770153
F -2.0309640880 6.4711499069 1.6922159776
Cl -1.0739444988 6.9584429609 -1.8987259223
C -0.2782006776 2.8804623451 2.9177579160
H 1.9973066056 2.5091342005 1.4092977114
H 1.5286965117 3.4434875759 -0.0144918340
H 1.7267438062 4.2541930045 1.5515504597
H -2.0455371419 4.0305816941 1.3095794820
H -1.7178230655 1.6681118367 1.0270434411
H -0.3698995909 0.4211818211 -2.8618682618
H -0.1506942778 -2.4983614596 -0.5094708990
H 4.1131711040 -2.7619148249 -0.8679033674
H 4.1155652122 -0.7471019422 -2.3290188380
H 1.9726244793 0.3898942643 -2.8811315846
H 1.2000800463 -4.5194079839 2.5410218643
H -0.6962545554 -6.0802066150 2.9793577266
H -1.9671098808 -7.0448774417 1.0788297999
H -1.3287826252 -6.4683233132 -1.2488147578
H 0.5706609414 -4.9321434873 -1.6755229257
H -0.1860560617 4.4241087354 -1.1487323571
H 0.0695826442 3.7564629040 3.4754091769
H -1.3328363469 2.7205639308 3.1586315271
H 0.2893599646 2.0092722596 3.2620347789
