60
CONF13
C -0.1571599460 1.1662636185 -2.4247480776
Si -1.2908890002 1.9125896240 -1.1455484522
C -2.4671731827 3.1489896596 -1.8922209894
O -0.4376896051 2.6817485635 0.0319677792
Si 1.0470554744 3.0467682748 0.6275711980
C 0.8007575543 4.0474510011 2.1750705745
C 2.0309615409 3.9709112642 -0.6647848894
O 1.8501756232 1.6781822477 1.0559887322
Si 2.5900683149 0.3010571926 0.5681847819
C 3.6650624845 0.6266154894 -0.9231124522
C 3.5729289437 -0.3449312677 2.0147570227
O 1.4139922976 -0.7744919428 0.1590285945
Si 1.1690978252 -2.3891364961 -0.0619539046
C 0.9635828236 -3.1980805114 1.6075471660
C 2.5893469761 -3.1084784391 -1.0331148629
O -0.1901000293 -2.5691365577 -0.9632925250
Si -1.8138478945 -2.7182904511 -0.7073627603
C -2.6760531077 -2.2208024832 -2.2808601965
C -2.2034867143 -4.4734104727 -0.2137063235
O -2.2647578028 -1.7566565870 0.5493970220
Si -2.5241094677 -0.1631036373 0.8796840590
C -1.4297750879 0.3319438511 2.3014053736
C -4.3333363275 0.0607012463 1.2644541441
O -2.1796732640 0.7112725343 -0.4699305255
H 0.4663087928 0.3849788414 -1.9779086785
H -0.7406425814 0.7043705331 -3.2286412573
H 0.4906684057 1.9226921060 -2.8809355339
H -3.1184572376 2.6745359176 -2.6334229232
H -1.9262647787 3.9628673498 -2.3865439999
H -3.1032243145 3.5895112746 -1.1172328333
H 0.2558015054 3.4601917530 2.9213967059
H 0.2256229917 4.9563790739 1.9724090941
H 1.7604520565 4.3398499435 2.6131497527
H 3.0265382358 4.2307377243 -0.2896228495
H 2.1633215083 3.3728874994 -1.5722220858
H 1.5241048075 4.9000423708 -0.9467492193
H 4.3726815909 1.4408729987 -0.7344693582
H 3.0575512149 0.8990942370 -1.7925792110
H 4.2420270992 -0.2656033315 -1.1897661699
H 2.9169363865 -0.5149513774 2.8751837472
H 4.0751321329 -1.2890828737 1.7772937153
H 4.3408519610 0.3748384187 2.3169427651
H 0.8007758519 -4.2768513103 1.5122759461
H 0.1058233612 -2.7680596824 2.1364798335
H 1.8526047705 -3.0468781426 2.2291227791
H 2.4261941795 -4.1723403674 -1.2339954035
H 2.6906244020 -2.5970811739 -1.9963685172
H 3.5387250656 -3.0115441823 -0.4950184855
H -2.4505912585 -1.1784848260 -2.5246081032
H -2.3524387204 -2.8478650050 -3.1180806640
H -3.7623490694 -2.3183412457 -2.1825940969
H -1.7250457171 -4.7229381481 0.7390300719
H -1.8517139923 -5.1847886227 -0.9679635450
H -3.2822484515 -4.6149183476 -0.0903089132
H -0.3750238519 0.2329861408 2.0252871585
H -1.6067363231 1.3737054484 2.5884163595
H -1.6209542217 -0.3015232496 3.1743093514
H -4.9454559133 -0.2157046385 0.3993820810
H -4.5568497168 1.1031488164 1.5146823472
H -4.6397283992 -0.5647086383 2.1092502701
