33
CONF2
C 0.5990030988 -1.1182449420 -2.0878991258
C 0.2628154503 -1.0326584775 -0.5878302578
C 0.2926792169 -2.4599533498 -0.0108931775
C -1.1366800607 -0.4619384722 -0.3362809959
C -1.5071858039 -0.1321793443 0.9715994899
C -2.7755170680 0.3390199021 1.2571486973
C -3.7399630891 0.5102822756 0.2540130004
C -3.3459537295 0.1791678961 -1.0442288488
C -2.0777525744 -0.2973712828 -1.3486617524
Br -4.6287636847 0.4080537300 -2.4522799773
O -4.9612305768 0.9766961332 0.5784807671
Br -3.2355539955 0.7808656313 3.0497886860
C 1.3010238445 -0.1161194959 0.0678153842
C 1.2413887451 1.2578410965 -0.1816127895
C 2.1945429460 2.1031794212 0.3530876121
C 3.2459140370 1.6439635992 1.1583738834
C 3.2846203607 0.2682209798 1.3979443420
C 2.3361146185 -0.5968610906 0.8663565248
Br 4.6776491088 -0.4301876131 2.4907057687
O 4.1854687691 2.4448031082 1.6970952246
Br 2.0942988519 3.9866252881 0.0078862947
H -0.0565920208 -1.8287012929 -2.6019098159
H 0.5183741802 -0.1431638561 -2.5772883048
H 1.6287444302 -1.4667415511 -2.2048464666
H -0.5124117656 -3.0448975672 -0.4638515290
H 0.1410270889 -2.4622023660 1.0722453026
H 1.2396954976 -2.9605376062 -0.2365445517
H -0.7892193806 -0.2291323153 1.7785840078
H -1.8435678018 -0.5314232556 -2.3785695195
H -5.4927730078 1.0360631973 -0.2309103751
H 0.4376468028 1.6696280433 -0.7818458019
H 2.4226652335 -1.6510363982 1.0939821197
H 3.9994923784 3.3589402746 1.4303458844
