57
CONF4
C -2.5088856488 4.4931637269 1.5090938258
C -2.1915521149 3.2019941408 0.8063718265
C -1.4213048383 3.1885045846 -0.3545215402
C -1.1314627399 2.0021186547 -1.0265755161
C -1.6379610327 0.7949353600 -0.5181731542
C -2.4362435137 0.7838368471 0.6387185774
C -2.6884602296 1.9907736184 1.2872771069
C -2.9984060953 -0.5049321103 1.1670569412
C -1.3171083198 -0.4685509506 -1.1958810220
C -0.1564926885 -1.1287116914 -1.2401491582
C -0.2302964113 -2.3677299582 -2.0651877697
C 0.0415622980 -3.6813815265 -1.3212230552
C 0.2429663652 -4.6767192260 -2.4650664728
C 1.1220790916 -3.8977550974 -3.4593780660
C 0.7157458139 -2.4115176618 -3.2888151514
O -1.6092987747 -2.3620139571 -2.5136484243
C -2.2705933188 -1.2615233846 -2.0078808376
O -3.4316457089 -1.0516052953 -2.2394217509
O 1.0353668380 -0.7601117717 -0.6679965787
C 1.1776315491 -0.9859363448 0.7034264639
O 0.3397767078 -1.5546288965 1.3482898271
C 2.4828404011 -0.4393445915 1.1978693480
C 2.3189400537 0.8090288590 2.1132685905
C 3.7303949657 1.3269368405 2.4182206710
C 1.6169813843 0.4369063023 3.4234603403
C 1.5133884670 1.8880656254 1.3836653748
C -0.2822645581 2.0232230852 -2.2678596851
H -1.7816739943 5.2706533780 1.2610009620
H -2.5177464152 4.3619152300 2.5950230538
H -3.4996334040 4.8602365190 1.2163701475
H -1.0299097179 4.1245027506 -0.7456239943
H -3.2935604236 1.9845470481 2.1907709125
H -2.2077883194 -1.2484561503 1.3092649029
H -3.7247963619 -0.9228308266 0.4612101949
H -3.5024205611 -0.3462874249 2.1230830294
H 0.9680774794 -3.5685074989 -0.7441923940
H -0.7686032941 -3.9214725914 -0.6291384021
H 0.7012428944 -5.6137405706 -2.1369465440
H -0.7268393359 -4.9136122325 -2.9149007072
H 2.1782841846 -4.0270490865 -3.2008387637
H 0.9946350238 -4.2440953005 -4.4879605626
H 0.1849655838 -2.0098591158 -4.1549994686
H 1.5857031024 -1.7745064548 -3.1055772076
H 2.9685089576 -1.2356879263 1.7730198998
H 3.1159713642 -0.1834733750 0.3441276558
H 4.3357733111 0.5601180530 2.9141158102
H 3.6774896990 2.1955117613 3.0825558090
H 4.2473065320 1.6334735312 1.5023423231
H 0.6053173013 0.0642337060 3.2455913550
H 2.1736133763 -0.3360951911 3.9647125047
H 1.5483595524 1.3199786497 4.0673800192
H 1.4716432675 2.8025461635 1.9843192543
H 1.9639366439 2.1375830072 0.4163260099
H 0.4824758990 1.5668432457 1.2035571026
H -0.0926433379 3.0498007526 -2.5895604206
H -0.7682481868 1.4889360922 -3.0907755127
H 0.6848614493 1.5377682576 -2.0941017693
