44
CONF6
C -3.9539982798 -3.9269222771 -0.1794290937
C -2.8177126519 -2.9420426280 -0.3139913650
C -2.2040349178 -2.8339407889 -1.7265209581
O -2.1032996151 -1.4219748204 -1.9748287689
C -2.4008252487 -0.7645665648 -0.7411450253
O -3.3149535676 -1.6110235864 -0.0868563271
C -3.1269389300 0.5463819221 -1.0712784126
N -2.2240439592 1.5108030579 -1.6661879944
C -1.7072420687 1.5350994376 -2.9171000299
N -0.8116911742 2.5023229005 -3.0260341149
C -0.8108102391 3.0439035181 -1.7758731317
N -1.6431303244 2.4763713714 -0.9128993532
C -1.1155193364 -0.5258284320 0.0528959580
C 0.1145783655 -0.6106106526 -0.6049930050
C 1.3158215151 -0.3221253384 0.0237427229
C 1.2937011238 0.0769626284 1.3560906078
C 0.0939936138 0.1701226465 2.0498957734
C -1.0929816541 -0.1264652369 1.3932490425
Cl -2.5658285104 0.0701703314 2.3270591518
O 2.4393032610 0.3416156981 2.0731364285
C 3.4821566944 0.9983969998 1.4462286779
C 4.7703245387 0.6045651832 1.7895708059
C 5.8624207529 1.2763403848 1.2530626871
C 5.6470245982 2.3290272276 0.3715997650
C 4.3600332673 2.7275785251 0.0271457798
C 3.2691632988 2.0615986543 0.5720913588
Cl 7.0219721637 3.1709947068 -0.3178316975
H -4.3725229999 -3.8920799783 0.8294018339
H -3.5936538982 -4.9431960650 -0.3669904085
H -4.7447387233 -3.6946229758 -0.8987718829
H -2.0293708376 -3.1541979406 0.4240063560
H -1.2143684551 -3.3045872971 -1.7798648531
H -2.8577321186 -3.2655363894 -2.4927429022
H -3.9398505471 0.3164165994 -1.7654787448
H -3.5321035528 0.9813337758 -0.1565613766
H -2.0123191766 0.8403498535 -3.6876420757
H -0.1926070304 3.8861925704 -1.4938587546
H 0.1140516769 -0.9017929463 -1.6487243695
H 2.2541310501 -0.3944198272 -0.5137107373
H 0.0939070258 0.4886076147 3.0848963899
H 4.9076833100 -0.2214968087 2.4782596380
H 6.8719252226 0.9800558215 1.5124794186
H 4.2104618664 3.5563360049 -0.6548565882
H 2.2596234718 2.3658832892 0.3178371729
