54
CONF726
C -4.2665495225 0.0173830862 2.6287958356
N -3.9844677012 1.1241434513 1.7035262167
C -4.4228343352 2.4116531827 1.8903358854
C -5.2397973377 2.6610156047 3.1290485623
O -4.1561630996 3.2951917185 1.0759917587
C -3.1763871371 0.8576343278 0.5704166688
C -1.7921213064 1.0537428236 0.6103537958
I -0.9247025176 1.7806687915 2.3969307964
C -0.9844312566 0.7930920389 -0.4953336371
C 0.4968762358 1.0808429764 -0.4664549735
O 0.9235752687 2.1855568054 -0.8120434109
N 1.2713173503 0.0614591288 -0.0582667238
C 2.7271925700 0.1157693160 -0.1432466737
C 3.3578651693 0.8224542490 1.0709451757
O 2.9169610391 2.1286625177 1.2367795382
O 4.7772340270 0.8605104259 0.8789317555
C 5.3632738857 -0.4450052197 0.8833945368
C 6.8690981210 -0.2111552319 0.7907859414
O 7.6019057482 -1.4449314557 0.7519970393
C 4.8146641519 -1.2497334002 -0.3004306004
O 5.2518478939 -2.6086244735 -0.2839219141
C 3.2924213316 -1.2950264468 -0.2486647041
O 2.7505237248 -1.9050994929 -1.4175978315
C -1.5849736671 0.3103732026 -1.6579980144
I -0.3884788189 -0.1214789074 -3.3493265221
C -2.9662999809 0.1010176976 -1.7441956617
N -3.5515753778 -0.3842075785 -2.9297355610
C -3.9545535885 -1.6917904281 -3.0601168215
C -4.5424244021 -2.0424737393 -4.4007324151
O -3.8752348804 -2.4882122010 -2.1315379711
C -3.7460486567 0.3926063387 -0.6183526241
I -5.8421810273 0.1951722084 -0.7213994305
H -3.9886675000 -0.9174779138 2.1385148928
H -5.3322431222 -0.0238828994 2.8667310946
H -3.6863776938 0.1163919649 3.5530539415
H -6.1950037546 2.1278139494 3.0709886940
H -4.7201661213 2.3104302846 4.0260816905
H -5.4307357048 3.7306321197 3.2069628521
H 0.8290504685 -0.8154187475 0.1819931307
H 2.9978876747 0.6878010395 -1.0424393029
H 3.1406820333 0.2644722016 1.9977316585
H 2.5260703011 2.4441551910 0.4034942216
H 5.1215356616 -0.9735984264 1.8229156117
H 7.0939269084 0.3119338865 -0.1444588135
H 7.1938719358 0.4165431968 1.6297213814
H 7.6029203801 -1.8191010327 1.6428661117
H 5.1194623620 -0.7502911172 -1.2361365543
H 6.2147531473 -2.5854343943 -0.1570130597
H 2.9998819786 -1.8677532272 0.6494490906
H 3.1239605689 -2.7953106455 -1.4705267284
H -3.4961610388 0.1955964009 -3.7558731687
H -4.3082299871 -3.0829104487 -4.6301268387
H -5.6317085956 -1.9448357779 -4.3291553135
H -4.1902396254 -1.3909666351 -5.2036524280
