54
CONF260
C 2.8655315551 -1.6420961795 3.0006760590
C 2.5302993598 -0.2690306200 3.5819220138
C 2.3472677691 0.7545306646 2.4889646797
C 2.2182633046 0.3620303128 1.1495517728
C 2.0617079504 1.3048015971 0.1318957058
C 2.0213251171 2.6607699854 0.4306828595
C 2.1404568558 3.0361407981 1.7591664388
C 2.3037787854 2.1211499070 2.7812926863
F 2.0993660550 4.3636708491 2.0706048889
O 2.2486528181 -0.9544489009 0.7606657793
C 1.9622405145 -1.9091128418 1.8115171774
C 2.1133095552 -3.3125830842 1.2120774719
C 1.5216344642 -3.4352266855 -0.1902049862
N 0.1422492307 -2.9351649440 -0.2053843049
C -0.5399039118 -3.1815245423 -1.4807729242
C -1.9759390998 -2.6690371143 -1.4002788026
C -2.0659480977 -1.1647742643 -1.1127405269
C -3.4654952055 -0.5964486516 -1.2574129985
C -3.4437928501 0.8784895965 -0.8618284869
C -2.2860317367 1.5870349746 -1.5178534420
C -1.2312852079 0.8573666895 -2.0835598259
O -1.1668998459 -0.5118129692 -2.0406891354
C -0.1834765534 1.5017231334 -2.7454430950
C -0.1531083605 2.8874978093 -2.8314553479
C -1.1872113965 3.5981412337 -2.2439086604
C -2.2444761116 2.9819916601 -1.6033154681
F -1.1661003078 4.9607237823 -2.3107585949
O -2.7025259570 -3.3675864860 -0.3828127421
O 1.5020073743 -4.2430751617 2.1150143141
H 2.7292942331 -2.4255986604 3.7511127434
H 3.9070757443 -1.6770958948 2.6577552928
H 1.6047732874 -0.3345955870 4.1687425796
H 3.3134693615 0.0655058377 4.2702990294
H 1.9633095181 0.9627687316 -0.8929457223
H 1.8931844222 3.4065353768 -0.3464694487
H 2.4025405107 2.4649367261 3.8067721354
H 0.9100480033 -1.7721457408 2.1115672313
H 3.1758815028 -3.5806837273 1.1710716173
H 2.1684141900 -2.9126092893 -0.9134615640
H 1.5174316556 -4.4982450299 -0.4602270544
H -0.5742011262 -4.2637645399 -1.6568237853
H -0.0268961333 -2.7199340469 -2.3394384609
H -2.4812770975 -2.8778886541 -2.3514649547
H -3.7845409210 -0.7148854539 -2.3007517366
H -4.1557425194 -1.1596068954 -0.6244226963
H -4.3801187106 1.3724362263 -1.1413182763
H -3.3553544972 0.9654496809 0.2291027415
H 0.6095061549 0.9041205744 -3.1834820526
H 0.6560461312 3.4050691892 -3.3348924698
H -3.0449617421 3.5802305416 -1.1780652594
H 0.5455346863 -4.1464133732 1.9927568332
H -1.7039422402 -0.9695768276 -0.0894305582
H -2.0916349871 -3.4424321367 0.3674784402
H 0.1986630934 -1.9275916013 -0.0790132364
