58
CONF4
C -5.2439616049 -3.1516634862 2.2469307125
C -4.7384513921 -2.0439176544 2.9292601772
C -3.3875910104 -1.7331336190 2.8504425930
C -2.5072152489 -2.5223076972 2.0961161414
C -3.0228166912 -3.6329865475 1.4216429552
C -4.3832146742 -3.9417787993 1.4953918569
C -1.0299271801 -2.1294920628 2.0616117171
C -0.1693894553 -3.0571822190 1.1830123202
C 1.3188059840 -2.7074101641 1.1531112436
C 1.6744937737 -1.5126804329 0.2946698410
C 1.2902826416 -1.4507179400 -1.0482174629
C 1.6231558943 -0.3562437926 -1.8326204641
C 2.3641183597 0.7127293569 -1.3054282863
C 2.7663251961 0.6364186120 0.0339975265
C 2.4289741021 -0.4619314178 0.8171830220
C 2.7038051485 1.8835029653 -2.1388573329
C 2.7956152100 3.1642508352 -1.5765127940
C 3.0986523775 4.2768325217 -2.3525665786
C 3.3150414210 4.1024975977 -3.7133607225
C 3.2407032811 2.8498294966 -4.3085086151
C 2.9362471861 1.7491711569 -3.5150932934
Br 3.7291840959 5.6310812081 -4.7989812647
O 1.9719708084 -3.8923205734 0.6434880993
C -0.8689866774 -0.6625737472 1.7137213847
C -1.3536343408 -0.1159111633 0.5532173635
C -1.0825149989 1.2509702729 0.1994261593
C -1.4864809276 1.8411220486 -1.0090709270
C -1.1703388272 3.1616923596 -1.2767187315
C -0.4559255541 3.9168462651 -0.3390975436
C -0.0489597476 3.3538335420 0.8611984297
C -0.3600774831 2.0220994182 1.1168171372
O 0.0579881193 1.5007241467 2.3054192758
C -0.1423038428 0.1652536684 2.6377629939
O 0.3223195232 -0.1869738655 3.7109756140
O -2.0821301621 -0.7995961726 -0.3431547732
H -6.3006973790 -3.3930672911 2.3033940040
H -5.4007340698 -1.4214478882 3.5231668425
H -3.0015999351 -0.8655296165 3.3791177060
H -2.3743408378 -4.2716759955 0.8320744967
H -4.7631399938 -4.8068817181 0.9606616222
H -0.6577572693 -2.2311149329 3.0873730036
H -0.2478213021 -4.0707834688 1.5912710682
H -0.5431849665 -3.0998662604 0.1532301410
H 1.6622148400 -2.5128744383 2.1809794236
H 0.7103889393 -2.2585916643 -1.4845224502
H 1.2780947978 -0.3171965997 -2.8611055490
H 3.3671826152 1.4312585966 0.4650521536
H 2.7537582748 -0.5011016562 1.8537529215
H 2.5971330454 3.3068510125 -0.5199884010
H 3.1519207604 5.2614154762 -1.9022495953
H 3.4247760478 2.7263454567 -5.3695318025
H 2.9022772470 0.7690319595 -3.9795863905
H 2.9078163028 -3.6789744759 0.5306804470
H -2.0405147593 1.2483713435 -1.7275151286
H -1.4782267018 3.6128687802 -2.2137792536
H -0.2091226388 4.9518955567 -0.5521091469
H 0.5104726145 3.9211173006 1.5971109920
H -2.3526592218 -1.6600817784 0.0213956326
