15
CONF25
N -1.2379369345 1.0350969037 0.3955764441
C -0.2529972976 -0.0484122851 0.3547099296
C 0.3909904504 -0.3056559202 -1.0063543410
S 1.3599935588 1.1232475798 -1.6463875451
S 2.8954106578 1.3099269282 -0.2508238651
C -0.9029180146 -1.3455915108 0.8700545031
O -2.1013189393 -1.1587140208 1.4285663026
O -0.3759657645 -2.4364575763 0.8083570755
H -1.6536091876 1.1811292872 -0.5192629176
H -0.8100046674 1.9089437962 0.6748333404
H 0.5437172242 0.1694629907 1.0802764321
H -0.3806422666 -0.4687903248 -1.7711270294
H 1.0333061295 -1.1882610191 -0.9704913430
H 3.7544540647 0.4046737181 -0.7687857514
H -2.2624792990 -0.1805985572 1.3208590721
