19
CONF12
C -2.7455478539 -0.3343366873 -1.1628430993
C -1.7673603735 0.1613983739 -0.1410412426
C -2.1155272886 0.5500272831 1.0907341775
C -0.3461232934 0.1782206427 -0.5871261241
O 0.0113466226 -0.2239920826 -1.6813391018
O 0.4992552062 0.6844090123 0.3327448892
C 1.9106269676 0.6869886040 -0.0097409807
C 2.5530047336 -0.6574384791 0.2656346641
O 2.4844218360 -1.0370883403 1.6429836541
H -2.5056863724 -1.3596464978 -1.4630901139
H -3.7609139643 -0.3097286476 -0.7629780262
H -2.7043850567 0.2781276867 -2.0695631871
H -1.3825348598 0.8980235596 1.8087919042
H -3.1556101996 0.5223941445 1.4017425918
H 2.3447441503 1.4629039722 0.6266977797
H 2.0371133304 0.9605994776 -1.0617009592
H 2.0383831241 -1.4434883894 -0.2941068225
H 3.5943882657 -0.6116243358 -0.0861553494
H 3.0104059359 -0.4057495983 2.1503552510
