65
CONF467
C 1.0303223216 3.0383313624 -0.3752072701
C -0.1837070243 3.0259946799 0.5517094048
C 0.1540558018 2.8010023497 2.0467860720
C 1.0578660692 3.8855748162 2.6244438272
C 0.7688593381 1.4267546384 2.2130465929
O 1.9542857931 1.1982004331 2.3633255207
O -0.1742423326 0.4697153020 2.1275614951
C 0.2681086615 -0.9269391037 2.1624566271
C 0.4382512687 -1.3985251353 3.5980165747
C -0.8578469476 -1.3568610843 4.4232243068
C -2.0460197702 -1.7343682192 3.5943134625
C -2.0425526100 -1.9030374009 2.2584424236
C -0.7902289534 -1.7376014760 1.4190937386
C -1.1395417227 -1.1738076763 0.0231208960
C -2.1564943152 -2.0937605142 -0.6907249943
C -3.3113797127 -2.4073173983 0.2155580796
C -3.2510716794 -2.2921575757 1.5515638862
C -1.5539084772 -3.3935158322 -1.2543457794
C 0.1078389910 -0.8955437683 -0.8215586328
C -0.2065470549 -0.2588332435 -2.1752570975
C 1.0338015158 0.1332436339 -2.9552946054
C 0.7326883224 0.9253647235 -4.2089371796
C 2.0017221932 1.1235620478 -5.0276552326
C 2.5486670611 -0.2357710940 -5.4191721651
C 2.5484379002 -1.2767632796 -4.3244567703
O 3.2019619693 -2.2990720881 -4.4078961415
O 1.7447546159 -1.1238692703 -3.2573202000
O 3.0282652757 1.7785436653 -4.2639203417
C -1.0909305763 -0.0087648354 5.1311101684
H 0.7107789478 3.1359223349 -1.4177160135
H 1.7011136771 3.8731465947 -0.1524377521
H 1.6082833887 2.1119149543 -0.2893523242
H -0.7161186154 3.9816766111 0.4780528395
H -0.8850528652 2.2462372078 0.2332051857
H -0.7985543983 2.7893270531 2.5901600553
H 0.6056430622 4.8688536963 2.4627619096
H 1.1984716692 3.7427271078 3.6997322271
H 2.0437037651 3.8754800061 2.1539865809
H 1.2295950638 -0.9831247996 1.6461824584
H 0.7968572161 -2.4334817779 3.5372141889
H 1.2239268167 -0.8150857155 4.0882190894
H -0.7602119799 -2.1085131747 5.2208259497
H -2.9866120832 -1.8676849955 4.1297736517
H -0.3463805427 -2.7347405197 1.2727868260
H -1.6535736257 -0.2158709376 0.1850168199
H -2.5636766626 -1.5341447315 -1.5442915641
H -4.2312462617 -2.7490694840 -0.2555947368
H -4.1284537097 -2.5119714564 2.1576167377
H -2.3438365457 -4.0096358281 -1.6958151704
H -0.8124579578 -3.1912457947 -2.0335304929
H -1.0759435580 -3.9837261948 -0.4658713078
H 0.7638413934 -0.2025952993 -0.2819314611
H 0.6810497630 -1.8202022122 -0.9596867128
H -0.8127001942 -0.9209879031 -2.8047923088
H -0.7934425263 0.6559174964 -2.0153388362
H 1.7173143246 0.7022892395 -2.3145450105
H -0.0187190029 0.4075099600 -4.8185956452
H 0.3122446668 1.8927062928 -3.9111379552
H 1.7833943378 1.7039664568 -5.9345168971
H 1.9304963652 -0.6548284129 -6.2232460732
H 3.5668377156 -0.1595930799 -5.8096266149
H 2.6896026660 2.6403364036 -3.9881446992
H -1.9910979335 -0.0551071011 5.7530153892
H -1.2189216707 0.7999774066 4.4068968415
H -0.2415699348 0.2338426484 5.7786984666
