21
CONF41
F 0.2732091883 -1.9511238849 -0.1153160194
C 0.2004811528 -0.6036611226 0.0399118878
F 0.5595246524 -0.3033801786 1.3149729401
C 1.2225189958 0.0508352058 -0.9348125662
F 0.9644269380 1.3994464708 -0.9453175533
F 0.9306348344 -0.4214466924 -2.1905634288
C 2.6800361025 -0.2221282663 -0.6379804778
C 3.2680764649 0.4561740631 0.6068127380
O 4.6947063971 0.3700874204 0.5822542103
C -1.2888637324 -0.1534542219 -0.1378775793
F -1.6042991886 -0.0688499960 -1.4504606684
F -1.4432057207 1.0668105499 0.4261058614
C -2.3310653205 -1.1122163460 0.5257625282
F -3.5320023211 -0.5152771820 0.5235580949
F -1.9868047960 -1.3821552835 1.7929747588
F -2.4271234584 -2.2600361658 -0.1554994190
H 2.8274077578 -1.3058664075 -0.5964053414
H 3.2108142759 0.1507270994 -1.5229432053
H 2.9576524994 -0.0562981850 1.5184794490
H 2.9380071211 1.5012299481 0.6652705241
H 5.0160887957 0.9354135645 -0.1319479335
