73
CONF767
C -0.8565178686 3.0690864869 -0.6283414860
C -1.6825975375 2.2701168070 0.3553850722
O -2.9656885413 2.0310730266 -0.2773820789
C -3.8556557682 1.2323452451 0.4861835814
O -3.3364558074 -0.0552987598 0.7612891684
C -3.4008741698 -0.9770813657 -0.3327636765
C -4.5817666381 -1.9219038189 -0.1465060853
O -5.7767297340 -1.1531045644 -0.2623797474
C -4.5479769313 -3.0581426412 -1.1676289330
O -5.6375505517 -3.9562554467 -0.9523832847
C -3.1945984411 -3.7702405670 -1.1091903985
C -3.0168719927 -4.8363184817 -2.1751080751
O -3.1845873833 -4.3262711452 -3.4980333549
O -2.1568508552 -2.7951908129 -1.3336409366
C -2.1118809011 -1.7931809442 -0.3354259992
O -1.0558622995 -0.9213160273 -0.6713539062
C 0.2237566455 -1.2928208698 -0.3730808521
C 0.5690084099 -2.5651530534 0.0839784190
C 1.9056685975 -2.8206896558 0.3700907239
O 2.2503374170 -4.0501138952 0.7825387171
C 2.9027812462 -1.8207855695 0.2059607021
C 4.2970502244 -2.1257601659 0.3822806422
O 4.6999732898 -3.2498625354 0.7442632125
C 5.2636125760 -1.0190087804 0.0550244875
C 4.6336790794 0.3426357742 0.3150304152
O 3.3843682626 0.4607352310 -0.4412662846
C 2.4953449806 -0.5447174482 -0.2579782209
C 1.1709538847 -0.2793137536 -0.5531492799
C 5.5053702777 1.4986218302 -0.0723980714
C 5.8627989534 1.7142168934 -1.4062338407
C 6.6852668754 2.7757824888 -1.7601262677
C 7.1722760586 3.6338720770 -0.7693505093
O 7.9878343379 4.6899973794 -1.0530686403
C 6.8263074117 3.4292139446 0.5665538475
C 5.9919898878 2.3700952290 0.9031870240
C -4.1563960782 1.8918853981 1.8327147570
O -4.9256930109 3.0834560469 1.6377003202
C -2.8511452550 2.1956985007 2.5699611602
O -3.0912740409 2.8798199386 3.8026255916
C -1.9073018165 2.9998166673 1.6792645650
O -0.6358425114 3.1660038215 2.3091474912
H -0.7535779637 2.5197965216 -1.5687737164
H -1.3338293146 4.0331514653 -0.8327858792
H 0.1407463729 3.2500833644 -0.2200289651
H -1.2032016851 1.3046852345 0.5647794813
H -4.7674333203 1.1677991197 -0.1176501011
H -3.4813302224 -0.4434774898 -1.2895384195
H -4.5091107584 -2.3608289856 0.8650907163
H -6.5168716399 -1.7716674330 -0.1888252561
H -4.6919996172 -2.6471511380 -2.1731098364
H -5.5283639569 -4.3619387886 -0.0798321403
H -3.0618889492 -4.2379976357 -0.1174395906
H -3.7780580099 -5.6081605517 -2.0332769548
H -2.0260132824 -5.2956262367 -2.0507821757
H -2.4965654375 -3.6635121022 -3.6419082391
H -1.9424270130 -2.2374779943 0.6598291120
H -0.1509902033 -3.3658809721 0.1887963692
H 3.2442255951 -4.0375098032 0.8826374455
H 6.1723799497 -1.1343691667 0.6520488538
H 5.5425255939 -1.1134485951 -1.0038513691
H 4.3688209619 0.4209192515 1.3785292551
H 0.8664266222 0.7028071864 -0.8925555375
H 5.4889737645 1.0532798434 -2.1828104340
H 6.9536511260 2.9424796211 -2.8000671131
H 8.1477006829 4.7294158608 -2.0059753345
H 7.2064276262 4.1045095461 1.3261438394
H 5.7171121918 2.2193594784 1.9434927766
H -4.7795527830 1.2235687372 2.4350216138
H -4.5112930970 3.5965318593 0.9287327066
H -2.3603906453 1.2513549895 2.8342893517
H -3.6887724016 3.6153412851 3.5992112626
H -2.3536418017 3.9873459792 1.4673988587
H -0.8119375716 3.4808483765 3.2068205517
