65
CONF688
C -2.2313919002 5.0604959719 1.0093442496
C -3.0410416139 3.9698343491 0.3103556883
C -2.2330322876 3.1360416118 -0.7130492531
C -1.7820936282 3.9478620605 -1.9232937719
C -1.0516546277 2.4909761362 -0.0201108944
O 0.1154373899 2.7817303607 -0.1995584900
O -1.4619370273 1.5460125930 0.8515765160
C -0.4335526897 0.8603515386 1.6293550592
C -0.1623024654 1.6291807470 2.9107746326
C 0.9577889537 0.9500503025 3.7140273790
C 0.7795804629 -0.5393176208 3.7306313648
C -0.0678508845 -1.2230336318 2.9380471319
C -0.9588268765 -0.5351411031 1.9208326442
C -1.1114466804 -1.4132337693 0.6609931062
C -1.7756719471 -2.7400930921 1.0836274569
C -0.9847032814 -3.3775934752 2.1944613795
C -0.1925370243 -2.6701562313 3.0181666990
C -2.0121024719 -3.7037483386 -0.0822788887
C 0.2367097076 -1.6152315130 -0.0701265573
C 0.2288328940 -0.9922798357 -1.4676006325
C 1.5788996604 -1.0542078923 -2.1595806839
C 2.0760224540 -2.4597442947 -2.4343031641
C 3.3136123549 -2.4095044432 -3.3130626164
C 2.9428508473 -1.7567602635 -4.6386786976
C 2.1055603822 -0.5036842717 -4.5271781889
O 1.9872595400 0.2810691576 -5.4477119545
O 1.4112646103 -0.2701157440 -3.3988718053
O 3.9045745717 -3.6957390266 -3.5162438757
C 2.3568676207 1.3287347168 3.1948460215
H -1.3939242097 4.6351774246 1.5744302245
H -1.8228172849 5.7831532580 0.2969324229
H -2.8624586534 5.6086478639 1.7151381756
H -3.4650479642 3.2919444696 1.0585608766
H -3.8841956726 4.4179347571 -0.2283353938
H -2.8844266454 2.3185565020 -1.0472892390
H -1.0941798956 4.7466828599 -1.6366300633
H -1.2689638333 3.3118447835 -2.6501072500
H -2.6529102074 4.3965642289 -2.4103155122
H 0.4726243435 0.8122955383 1.0183671478
H 0.1153310248 2.6618774020 2.6741421721
H -1.0863898627 1.6549942964 3.5015053506
H 0.8944466073 1.3073206642 4.7516801622
H 1.3969614748 -1.0957163447 4.4362329407
H -1.9603885629 -0.4270953999 2.3666562259
H -1.8037916458 -0.8995189866 -0.0177362323
H -2.7691996150 -2.4795455035 1.4842454003
H -1.0633539253 -4.4565184654 2.3169750809
H 0.3814823134 -3.1753769898 3.7927848626
H -2.5972073819 -3.2192141786 -0.8708813523
H -1.0720894529 -4.0546087368 -0.5198485382
H -2.5653803282 -4.5839818900 0.2608917546
H 1.0566815961 -1.1785950255 0.5153372757
H 0.4664548740 -2.6820869683 -0.1404729594
H -0.5158525024 -1.4956542032 -2.0982607546
H -0.0677268349 0.0616434977 -1.3976670430
H 2.3265139940 -0.5072726836 -1.5690103917
H 1.2885874486 -3.0500274115 -2.9249464208
H 2.3171730571 -2.9360286324 -1.4792443403
H 4.0897900799 -1.8182497042 -2.8121171158
H 2.3308584491 -2.4622814202 -5.2204160749
H 3.8219775611 -1.5208320552 -5.2435086968
H 3.2484828743 -4.2593935549 -3.9487234348
H 2.4755903090 1.0449009000 2.1438537646
H 3.1352821480 0.8174254132 3.7700890694
H 2.5169493913 2.4082783010 3.2822978456
