47
CONF202
C -7.1152190218 -0.4008253825 2.9462582563
O -6.4534335312 0.2337163681 1.8136826711
P -5.5552489075 -0.6352639925 0.8193395666
S -4.2725025719 -1.8652850006 1.6058271660
O -6.6620953303 -1.2474442401 -0.1565253910
C -6.2816830381 -2.2101457756 -1.1807934485
O -4.9316481136 0.5297277871 -0.1222502241
C -3.7145181532 1.1475942206 0.1792360813
C -2.6461641434 0.9261354892 -0.6810749012
C -1.4396174601 1.5705056591 -0.4429904788
C -1.3016110991 2.4034957315 0.6713516817
C -2.3841006043 2.6104561240 1.5285843516
C -3.6046268912 1.9911782890 1.2754564930
S 0.2119252708 3.3008793867 0.9925054622
C 1.4761432782 2.0722764310 0.6900068514
C 1.3398412176 0.7506590898 1.1250255065
C 2.3647656584 -0.1600135074 0.9069910647
C 3.5317925634 0.2668407338 0.2850884599
C 3.6955514733 1.5810840774 -0.1300351369
C 2.6533654020 2.4835035973 0.0620723862
O 4.5623200357 -0.6658152236 0.1323388108
P 5.0269208033 -1.1567002259 -1.3448353700
S 3.6297236246 -1.4391251934 -2.6588734816
O 5.8634134256 -2.4183111076 -0.8254453988
C 6.5235316617 -3.2714551360 -1.8048005754
O 6.0893916091 -0.0780185968 -1.8722361124
C 7.2444546346 0.2642628802 -1.0443986125
H -7.8391278042 -1.1391949741 2.5921006596
H -7.6248206890 0.4047755584 3.4734903253
H -6.3729947986 -0.8714921343 3.5955355822
H -5.5754423719 -1.7543016698 -1.8800181844
H -5.8420871687 -3.0957922880 -0.7155910725
H -7.2063982089 -2.4700258972 -1.6947873063
H -2.7683610502 0.2652700753 -1.5325879801
H -0.6055720953 1.4161834602 -1.1193416374
H -2.2780109561 3.2531725585 2.3963271244
H -4.4531397607 2.1510858991 1.9316863888
H 0.4325927337 0.4281767110 1.6247225453
H 2.2712843485 -1.1926423936 1.2255440571
H 4.6143361265 1.8970169449 -0.6122369855
H 2.7607743303 3.5072235575 -0.2812721209
H 7.2180897264 -2.6871427659 -2.4151259451
H 7.0688760124 -4.0136074995 -1.2231088922
H 5.7761266352 -3.7574825522 -2.4369969679
H 7.7778682021 1.0376042893 -1.5957858491
H 6.9139951923 0.6502533776 -0.0764857719
H 7.8813387029 -0.6129925549 -0.9085276459
