52
CONF2
C 3.3642232644 -3.0050141993 1.5897472561
N 3.2339882200 -1.7624927103 0.8381090911
C 2.3605219650 -0.8213087850 1.5397426544
C 2.2431515720 0.4787329201 0.7599313208
N 1.7040421826 0.2089178752 -0.5704493794
C 2.5798096710 -0.7184955141 -1.2815211543
C 2.7040870201 -2.0184933430 -0.4990112629
C 1.4226557965 1.4268095410 -1.3225502864
C 0.4396104014 1.1788864216 -2.4733420744
C -0.7282131304 0.2942350950 -2.0261209645
N -1.3618883737 0.8142849655 -0.8125797587
C -1.9877427847 2.0706835298 -0.8498957975
C -2.5380760731 2.5799862427 -2.0322799923
C -3.1420844897 3.8328144303 -2.0547273427
C -3.2413703925 4.5906707278 -0.8941288317
C -2.7196146403 4.0889630807 0.2942989688
C -2.0761019452 2.8563858061 0.3104359725
S -1.2617743585 2.3118344986 1.7943396348
C -1.4836436592 0.5619615701 1.6071948428
C -1.4789116883 -0.0010085366 0.3196072283
C -1.5970242971 -1.3909218766 0.2118321897
C -1.6464364744 -2.1872741148 1.3507432795
C -1.6310558166 -1.6229250904 2.6228044388
C -1.5782094383 -0.2405328708 2.7401364787
C -1.6665221350 -3.6796673608 1.2126366715
F -2.1323662033 -4.0846067502 0.0080353967
F -0.4190544094 -4.2109777557 1.3444923558
F -2.4347470318 -4.2680292924 2.1595669993
H 4.0377999620 -3.6888160117 1.0618883729
H 2.3939662703 -3.5185583154 1.7368680156
H 3.7943018614 -2.7966440465 2.5753371816
H 2.7873775551 -0.6165940441 2.5292900653
H 1.3436382806 -1.2423884634 1.6872904918
H 3.2374919297 0.9669940128 0.7114624810
H 1.5562362724 1.1540586918 1.2839149768
H 2.1558885087 -0.9388694812 -2.2689024552
H 3.5888436812 -0.2858902508 -1.4392568930
H 1.7072808409 -2.5078418880 -0.4530248339
H 3.3860382625 -2.6979460755 -1.0251610254
H 0.9655768229 2.1410500203 -0.6271918059
H 2.3415053518 1.9043935643 -1.7168039712
H 0.0861231403 2.1471623042 -2.8442887927
H 0.9278566704 0.6821669106 -3.3204274294
H -0.3210675195 -0.6841643464 -1.7742951510
H -1.4514472118 0.1505580411 -2.8410769334
H -2.4938044297 1.9953758882 -2.9432074486
H -3.5485567556 4.2079059504 -2.9881199404
H -3.7215417090 5.5627324136 -0.9072887094
H -2.7870392791 4.6638982224 1.2124628808
H -1.6518330945 -1.8580682518 -0.7627392741
H -1.6757047951 -2.2489834007 3.5059852760
H -1.5861823038 0.2250502578 3.7202370664
