49
CONF13
C -1.2331427616 0.8100839295 5.2164947704
C -1.7982517684 -0.3456202015 4.6812394544
C -1.2787786388 -0.9148322283 3.5238171224
C -0.1893307707 -0.3074274374 2.8975794071
C 0.3735994614 0.8609200013 3.4113709951
C -0.1464699608 1.4060102541 4.5808179053
N 0.3661673907 -0.8676235055 1.7173551180
C 1.6889031909 -1.2436890126 1.5656392802
O 2.6189469247 -0.8372156237 2.2386697415
C 1.7271953671 -2.3197131936 0.4970243484
C 0.2928604752 -2.4299318044 0.0299233871
O -0.1341278291 -3.0592509815 -0.9205949855
N -0.4737901277 -1.6058248203 0.8445732074
C -1.6772156698 -0.9875365131 0.3905870998
C -2.7642160650 -1.8007396890 0.0785427746
C -3.9313370242 -1.2165322697 -0.4041206960
C -4.0206469483 0.1660127547 -0.5477477294
C -2.9316620116 0.9688452901 -0.2140851562
C -1.7519709050 0.3985449612 0.2518412775
C 2.7427795370 -2.1114657031 -0.6364890451
C 2.3422433059 -1.0779925606 -1.6807371437
S 2.1695286155 0.6170398258 -0.9460753367
O 3.5877295298 1.1042859102 -0.6534637379
C 1.6112581493 1.4301757492 -2.4740915958
C 0.2935721106 1.2572619059 -2.8901917409
C -0.1353759028 1.9088590945 -4.0424617878
C 0.7428263380 2.7290733046 -4.7508555819
C 2.0531935664 2.8995513146 -4.3101292208
C 2.4973374443 2.2494520373 -3.1597930555
H -1.6420658136 1.2474383013 6.1213432802
H -2.6461937863 -0.8150280279 5.1695013750
H -1.7130888743 -1.8200208499 3.1139283190
H 1.2021031548 1.3330181023 2.8973850520
H 0.2934862988 2.3116057117 4.9858915669
H 1.9928042784 -3.2448047816 1.0284983733
H -2.6921964930 -2.8733045708 0.2154279674
H -4.7784588767 -1.8469913412 -0.6541550714
H -4.9373588576 0.6174683096 -0.9126649858
H -2.9935815016 2.0468331028 -0.3234877331
H -0.8985190106 1.0212151550 0.4980592624
H 3.7048349774 -1.8506280794 -0.1831197717
H 2.8790803447 -3.0646580004 -1.1563053669
H 3.1065775574 -0.9862223992 -2.4598626689
H 1.3801082748 -1.3180861496 -2.1453755018
H -0.3886751557 0.6249320396 -2.3276541188
H -1.1580771432 1.7806474823 -4.3825452138
H 0.4017745960 3.2403450364 -5.6453413399
H 2.7338788605 3.5417445469 -4.8600934726
H 3.5117411624 2.3737767187 -2.7944079198
