41
CONF5
C 2.1034148798 2.8571893003 -1.2143282090
C 2.3224290260 2.1573494840 0.0846236739
N 1.2266777525 1.6596312481 0.6856298393
C 1.4551873399 0.9899930555 1.8143538607
N 2.6533275037 0.8333885833 2.4016747358
C 3.6492495987 1.4074958574 1.7311306019
N 3.5595939285 2.0638112437 0.5628057321
O 4.8859195478 1.3455316099 2.2216796754
C 5.0658419538 0.6577304662 3.4758449211
N 0.4050582138 0.3818715437 2.4645421646
C -0.9412290688 0.1986791632 2.0844481667
O -1.6455839143 -0.5583971739 2.7219846430
N -1.3417642387 0.9432310697 0.9980861630
S -2.8378309260 0.6528062860 0.2253241699
O -2.7628113373 1.4622008847 -0.9932499608
O -3.9093225333 0.8267437280 1.1974121566
C -2.7841284475 -1.0871245192 -0.2421556550
C -3.5256581055 -1.9795044201 0.5209063919
C -3.5968562545 -3.3127407827 0.1308088146
C -2.9504791527 -3.7347503338 -1.0253406150
C -2.2189394297 -2.8317199985 -1.7898244975
C -2.1108736689 -1.4975723336 -1.3978743148
C -1.2076679678 -0.5939124082 -2.1765209859
O -0.2542702075 -0.0124910122 -1.7077012946
O -1.5453673397 -0.5777933262 -3.4757588137
C -0.7125377400 0.2649601058 -4.3050059623
H 1.5464766332 2.1969345215 -1.8866644681
H 3.0539539447 3.1498557708 -1.6585174727
H 1.4822936814 3.7443179018 -1.0517471909
H 4.7647356316 -0.3892776677 3.3874185933
H 4.4820385854 1.1375889059 4.2655695449
H 6.1323440337 0.7347792716 3.6855981321
H 0.6558462231 -0.1513721891 3.2852991387
H -0.5954598856 1.3588636408 0.4184624850
H -4.0384132176 -1.6189387776 1.4043185972
H -4.1676435000 -4.0158934508 0.7274998722
H -3.0167589415 -4.7713155773 -1.3387960060
H -1.7154873966 -3.1573747399 -2.6935829344
H -1.1212846037 0.1743095550 -5.3105349085
H 0.3250984312 -0.0770707571 -4.2730851431
H -0.7691195344 1.2986265674 -3.9547335678
