25
CONF2
C -2.9896137837 -1.0793863660 1.0017125990
C -2.2717280396 -1.3538970382 -0.2965664894
O -1.9274394937 -2.4691056539 -0.6312176582
C -1.9508338999 -0.1349827223 -1.1568991425
C -0.7074004940 0.5317824774 -0.6098411031
C -0.7455612418 1.8014013709 -0.0435125586
C 0.4081018336 2.3819958087 0.4832078355
C 1.6079262223 1.6914620476 0.4553746271
C 1.6532078911 0.4025499613 -0.1088432772
C 0.5059563355 -0.1711333527 -0.6343407880
O 2.8941503416 -0.1777092626 -0.0742649462
C 3.0155257134 -1.4943090175 -0.6097088856
O 2.7329763631 2.2608058325 0.9707918166
H -3.0013437055 -1.9716181470 1.6281809773
H -2.5129158929 -0.2455274629 1.5280416825
H -4.0200319426 -0.7737548884 0.7831870383
H -1.7924378180 -0.4786928104 -2.1832894851
H -2.7842918583 0.5747794000 -1.1382461361
H -1.6794879098 2.3546354281 -0.0190061206
H 0.3901787462 3.3751634271 0.9188393362
H 0.5252576280 -1.1679616726 -1.0604734627
H 2.7623788374 -1.5086401590 -1.6770424246
H 2.3712080923 -2.1989058514 -0.0696609387
H 4.0604773596 -1.7768284233 -0.4777727435
H 3.4557407213 1.6278769581 0.8594875488
