21
CONF4
C -3.2193327244 -0.0739132244 -0.8865869808
C -2.4714694941 -0.8635456618 -0.0231525708
C -1.0776511436 -0.8237710666 -0.0362979089
C -0.4261631113 0.0211564141 -0.9367437515
C -1.1730076250 0.8189403630 -1.8087815001
C -2.5578541392 0.7682975617 -1.7797525880
O 0.9320084495 0.1433327416 -1.0592452987
C 1.7753800307 -0.6406767406 -0.2127112806
C 1.9115571710 -0.0256730181 1.1574987061
C 3.0178595792 0.8854328185 1.4488265230
O 3.0531922850 -0.4815671902 1.8957255826
H -4.3028323198 -0.1115069891 -0.8657090982
H -2.9703092419 -1.5232173679 0.6800288321
H -0.5261876312 -1.4482817365 0.6557365591
H -0.6451160126 1.4662199371 -2.5004897790
H -3.1266581697 1.3917963692 -2.4623524718
H 1.4166952851 -1.6767867553 -0.1507601342
H 2.7557999527 -0.6511517269 -0.6970930409
H 0.9974390613 0.0693156453 1.7453016848
H 2.9107410995 1.6245860224 2.2412825294
H 3.7259093074 1.1310135991 0.6574656974
