49
CONF28
C -4.4462990357 -0.5612569779 -3.8857768177
C -3.8431702726 0.0588100116 -2.6590974192
C -4.2489085305 -0.2823357227 -1.4289316224
C -3.7311425997 0.3096829918 -0.1692674717
C -2.3384612897 -0.0659911447 0.3413643519
C -3.6102653945 -0.4717479306 1.0994582949
C -3.9157978893 -1.9530725135 1.0740472982
C -3.9491052629 0.2021116182 2.4088069882
C -1.4628389509 1.0087658828 0.8325647247
O -1.8056629245 2.1071946369 1.2216117082
O -0.1566575927 0.6211363004 0.7894828201
C 0.7766308303 1.6371332853 1.2396372399
N 2.0918687417 1.1204926748 1.0709117055
C 2.7604305018 0.3123629967 2.0091464357
O 2.3567465670 0.0397999443 3.1169251326
C 4.0322859435 -0.1072237541 1.3530118073
C 4.0727435427 0.4058926586 0.1131608354
C 2.8282910923 1.1919095397 -0.1261132472
O 2.4929808855 1.7905072496 -1.1230604387
C 5.1929191409 0.2313274788 -0.8467074902
C 6.4212294382 -0.3185003788 -0.1050768560
C 6.0398670758 -1.4530316500 0.8561841564
C 5.0841491856 -0.9650028646 1.9562379642
C -2.7713982971 1.0772118411 -2.9134938168
H -3.6747498539 -1.0523335750 -4.4920836160
H -5.2108706259 -1.3002507127 -3.6337181668
H -4.9033550620 0.2054746014 -4.5238937319
H -5.0403661650 -1.0247179533 -1.3323931060
H -3.9384106036 1.3688828965 -0.0149014728
H -1.8285661858 -0.8727843623 -0.1740156415
H -4.9878015539 -2.1213613043 1.2302521835
H -3.6344521211 -2.4127019385 0.1230542200
H -3.3751023076 -2.4650668494 1.8769204071
H -3.7214679160 1.2686496779 2.3879724230
H -5.0181445819 0.0775593234 2.6148040036
H -3.3921559420 -0.2547675785 3.2346002948
H 0.6524385121 2.5374247479 0.6324134383
H 0.5968808438 1.8515481139 2.2964241116
H 5.4124684296 1.1838159357 -1.3426239408
H 4.8795975822 -0.4540089841 -1.6469524921
H 7.1665306786 -0.6670446920 -0.8265676306
H 6.8853755823 0.4947766229 0.4675843252
H 6.9381569107 -1.8844149600 1.3084204212
H 5.5503616152 -2.2548243571 0.2884876134
H 4.6220598881 -1.8024412366 2.4917416707
H 5.6279322752 -0.3899437771 2.7191663635
H -1.9497412416 0.6358710440 -3.4914510863
H -3.1668638167 1.9035906150 -3.5172870107
H -2.3601891401 1.4928922427 -1.9923022413
