30
CONF4
C 3.1929808286 -0.1019489349 -0.4357824076
C 2.0192631733 -0.5053588821 0.4623854622
C 1.0495155475 -1.4616962318 -0.2547723902
C 0.2043995374 -0.7533661586 -1.3182106661
C -0.5969986050 0.4242556821 -0.7337171430
C 0.4051293388 1.3971339426 -0.0860869968
C 1.2552572339 0.7203767398 0.9944613146
C -1.7347807969 -0.0147191902 0.2196768624
C -2.5091112988 1.1908509660 0.7635568764
C -2.7093749312 -0.9733914870 -0.4728955800
H 3.8901589516 0.5468488628 0.1048062163
H 3.7462608474 -0.9853450615 -0.7716345313
H 2.8644266412 0.4389738132 -1.3280994569
H 2.4406098577 -1.0395165037 1.3250121710
H 0.3849383008 -1.9213345233 0.4884491542
H 1.6141800266 -2.2832298747 -0.7130159700
H -0.4562790722 -1.4724315629 -1.8124069523
H 0.8606107925 -0.3631582077 -2.1067537847
H -1.0852202826 0.9494514558 -1.5694998113
H 1.0609344937 1.7887638723 -0.8743272856
H -0.1076351610 2.2688831355 0.3321841015
H 0.6067571372 0.4044507805 1.8220087522
H 1.9644237307 1.4423304118 1.4182424292
H -1.3010543540 -0.5454137608 1.0776066036
H -1.8943531427 1.8285712304 1.4039652016
H -2.8920098325 1.8073078615 -0.0593187682
H -3.3664705597 0.8599468095 1.3583365064
H -3.1098984351 -0.5231067137 -1.3897982646
H -2.2408706634 -1.9236726991 -0.7417272071
H -3.5557888963 -1.2004558722 0.1830139681
