39
CONF121
C 3.5982597392 1.7483704022 -2.8798944331
C 4.2963197198 0.5561628440 -2.2260045461
C 4.3808557364 0.6470254678 -0.6983293674
C 3.0355189992 0.7559399004 -0.0181391522
C 3.0616888524 0.7117006693 1.5135656357
O 1.8925423937 -0.0626047794 1.8700450110
C 1.2399387483 -0.4345852978 0.6577899552
C 0.7623819433 -1.8873799286 0.8026743437
N -0.2783789642 -2.0047762028 1.8059817845
C -0.1521269371 -2.0814315856 3.1467849242
N -1.3487234174 -2.0783738107 3.7206864447
C -2.1922832189 -1.9868183559 2.6536558823
N -1.5920080051 -1.9363285048 1.4716952481
O 2.2344474347 -0.4086327997 -0.3364646656
C 0.0945737484 0.5421673127 0.3604227599
C -0.5792634183 0.5979205425 -0.8642040038
Cl -0.1663862726 -0.4638031788 -2.2046347742
C -1.6254380730 1.4852996838 -1.0934488988
C -2.0134543095 2.3301233368 -0.0629923275
Cl -3.3342898180 3.4506536032 -0.3425695115
C -1.3847708131 2.3054650971 1.1732767132
C -0.3393708399 1.4111271065 1.3639273840
H 3.6579051255 1.6816935211 -3.9704513909
H 2.5374409936 1.7920589293 -2.6119650678
H 4.0624115328 2.6928198793 -2.5735334721
H 5.3171394288 0.4720950290 -2.6165569553
H 3.7802194935 -0.3704409782 -2.5031299150
H 4.9649850334 1.5316141947 -0.4113163546
H 4.9035675173 -0.2304050389 -0.2979364964
H 2.4948890469 1.6515555472 -0.3558727918
H 2.9973711044 1.7086751704 1.9611568627
H 3.9477259760 0.1879484923 1.8899503416
H 0.3662936669 -2.2514058780 -0.1462102461
H 1.6206405701 -2.4943116170 1.1013654726
H -3.2708581334 -1.9635409178 2.7451178069
H -2.1261435692 1.5095706195 -2.0534519565
H -1.7002885310 2.9671966037 1.9711068290
H 0.1624338996 1.3784032006 2.3237649303
H 0.8077699400 -2.1451154345 3.6415324507
