43
CONF112
C 2.2350402759 3.0520771389 -4.2362007049
O 1.9132815101 2.9025029253 -2.8475940814
C 2.0731981973 1.6714399148 -2.2805432575
C 1.7438669182 1.5977806292 -0.9260735449
C 1.8835812016 0.3564397803 -0.3239822884
C 2.3475284850 -0.7910710949 -1.0160567492
C 2.6733541000 -0.6906801356 -2.3672271962
C 2.5316792976 0.5413114996 -2.9930816158
N 2.3905379478 -1.8850401016 -0.1579697741
C 1.9461385390 -1.4113034976 0.9789716432
N 1.6355718560 -0.0788649917 0.9595594671
S 1.7957973869 -2.3591474494 2.5067736243
O 1.7550367674 -1.3070736868 3.6076834393
C 0.0237837093 -2.9898146019 2.2297608876
C -0.9662799914 -1.8860797863 2.0894300595
N -1.3558929689 -1.3311002863 3.2496410851
C -2.1943041919 -0.2940596449 3.2080704765
C -2.6860359457 0.2688927099 2.0331146962
C -3.6207000107 1.4391639562 2.0411058444
C -2.2805336706 -0.3334941487 0.8384610153
O -2.7941666046 0.1612938707 -0.3367915561
C -1.8555181083 0.9556607620 -1.0933864749
C -1.4274677345 -1.4441265970 0.8332755245
C -1.1018665807 -2.1368657273 -0.4590463913
H 3.2918057505 2.8283271511 -4.4228365175
H 1.6030900470 2.4090820853 -4.8597487604
H 2.0362915141 4.0980311395 -4.4713312609
H 1.3882467950 2.4735156912 -0.3952527606
H 3.0267596698 -1.5543151268 -2.9208021643
H 2.7797536852 0.6245117518 -4.0434102621
H 1.3057779625 0.4586618032 1.7492089454
H 0.1129379347 -3.6481804980 1.3628351338
H -0.1558460931 -3.5784142658 3.1335839420
H -2.4966997489 0.1244081164 4.1680199381
H -4.5829959831 1.1738410821 1.5912199570
H -3.2154327901 2.2723178827 1.4580833578
H -3.7966111560 1.7815282279 3.0634608245
H -0.9884984779 0.3620880447 -1.4032855855
H -2.3941036107 1.3091485220 -1.9739953424
H -1.5142705671 1.8099296145 -0.4966540072
H -1.8715649374 -1.9180352646 -1.2019911091
H -0.1407203469 -1.8141393853 -0.8721002088
H -1.0535513287 -3.2201473948 -0.3271709294
