39
CONF4
C -3.1160983385 0.9945706435 0.7426303228
C -2.1268146688 0.0969740540 1.4893773492
C -2.8039415721 -0.5492141420 2.6971250210
C -1.4634767975 -0.9633046246 0.5519912457
C -0.5255665353 -1.9121718180 1.3196580529
C -2.5323873281 -1.7536056050 -0.0872690130
N -3.4174891432 -2.3667982882 -0.5066739066
N -0.7124959263 -0.2380877861 -0.4780584108
C -0.1552135593 -0.8239966660 -1.5592522360
O -0.3177316408 -2.0014157581 -1.8704915258
C 0.6732270416 0.1093661053 -2.4512293382
C -0.2016113891 0.7124586058 -3.5362286344
O 1.2290441434 1.2130888853 -1.7095090293
C 2.1958618644 0.9485171946 -0.7875135754
C 2.6505715934 2.0336408296 -0.0223002908
C 3.6306917861 1.8802227180 0.9460821560
C 4.1606516442 0.6129414227 1.1590252617
C 3.7296387879 -0.4825853982 0.4269506313
C 2.7469270233 -0.3108339933 -0.5435836776
Cl 5.3986436905 0.4059820256 2.3882825333
Cl 1.9611824307 3.6188335417 -0.2896818818
H -3.4579898985 1.7894994609 1.4110900738
H -3.9942903727 0.4203927616 0.4280245093
H -2.6814607434 1.4658909695 -0.1432718760
H -1.2831531545 0.7045246665 1.8466596736
H -3.2880417543 0.2290540420 3.2933602726
H -2.0947249104 -1.0727310482 3.3414454263
H -3.5787200644 -1.2569251743 2.3806134500
H -1.0904562912 -2.5660970215 1.9859867601
H 0.1703826418 -1.3079916887 1.9089967984
H 0.0349588728 -2.5289146586 0.6155302032
H -0.5030198284 0.7345440121 -0.2984049136
H 1.4755253552 -0.4891670093 -2.8970404848
H -0.9907133224 1.3260148106 -3.0924644912
H 0.4062524879 1.3295963191 -4.2020132806
H -0.6599094638 -0.0907398224 -4.1181973606
H 3.9666528493 2.7336966680 1.5223952646
H 4.1467473920 -1.4666963922 0.6049331795
H 2.4183468023 -1.1785329210 -1.1027127642
