40
CONF107
C 3.0099379488 -0.0689287484 -1.4820310387
C 1.9443242631 0.9380208190 -1.1235266794
O 1.7863938746 0.8914222154 0.3287274788
P 0.5795417969 1.6243320147 1.0827952726
S -0.4671244970 2.8999614468 0.0726213994
O 1.2556310209 2.1271119826 2.4420763013
C 1.8098316283 3.4733820689 2.5471672279
C 3.0863308645 3.6299853917 1.7493835958
O -0.2292582305 0.3966528497 1.8281263031
C -0.9831231763 -0.5239734496 1.1622473574
C -1.8006009082 -1.3408429164 1.9385321947
C -2.5588584334 -2.2744471158 1.2488714125
N -2.5099737842 -2.3637933654 -0.0967776799
C -1.6935014801 -1.5276352391 -0.7372178008
N -0.9034816541 -0.6055829998 -0.1527956335
C -1.6374137983 -1.6163128309 -2.2428327231
C -1.9543848159 -0.2610567598 -2.8849649919
C -0.2697973933 -2.1421534519 -2.6976036573
C -3.4806449935 -3.2203491095 1.9511292404
H 3.9597336291 0.1773008313 -0.9994486411
H 3.1587324046 -0.0651507180 -2.5662573107
H 2.7091742726 -1.0747929515 -1.1757517473
H 0.9831801079 0.6995079734 -1.5858641787
H 2.2324018500 1.9569586114 -1.4021035576
H 1.0437001974 4.1888684108 2.2300084348
H 1.9900297863 3.5944525957 3.6175295359
H 2.8941607284 3.5608458436 0.6745148947
H 3.8170886325 2.8661374781 2.0288553033
H 3.5150720728 4.6161520393 1.9542384704
H -1.8345831837 -1.2388395315 3.0159621203
H -2.4055304051 -2.3398630637 -2.5336376298
H -2.9364649779 0.1055187332 -2.5706820501
H -1.9548720845 -0.3560207293 -3.9753242391
H -1.2084531825 0.4873781128 -2.6014170370
H -0.2551558869 -2.2535736462 -3.7863073752
H 0.5227986124 -1.4438499057 -2.4134893268
H -0.0487707479 -3.1153238431 -2.2481599380
H -3.4261154320 -3.1058163782 3.0351530184
H -4.5102712233 -3.0447884404 1.6230086099
H -3.2296846093 -4.2508942032 1.6819500682
