45
CONF12
C -4.7053791190 0.5670583419 1.7858129332
C -3.4511315908 0.8776400265 1.0317301953
N -3.5805100978 1.4429254483 -0.1138694507
O -2.3409096189 1.6871483375 -0.7328142787
C -2.5719807222 2.2149731164 -2.0461962274
C -2.1470272732 0.5399425355 1.6631547975
C -1.2064629419 -0.2978370841 1.0340934332
C 0.0009246744 -0.5518548298 1.6838463754
C 0.2944623666 -0.0117633953 2.9275793542
C -0.6326314282 0.8245266876 3.5335379156
C -1.8452627230 1.0971782836 2.9059991219
O 0.8909071497 -1.4717891249 1.1304784767
C 1.8849531691 -0.9864208939 0.3322043052
N 2.5978088924 -1.9424936434 -0.2487147597
C 3.5791681232 -1.4999541508 -1.0443766645
C 3.8404233430 -0.1482210171 -1.2567554372
C 3.0100783536 0.7327116508 -0.5730147473
N 2.0236404734 0.3262511049 0.2367993492
O 3.2175047265 2.0453409950 -0.7425636958
C 2.3371018241 2.9562541269 -0.0422118151
O 4.3579821531 -2.3833325569 -1.6828772485
C 4.0826879988 -3.7899620798 -1.4849714971
C -1.5537378503 -0.9639367950 -0.2554883768
O -2.6126298986 -1.5273141688 -0.4517516482
O -0.5682180789 -0.8768587506 -1.1560276458
C -0.8208863213 -1.5218160519 -2.4307651676
H -4.7569955048 -0.5090309653 1.9862317892
H -5.5832429451 0.8730174665 1.2138070336
H -4.7131271551 1.0771771829 2.7548418870
H -1.5787142783 2.3774159795 -2.4699625742
H -3.1264103719 1.4981575007 -2.6617813804
H -3.1161052369 3.1645645167 -1.9948607203
H 1.2397321802 -0.2529740996 3.4015374035
H -0.4140197882 1.2622408583 4.5017832144
H -2.5595950260 1.7598703609 3.3825810443
H 4.6332097883 0.1909867162 -1.9096287719
H 1.3006326762 2.8037631990 -0.3544912688
H 2.6791770829 3.9503925501 -0.3280526394
H 2.4228156542 2.8182309506 1.0385180961
H 4.8229413204 -4.3074718151 -2.0943506864
H 3.0722511505 -4.0336486574 -1.8224044206
H 4.1983310878 -4.0599309884 -0.4325217103
H 0.0832452273 -1.3596892408 -3.0159538614
H -1.6846718583 -1.0615788740 -2.9163459395
H -1.0003305927 -2.5890283673 -2.2817839596
