53
CONF202
C -3.2582156338 -3.9821145633 -2.0618215389
O -3.0147564807 -2.7527796972 -1.3211477082
C -3.0746093477 -1.6270069713 -2.0332050273
O -3.2775041555 -1.5602393746 -3.2232012923
C -2.9137029021 -0.3882076409 -1.1235332770
C -4.2255966275 -0.2163806257 -0.3145524948
C -3.9020772309 -0.8815867069 1.0020607257
C -2.5178596535 -1.0509716657 1.1599103875
C -1.8682399915 -0.5485116550 -0.0368018928
N -0.6830410630 -0.0536898159 -0.0797217511
N -0.3286053552 0.5792988007 -1.2364472551
C -1.2568901522 0.6376895222 -2.3782359561
O -2.5941315100 0.7491788557 -1.9067268921
C 0.8480460864 1.2926699555 -1.2896466758
O 1.2913192339 1.7253394089 -2.3420007823
N 1.5411031603 1.4281565857 -0.0584538913
C 2.9507686480 1.2128469289 -0.0613870267
C 3.8000989148 2.1258153519 0.5615972639
C 5.1718136322 1.9065833030 0.5555784548
C 5.6659462192 0.7887440995 -0.0990737263
C 4.8378667589 -0.1286273212 -0.7265739823
C 3.4653195961 0.0843587006 -0.6980294260
O 7.0570395642 0.5365688494 -0.0623667914
C 7.7812664255 1.0591093531 -1.0768307338
F 7.3976998782 0.5976034746 -2.2894942340
F 9.0606501590 0.7195683991 -0.8834813387
F 7.7054337971 2.4089073223 -1.1369330261
C 0.8979683470 1.7827003698 1.1353770386
O 1.3303279462 1.5311720886 2.2391524323
O -0.2109716733 2.4908132516 0.8762527322
C -1.0850124367 2.6914309256 2.0148442714
C -1.9826443293 -1.5713202407 2.3342953339
C -2.8507607361 -1.9467206480 3.3533345671
C -4.2249217010 -1.7857016594 3.1728713481
C -4.7771972189 -1.2517498160 2.0098393450
Cl -5.3057621639 -2.2758580110 4.4681782400
H -3.1698125528 -4.7791048867 -1.3257987172
H -4.2605804349 -3.9598340447 -2.4943655125
H -2.5102459843 -4.0930313209 -2.8493544477
H -4.3946049027 0.8575381702 -0.1713189682
H -5.1000927744 -0.6374379668 -0.8170443435
H -1.0332751828 1.5307959273 -2.9604984400
H -1.1354559497 -0.2614724897 -2.9964740744
H 3.3930689916 3.0037941180 1.0505456912
H 5.8499383170 2.5991063179 1.0410929816
H 5.2585319949 -1.0013927314 -1.2128452895
H 2.7958005281 -0.6290463446 -1.1676178393
H -1.3850184251 1.7231860670 2.4250781400
H -1.9485172685 3.2248670015 1.6200482902
H -0.5790810546 3.2853779011 2.7786926695
H -0.9112154694 -1.6947407224 2.4523445572
H -2.4701517129 -2.3687505123 4.2761823559
H -5.8494575153 -1.1269434319 1.9077072356
