46
CONF5
C -5.2926764373 3.1073356641 -0.3271731833
N -4.4911833862 1.9654129048 0.1026929694
C -3.9921680356 2.0287388430 1.4727591057
C -4.0675390939 1.0725610674 -0.8075046967
O -4.3364138118 1.1127589160 -2.0150310512
C -3.2931722636 -0.1209068947 -0.3091024440
C -1.9339048706 -0.3146736103 -0.5352513265
N -1.2533341849 -1.4152792085 -0.2654606943
C -1.9229281358 -2.4351350470 0.2818600462
C -3.2829546672 -2.3612738944 0.5721801010
C -3.9728880823 -1.1963893264 0.2707399892
S -0.9256685486 1.0067898078 -1.2906070604
O -1.5406630635 2.3029124802 -0.9904565312
O -0.6173953524 0.6506237110 -2.6827918999
N 0.5624494094 0.8763300477 -0.4913890494
C 0.6083412097 0.8238232563 0.8929719678
O -0.3060984562 1.1924079887 1.6171708710
N 1.7928325437 0.3438854534 1.4300414727
C 2.8921754152 -0.2616404396 0.8271598293
N 3.8491437175 -0.6350341212 1.6774831162
C 4.9107107186 -1.2271037419 1.1197123505
C 5.0310876902 -1.4529159376 -0.2503800393
C 3.9631723113 -1.0181420284 -1.0241648479
N 2.8876515569 -0.4162431637 -0.4975255310
O 4.0223919456 -1.2143163354 -2.3446735752
C 2.8975317678 -0.7725030559 -3.1427079819
O 5.9207580403 -1.6331816782 1.8968872791
C 5.8077908943 -1.4072192881 3.3226522214
H -6.0402670821 3.3242378340 0.4413542954
H -5.7901640865 2.8749437415 -1.2684815064
H -4.6578613699 3.9923906724 -0.4619697442
H -3.4236178111 2.9558720934 1.6139474881
H -4.8313170203 2.0176438644 2.1764732257
H -3.3359960629 1.1847913217 1.6842156414
H -1.3507752842 -3.3335584959 0.4972430166
H -3.7898141637 -3.2055199915 1.0257309359
H -5.0347910579 -1.1082082092 0.4791786633
H 1.3103913706 0.3531389676 -0.9808633673
H 1.8261768521 0.3822423382 2.4407632249
H 5.8972412368 -1.9355559911 -0.6823952532
H 1.9838561247 -1.2884175949 -2.8347405350
H 3.1576892747 -1.0406129740 -4.1658231903
H 2.7669879477 0.3096165319 -3.0552959201
H 6.7284533920 -1.8112370381 3.7421503324
H 4.9400937805 -1.9346930127 3.7258265466
H 5.7266646101 -0.3386955323 3.5355374669
