44
CONF25
C 3.9251037304 -0.6470307309 -0.4433321342
C 2.9750590705 0.3049406595 -1.0860631948
N 1.7016688536 -0.0977879516 -1.2124649419
C 0.8608870713 0.7707932186 -1.7899223180
N 1.2229071161 1.9715085085 -2.2604236205
C 2.5143378079 2.2517531412 -2.1060164373
N 3.4406012206 1.4760508493 -1.5194232169
O 2.9877859651 3.4109847808 -2.5513953215
C 2.0563779895 4.3149084239 -3.1996920084
N -0.4816817720 0.4434990497 -1.9242564849
C -1.3470494250 1.4037597579 -2.6364165314
C -1.1426807756 -0.6528154638 -1.3184491296
O -2.3613408695 -0.7325818975 -1.3218701063
N -0.3268657617 -1.6101297777 -0.7579770891
S -0.9511885720 -2.8319475240 0.2386137956
O -1.8795884122 -3.6537993400 -0.5426718522
O 0.2481500804 -3.4474417982 0.8259241704
C -1.8816987035 -2.0244940913 1.5485013575
C -3.2686042943 -2.0895248232 1.4877701168
C -4.0212070032 -1.5768324019 2.5400799343
C -3.3844936271 -1.0293138029 3.6485197494
C -1.9946395949 -0.9839864409 3.7094126834
C -1.2232947956 -1.4684840242 2.6528568285
C 0.2602418905 -1.2844216263 2.7141868622
O 0.8962691066 -0.6531269866 1.8947585917
O 0.7726811286 -1.8421012050 3.8140670730
C 2.2038100946 -1.6569453772 3.9980745125
H 4.7854877007 -0.1163628959 -0.0345847772
H 3.4199586361 -1.2233998604 0.3345822137
H 4.2842982059 -1.3531109281 -1.2019037796
H 2.6587047225 5.1771445884 -3.4819314740
H 1.2667192586 4.6063568601 -2.5037654366
H 1.6223762243 3.8409565890 -4.0828282467
H -0.8563246746 1.7084208317 -3.5601701315
H -1.5338260761 2.2867088964 -2.0186453839
H -2.2884140573 0.9080106495 -2.8586734222
H -3.7500981547 -2.5466257663 0.6321500578
H -5.1039367494 -1.6190784099 2.4935486646
H -3.9688872691 -0.6391126499 4.4750078328
H -1.4980369756 -0.5568865456 4.5740975053
H 2.4410190518 -2.1738083865 4.9262311102
H 2.7441602777 -2.0982370690 3.1576020590
H 2.4335291647 -0.5920486225 4.0749101694
H 0.6798793650 -1.3509918568 -0.6520025423
