38
CONF12
C 2.6775422704 -0.1649538697 -2.3107811254
N 1.6093762413 -1.0768954226 -1.9007934894
C 1.7033358331 -2.3257787500 -2.6576959122
C 0.2846816156 -0.4789987683 -2.0990609553
C 0.0086506958 0.7298626199 -1.2069128171
C 0.2133041470 0.4280762373 0.2856021074
C -0.7114516193 -0.6818579754 0.7547354471
C -0.2014425700 -1.9200337477 1.1462026384
C -1.0433200501 -2.9519580141 1.5559311350
C -2.4127712833 -2.7266387266 1.5712866761
Cl -3.4932696339 -4.0223676789 2.0877728720
C -2.9557811364 -1.5041802806 1.1924943965
C -2.0956414461 -0.4894774989 0.7866667755
C 0.0630063236 1.6395433637 1.1887975366
C -0.6170325573 2.7975251637 0.8079390862
C -0.7307439025 3.8474826920 1.7136922310
C -0.1615477882 3.7157205495 2.9737670285
C 0.5010341790 2.5280488663 3.2697184502
N 0.6153733197 1.5111535252 2.4091288126
H 2.6751553346 0.7370427123 -1.6913372801
H 3.6463265642 -0.6582098328 -2.1812256820
H 2.5853372119 0.1423796082 -3.3710550939
H 1.5821373047 -2.1717694264 -3.7478387904
H 0.9260705158 -3.0214190021 -2.3229976540
H 2.6800763257 -2.7905540580 -2.4866478728
H -0.4606641584 -1.2548093214 -1.8813788426
H 0.1383333799 -0.1793714086 -3.1567177188
H -1.0269258407 1.0379882445 -1.3930467211
H 0.6427803304 1.5773500924 -1.4917353077
H 1.2390545880 0.0685325285 0.4197902232
H 0.8712811529 -2.0876575338 1.1266016094
H -0.6373330194 -3.9113968532 1.8565607921
H -4.0281632646 -1.3456000200 1.2150744725
H -2.5175770247 0.4683447768 0.4943975781
H -1.0528406740 2.8829795308 -0.1805952688
H -1.2567466599 4.7553976531 1.4348738436
H -0.2238519979 4.5087953616 3.7109814378
H 0.9642467906 2.3877049597 4.2453404898
