50
CONF343
C -0.5462046258 2.4125550792 -1.9230159951
C -1.9423834028 2.6930480418 -1.4110446378
O -2.4798253667 1.6548742328 -0.5714616747
C -1.9205685013 1.4078172475 0.6470233370
C -0.9449743306 2.1956903563 1.2627579857
C -0.4585092140 1.8576052685 2.5257727981
C -0.9469104696 0.7407015884 3.1934238683
C -1.9330041265 -0.0383790862 2.5907923606
C -2.4265289963 0.2821906142 1.3315350640
O -3.4744432802 -0.4629738250 0.8417239722
C -3.2854836236 -1.1716028610 -0.4110359108
C -1.9809970937 -1.9205183109 -0.4679890802
O -1.9668483498 -2.8933884544 0.5803500140
C -0.7689928259 -3.6641773626 0.6530965434
C 0.3848107029 -2.9504304247 1.3261535379
O 0.9133386571 -1.9885267282 0.3992372164
C 1.9099934939 -1.1628344456 0.8197621571
C 2.5296711739 -1.2228895132 2.0625693171
C 3.5588049342 -0.3284078237 2.3763127151
C 3.9711748330 0.6122921772 1.4453988045
C 3.3522911637 0.6824851966 0.1919357847
C 2.3114071275 -0.1844510970 -0.1215397302
O 1.6073129400 -0.1886262781 -1.2894642277
C 1.8910796037 0.8231626897 -2.2647096847
C 0.7197861757 0.8731190651 -3.2271692197
O -0.5359354138 1.1627717037 -2.6084613027
H -0.2691812932 3.2354393413 -2.6027811091
H 0.1733299618 2.4009936000 -1.0967093424
H -1.9509030498 3.6580288775 -0.8875408346
H -2.6458975951 2.7445013436 -2.2457398963
H -0.5734113885 3.0895288150 0.7774915842
H 0.3032637123 2.4818355079 2.9821393657
H -0.5673922693 0.4729509429 4.1740491272
H -2.3409838446 -0.9121039681 3.0890398405
H -3.3341253962 -0.4781452167 -1.2572697899
H -4.1328788180 -1.8613546059 -0.4566808911
H -1.8993422906 -2.4117665444 -1.4515094729
H -1.1415790790 -1.2212372593 -0.3681304460
H -0.4647730041 -4.0062175676 -0.3483296719
H -1.0139677731 -4.5437877666 1.2577931164
H 0.0387454205 -2.4442948171 2.2375923748
H 1.1624416540 -3.6812986437 1.5913066956
H 2.2213798607 -1.9635881206 2.7908634032
H 4.0335021566 -0.3847716131 3.3504468163
H 4.7783568968 1.2995889353 1.6768161525
H 3.6938338460 1.4142657743 -0.5300739944
H 2.8051768758 0.5720508814 -2.8205923407
H 2.0440507473 1.7926858983 -1.7788056742
H 0.9518324644 1.6247836346 -3.9985980362
H 0.5904612053 -0.0991942780 -3.7117299706
