32
CONF4
C 3.2094604752 1.6670969341 0.0041594041
C 2.4768957612 1.3343605470 -1.1212803949
C 1.7765541033 0.1244457240 -1.1932398118
C 1.8483148703 -0.7614340490 -0.1018057389
C 2.5955923763 -0.4587625616 1.0230743555
C 3.2580982803 0.7616250964 1.0580039181
N 4.0415163670 1.0960114130 2.2553070693
O 4.6027189890 2.1866103082 2.2840238573
O 4.0915111820 0.2683310062 3.1599037911
Cl 0.9755083051 -2.2744245792 -0.1472220136
N 1.0375965751 -0.1806663981 -2.3547736006
S -0.4222088404 0.7072970537 -2.6149425978
O -1.0275715965 0.0897443218 -3.7968046689
O -0.0666339148 2.1273649614 -2.5780637557
C -1.4221208089 0.3412535187 -1.1749604124
C -2.2928087908 -0.7390134791 -1.2244904094
C -3.0149624658 -1.0846210961 -0.0875069844
C -2.8324859712 -0.3384553251 1.0857167090
C -1.9588922898 0.7437326402 1.1201936794
C -1.2465907440 1.0932848698 -0.0183712665
Cl -3.6936916781 -0.7293968070 2.5491680175
C -3.9606615844 -2.2586348584 -0.1468286886
F -3.9856435903 -2.8150301733 -1.3758109331
F -3.6040267893 -3.2358808373 0.7204256365
F -5.2323913053 -1.9030494819 0.1491508884
H 3.7512157617 2.6022998004 0.0571571707
H 2.4442094378 2.0053288305 -1.9706308809
H 2.6471033575 -1.1429606052 1.8598322579
H 0.8246028010 -1.1737834271 -2.4510513047
H -2.4078415219 -1.3068549097 -2.1394700470
H -1.8399676212 1.3119563569 2.0350807518
H -0.5723989287 1.9422257035 0.0009001058
