41
CONF72
C -4.1212604392 -0.0669819187 3.3573834361
C -4.0308039294 -1.0035134159 2.1531675085
N -3.5375929913 -0.3325828129 0.9485765393
C -4.5455487178 0.1998085870 0.0415031866
C -4.8755935734 -0.7345482462 -1.1149242955
O -5.4997622052 -1.8950459929 -0.5629436663
C -2.2005854369 -0.1751203565 0.7092803826
C -1.2256158207 -0.6110663964 1.6416030527
C 0.1180215570 -0.4495410966 1.3846690774
C 0.5727303524 0.1497753549 0.1998829061
C -0.3856913944 0.5893886017 -0.7334205235
C -1.7289044184 0.4320196822 -0.4889772961
N 1.9484693559 0.2569271238 0.0547151072
N 2.3452367451 0.7898710977 -1.0253874291
C 3.7430162619 0.8880846195 -1.1382299363
C 4.6637213173 0.4612412516 -0.1637444173
C 6.0193535561 0.6090735532 -0.3828885049
C 6.4575755509 1.1833379212 -1.5766514652
C 5.5675639956 1.6134830015 -2.5556513856
C 4.2106480576 1.4630697540 -2.3292545309
N 7.8999923672 1.3384222313 -1.8064904079
O 8.2577722273 1.8446009188 -2.8662492863
O 8.6629723449 0.9534520199 -0.9250846121
H -4.4931517993 -0.6098906183 4.2318850475
H -4.8092763481 0.7595937507 3.1539878247
H -3.1460334534 0.3612042247 3.6048510142
H -5.0148125576 -1.4131762384 1.9126932560
H -3.3923252020 -1.8656730616 2.3719646887
H -4.2352430589 1.1749054811 -0.3500379347
H -5.4616641679 0.3709648453 0.6179756498
H -5.5525703607 -0.2115010099 -1.8096342924
H -3.9561537685 -1.0012407218 -1.6555590023
H -5.5852418600 -2.5566638604 -1.2565421914
H -1.5239124489 -1.0645520448 2.5772036274
H 0.8579467784 -0.7818911059 2.1057874900
H -0.0479975824 1.0511917631 -1.6539001028
H -2.4289363915 0.7716053200 -1.2414285567
H 4.2945228846 0.0189322567 0.7531171822
H 6.7492779224 0.2895932726 0.3504845777
H 5.9475962526 2.0544716733 -3.4682869399
H 3.4822614043 1.7851291056 -3.0654452855
