73
CONF1611
C -0.8596077956 3.1103528740 -0.6322393538
C -1.6957570184 2.3195193538 0.3494681410
O -2.9777985415 2.0881772796 -0.2884759031
C -3.8767708197 1.2976680331 0.4728842301
O -3.3681074933 0.0069719863 0.7536351161
C -3.4293967674 -0.9156399538 -0.3394253155
C -4.6181851870 -1.8522081348 -0.1550059942
O -5.8059963885 -1.0768516309 -0.2932220177
C -4.5878704794 -3.0063636420 -1.1530445357
O -5.6603603599 -3.8814496217 -0.7893854818
C -3.2322516374 -3.7128994793 -1.0713820427
C -3.0545929103 -4.7977245466 -2.1139675881
O -1.8052184590 -5.4742264129 -1.9694306988
O -2.2029062416 -2.7382011489 -1.3342485451
C -2.1435864474 -1.7366481535 -0.3371703360
O -1.0813754230 -0.8731591700 -0.6745165934
C 0.1952159495 -1.2666027265 -0.3918006029
C 0.5256790559 -2.5511596435 0.0421201295
C 1.8604594523 -2.8297159108 0.3150958693
O 2.1906206472 -4.0702969464 0.7053619179
C 2.8702868468 -1.8410933042 0.1603506749
C 4.2612104775 -2.1674844875 0.3244916166
O 4.6506227928 -3.3025702277 0.6663941681
C 5.2412213547 -1.0688092724 0.0100097532
C 4.6308175784 0.2971049018 0.2936378145
O 3.3796905572 0.4432233134 -0.4547795211
C 2.4777083153 -0.5523522140 -0.2808556102
C 1.1551921491 -0.2637488929 -0.5623973793
C 5.5158758217 1.4474679946 -0.0800122610
C 5.8748335789 1.6755299611 -1.4113486392
C 6.7085537272 2.7323659376 -1.7528930550
C 7.2050020859 3.5732620532 -0.7521128535
O 8.0313262696 4.6242978994 -1.0234122698
C 6.8578021628 3.3558639430 0.5814819537
C 6.0124883691 2.3016222220 0.9058044431
C -4.1786911150 1.9620328886 1.8167536747
O -4.9392140894 3.1585024237 1.6163645617
C -2.8745928255 2.2584371412 2.5590337688
O -3.1154105323 2.9468742014 3.7891721954
C -1.9215720307 3.0541973325 1.6704433528
O -0.6518731442 3.2140940854 2.3055328065
H -1.3293231914 4.0772245076 -0.8409625653
H 0.1369896284 3.2853525750 -0.2197165063
H -0.7561860601 2.5580798955 -1.5708334813
H -1.2243826283 1.3510546308 0.5633841673
H -4.7863975991 1.2379970094 -0.1347465045
H -3.5032346239 -0.3825999429 -1.2970325883
H -4.5604083406 -2.2814832492 0.8601447911
H -6.5500708638 -1.6844933181 -0.1804115530
H -4.7318012920 -2.6115643667 -2.1695278650
H -5.9971403212 -4.3052350045 -1.5878744107
H -3.0936194121 -4.1372719263 -0.0632131679
H -3.1521254386 -4.3525507172 -3.1159176707
H -3.8374285675 -5.5510179971 -1.9882697168
H -1.1083469288 -4.8129122379 -2.0761084937
H -1.9768099065 -2.1808477595 0.6585124906
H -0.2050027728 -3.3433699574 0.1395091222
H 3.1852120140 -4.0729851971 0.7989040612
H 6.1508406367 -1.2056942320 0.6011235785
H 5.5142201753 -1.1510426030 -1.0514288734
H 4.3716797184 0.3624897936 1.3594049425
H 0.8620626587 0.7280036106 -0.8833213180
H 5.4935488367 1.0282045337 -2.1957211420
H 6.9781754718 2.9087063757 -2.7909273574
H 8.1901601085 4.6747704459 -1.9760006914
H 7.2455799711 4.0177545198 1.3489896856
H 5.7367404646 2.1410770637 1.9444108017
H -4.8089756961 1.2991646351 2.4176454035
H -4.5186553548 3.6679864503 0.9083988309
H -2.3912254751 1.3114251649 2.8273458396
H -3.7068142909 3.6861035990 3.5813956336
H -2.3606552575 4.0439929083 1.4540443844
H -0.8300760426 3.5314937586 3.2018916728
