45
CONF83
C -6.2930342091 2.1620641529 1.9019642081
C -5.4382187629 0.9359495246 1.8728447179
C -4.3887261404 0.7586085285 1.0625431530
C -3.5958574673 -0.4816562844 1.0476395430
C -2.0511009990 -0.4913951802 0.9753904970
C -2.9119939740 -1.0147658858 -0.1793994531
C -2.9751020806 -0.2595543010 -1.4859067101
C -2.8863544223 -2.5184747683 -0.3518886796
C -1.2725839703 0.7473508003 0.8615979606
O -1.6251630325 1.8071115382 0.3819190976
O -0.0255984149 0.5444391068 1.3915077771
C 0.9258511456 1.6348969760 1.2921306103
C 2.1384746445 1.1344823263 0.5672454764
C 3.3628086193 0.9404210091 1.1958708156
C 4.4673481470 0.4670982545 0.5002225790
C 4.4056552211 0.1626432852 -0.8542358302
C 3.1741595654 0.3380774591 -1.4776652246
C 2.0739452728 0.8182429735 -0.7865261700
F 0.9093684907 0.9764414228 -1.4412161334
F 3.0393126581 0.0457894231 -2.7828701664
C 5.5922072166 -0.3805429856 -1.5928707351
O 5.5632422435 -1.8046635669 -1.4757200716
C 6.6716706227 -2.3944008754 -2.1598300312
F 5.6223856761 0.3001464593 1.1678028055
F 3.4977673488 1.2128664313 2.5057180320
H -6.2861871240 2.6215896832 2.8980388301
H -7.3391879142 1.9174244723 1.6804446830
H -5.9504205149 2.9048442286 1.1757367678
H -5.7069265177 0.1388645407 2.5681075583
H -4.1102568596 1.5513234335 0.3740922385
H -3.9648503048 -1.2441879137 1.7310904919
H -1.5659853162 -1.2583128280 1.5692233948
H -3.8965374442 -0.5284129543 -2.0143226219
H -2.1281054062 -0.5444776516 -2.1198837846
H -2.9531665873 0.8217261297 -1.3554022337
H -2.0150908207 -2.8221627455 -0.9429062344
H -3.7881778018 -2.8474649654 -0.8806038933
H -2.8470205498 -3.0312543383 0.6131906773
H 0.4689013504 2.4685970973 0.7539228134
H 1.1785248070 1.9463945669 2.3062527231
H 6.5191053884 0.0208507150 -1.1602033387
H 5.5460846886 -0.0816723279 -2.6492616901
H 6.6462986699 -2.1527086213 -3.2319171087
H 7.6250159132 -2.0472194059 -1.7367690615
H 6.5875197447 -3.4749172247 -2.0284311527
