26
CONF21
C -3.5590090655 -1.3309006232 -0.5874428142
O -3.0554978395 -0.9071289484 0.7211076303
P -1.7981956713 0.0594006210 0.8333973286
S -1.3523753471 0.5006514584 2.6605592475
O -2.0155273515 1.2592893851 -0.2040129257
C -2.9081627528 2.3587801210 0.1499855050
O -0.6860859416 -0.7989348646 -0.0114054521
C 0.6582786622 -0.5656052418 -0.0179141383
C 1.2062214765 0.7156662666 0.0300039709
C 2.5802103047 0.8856275918 -0.0088688619
C 3.3915476163 -0.2391015701 -0.1034620523
C 2.8734653848 -1.5285288782 -0.1626364528
C 1.5000643625 -1.6840687889 -0.1138893781
Cl 0.8076175839 -3.2801844851 -0.1761282964
N 4.8467213881 -0.0689416314 -0.1475231316
O 5.5432809333 -1.0749318667 -0.2541160501
O 5.2938176014 1.0725587378 -0.0752753357
H -3.7787100075 -0.4578151486 -1.2056326691
H -4.4716008891 -1.8866195390 -0.3772057851
H -2.8233469591 -1.9753007906 -1.0733759623
H -2.9024491914 3.0251508721 -0.7115104970
H -3.9177161115 1.9798093808 0.3296897102
H -2.5266677283 2.8733458365 1.0350250401
H 0.5538372425 1.5789701954 0.0868248237
H 3.0131326011 1.8766517592 0.0268512539
H 3.5271494923 -2.3878394417 -0.2363636091
