36
CONF31
C 3.4841415764 -0.1091278580 5.4621465735
C 3.8081430094 0.0463114740 4.0183824732
C 4.4162916428 -0.8834245663 3.2739409965
C 4.7103224134 -0.7443331162 1.8428234781
O 5.1609730923 -1.6359392240 1.1521416198
O 4.4226672537 0.4976779161 1.3598730066
C 4.6129650031 0.6717479474 -0.0548334280
C 3.5018241086 0.0395603636 -0.8878443198
C 2.1369800992 0.6441029208 -0.6266035757
C 1.0566853440 0.1453048883 -1.6367499888
C -0.3140634033 0.9040929211 -1.5850369159
C -1.4835437711 0.1195889891 -2.2789776400
C -2.7108533765 1.0268095270 -2.6326494076
C -4.0285216291 0.2340207571 -2.9170759712
F -4.9358493694 1.0788388851 -3.4267566076
F -4.5242596677 -0.2943827207 -1.7933939409
F -3.8042776390 -0.7460400226 -3.8037280829
F -2.9613454108 1.8726168758 -1.6063099254
F -2.4200068982 1.7444224838 -3.7385578166
F -1.0283236122 -0.4357120774 -3.4253575167
F -1.8988700262 -0.8643406246 -1.4485590022
F -0.1675016748 2.0955840309 -2.2113046581
F -0.6603916881 1.1244710818 -0.2986102471
F 0.8405917136 -1.1739354400 -1.3962807818
F 1.5543258954 0.2775476181 -2.8939072856
F 2.1833805143 2.0116510787 -0.7234299392
F 1.7046092307 0.3363523661 0.6299581440
H 3.9595049989 0.6862007398 6.0488563947
H 3.5184373673 0.9825016634 3.5457724343
H 5.5667703344 0.2280381372 -0.3552246073
H 4.6457882304 1.7528533079 -0.2025262090
H 3.7489540774 0.1886583515 -1.9431723562
H 3.4503078355 -1.0366090393 -0.7017709246
H 4.7123143226 -1.8414729571 3.6914344889
H 3.8080976978 -1.0762758190 5.8534631636
H 2.4044066929 -0.0067662826 5.6242888526
