48
CONF4
C 3.7236857330 -2.2683360608 -3.2921584557
C 2.4158526982 -2.0410793476 -2.5397731337
C 2.4007947549 -0.7148087712 -1.7827698300
C 1.0125365225 -0.4710113460 -1.1913574414
O 0.1074682107 -0.0005511707 -1.8782107503
N 0.8439832047 -0.8408939192 0.1000562628
C -0.3913544487 -0.6317460645 0.7874047431
C -1.7072350655 -1.3564640450 0.3364772523
N -2.3271750582 -0.0359873114 0.1802644786
C -1.1892436304 0.6737156940 0.5430696319
O -0.9800256782 1.8568249391 0.6692068247
C -3.6885458959 0.1396920680 0.6268759300
C -3.8486405678 -0.7713346286 1.9014359530
S -2.7503881840 -2.2571835644 1.5589231558
C -3.3343109028 -0.0052801628 3.1210006488
C -5.2748661946 -1.2569404498 2.1351100390
C -4.7157592537 -0.1658214872 -0.4524602935
O -5.7921577239 0.3856039986 -0.5161844362
O -4.3067420280 -1.1227864766 -1.3006324880
O 3.4205998281 -0.7865444339 -0.7777233113
C 3.8195180634 0.3812347008 -0.1707795230
C 4.8977586239 0.2555018864 0.7096705472
C 5.3714979230 1.3729754363 1.3837426010
C 4.7789060175 2.6215934837 1.1899704992
C 3.7052225591 2.7354667212 0.3138072103
C 3.2147341731 1.6233137464 -0.3719549049
H 3.6873848411 -3.2145194329 -3.8393531479
H 3.9014837336 -1.4642806541 -4.0140106662
H 4.5733273027 -2.3053793285 -2.6052781805
H 1.5716694671 -2.0245017877 -3.2374301718
H 2.2317738375 -2.8520747248 -1.8246009701
H 1.6345362419 -1.2123567681 0.6071675634
H -1.6208934401 -1.9377855458 -0.5844287043
H -3.8443216611 1.1830075958 0.9184147299
H -2.3234743891 0.3810056542 2.9630292192
H -3.3150254917 -0.6619898635 3.9943880000
H -4.0007681444 0.8391242559 3.3312391000
H -5.3127967841 -1.8784917600 3.0340493742
H -5.9319952253 -0.3951019898 2.2903699834
H -5.6536924324 -1.8434574743 1.2940464636
H -5.0143202019 -1.2813469067 -1.9500328390
H 5.3508919916 -0.7206162496 0.8501097573
H 6.2108327426 1.2671251822 2.0641916737
H 5.1505537662 3.4932635442 1.7180870009
H 3.2303144840 3.6988590042 0.1558776387
H -0.2338109582 -0.7582349999 1.8620740393
H 2.6092197534 0.1098568733 -2.4769570433
H 2.3712006751 1.7462914511 -1.0410081264
