40
CONF12
C -4.7262989441 -2.0064682920 1.9146554666
N -3.6665097771 -2.5494908515 1.0576126535
C -3.8507755228 -2.2134173507 -0.3591128639
C -3.6310557101 -0.7261575208 -0.6418735115
C -2.2924479760 -0.1977568581 -0.1389529367
O -1.2781970052 -0.9403975308 -0.8570010530
C 0.0104785123 -0.8624745962 -0.4405043112
C 0.9343354267 -1.5814696697 -1.2119499571
C 2.2748917407 -1.5804573216 -0.8722586408
C 2.7123442157 -0.8638570180 0.2458909620
C 1.7962561120 -0.1449629954 1.0093614596
C 0.4466702178 -0.1388580957 0.6750955858
C 4.1661584801 -0.8181832555 0.5750136077
F 4.3978875835 -0.5771889298 1.8892494297
F 4.8235263835 0.1669815942 -0.1102920204
F 4.8060149220 -1.9751164160 0.2656679944
C -2.1627140208 1.2890736959 -0.3701436850
C -1.7141030361 1.7922289551 -1.5926591363
C -1.6500600382 3.1672571908 -1.8043171459
C -2.0408178323 4.0511159634 -0.7999473182
C -2.4923845351 3.5529074696 0.4207394365
C -2.5484332729 2.1781531409 0.6349021866
H -4.6373590773 -2.4348728125 2.9175348331
H -5.7431560960 -2.2136787908 1.5357193346
H -4.6197566801 -0.9199982060 2.0100354430
H -4.8623111327 -2.4762821753 -0.7218621960
H -3.1325492794 -2.8021777441 -0.9401776757
H -3.7007010890 -0.5493505458 -1.7219003356
H -4.4166123553 -0.1234948362 -0.1729313987
H -2.2046908638 -0.4249046200 0.9311753838
H 0.5793862591 -2.1370865309 -2.0734603893
H 2.9815665499 -2.1405045635 -1.4755585045
H 2.1281147328 0.4185524453 1.8747137602
H -0.2435411541 0.4331198710 1.2812161813
H -1.4082483201 1.1058099729 -2.3763765268
H -1.2945597094 3.5495051947 -2.7564484096
H -1.9895364486 5.1226303455 -0.9662668423
H -2.7930887370 4.2351237255 1.2100254909
H -2.8895603762 1.7891411797 1.5913962052
H -3.6743836962 -3.5600641630 1.1413055818
