37
CONF516
C -0.5391190097 -2.1527391502 -2.9158952091
C -2.0008359592 -1.9210656472 -2.6031734135
O -2.2527497476 -0.6118885577 -1.9968074237
P -1.7789483570 -0.1989713678 -0.5432820561
O -2.5416256482 0.9206440631 0.0438275797
O -1.7391620034 -1.5691570779 0.2636849672
C -2.0735967758 -1.6357965433 1.6935615020
C -2.7072721426 -2.9814920888 1.9473392173
O -0.2102792316 0.1726157184 -0.8246496998
P 0.8870779761 0.6422857831 0.2745258766
O 0.5446803218 0.2920023590 1.6732071149
O 2.1802024598 -0.0306282634 -0.3582047336
C 3.3160409217 -0.3558216540 0.5096103719
C 4.0887252189 0.8807423794 0.9103035769
O 1.1134819647 2.1879302126 -0.0364480213
C 0.1215923087 3.1538866072 0.4578132215
C 0.5838344002 4.5248407382 0.0306348764
H -0.1364830411 -1.3385191365 -3.5243665991
H -0.4481831858 -3.0865470761 -3.4803204985
H 0.0615584560 -2.2435912784 -2.0073821490
H -2.6012104637 -1.8971439609 -3.5151379815
H -2.4001216300 -2.6898098942 -1.9346667687
H -2.7518718085 -0.8113041526 1.9305374444
H -1.1413025969 -1.5012967535 2.2464072200
H -3.6355909321 -3.0905597872 1.3797801629
H -2.0260119958 -3.7919068178 1.6734485520
H -2.9393926392 -3.0725967251 3.0130194378
H 3.9229961568 -1.0295784180 -0.0986126525
H 2.9399307181 -0.9000526716 1.3816315209
H 3.4866687382 1.5366522179 1.5458309683
H 4.9760689612 0.5789819025 1.4761117948
H 4.4106312977 1.4410133343 0.0282716000
H -0.8541024080 2.8993914548 0.0304172377
H 0.0674782401 3.0604383839 1.5471795943
H 0.6420831035 4.5931126355 -1.0589073749
H -0.1311620504 5.2722815289 0.3872025876
H 1.5659711555 4.7536474019 0.4535085532
