37
CONF654
C -4.3927487295 -0.2711242250 0.1158469710
C -3.5238638648 -1.0383854549 -0.8545224673
O -2.2846286598 -0.3044621983 -1.1251116225
P -1.0123041501 -0.6380724614 -0.2315287321
O -1.1604049702 -0.6053994981 1.2424672577
O -0.4761803082 -2.0116654094 -0.8357074694
C 0.1918260039 -2.9949181052 0.0275265941
C -0.8183872406 -3.9736491391 0.5784684556
O -0.0556111587 0.5222960028 -0.8430973961
P 1.4825979218 0.8109535605 -0.3931614204
O 2.1435343028 -0.3489631029 0.2490294906
O 2.0650977080 1.3262326133 -1.7753203466
C 3.4909432309 1.1475550153 -2.0671558907
C 4.3461966137 2.1133915051 -1.2785703758
O 1.3932447893 2.1505472819 0.4599464340
C 0.8373739044 2.1009646938 1.8220400527
C -0.4740173467 2.8491897057 1.8528927965
H -4.6118208686 0.7271649451 -0.2726516152
H -3.8986681455 -0.1758742558 1.0859092021
H -5.3384339308 -0.8050110044 0.2547302572
H -3.2818690836 -2.0401953607 -0.4798216529
H -3.9994229316 -1.1432907626 -1.8324806944
H 0.7324805749 -2.4694973634 0.8177308562
H 0.9159116709 -3.4812871349 -0.6301656933
H -1.5289591772 -3.4642775579 1.2356762577
H -1.3653204328 -4.4669261034 -0.2303916372
H -0.2987725560 -4.7400966161 1.1627335265
H 3.5605749455 1.3309581193 -3.1411830057
H 3.7583169604 0.1062044149 -1.8623525413
H 5.3892576173 2.0066929844 -1.5933709460
H 4.0315490683 3.1453449594 -1.4561303202
H 4.2915714575 1.9054876464 -0.2058512183
H 0.7132670379 1.0582819179 2.1308481277
H 1.5918902340 2.5713332900 2.4577630945
H -0.8605058574 2.8527281537 2.8770942885
H -0.3400156785 3.8842326369 1.5267452995
H -1.2136981574 2.3635360000 1.2111264906
