27
CONF127
C 3.0870919578 0.0769664962 -0.2263168064
C 3.9282169432 -1.1911388119 -0.0920211011
C 5.4050697189 -0.9498093733 -0.3856142931
O 5.9989855444 0.0048004753 0.4974546240
C 1.6244135322 -0.1839875455 0.1384072758
C 0.7594638427 1.0398286025 -0.0536401667
C -0.7196049805 0.9094901306 0.4310782323
C -1.5127547201 -0.3053613340 -0.1436842850
C -3.0636517392 -0.2055422194 0.0155972974
F -3.3869860845 0.1138867209 1.2761398156
F -3.6063415085 -1.3967020431 -0.2796237802
F -3.5719338073 0.7094103452 -0.8153641751
F -1.1080087962 -1.4291664977 0.5012870007
F -1.2498695908 -0.4502797653 -1.4643078571
F -1.3838086749 2.0455806112 0.1058650974
F -0.7083921349 0.7903705435 1.7840991021
F 0.7305792857 1.4157117627 -1.3682214175
F 1.2670243954 2.1012916238 0.6493029463
H 3.4997338356 0.8576947186 0.4185861658
H 3.1488792983 0.4473977592 -1.2561717810
H 3.8242069674 -1.6053220056 0.9218208883
H 3.5589610113 -1.9643946589 -0.7800817993
H 5.5240975587 -0.5277549219 -1.3897291021
H 5.9551230273 -1.9028809144 -0.3595773324
H 1.5354542967 -0.4994151441 1.1840566735
H 1.2140880960 -0.9877266973 -0.4824372779
H 6.0023003068 -0.3724597795 1.3841378955
