38
CONF1076
F -0.7912038276 1.5470519622 0.6496967652
C -1.3369082119 0.4274763209 0.1282393976
F -2.0684677806 -0.1880234224 1.0787341177
C -0.2029522447 -0.5230805961 -0.3635152648
F -0.7181905330 -1.7614266456 -0.5325983200
F 0.2564069038 -0.0615937659 -1.5501936519
C 1.0074032172 -0.6151731280 0.6322646016
F 1.7535212810 0.5060126981 0.5101647019
F 0.5246081658 -0.6897195184 1.8937891155
C 1.9268298185 -1.8624837534 0.3797011895
F 1.3221607328 -2.9570299116 0.8944296837
F 2.0832792707 -2.0326152697 -0.9526624354
C 3.3466764674 -1.7195536225 1.0274504848
F 4.0973515290 -0.9037493609 0.2575717011
F 3.2251127533 -1.1786737502 2.2619538231
C 4.1172403520 -3.0733007245 1.1773615334
F 5.3901842156 -2.8102735185 1.5010515901
F 3.5785014853 -3.8270164175 2.1411759377
F 4.0948372207 -3.7533007021 0.0224883629
S -2.5347334666 0.9546810717 -1.2917322204
O -2.7373946943 -0.2742444372 -2.0677870030
O -1.9137773399 2.1503310169 -1.8684707094
N -3.9388355677 1.3531774869 -0.5579415031
C -4.9474227178 0.3074690291 -0.2974153347
C -6.0092395353 0.2947669122 -1.3991254035
O -7.0288463845 -0.6602211208 -1.1033657392
C -4.1708232592 2.7124604187 -0.0138375683
C -3.9153590464 2.8231949891 1.4828566485
H -4.4745107895 -0.6751452479 -0.2278494537
H -5.4070940249 0.5235081602 0.6735481798
H -6.4301288853 1.3008785124 -1.5326167434
H -5.5521476280 -0.0146847406 -2.3435368286
H -7.5501144304 -0.3202903792 -0.3649116565
H -3.5464520130 3.4131977655 -0.5720763327
H -5.2137579819 2.9533416162 -0.2462518833
H -4.1994032868 3.8254405960 1.8173433659
H -4.5085214963 2.0990799870 2.0483261086
H -2.8593781377 2.6723318667 1.7202155404
