50
CONF10
C 4.0098121110 1.1536739929 -0.7586456507
Si 2.2887177713 0.4543219942 -0.6514438332
O 1.2262759381 1.7110793017 -0.6016442840
Si 0.1090917592 2.4965588256 0.3194851413
O -1.3824360129 1.8382824691 0.0557095945
Si -2.1296672870 0.9596894123 -1.1250485494
O -1.7251951102 -0.6318922435 -0.9537414515
Si -1.5968411894 -1.7524429763 0.2500258715
O -0.2537699375 -1.4255518740 1.1456843725
Si 1.3538303635 -1.6847620237 1.3829861357
O 2.1979277533 -0.4183293275 0.7449449762
C 1.9074202173 -3.2715382766 0.5737610229
C 1.6693487568 -1.6960824923 3.2159308351
C -3.0536017221 -1.6386484363 1.4061250469
C -1.4682924629 -3.4183979650 -0.5718939454
C -1.5546976925 1.4938807883 -2.8140924466
C -3.9647110480 1.1835450147 -0.8998369363
C 0.4907684970 2.3238527935 2.1334249160
C 0.0868444883 4.2727185954 -0.2394150338
C 1.8641055849 -0.6126458445 -2.1202199566
H 4.2313473712 1.7705603152 0.1193751038
H 4.1201879903 1.7796857908 -1.6506114238
H 4.7555163481 0.3530319047 -0.8098474295
H 1.3708648271 -4.1320774141 0.9876298560
H 2.9786936642 -3.4236266885 0.7473949002
H 1.7391666104 -3.2535408473 -0.5076476170
H 1.3295730186 -0.7640516860 3.6799896693
H 1.1382394638 -2.5269169222 3.6930086284
H 2.7383217150 -1.8109102582 3.4252101587
H -3.9976543079 -1.7720684363 0.8671365557
H -2.9892587888 -2.4125082099 2.1790528659
H -3.0798178080 -0.6638015075 1.9058740823
H -1.2778356883 -4.2074158706 0.1631343648
H -0.6571340294 -3.4330426547 -1.3073792740
H -2.4021863967 -3.6557816122 -1.0932671606
H -0.4742632811 1.3492319067 -2.9174187610
H -2.0547152654 0.9119724480 -3.5961372986
H -1.7777457966 2.5527645800 -2.9843814402
H -4.5228136887 0.5528883726 -1.6002330660
H -4.2744982222 0.9212857131 0.1170799351
H -4.2474520512 2.2263037427 -1.0822103424
H 0.4244494723 1.2761694803 2.4428412272
H 1.5008580012 2.6840466781 2.3569515616
H -0.2194832809 2.9034211883 2.7333076204
H -0.6823946555 4.8399306762 0.2956106960
H -0.1269445046 4.3373108718 -1.3121505216
H 1.0539512920 4.7536664491 -0.0564086682
H 1.9042520126 -0.0240555804 -3.0435951623
H 2.5705846534 -1.4441746851 -2.2168628196
H 0.8532605625 -1.0256092558 -2.0275420498
