44
CONF11
C -1.3461184078 -1.5662267070 -1.5472763542
C -0.9731188612 -1.0577775199 -0.1585528257
C -1.9987582861 -0.1561473525 0.5335947900
O -1.7517014375 0.4695386069 1.5457700158
O -3.1932404576 -0.2234827559 -0.0553657735
C -4.3030713041 0.5195965766 0.5734467047
C -5.2801370230 0.8137460403 -0.5446987635
C -4.8934407302 -0.3293019172 1.6828788204
N 0.3387143479 -0.3856942373 -0.1492394489
C 1.4892830077 -1.1873534008 0.1033929040
C 2.4481352498 -1.3814516230 -0.8904873354
C 3.5711060492 -2.1570142999 -0.6291925973
C 3.7086388470 -2.7517972872 0.6122871093
C 2.7430735713 -2.5847411764 1.6016908596
C 1.6308206341 -1.7948141545 1.3511835825
Cl 2.9528462301 -3.3528076374 3.1535049509
F 4.7908007411 -3.5118329679 0.8639319198
C 0.4020021666 0.8952704900 -0.6328448800
O -0.5967315698 1.4477283968 -1.1026794305
C 1.6982584700 1.6278725505 -0.5185259450
C 2.4208440755 1.6540552990 0.6779964844
C 3.5777141563 2.4202641569 0.7729506820
C 4.0283639869 3.1463560617 -0.3281433985
C 3.3058860982 3.1247129700 -1.5201376614
C 2.1351327932 2.3799541384 -1.6116476451
H -0.5348457425 -2.1953110962 -1.9254705436
H -2.2543701352 -2.1698527222 -1.4967495473
H -1.5070919484 -0.7365135912 -2.2375307713
H -0.8780429909 -1.9185589123 0.5157114623
H -3.8830446129 1.4457183968 0.9767150593
H -5.6635106673 -0.1164371383 -0.9757612262
H -4.8055313390 1.4037837059 -1.3334099594
H -6.1236475209 1.3835968787 -0.1445865488
H -4.1460719705 -0.5538155470 2.4480189692
H -5.2836740513 -1.2674085072 1.2754901476
H -5.7183125027 0.2133875631 2.1543302538
H 2.3186591771 -0.9229855925 -1.8645194256
H 4.3338658746 -2.3191221953 -1.3829929849
H 0.8894212464 -1.6374484628 2.1272418590
H 2.0712807834 1.0897520903 1.5365132101
H 4.1285531706 2.4491919679 1.7077546198
H 4.9384589689 3.7334880166 -0.2552425799
H 3.6530985061 3.6924621177 -2.3775694685
H 1.5595045185 2.3674214658 -2.5317792738
