42
CONF202
C 1.5219539279 2.1149005646 -0.6283291617
C 2.8734459675 1.4437637249 -0.8825015580
C 3.6400161023 1.2167691853 0.4224897612
C 2.7206578006 0.1572709075 -1.6757320648
O 1.8951564504 -0.7559807226 -0.8908902666
C 1.6385977577 -1.9505569966 -1.4347947910
O 2.1375162910 -2.3679833172 -2.4622716138
C 0.7081465261 -2.7390019885 -0.5748341217
C 1.0977098084 -4.0169446591 -0.1814502719
C 0.2945020658 -4.7589204451 0.6801621857
C -0.9025254755 -4.2259632698 1.1495002268
C -1.3041046329 -2.9545690406 0.7506134145
C -0.5076422659 -2.2061536918 -0.1176557900
C -1.0133929896 -0.9224633035 -0.6784953503
O -0.8453076625 -0.5826428965 -1.8360809788
O -1.7041701105 -0.2167341749 0.2239778249
C -2.3287465216 1.0127505947 -0.2571596094
C -2.9262063107 1.7333916292 0.9372286840
C -3.7107072748 2.9463557497 0.4305086733
C -1.8453166320 2.1547039698 1.9336924665
H 1.6611565706 3.0875831017 -0.1465233231
H 0.9037214466 1.4978884931 0.0325167616
H 0.9713413997 2.2692946827 -1.5624438332
H 3.4731085918 2.1008533724 -1.5278070985
H 3.8104580428 2.1681450862 0.9356463434
H 3.0723465132 0.5678348328 1.0976245177
H 4.6124814045 0.7495770040 0.2349956569
H 3.6880579635 -0.3209536181 -1.8609870930
H 2.2152078373 0.3302034028 -2.6322944280
H 2.0424652017 -4.4172359684 -0.5350447032
H 0.6075781957 -5.7513402559 0.9873414180
H -1.5316513239 -4.8036055256 1.8186132901
H -2.2518679701 -2.5497336916 1.0876908802
H -3.0929053161 0.7391875898 -0.9926511922
H -1.5642394464 1.6256985197 -0.7476894766
H -3.6238941760 1.0442661027 1.4320496090
H -4.1679693578 3.4796780103 1.2690062264
H -4.5054439976 2.6500185611 -0.2616643581
H -3.0447805498 3.6446912106 -0.0900804683
H -1.2769946833 1.2950624723 2.3006887936
H -2.2938794118 2.6598839649 2.7947334386
H -1.1438793332 2.8510116640 1.4583012955
