44
CONF45
C 5.1418303099 0.2339505326 -1.9120128345
C 4.0189659672 0.1861956794 -0.9325399089
N 3.2473289840 -0.9037835134 -0.9216985159
C 2.2357148901 -0.8609931595 -0.0375220399
N 1.9807236353 0.1346988230 0.8087292066
C 2.8192184399 1.1745233556 0.6990992749
N 3.8446353952 1.2631276943 -0.1445039739
O 2.5520136505 2.1638147720 1.5407556599
C 3.3935877050 3.3438729284 1.4797577034
N 1.4127106500 -1.9683870447 -0.0418778829
C 0.1911786839 -2.2060156739 0.5983316030
O -0.4299378536 -3.2323672758 0.3745654356
N -0.2354782550 -1.2106467644 1.4454032107
S -1.7537464558 -1.2517857290 2.2199254772
O -1.8451672376 -2.4680967710 3.0309560048
O -1.8294846922 0.0601117705 2.8783931589
C -2.9546962097 -1.3550284387 0.8851241159
C -3.7821540795 -2.4778076985 0.9058506087
C -4.7823319495 -2.6089112179 -0.0471527890
C -4.9448399731 -1.6184645532 -1.0112532974
C -4.1083111270 -0.5094797861 -1.0204985228
C -3.0891507660 -0.3413096092 -0.0770164883
C -2.2108705143 0.8817460418 -0.1985895130
C -1.2215814779 0.7241763950 -1.3643250478
C -0.4131012029 1.9709346441 -1.6013687341
F -1.1837220972 3.0127371514 -2.0096376563
F 0.2429363157 2.3919202287 -0.4892792480
F 0.5294063242 1.7796691574 -2.5604050239
H 5.4338846228 -0.7711214501 -2.2174568055
H 4.8064170380 0.7803256244 -2.8022239133
H 5.9919898853 0.7758181500 -1.4936145557
H 4.4294808988 3.0816182613 1.7043606656
H 3.3277203730 3.8028615434 0.4910382224
H 2.9899717500 4.0093356361 2.2413428107
H 1.6743927848 -2.6967228589 -0.6946856019
H 0.3491056552 -0.3680535464 1.5519021892
H -3.6386902285 -3.2382652404 1.6637303111
H -5.4289698063 -3.4794863184 -0.0326915767
H -5.7271223706 -1.7071419318 -1.7580614963
H -4.2444140151 0.2599406716 -1.7756853725
H -1.6692601038 1.0875443689 0.7241284650
H -2.8570389770 1.7439012902 -0.3942654074
H -0.5177273199 -0.0912032359 -1.1770119826
H -1.7454182462 0.5022471026 -2.2990721385
