40
CONF246
C -1.4924514667 -2.6269666224 -1.1836074505
C -2.1388203854 -1.4708065659 -1.9121083991
O -3.1533691366 -0.8614088935 -1.0510125169
P -2.9540865578 0.6402039913 -0.5297946122
S -2.6410285643 2.0218476860 -1.8569016122
O -4.2851960436 0.6961979569 0.3632336961
C -4.7205507086 1.9696020090 0.9327666077
C -5.9310356837 2.4716549880 0.1802793615
S -1.4637402279 0.5766760504 1.0098375910
C 0.0440484697 1.2122130699 0.0956232888
C 0.3336881444 2.6113140188 0.6130104889
Cl 1.8133262765 3.2845102447 -0.2089626881
N 1.1383589322 0.2922144005 0.2350438368
C 1.8280158312 0.0251187691 1.4325560036
O 1.5916358690 0.5357239382 2.5044947082
C 2.8437448970 -1.0005934656 1.0816864960
C 3.8031828452 -1.6053551888 1.8725122555
C 4.6272869131 -2.5556633922 1.2649744302
C 4.4824538064 -2.8800158242 -0.0858901964
C 3.5086511150 -2.2647005519 -0.8759518039
C 2.6995633834 -1.3239055554 -0.2656157597
C 1.5903898709 -0.5146077357 -0.8286968453
O 1.1275946091 -0.5193137529 -1.9473543403
H -0.9832499517 -2.2792093417 -0.2805250825
H -2.2372278734 -3.3743380756 -0.8974569335
H -0.7533386399 -3.0969378378 -1.8400394837
H -2.6760481325 -1.8008569020 -2.8055770118
H -1.3995948345 -0.7217395602 -2.2144738381
H -3.8972234272 2.6918778921 0.8977705535
H -4.9483979029 1.7503919499 1.9796554434
H -6.2959391507 3.3918359524 0.6480258855
H -6.7328762840 1.7290482092 0.2008786733
H -5.6724779169 2.6862445710 -0.8595682815
H -0.5066334200 3.2572056139 0.3539389893
H 0.5228934779 2.6223928598 1.6860098663
H 3.9055379416 -1.3460253129 2.9206542945
H 5.3939604600 -3.0519761104 1.8506659353
H 5.1388672330 -3.6228854286 -0.5268064518
H 3.3870061840 -2.5075212708 -1.9260200221
H -0.2124053386 1.2549728282 -0.9684092188
