57
CONF73
C -4.3461496627 -1.8071835117 1.4113463470
C -4.0572683459 -0.7446215276 0.3434753993
C -2.5880522204 -0.4306903996 0.1967178759
C -1.8824215656 -0.6492569893 -0.9428751948
C -2.4455873034 -1.3727402396 -2.1114692947
C -2.9931672115 -2.6559944569 -1.9868382800
C -3.4957262853 -3.3280935201 -3.0975593789
C -3.4595858882 -2.7290728793 -4.3546959101
C -2.9056416667 -1.4571175387 -4.4946796745
C -2.3937861484 -0.7914115956 -3.3861621741
C -0.4963338367 -0.1535699296 -1.1252973150
C -0.1421717652 1.1663081150 -0.8307602061
C 1.1661488040 1.6198283520 -0.9603479554
C 2.1622171629 0.7372741872 -1.3883633362
C 1.8194246938 -0.5765129844 -1.7269843637
C 0.5066095590 -1.0049647080 -1.6113049115
O 3.4764243791 1.0685512807 -1.5495206502
C 3.9827156326 2.2360493035 -0.8762921671
C 3.9453275269 2.1271473081 0.6429498828
N 4.5452674835 0.9010650069 1.1674991183
C 5.9836578643 0.8416541400 0.9057290117
C 4.2932685082 0.8081798603 2.6063874668
C -1.9448427082 0.1399508360 1.4084874897
C -0.7951380880 -0.4548518485 1.9475594397
C -0.1954725722 0.0554914270 3.0932524605
C -0.7328216202 1.1754394651 3.7268126493
C -1.8834122331 1.7674505912 3.2105221208
C -2.4894938405 1.2483651811 2.0697641865
H -5.4231465321 -1.9787178346 1.5008679802
H -3.9688657756 -1.4921194230 2.3893203448
H -3.8673950409 -2.7586666978 1.1584971633
H -4.4740490859 -1.0527018541 -0.6180900245
H -4.5772219774 0.1802581759 0.6283129581
H -3.0076603528 -3.1339160431 -1.0121956407
H -3.9101153281 -4.3250100407 -2.9811316658
H -3.8520903721 -3.2523268199 -5.2210371007
H -2.8696676442 -0.9840589543 -5.4714418390
H -1.9542776728 0.1955217655 -3.5002886547
H -0.9063398717 1.8560921021 -0.4866512437
H 1.3922072159 2.6541403253 -0.7306476083
H 2.5979535557 -1.2488448144 -2.0736053364
H 0.2561117675 -2.0294862618 -1.8720944356
H 5.0067424634 2.3293941949 -1.2444874501
H 3.4372903219 3.1354296694 -1.1897165673
H 2.9066185901 2.1616407506 0.9894700956
H 4.4458481139 3.0373856445 1.0359064531
H 6.3939913299 -0.0726384194 1.3457129517
H 6.5265541672 1.7063029685 1.3351533639
H 6.1806765226 0.8109909983 -0.1698144110
H 4.7535619332 1.6404942635 3.1736502298
H 4.6993125697 -0.1326861223 2.9921702571
H 3.2142830821 0.8215407691 2.7950883797
H -0.3727587447 -1.3252494642 1.4547535876
H 0.6918429948 -0.4247798938 3.4950397743
H -0.2628767671 1.5777039980 4.6188740371
H -2.3113023443 2.6388986160 3.6971085465
H -3.3792175853 1.7287360690 1.6739227163
