54
CONF139
C -3.3540795522 1.5501308018 -0.7726291744
C -2.3096508665 0.4666984734 -0.4087447131
C -2.0204549882 0.5372111744 1.1027043422
C -3.2178748357 0.1163224719 1.9543154439
C -3.8096542959 -1.2148157197 1.5267952942
O -4.4567597106 -1.9042246464 2.3019712686
C -3.5873186443 -1.6205347477 0.1381382025
C -2.9029863716 -0.8807711519 -0.7568385542
C -2.6277203468 -1.3717356482 -2.1412562845
C -1.1276114688 -1.7034806332 -2.2117555203
C -0.2369127676 -0.4814581045 -1.8838014484
C -1.0459723321 0.7319291405 -1.3279858892
C -0.1545486154 1.7993618372 -0.7093256083
O -0.4216345421 2.9807992901 -0.8191439715
C 1.0589347571 1.3389356916 0.0714874742
C 1.9077484513 0.3059308522 -0.6922502456
C 1.0252831591 -0.8917753784 -1.1132417966
C 0.8592029606 -1.7505425528 0.1615063138
C 2.0237199489 -1.3498373278 1.1003709253
C 2.9250558536 -0.4286666781 0.2677155012
C 3.7931740989 0.5578675795 1.0376703475
O 4.8341008097 0.9546378051 0.5342203054
C 3.4290760724 1.0325398416 2.4258137953
O 4.2796752748 2.0510803260 2.8760805161
O 3.7821296571 -1.2583356220 -0.5087212663
C 2.5974279935 0.9868602051 -1.8708521496
H -4.2566532868 1.4413648331 -0.1676196928
H -2.9277787252 2.5452783985 -0.6158353198
H -3.6472166442 1.4670873277 -1.8233627747
H -1.1909361584 -0.1353705058 1.3441443643
H -1.7089261877 1.5535333426 1.3727080875
H -2.9475045908 0.0407928782 3.0114746355
H -4.0236015189 0.8591989009 1.8985235027
H -4.0220713301 -2.5752704564 -0.1487996339
H -2.8789409299 -0.6037461996 -2.8847155951
H -3.2252761315 -2.2597597848 -2.3645393754
H -0.8752468479 -2.0965856835 -3.2021849290
H -0.9421826503 -2.5096691637 -1.4951029674
H 0.1391544450 -0.1023981122 -2.8428407903
H -1.4646586233 1.2252231354 -2.2108805103
H 1.6393774843 2.2301661362 0.3303484833
H 0.6766294877 0.8997408265 1.0011820852
H 1.6303473203 -1.4804631375 -1.8135866409
H -0.1095436415 -1.5899813536 0.6432450970
H 0.9069102166 -2.8141046659 -0.0824414043
H 1.6454097530 -0.8312670961 1.9853791485
H 2.6055727853 -2.2060625460 1.4486537857
H 2.3847057674 1.3708097642 2.4634809916
H 3.4908144374 0.1387733191 3.0765574151
H 5.0097554133 2.0925397130 2.2366641800
H 4.5477747284 -0.7131915485 -0.7468506048
H 3.1252859937 0.2575308702 -2.4901541817
H 3.3132743412 1.7420892330 -1.5309360689
H 1.8631745997 1.4996140040 -2.5016035099
