78
CONF18
C -0.8336551105 -0.3802912118 -1.9954095194
C -0.0970272505 -0.6640479213 -3.2978558072
O -0.8859167961 -1.7408799626 -3.9124161045
C -1.6123341544 -2.3977264449 -2.9686531563
O -2.2841437399 -3.3618564919 -3.2540540092
C -1.3571417710 -1.7605363501 -1.6266503191
C -2.4681055340 -1.6959836950 -0.5756931120
C -3.8078568267 -1.2300337092 -1.1350600968
C -4.1265684415 0.1278091073 -1.2099971483
C -5.3417468265 0.5402380260 -1.7602142317
O -5.7422899579 1.8398728719 -1.8769881822
C -4.8383736177 2.8453289001 -1.4009808725
C -6.2518465900 -0.4117088697 -2.2321112759
O -7.4407472220 0.0054468651 -2.7619863093
C -5.9327226527 -1.7714015922 -2.1378760199
O -6.9084610133 -2.6010467775 -2.6190328307
C -6.6491473608 -4.0115004646 -2.5910044529
C -4.7202551769 -2.1837819627 -1.5898300233
C -1.9993477748 -0.7891523707 0.5580062325
C -2.7486147827 -0.8405060224 1.7510656204
C -2.4218325473 0.0351584519 2.7562823880
C -1.4038672261 0.9726967549 2.6099035377
O -1.3367379022 1.7644370060 3.7290455265
C -2.1783550205 1.1091750181 4.7013523970
O -3.0299941163 0.1965950505 3.9733338642
C -0.6645187993 1.0544872823 1.4579642181
C -0.9547682702 0.1396065676 0.4195489655
C -0.0780191493 0.1956771791 -0.8171260388
O 1.1252125499 -0.6241944653 -0.6913766443
C 1.9214724065 -0.4086165724 0.4214645244
O 2.4837669913 0.9098115949 0.3256481684
C 3.3008473481 1.1889149385 1.4599484400
C 3.8059865513 2.6176613142 1.3880355223
O 4.7118476036 2.8275154469 2.4906005968
C 5.7880113011 1.9076587758 2.5401766623
O 5.3480912142 0.5508146024 2.5634915781
C 4.5029025062 0.2516896653 1.4412366010
C 4.0306711379 -1.1837447855 1.5382329756
O 5.0919549653 -2.1276544271 1.3812277268
C 3.0337564025 -1.4584885496 0.4113156513
O 2.4232950505 -2.7347981328 0.5738178501
C 6.7892259449 2.1538842736 1.4392230921
C 7.0339584570 3.3126450529 0.7522635136
C 8.1342472172 3.2101301439 -0.1427881225
C 8.7255645279 1.9770998938 -0.1201685552
S 7.9343734959 0.9162963328 0.9996570695
H -1.6805550504 0.2826520033 -2.2085673523
H 0.9158172526 -1.0420055358 -3.1358516689
H -0.0875409321 0.1685944199 -4.0019723308
H -0.5207770454 -2.3367957779 -1.1990901924
H -2.6181031506 -2.7028494957 -0.1698046825
H -3.4357359446 0.8606502036 -0.8130166660
H -5.3323980903 3.7986331126 -1.5906702532
H -3.8862777132 2.8081740759 -1.9437503696
H -4.6544445918 2.7326848496 -0.3258290609
H -7.9356887954 -0.7844430268 -3.0271889475
H -6.5167480606 -4.3622056601 -1.5613292168
H -7.5280321049 -4.4824886038 -3.0313787736
H -5.7601987742 -4.2545661624 -3.1840133776
H -4.4733722956 -3.2354012388 -1.5226799400
H -3.5735264642 -1.5381556246 1.8555198161
H -2.7949047798 1.8530243468 5.2088983619
H -1.5499525530 0.5370949080 5.3969867905
H 0.1218061219 1.7936005729 1.3396494076
H 0.2324761292 1.2303651820 -1.0030762741
H 1.3455870250 -0.4839922259 1.3606926487
H 2.7320483165 1.0411481519 2.3931718008
H 2.9997427146 3.3433116063 1.5165184011
H 4.3050084695 2.7898658849 0.4248803815
H 6.2504868593 2.0662615623 3.5203162175
H 5.0541631412 0.3966037202 0.4987284958
H 3.5243940017 -1.3316956268 2.5054069004
H 5.6169074771 -2.1240137163 2.1917935035
H 3.5594245651 -1.3930552640 -0.5550358116
H 3.1384321324 -3.3760682555 0.6865957854
H 6.4403509353 4.2092584017 0.8866305307
H 8.4722342907 4.0189331231 -0.7801252638
H 9.5685870803 1.6216517883 -0.6979788559
