56
CONF14
C -3.8826142689 -3.4119350048 -0.8623201169
N -2.7506118303 -2.4961252664 -0.7487753349
C -2.0674952198 -2.4245262638 0.5459565039
C -2.5139615943 -1.2982669578 1.4681145070
C -1.4244382491 -1.0127292561 2.5104088079
O -0.2615331118 -0.4471679119 1.9039272227
O -3.7342331603 -1.7132387001 2.0928501712
C -2.2996992190 -1.8694744783 -1.8699695891
O -2.7542404421 -2.0222839995 -2.9948325624
C -1.1954558156 -0.8643260684 -1.6182889232
C -1.5086103461 0.4775594752 -1.4123730626
C -0.5319469315 1.4127221709 -1.0545340588
C 0.7834071009 0.9660654589 -0.8947698784
C 1.1349136212 -0.3643041739 -1.1135979198
C 0.1414198300 -1.2475546881 -1.5260377440
I 0.6485666956 -3.2608152333 -1.9538621179
C 2.5158594730 -0.8435805679 -0.7277752191
O 3.4455824085 -0.9044346823 -1.5259026571
N 2.5849903390 -1.1434461463 0.5873284711
C 3.8571801590 -1.3874007754 1.2593882052
C 4.2678542364 -2.8671234525 1.3378462185
C 4.4269136670 -3.5158149768 -0.0340269070
O 5.4615166700 -2.8759994886 -0.7777394976
O 5.4927363494 -2.9410861146 2.0624573506
I 2.2574583246 2.3449021638 -0.2558539763
N -0.8880667358 2.7355214890 -0.7119780873
C -1.2318117999 3.0388288050 0.5685134582
O -1.3388962006 2.2090935599 1.4669769224
C -1.4367221759 4.5234616403 0.8396262782
O -1.4890972509 5.3245963665 -0.3241144479
C -2.8040242491 5.3904451623 -0.8854530959
I -3.5158897715 1.1209815753 -1.6149905686
H -3.5388439223 -4.4546607563 -0.8768731780
H -4.5476412527 -3.2632149281 -0.0075439661
H -4.4130257492 -3.2045920534 -1.7922289729
H -2.2386504950 -3.3754646474 1.0650790241
H -0.9909545905 -2.3313329847 0.3957009538
H -2.6740840031 -0.3820226299 0.8823031779
H -1.1195743479 -1.9451143789 3.0006925833
H -1.8285980820 -0.3426925026 3.2835609169
H -0.4914642869 0.4696223770 1.6622395934
H 1.7418087833 -1.0219607882 1.1405049858
H 4.6380718806 -0.8322778178 0.7267455027
H 3.7930180690 -0.9894328723 2.2760941565
H 3.5190490993 -3.4265990853 1.9149935931
H 4.7326491423 -4.5580936073 0.1113620062
H 3.4734670516 -3.5071648763 -0.5786153394
H -0.7051974227 3.5106065079 -1.3378652775
H -0.5722853449 4.8519727362 1.4301292643
H -2.3330495637 4.6321859183 1.4664413983
H -3.4970724278 5.8815749881 -0.1887269586
H -3.1879923175 4.3909277077 -1.1341001094
H -2.7269871136 5.9865886813 -1.7966287330
H -4.1262129328 -0.9471400478 2.5267932991
H 6.1869531652 -2.7472357443 1.4151621618
H 5.0489994497 -2.1063364631 -1.2038707728
