51
CONF23
C 3.3498535900 1.2374439735 0.6662380996
C 2.6828230304 0.0952393709 -0.0552312254
C 1.4503430782 0.3141989458 -0.6991215988
C 0.8426750222 -0.7013089420 -1.4334114481
C 1.4452767694 -1.9508964294 -1.5350262354
C 2.6507496797 -2.1867285961 -0.8909131613
C 3.2735900160 -1.1808569482 -0.1397687451
C 4.5407291012 -1.5163422663 0.5558915838
C 4.6744857383 -1.3451448526 1.9395653093
C 5.8511630915 -1.7041674508 2.5894606763
C 6.9165370729 -2.2386869786 1.8672078725
C 6.7937387024 -2.4171751639 0.4911045963
C 5.6144092863 -2.0625034119 -0.1580889138
C 0.8174173869 1.6814139999 -0.5978698650
O -0.5366322443 1.7015766859 -1.1046648880
C -1.4847243564 1.2030165111 -0.2729616131
O -1.2531968467 0.8125965976 0.8537309390
C -2.7987554963 1.1974477869 -0.9469249971
C -4.0469225718 0.9987136879 -0.0862640229
C -3.6167748133 -0.0838330143 -1.0585359651
C -3.0996222309 -1.3693968329 -0.4548853519
C -4.3676942087 -0.2841065620 -2.3557968447
C -5.2074326375 1.8509601761 -0.3408707922
C -6.0831451362 2.2718609052 0.5776828196
C -5.9847340525 1.9126278877 2.0423938946
F -5.9507071136 0.5654512493 2.2165776820
F -7.0079420200 2.3789871226 2.7766289813
F -4.8422129634 2.4000435512 2.5946524432
Cl -7.4276146600 3.3002833064 0.1376416956
H 4.3971083655 1.0185455999 0.8760506489
H 2.8561610025 1.4522076363 1.6222045028
H 3.3091679752 2.1541833682 0.0694863717
H -0.1032734246 -0.5175795323 -1.9318024068
H 0.9685491340 -2.7400211428 -2.1080282836
H 3.1153116252 -3.1667351634 -0.9448587705
H 3.8431680122 -0.9413650264 2.5099175601
H 5.9342443130 -1.5709738594 3.6638231910
H 7.8351672096 -2.5164072631 2.3744501949
H 7.6189338746 -2.8314770058 -0.0801344108
H 5.5248445265 -2.1974255471 -1.2321906197
H 1.3506919870 2.4083614055 -1.2188634041
H 0.8173454874 2.0388964945 0.4359736167
H -2.8826583742 1.8704080822 -1.7938853445
H -3.8141928741 0.7674023461 0.9472245201
H -2.4064255422 -1.8582527839 -1.1486441580
H -2.5845964002 -1.2032003091 0.4922623777
H -3.9400772038 -2.0493521770 -0.2802500135
H -4.6676115855 0.6555168530 -2.8237349222
H -5.2647859563 -0.8874429208 -2.1788671051
H -3.7310783977 -0.8242536108 -3.0642137978
H -5.3716733699 2.1747963390 -1.3643603656
