53
CONF195
C 4.3290329794 -1.8799734827 0.1084771807
N 3.1345119725 -2.4705299351 0.7172429937
C 3.4992801462 -3.7930119328 1.2565182933
C 2.3102285775 -4.5073212959 1.8816469663
C 1.7148143281 -3.6509346264 2.9946921336
C 1.3738818958 -2.2710344430 2.4403501429
C 2.5901696980 -1.6056130544 1.7846990152
C 2.2472434492 -0.1946995943 1.2786484200
C 1.2798710342 -0.1781974811 0.0921258970
N 0.7887334450 1.1826353212 -0.1716347271
C 1.7022416997 2.1858415989 -0.5574100164
C 2.9327362958 1.8838611800 -1.1501111491
C 3.8219415597 2.8990491214 -1.4914971372
C 3.4873715276 4.2336987270 -1.2840602791
C 2.2473899474 4.5515424914 -0.7352322944
C 1.3750551706 3.5354696057 -0.3581091074
S -0.1693524792 3.9304004834 0.4368078059
C -1.1559922854 2.6367686815 -0.2719760114
C -0.5643841935 1.3745720820 -0.4806311463
C -1.3668670097 0.3468733992 -0.9897192679
C -2.7186269816 0.5846334135 -1.2149780520
C -3.3099481721 1.8228689733 -0.9987545209
C -2.5021370086 2.8606804676 -0.5451045906
S -3.7345893772 -0.7741481283 -1.8084148162
O -4.8893380563 -0.2031010849 -2.5382597119
O -2.8558627721 -1.7434258032 -2.5027751749
C -4.3489839290 -1.5521390020 -0.3011534835
H 5.1082133487 -1.6381996167 0.8570151253
H 4.0865750230 -0.9652200348 -0.4375641879
H 4.7550909355 -2.5889987377 -0.6083606654
H 3.9101890131 -4.3891084346 0.4331486260
H 4.3012513231 -3.6924588652 2.0182570060
H 2.6378408510 -5.4803892965 2.2650724452
H 1.5512860799 -4.6951672179 1.1108247882
H 0.8228781997 -4.1240146005 3.4205158879
H 2.4481239104 -3.5486449328 3.8066981477
H 1.0060488701 -1.6125249866 3.2358862186
H 0.5675585263 -2.3755627030 1.7032508033
H 3.3602663451 -1.4740497297 2.5765746048
H 3.1624450166 0.3542883281 1.0391422997
H 1.7756973073 0.3440875087 2.1089503253
H 0.4062399617 -0.7765825744 0.3508756173
H 1.7233228224 -0.6376500104 -0.8017658684
H 4.7773165398 2.6379654177 -1.9351889712
H 1.9610693217 5.5870818139 -0.5798448740
H -0.9496553691 -0.6253783030 -1.2212916515
H -4.3641851693 1.9813217591 -1.1925412354
H -2.9245128615 3.8466462288 -0.3804291349
H -4.9338585172 -0.8144789880 0.2525155010
H -4.9741513306 -2.3912965066 -0.6187917015
H -3.4922856574 -1.8991856676 0.2807091276
H 3.1998150464 0.8533296796 -1.3490601753
H 4.1774726647 5.0253261733 -1.5553770511
