39
CONF45
C 4.0026941958 0.8880503607 -2.3378177183
C 2.9164250857 0.9049085684 -1.2644434731
C 2.3574046765 -0.4917342681 -0.9925703512
C 1.3082138323 -0.5146940730 0.0947124660
C 0.6841513703 -1.8675639688 0.3826339200
O -0.6187568501 -1.5274565296 0.8996192782
C -0.9478645393 -0.2157502417 0.4288789984
C -2.1801703050 -0.2501551659 -0.4986534476
N -2.0169103843 -1.2263544131 -1.5574143563
C -2.2431666363 -2.5545613731 -1.4990898262
N -1.8822019378 -3.1329646051 -2.6382462358
C -1.4228730436 -2.0806980492 -3.3741838166
N -1.4807202538 -0.9052076608 -2.7623840715
O 0.1433812839 0.2303700420 -0.3403970484
C -1.2068690702 0.7097087860 1.6217916675
C -2.0830955906 0.4145763367 2.6720902096
Cl -2.9940592357 -1.0900121802 2.7322290308
C -2.2896517655 1.2921273523 3.7319513747
C -1.6041476339 2.4987634235 3.7335220602
Cl -1.8580795537 3.6117493310 5.0662479764
C -0.7323778503 2.8419305484 2.7102214478
C -0.5517008198 1.9425023767 1.6676474705
H 4.3914760829 1.8935993750 -2.5253428424
H 4.8416158156 0.2519592285 -2.0346761933
H 3.6101774107 0.4966319164 -3.2828179737
H 2.1001430889 1.5675230353 -1.5752652005
H 3.3204525105 1.3183864766 -0.3312896030
H 3.1703153147 -1.1613848755 -0.6815242855
H 1.9236307289 -0.9128284911 -1.9092420548
H 1.6947285484 -0.0647950324 1.0228723065
H 1.2159769330 -2.4409493921 1.1453882492
H 0.5821129310 -2.4598891505 -0.5379395227
H -3.0714584724 -0.5079854142 0.0758737389
H -2.3152859248 0.7374650460 -0.9456024452
H -2.6693226514 -3.0371968286 -0.6294801445
H -1.0441211385 -2.1779603732 -4.3839887180
H -2.9703816222 1.0356270034 4.5343845601
H -0.2057642200 3.7888430877 2.7216667165
H 0.1260798860 2.1954205698 0.8606377570
