40
CONF33
C 3.7550399306 -1.5424767060 -1.2072975591
O 4.0664571231 -0.1471941639 -0.9468722090
C 3.5018638140 0.7316947133 -1.7754429990
O 2.7900878008 0.4347407371 -2.7137042960
C 3.8580144797 2.1744090666 -1.4670865894
S 4.2823965807 2.5870895078 0.2577003016
C 2.7968042326 2.1433176411 1.1260056250
C 1.6091087797 1.7707475880 0.4946205351
C 0.4763888931 1.3809100004 1.2171674441
C 0.5624848267 1.4111228475 2.6130024978
C 1.7087687847 1.8005417786 3.2786337594
C 2.8190708775 2.1589927551 2.5277808551
Cl 4.2776727104 2.6474275274 3.3707110282
F -0.5242657108 1.0654630356 3.3426366882
N -0.7043863180 1.0523186586 0.5510232252
C -1.1410532912 -0.1511493335 0.6124442808
N -2.3481795764 -0.5353461257 0.0791529217
N -2.4775065806 -1.9323193201 -0.0436088666
C -1.5680402335 -2.6729016013 0.6426503011
O -1.5907712534 -3.8768299102 0.8150240324
S -0.2888869368 -1.5648931723 1.3022988301
C -3.8458047411 -2.4235489280 -0.2805968266
C -4.4394960191 -1.7131013162 -1.4882150327
C -4.3579717653 -0.2018577476 -1.2918197204
C -2.9175204467 0.2271759603 -1.0539831543
H 4.1167135637 -1.8275492232 -2.1974995997
H 2.6756517205 -1.6981540265 -1.1419005035
H 4.2738915828 -2.1003950079 -0.4295564844
H 3.0593726220 2.8142195134 -1.8503075745
H 4.7673168156 2.4158878170 -2.0319027678
H 1.5177040589 1.7733289752 -0.5844897529
H 1.7304527435 1.8179101549 4.3621886523
H -3.7640985213 -3.5003257257 -0.4355001131
H -4.4476767801 -2.2335111640 0.6190566315
H -3.8931925884 -2.0069559637 -2.3924541293
H -5.4786076025 -2.0352048389 -1.6030853018
H -4.7295224068 0.3259797785 -2.1750866179
H -4.9753913786 0.0991932891 -0.4370228294
H -2.8530172280 1.2807553363 -0.7813547896
H -2.2998737740 0.0504875028 -1.9466049046
