35
CONF70
C -2.9760315253 -2.8771190748 2.3173309130
C -3.5321537733 -1.5360230171 1.9080217611
O -2.4159681490 -0.5884931152 1.7327493881
P -2.0616359501 0.0050163624 0.3019046404
S -2.0007467164 -1.1968970569 -1.2214037473
O -3.0209901023 1.2719131897 0.2085253323
C -3.2727123919 1.9770663547 -1.0585342377
C -2.0875731799 2.8131748917 -1.4801369371
O -0.6326682763 0.7408055811 0.6599118929
C 0.5457398610 0.0747786739 0.5606570136
N 0.8162583938 -1.0715056756 1.2261728791
C 2.0722659269 -1.2878424297 0.8552109604
N 2.5234851502 -0.3278182672 0.0269320149
N 1.5219847458 0.5730805255 -0.1775031773
C 3.8384170289 -0.1570674035 -0.6197004413
C 4.4995062319 1.1221503413 -0.1186156446
C 3.6762476804 -0.1888735632 -2.1352561165
Cl 3.0140403452 -2.6254766614 1.3667979292
H -2.3479436347 -3.2945323688 1.5254048408
H -3.8055885438 -3.5660147454 2.5052126647
H -2.3849095398 -2.7877282348 3.2328914179
H -4.1609485983 -1.0939118031 2.6842566348
H -4.1058275646 -1.5995904506 0.9781431709
H -3.5397832859 1.2318325714 -1.8139326140
H -4.1455543838 2.5934621931 -0.8365055146
H -1.8020884303 3.5132412688 -0.6900473829
H -2.3649624985 3.3876596554 -2.3696305139
H -1.2257219987 2.1884497285 -1.7325286793
H 4.4239403817 -1.0224423232 -0.2966063801
H 3.9256349573 1.9995483872 -0.4296066579
H 4.5847188855 1.1183521198 0.9714716685
H 5.5022724193 1.1936727156 -0.5479192589
H 3.1767528728 -1.1070053101 -2.4563005513
H 4.6657451857 -0.1481592681 -2.5980698619
H 3.0967976669 0.6722959072 -2.4792974060
