39
CONF61
C -2.3639242746 -1.2731042585 2.7527788719
C -1.5483969228 -0.9871877800 1.4922541545
C -1.2130336131 -2.2843259669 0.7551948518
C -2.2555830223 0.0353198905 0.5398465629
C -3.5432600295 -0.5167750367 -0.0927901009
C -2.6290393802 1.2431737674 1.3023622803
N -2.9995706090 2.1657289144 1.8914392705
N -1.3547800180 0.4346524420 -0.5498753828
C -0.2514965819 1.1970653327 -0.3679585353
O 0.1056945159 1.6298838282 0.7221300379
C 0.5028486144 1.5430910982 -1.6649315912
C -0.0539700210 2.8279497280 -2.2564348692
O 1.8788609534 1.8006767168 -1.3668179627
C 2.6362063252 0.7892969036 -0.8722179152
C 3.9278850129 1.1199137844 -0.4326350830
C 4.7896721859 0.1621904676 0.0795447840
C 4.3495331052 -1.1540220412 0.1582021465
C 3.0812727597 -1.5179006056 -0.2672662919
C 2.2312445357 -0.5439880438 -0.7822627991
Cl 5.4325159293 -2.3740580309 0.8128841110
Cl 4.4666433078 2.7811105862 -0.5303857665
H -1.7935641715 -1.9416645468 3.4040337442
H -3.3098350477 -1.7706037501 2.5155949901
H -2.5817602857 -0.3619498698 3.3175427580
H -0.6121482466 -0.5030727659 1.7892617360
H -2.1107924034 -2.8814341410 0.5661381579
H -0.5407758702 -2.8835247975 1.3761361638
H -0.7106436302 -2.0983262444 -0.1985591317
H -4.0184105914 0.2498306969 -0.7097305515
H -4.2434358901 -0.8258497917 0.6838697034
H -3.3020084709 -1.3803675158 -0.7172228987
H -1.5935553178 0.1225218403 -1.4805135103
H 0.4253343542 0.7227878575 -2.3918442288
H 0.0209901637 3.6391546408 -1.5271872380
H 0.5091923443 3.0953461201 -3.1538271405
H -1.1034141924 2.6875940038 -2.5272920189
H 5.7809689327 0.4433124674 0.4137338994
H 2.7485835810 -2.5472313708 -0.2028565612
H 1.2459516620 -0.8452146511 -1.1160771519
