39
CONF28
C 6.9117034817 1.0006410766 -2.8105694481
C 6.1707641207 0.1222735566 -1.8045652647
C 5.9308748174 0.8283166965 -0.4700430464
C 5.1775047266 -0.0503637058 0.5275464712
C 4.9283134162 0.5940408386 1.8984558646
C 4.4490154094 -0.4284760400 2.9434346240
C 5.5386503537 -1.3974154813 3.4010689625
C 3.9701947946 1.7754934234 1.8147342514
O 2.6404187832 1.3018074348 1.4164511615
C 2.1935527196 1.6234022884 0.1990475076
O 2.7658525893 2.3154769169 -0.6142956325
C 0.8230544294 1.0531337646 -0.0155899831
C -0.1386551593 1.3095697579 0.9557688790
C -1.4504366705 0.9022036417 0.7717070481
C -1.8240826620 0.2065281402 -0.3815941973
C -0.8490570726 -0.0827258836 -1.3520941570
C 0.4711878245 0.3470005377 -1.1687053477
Br 1.8155586945 -0.0970862975 -2.4350300526
Br -1.3249498700 -1.0562578357 -2.9061115589
Br -3.6186929662 -0.3400921724 -0.6201580251
Br -2.6956568238 1.3267786366 2.1423201120
H 7.0765940949 0.4755458545 -3.7567607631
H 6.3422053476 1.9116311483 -3.0260874924
H 7.8892072288 1.3034950035 -2.4187872725
H 5.2034691734 -0.1847028410 -2.2252845989
H 6.7387264140 -0.8011114417 -1.6290419343
H 6.8966494995 1.1240049981 -0.0361313529
H 5.3725058174 1.7538644607 -0.6575676961
H 5.7482747241 -0.9747347933 0.6745770924
H 4.2138314415 -0.3584199161 0.0955382455
H 5.8758228272 1.0274779615 2.2560683457
H 3.5994090045 -0.9881015546 2.5321624740
H 4.0686094968 0.1148897827 3.8181550514
H 5.1585655559 -2.0688716814 4.1771521415
H 5.9063023186 -2.0198378006 2.5798273199
H 6.3925181189 -0.8512281710 3.8171189732
H 4.3015933498 2.5350904490 1.1050357018
H 3.8218941445 2.2286368396 2.7984415021
H 0.1394649401 1.8482890980 1.8531588991
