39
CONF14
C 3.3824908506 -2.5626424826 2.5489761854
C 3.0349951358 -1.1151873690 2.2079157448
C 3.6322135552 -0.6806422167 0.8709225034
C 3.2572766127 0.7453546411 0.4660662102
N 1.8198442729 0.9148341867 0.2418723434
C 1.2434540607 0.5026833518 -0.8955443885
O 1.8100092253 0.0194333576 -1.8627337839
N -0.1842712183 0.7466780729 -0.9232357171
C -0.8178006671 1.9821549520 -0.7345918593
C -0.3749903072 3.1978508211 -0.2288081710
C -1.2969357197 4.2433949104 -0.2187363666
C -2.6049516762 4.0756813635 -0.6954124246
C -3.0359051714 2.8579524807 -1.2117275558
C -2.1261178906 1.8023138060 -1.2350120213
N -2.2969653986 0.5039957344 -1.6949831093
C -1.1350453370 -0.0733490030 -1.5090382648
N -0.8770389060 -1.3795713014 -1.8759298581
C -0.1316235053 -2.2662758631 -1.1265102962
O 0.4164680406 -2.0034038527 -0.0735474794
O -0.1046083429 -3.4608175623 -1.7425873336
C 0.6362988513 -4.4883708449 -1.0383949266
H 4.4677547762 -2.7042870503 2.6013918614
H 2.9926709262 -3.2434334952 1.7836419174
H 2.9561503550 -2.8596790839 3.5121394402
H 3.3967326984 -0.4464906917 3.0004328930
H 1.9444074860 -1.0050731527 2.1733090398
H 4.7275000836 -0.7371164259 0.9202616297
H 3.3121339576 -1.3701674355 0.0801589918
H 3.7741485639 1.0276136111 -0.4558759545
H 3.5462051549 1.4556010145 1.2477274399
H 0.6357894692 3.3417916458 0.1350025199
H -0.9902059394 5.2099652433 0.1673317351
H -3.2916929076 4.9154557113 -0.6645985265
H -4.0440790202 2.7264208172 -1.5909484537
H 0.1895943195 -4.6709149753 -0.0583209828
H 1.6799634439 -4.1866441967 -0.9243461965
H 0.5584436141 -5.3743583097 -1.6667054444
H 1.2278907023 1.1252243680 1.0318205561
H -1.4774582783 -1.7602000197 -2.5950657051
