82
CONF293
C -5.1415062242 -1.1206947725 -2.2829060160
C -5.1424748104 0.2665621919 -1.6946113461
C -6.2916051150 0.9256116807 -1.5148905463
C -3.7541181276 0.8034785347 -1.4077111939
C -3.6151836575 2.3029089059 -1.0314922680
C -2.7443689883 2.3643917255 0.2380194066
C -2.9525302007 1.0023929447 0.9206492874
C -3.0160690136 0.0144138091 -0.2704348722
C -1.6470391293 -0.5513671568 -0.7364334276
C -0.7661067779 0.4028003297 -1.5455735669
C 0.3921272811 -0.3597375181 -2.1787476595
C 1.3474921870 -1.0098118308 -1.1599575823
C 2.5965381339 -0.0852478892 -0.8114023618
C 2.2404691802 1.3866088216 -0.5250387717
C 3.4498090557 2.2466401985 -0.1512770122
C 4.1827746659 1.7076717434 1.0680210878
C 4.5954464416 0.2238038965 0.8982898295
C 3.4033061702 -0.6712397580 0.3951129009
C 2.4464003155 -1.0659325854 1.5259296765
C 1.4768682237 -2.1582438714 1.0921168583
C 0.5282192515 -1.8098372995 -0.0701432441
C -0.8393994536 -1.1513069350 0.4472157029
C -0.6093065121 -0.0202195825 1.4698316544
C -1.8923142283 0.6489356646 1.9806766307
C -1.7022344377 -2.2340416678 1.1322960006
C 0.1692004322 -3.1639643699 -0.7410702444
C 5.7984306794 0.1756121030 -0.0696205520
C 5.1553788468 -0.3020204042 2.2343787705
O 3.3016330250 1.9348669218 2.1894155063
C 3.4469203447 -0.1413316263 -2.1093161269
C -4.3309402727 0.9900141697 1.6112582131
O -4.4436273785 1.9328899937 2.6879537518
H -4.5929742137 -1.1262120643 -3.2334572761
H -6.1562934621 -1.4838464508 -2.4623984415
H -4.6288350964 -1.8334278500 -1.6262407333
H -6.3386846264 1.9334660585 -1.1164281427
H -7.2392483826 0.4586932237 -1.7689504725
H -3.2100296384 0.6189137166 -2.3411185575
H -3.1769027628 2.8737490823 -1.8561891737
H -4.5907050348 2.7509145785 -0.8298341994
H -1.6885627954 2.5046736093 -0.0115617705
H -3.0306780090 3.1869753569 0.9020017830
H -3.6225726372 -0.8496886538 0.0217541164
H -1.9068284033 -1.3741039047 -1.4211087911
H -1.3413810020 0.8799673477 -2.3455704486
H -0.3836393157 1.2125862087 -0.9220387895
H 0.9401920026 0.3076214474 -2.8505209942
H -0.0308972456 -1.1456902501 -2.8192091553
H 1.8541368536 -1.8201075520 -1.6997384093
H 1.5250925036 1.4484188898 0.2973447604
H 1.7519529195 1.8237470714 -1.4032042514
H 4.1521914742 2.3251839981 -0.9861065414
H 3.1205772693 3.2690014371 0.0685588626
H 5.1054477899 2.2917228024 1.2248541890
H 3.8634059201 -1.6085011468 0.0409983113
H 3.0165039506 -1.4681907631 2.3669233623
H 1.9291023797 -0.1817944082 1.8992485863
H 0.8987236095 -2.5085571399 1.9554308730
H 2.0872541074 -3.0175965720 0.7771342108
H -0.0799103868 -0.4181984874 2.3411076657
H 0.0386259076 0.7426653994 1.0369537439
H -2.3518142858 -0.0099176490 2.7294769760
H -1.6103717542 1.5616886807 2.5220623482
H -2.1395046404 -2.9220243116 0.4035414371
H -2.5307830978 -1.7851630846 1.6822669546
H -1.1228850859 -2.8200533056 1.8520800472
H -0.1880131734 -3.8867299355 -0.0033217805
H 1.0635646692 -3.5922918473 -1.2036169875
H -0.5969036870 -3.0689311932 -1.5163570111
H 5.6174933966 0.6689864693 -1.0219818773
H 6.0714586607 -0.8646574163 -0.2762083238
H 6.6624651606 0.6638212185 0.3942925829
H 5.4570727590 -1.3509483580 2.1318856128
H 4.4473583001 -0.2466789420 3.0639227616
H 6.0446071093 0.2759936174 2.5119143175
H 3.7742493461 1.6933178620 2.9944335454
H 4.1168598100 0.7102824663 -2.2198845296
H 2.8059893264 -0.1432098424 -2.9945365525
H 4.0509505297 -1.0543767172 -2.1385210841
H -5.1219178311 1.2566708920 0.9063833332
H -4.5335797923 -0.0302682544 1.9745963751
H -3.8235510963 1.6674985899 3.3783998618
