40
CONF135
C -4.5789926679 -0.8312798830 2.1373902427
C -4.6342369867 -0.2372661072 0.7461137347
O -3.3059142575 -0.1033829946 0.1653749546
P -2.5559532244 -1.3438975940 -0.5604717870
S -3.6837254663 -2.6193109630 -1.4754568552
O -1.4428659673 -0.5356617469 -1.3940506005
C -1.8694713161 0.4723811005 -2.3647969063
C -0.7035761067 0.7222023240 -3.2906419898
S -1.3324931687 -2.2820204315 0.8738125988
C -0.5623300687 -0.7614668309 1.6709505772
C -0.3314566891 -1.1297661891 3.1305479734
Cl 0.3616822952 0.2925156642 4.0264586540
N 0.6236939478 -0.3268697937 0.9905885595
C 0.7045597088 0.9035064312 0.3043368450
O -0.1650283409 1.7429031851 0.2596727549
C 2.0557924993 0.9185515640 -0.3113270161
C 2.6648789592 1.8896732742 -1.0852148177
C 3.9600768981 1.6285327387 -1.5380387526
C 4.6104335122 0.4350349292 -1.2156458948
C 3.9884993509 -0.5369858915 -0.4287362080
C 2.7052451484 -0.2700313705 0.0116392331
C 1.7972226009 -1.0906099743 0.8534812990
O 1.9819754747 -2.1839113875 1.3394480423
H -3.9240082842 -0.2419715920 2.7866310710
H -5.5836875188 -0.8282241707 2.5720390006
H -4.2203063774 -1.8635617768 2.1111238450
H -5.0196139399 0.7857151312 0.7626249395
H -5.2508054210 -0.8431335431 0.0733218702
H -2.1492750958 1.3716479343 -1.8075472957
H -2.7409228624 0.0913242486 -2.9107769792
H -0.9786804579 1.4860224120 -4.0244793909
H -0.4271977855 -0.1916973281 -3.8224943007
H 0.1634105754 1.0806016091 -2.7288479452
H -1.2842635933 -1.3795404046 3.5993163753
H 0.3741742393 -1.9546355627 3.2351378393
H 2.1512163507 2.8145882144 -1.3252760444
H 4.4725321913 2.3639549173 -2.1494316697
H 5.6168754336 0.2631531232 -1.5827869184
H 4.4839388878 -1.4663178435 -0.1695311248
H -1.2868878698 0.0556541994 1.5943879757
