40
CONF199
C 1.3738157767 3.8466651750 -0.2962549475
C 2.7228983944 3.1917886465 -0.4787537201
O 2.6134912443 1.9082786161 -1.1868274824
P 2.0411756281 0.5958297112 -0.4894717477
S 2.3854188448 0.3665910463 1.4064867562
O 2.5181704063 -0.5551466603 -1.4863613039
C 3.8883986644 -1.0827026103 -1.4017511405
C 4.0345602996 -2.1144751954 -2.4916924416
O 0.4665150778 0.6995900729 -0.9173609582
C -0.5386199710 -0.1159820699 -0.4457754371
N -1.7050379534 0.4918900232 -0.3429262689
C -2.7345168598 -0.2632912036 0.0791396346
N -2.6617091100 -1.5573344674 0.4026209210
C -1.4610141382 -2.1578631553 0.2844809048
C -1.3882839494 -3.6064167342 0.6468220262
C -0.3406903504 -1.4594436559 -0.1523457757
C -4.0770772787 0.4181398939 0.1833895489
C -4.5680438893 0.8399592385 -1.2082719483
C -4.0137553028 1.6194206760 1.1338835804
H 0.7361103945 3.2678948182 0.3783286466
H 0.8630105972 3.9636883498 -1.2559495762
H 1.5225396591 4.8385516504 0.1422138408
H 3.3769285638 3.7823804105 -1.1228990706
H 3.2248018775 3.0116517198 0.4768704784
H 4.0233468258 -1.5164833927 -0.4060808919
H 4.5870697301 -0.2496865519 -1.5326780821
H 5.0433755064 -2.5355154277 -2.4489036268
H 3.8868655277 -1.6654572855 -3.4773828511
H 3.3139902917 -2.9256765986 -2.3561658927
H -1.6293212363 -3.7328496556 1.7077486416
H -0.3955975980 -4.0174296870 0.4561969366
H -2.1322892661 -4.1716618048 0.0771881739
H 0.6211224131 -1.9435250839 -0.2631799321
H -3.8948515718 1.5863593169 -1.6412973317
H -4.6185417620 -0.0169547080 -1.8874803515
H -5.5675993295 1.2791977455 -1.1323337057
H -5.0100000479 2.0597152376 1.2405370769
H -3.6602830553 1.3223569138 2.1263410817
H -4.7694769747 -0.3245914683 0.5922910960
H -3.3382931568 2.3853917254 0.7412257329
