19
CONF1
C 2.5055185425 -1.4071742333 0.0786962084
O 2.0925648817 -0.0859719016 -0.2740142981
C 0.7580890441 0.1969038564 -0.1702540496
C -0.2304154128 -0.6712982994 0.2426165278
C -1.5624250862 -0.2265311604 0.2949263407
C -1.8808211715 1.0823779975 -0.0678340765
C -0.8870033007 1.9588923427 -0.4838506608
C 0.4304172688 1.5236043243 -0.5371153861
O 1.4013333126 2.3747647581 -0.9420157399
C -2.6193472166 -1.1423222455 0.7328492945
O -2.4436212384 -2.2985273772 1.0690273272
H 2.2713195018 -1.6216620029 1.1282938567
H 2.0235449738 -2.1514132669 -0.5665275311
H 3.5850828234 -1.4339749526 -0.0706925994
H -0.0250704591 -1.6951194460 0.5330660029
H -2.9139721164 1.4148723620 -0.0228284366
H -1.1080206107 2.9808961385 -0.7708838806
H 2.2431584554 1.8968433965 -0.9133971737
H -3.6403322867 -0.6951597928 0.7399382743
