31
CONF1
F 1.7332546944 -1.8153643672 0.8535271012
C 1.9233682568 -0.8094663642 -0.0295438763
F 2.3347795795 0.2882567361 0.6445638243
C 0.5908347792 -0.5069406299 -0.7802717227
F 0.8834849449 0.1819426832 -1.9042525852
F 0.0080686528 -1.6801822309 -1.1084135794
C -0.4219604379 0.3358622307 0.0729715036
F -0.0148318354 1.6246507292 0.0807709214
F -0.4158002163 -0.1380086267 1.3414204684
C -1.8922728827 0.2745117800 -0.4718170312
F -1.8654228279 0.3524092340 -1.8207513981
F -2.4396233989 -0.9074329826 -0.1079693644
C -2.7970443371 1.4333710432 0.0689288678
F -2.5578911991 1.6133814244 1.3892568404
F -2.4974270910 2.5686518720 -0.5960659535
C -4.3303049090 1.1764561795 -0.1008527302
F -4.6055874288 0.8126245862 -1.3609936699
F -4.9887986599 2.3099524792 0.1767625302
F -4.7546278925 0.2231559800 0.7350080612
S 3.3394559882 -1.3390050043 -1.2133122688
O 3.9032479552 -0.0986758466 -1.7331606398
O 2.7633581235 -2.4001258047 -2.0335548520
N 4.4613524377 -2.0400819821 -0.2215467593
C 5.3493960101 -1.2657778827 0.6644726831
C 4.9685230051 -1.3671624072 2.1355005231
H 4.1884208061 -2.9668058079 0.0864488638
H 6.3688665053 -1.6381482067 0.5069169577
H 5.3333362897 -0.2293020869 0.3161762481
H 4.9711753191 -2.4091150362 2.4721583346
H 3.9787151335 -0.9458457863 2.3259401515
H 5.6965913115 -0.8211697373 2.7427193731
