22
CONF13
C 2.2977001898 -0.1499312543 -0.0505909237
C 0.8044212710 -0.0746086601 -0.3257931566
C 0.0177440204 0.2119010007 0.9568190688
C -1.4781103540 0.5310435833 0.7749966991
C -2.3330091261 -0.5117007070 0.0522836246
O -2.1628333557 -0.4390505498 -1.3619106773
O -1.6108288172 1.7982827272 0.1233632244
O 0.6221902049 1.3131255559 1.6357033355
O 0.3654664576 -1.3403491834 -0.8538400700
O 2.8977602964 -0.5935096985 -1.2809576850
H 2.4849243506 -0.8715245120 0.7590219316
H 2.6754241970 0.8331600976 0.2478304247
H 0.6206959345 0.7230272039 -1.0652051952
H 0.1142297564 -0.6639064450 1.6137873035
H -1.8743585799 0.6592213554 1.7919994724
H -2.1150958113 -1.5177356055 0.4371910314
H -3.3869249841 -0.2863727296 0.2453446512
H -1.3119575732 -0.8769111366 -1.5429738855
H -1.7465197131 1.5889096435 -0.8149226611
H 0.2377127279 2.1064771120 1.2327836425
H 1.0630800335 -1.6244384088 -1.4633446361
H 3.8182890757 -0.8151093835 -1.1115854186
