48
CONF44
C -4.7430899281 -0.9501726190 -0.0716527895
C -4.3055020812 0.3749779595 -0.7109706089
C -5.4845117211 1.3605475882 -0.6412833055
C -3.9441412836 0.1486204072 -2.1857088045
C -3.1217210234 1.0548278785 0.0352606386
C -1.7434404070 0.3947455421 -0.1547061725
N -1.6419713147 -0.9385121326 0.4290512791
C -1.2711972328 -2.0983181292 -0.1563511509
N -1.3303573239 -3.0915351368 0.7182195432
C -1.7489623984 -2.4693298934 1.8564765235
N -1.9479916932 -1.1646704497 1.7336155380
O -0.8024349630 1.2645541321 0.4620247792
C 0.5426432797 0.9816817316 0.3417970220
C 1.3477716719 1.4623048530 1.3743201635
C 2.7206359648 1.2763959439 1.3253112878
C 3.3236335529 0.5958992862 0.2570310789
C 2.4945895833 0.1214419235 -0.7659259522
C 1.1161113629 0.3092182476 -0.7362662361
C 4.7853726883 0.3882786740 0.2125623129
C 5.6655020568 1.3753945341 0.6795710085
C 7.0420611434 1.1802536469 0.6382163148
C 7.5689744084 -0.0041324612 0.1272111112
C 6.7055100534 -0.9926384006 -0.3407402837
C 5.3285961113 -0.7997863269 -0.2976535093
O -3.4064341955 1.2933216494 1.4081304252
H -5.6633631080 -1.2922355441 -0.5564848030
H -4.9546097835 -0.8273889701 0.9952161297
H -3.9978596739 -1.7413797612 -0.1926436809
H -5.7686085534 1.5593829640 0.3955689161
H -5.2271513693 2.3129808673 -1.1185807943
H -6.3504777250 0.9403389224 -1.1626218519
H -3.2133142170 -0.6567384092 -2.3150159476
H -4.8431981063 -0.1364803160 -2.7416102215
H -3.5426619566 1.0614452777 -2.6419731372
H -2.9969407547 2.0469361931 -0.4200570926
H -1.5428558768 0.2782912530 -1.2236989136
H -0.9836893980 -2.1640820191 -1.1976973248
H -1.9075458991 -2.9834057465 2.7958539110
H 0.8818575698 1.9714063840 2.2116631386
H 3.3304378197 1.6379485638 2.1473734999
H 2.9322205483 -0.3826836738 -1.6218591748
H 0.5204823934 -0.0500292673 -1.5672581773
H 5.2678208228 2.3123797414 1.0574271850
H 7.7059644679 1.9604538922 0.9980023973
H 8.6432452975 -0.1558284638 0.0944837321
H 7.1053071244 -1.9231404290 -0.7322882161
H 4.6658161018 -1.5882294875 -0.6412215263
H -3.2105200296 0.4787868790 1.8998813371
