35
CONF586
C -0.9828416747 2.4347392268 2.0345358604
C 0.5014696999 2.7813615048 2.0087062353
O 1.3495897601 1.6988999582 2.3542279629
C 1.6358403770 0.7711511336 1.3022732051
C 1.0637557140 -0.5894675950 1.6561058300
O 1.4486306108 -1.4857192070 0.6211514492
C 0.8559150305 -2.7680268968 0.7474989616
C 0.7953460722 -3.4171098500 -0.6195764831
O -0.1695216749 -2.7836264909 -1.4520472649
C 0.3336223027 -1.7623939097 -2.3115518620
C -0.7247022567 -0.6969210212 -2.4776082896
O -0.6878033252 0.1697434762 -1.3505057594
C -1.8286564392 1.0044202280 -1.2579813489
C -1.5490253041 2.0960443269 -0.2531934034
O -1.3913566600 1.5111611273 1.0300008348
H -1.2141291272 1.9552751602 2.9920402158
H -1.5711119115 3.3677521434 1.9629041720
H 0.7942546194 3.2067479548 1.0357991582
H 0.6729105223 3.5556086367 2.7680479595
H 2.7270059065 0.6981377374 1.1980498530
H 1.2115785974 1.0961582399 0.3449848321
H -0.0316662040 -0.5195900274 1.7163788891
H 1.4566386568 -0.9205565791 2.6324195472
H -0.1709605068 -2.6798789761 1.1353967712
H 1.4359066706 -3.4013851346 1.4435005364
H 0.4801706225 -4.4618191705 -0.5020697643
H 1.7911164205 -3.4136801746 -1.0876271464
H 0.5720918528 -2.1939752987 -3.2983399472
H 1.2372824408 -1.3016116688 -1.8943433743
H -0.5341807381 -0.1214493370 -3.4006748681
H -1.7114043807 -1.1786656354 -2.5705762670
H -2.7112001662 0.4191513991 -0.9510149182
H -2.0511230372 1.4798931069 -2.2296898688
H -0.6424461669 2.6388805510 -0.5632468944
H -2.3909957900 2.8107504584 -0.2478803150
