50
CONF21
C 5.2623334738 -0.7712716048 -0.8700345467
C 4.0148815800 0.0747089652 -1.1247816338
C 3.1306764210 0.2021292084 0.1196445879
C 2.0308861540 1.2780642523 0.0167985979
C 1.2775344066 1.2261928595 1.3492397594
C 0.3964999688 -0.0560449624 1.3303007557
C -1.0360745853 0.3536838334 0.9581498123
N -2.1539608957 -0.5454291039 1.3164472185
C -2.3912554302 -0.7522240588 2.7402816812
C -3.2291139620 -0.0895289595 0.5398742162
C -4.5913332160 -0.2896664105 0.7545010844
C -5.4911773576 0.2233665108 -0.1849339341
C -5.0476331538 0.9150781310 -1.3096559899
C -3.6756028507 1.1117773905 -1.5185440424
C -2.7718326295 0.6360802875 -0.5827745302
C -1.2698517128 0.5686792668 -0.5569040402
C -0.7628207523 -0.6705999441 -1.3161096824
C 0.7180223838 -0.5876328465 -1.0164769778
C 1.0609195068 0.9321041584 -1.1339790516
C -0.3138262081 1.6620855137 -1.0786754427
O -0.6377155925 2.0869768221 -2.4125049779
N 0.9613784543 -1.0503224840 0.3728017965
C 2.4349017304 -1.1417816722 0.5106612896
O 2.7962645252 -1.6191783477 1.8012506553
H 5.8795346537 -0.3225715293 -0.0839043442
H 5.8734097491 -0.8570588876 -1.7738661588
H 5.0006950521 -1.7856718773 -0.5492810766
H 4.3145874204 1.0818572519 -1.4423452848
H 3.4411242010 -0.3546697354 -1.9551889208
H 3.7877544534 0.4961694586 0.9509701343
H 2.4850795037 2.2623101473 -0.1411332599
H 1.9954505897 1.1941960137 2.1769950459
H 0.6666996499 2.1179886458 1.5117234263
H 0.3890437319 -0.5130727494 2.3247312825
H -1.2220675386 1.3194758818 1.4657856210
H -1.4846141700 -1.1362168049 3.2133785856
H -2.6905336043 0.1798656780 3.2489752845
H -3.1774087573 -1.4982614559 2.8826772583
H -4.9560423625 -0.8260942417 1.6240381817
H -6.5562067155 0.0801474631 -0.0272575696
H -5.7641781163 1.3037222749 -2.0261028825
H -3.3357106374 1.6345124435 -2.4067689683
H -0.9600206858 -0.5420256375 -2.3853362426
H -1.2164477860 -1.6028086158 -0.9723924603
H 1.3219463867 -1.2080424430 -1.6863956283
H 1.5233703460 1.1569298559 -2.0993442301
H -0.3002164554 2.5370004188 -0.4167719546
H -1.3730478131 2.7088006448 -2.3487575424
H 2.7431959641 -1.9318534890 -0.1861212742
H 2.9025025500 -0.8668746197 2.3971168808
