39
CONF45
C -3.4437605765 -3.2825785604 1.6504195855
C -3.2034533504 -1.9369048307 0.9708669695
C -1.7110463903 -1.6659687762 0.7945141707
N -1.4690284959 -0.3611480788 0.1544206450
C -1.0443404549 0.7353072594 1.0308550473
C 0.4363212132 0.6675420512 1.3463161003
O 1.1397591596 0.9112071731 0.0995183654
C 2.4765239982 0.6761295699 0.1528534242
C 3.3848758279 1.7023848133 0.4377412709
Cl 2.7642566166 3.2962314713 0.7837772240
C 4.7582176483 1.4940371168 0.4417855942
C 5.2252980872 0.2182417385 0.1541081681
Cl 6.9532603843 -0.0697970641 0.1570445515
C 4.3707954449 -0.8359821587 -0.1412237732
C 3.0042460385 -0.5879941193 -0.1380379553
Cl 1.9003436364 -1.8825645136 -0.5256439462
C -1.4277831646 -0.3329650945 -1.1948344858
O -1.4837901807 -1.3143222749 -1.9244740477
N -1.3378220711 0.9773705954 -1.7947866392
C -2.1828415418 2.0619825658 -1.6278964951
C -1.7196622112 3.0168283138 -2.4912324811
N -0.6135015165 2.5545379861 -3.1804438396
C -0.4207021958 1.3264724263 -2.7499729995
H -4.5134195608 -3.4728334694 1.7745949243
H -3.0215719576 -4.1009738291 1.0574722317
H -2.9785122121 -3.3098177696 2.6417494425
H -3.6846887885 -1.9172352895 -0.0140150242
H -3.6464962582 -1.1270230175 1.5633189176
H -1.2104321957 -1.6569080061 1.7680001384
H -1.2484227657 -2.4503816285 0.1890007155
H -1.6106585998 0.6663985910 1.9652141667
H -1.2695027765 1.7030227885 0.5815826601
H 0.6983221410 1.4452414104 2.0742128863
H 0.7258593331 -0.3130406623 1.7425588168
H 5.4398163987 2.3058070695 0.6629772017
H 4.7532743050 -1.8224940123 -0.3713554407
H -3.0259681907 2.0318077380 -0.9545891819
H -2.1257736973 4.0040182616 -2.6627283691
H 0.3620088190 0.6463646441 -3.0594085478
