41
CONF13
C 2.4378412763 3.3878652240 1.2240137220
C 2.5613808590 1.9650808382 0.7740217604
C 2.7418427815 0.9351821752 1.6910666403
C 2.8644567379 -0.3912448692 1.3079914979
C 2.8114979682 -0.7677557382 -0.0302436191
C 2.6409079131 0.2592225762 -0.9527725906
C 2.5115068867 1.5841292813 -0.5626018788
F 2.3434618007 2.5170152973 -1.5202557547
F 2.5889254603 -0.0340573487 -2.2658759258
C 2.8726370491 -2.2008952704 -0.4733716209
O 1.6422163270 -2.5724171900 -1.1587893134
C 0.5284574564 -2.5872425014 -0.3824495797
O 0.5657959583 -2.4560968236 0.8248877155
C -0.6698163715 -2.7095261088 -1.2383743968
C -1.6739227973 -1.5172858418 -1.2265785070
C -2.0735569336 -2.8986895177 -0.7321739642
C -2.9835606370 -3.6709359036 -1.6660602878
C -2.3812308578 -3.1383729323 0.7290126112
C -1.4371657975 -0.4075386408 -0.3160186447
C -1.6252726151 0.8855745457 -0.5910738688
C -1.3500602443 1.9868329140 0.3883874726
F -0.4809832638 2.9022316846 -0.1099718583
F -0.8208232553 1.5150675219 1.5357379437
F -2.4761907464 2.6708916237 0.7165031964
Cl -2.2264358756 1.4815079334 -2.1223828868
F 3.0351574041 -1.3201207509 2.2642516352
F 2.7942772735 1.2353475244 3.0044720778
H 1.6011842396 3.4932253191 1.9208896019
H 3.3472745665 3.7006486320 1.7463666595
H 2.2731025371 4.0509331229 0.3755068088
H 3.0436931835 -2.8637007640 0.3755976282
H 3.6491131633 -2.3488817358 -1.2251894519
H -2.0254167717 -1.2505898431 -2.2176487405
H -2.7496714939 -3.4699256772 -2.7151680616
H -2.8752772903 -4.7458688028 -1.4860952982
H -4.0273184094 -3.3956800928 -1.4828992056
H -1.7543548302 -2.5620491951 1.4058230873
H -3.4310273715 -2.8888029807 0.9151002505
H -2.2400585774 -4.1993173978 0.9606264326
H -1.0563313686 -0.6319884862 0.6751258679
H -0.4566666721 -3.0693817081 -2.2395838551
