51
CONF35
C -1.0058457258 -1.4518127906 2.0233182247
C -0.9952435567 0.0190317293 1.7160758714
C -1.6050181793 0.4913172506 0.6169982218
C -1.6657935805 1.8950024359 0.1877388648
C -1.6296647416 2.2745248370 -1.3237648228
C -2.8697994103 2.5080158653 -0.4828333332
C -4.1299851729 1.6995135392 -0.6917665642
C -3.1440110633 3.9620639325 -0.1574101802
C -1.4874620573 1.1906460155 -2.3120964856
O -2.1528670464 0.1772217950 -2.3932636872
O -0.4349146441 1.4541023113 -3.1346428729
C -0.0274496491 0.3482866462 -3.9991069784
C 0.8499906826 -0.5898027199 -3.2500910054
C 0.4715223537 -1.4910367423 -2.1990397671
C 1.6127766684 -2.0780854564 -1.7545676134
O 2.6864299465 -1.6096881018 -2.4724753730
C 2.2010297082 -0.7041101053 -3.3684377380
C 1.9107815098 -2.9971815803 -0.6317858352
C 2.6087707096 -2.3328119445 0.5447089151
C 2.5422197458 -0.9546600161 0.7502719537
C 3.1725700703 -0.3740563021 1.8474516963
C 3.8657195575 -1.1629573670 2.7600023499
C 3.9302980541 -2.5400186003 2.5650133462
C 3.3106658981 -3.1174672595 1.4620587172
C -0.2797633757 0.8519111115 2.7398172667
H 0.0209514902 -1.8397002777 2.0652410696
H -1.5639413606 -2.0192989145 1.2738555423
H -1.4541313045 -1.6443451799 3.0066889519
H -2.1010536224 -0.2268713950 -0.0288247401
H -1.0871644925 2.5917609233 0.7864051540
H -1.0265355098 3.1474515665 -1.5501046064
H -4.7270498309 1.7204804179 0.2266836817
H -4.7278770183 2.1445302228 -1.4945111211
H -3.9296140888 0.6651042519 -0.9612107292
H -2.2182966581 4.5231292179 0.0032757475
H -3.6960265366 4.4417167998 -0.9735034044
H -3.7498395974 4.0379943714 0.7524182861
H 0.5148702911 0.8252396678 -4.8176794169
H -0.9222643686 -0.1484979248 -4.3829370285
H -0.5246034256 -1.6498154978 -1.8173454622
H 2.9283596249 -0.2394113340 -4.0161070966
H 2.5238133871 -3.8367748303 -0.9824631471
H 0.9577911351 -3.4233422265 -0.2945872315
H 1.9920663474 -0.3342306431 0.0483140197
H 3.1236811456 0.7016986039 1.9857305392
H 4.3579851214 -0.7082345968 3.6135570749
H 4.4722581348 -3.1648438809 3.2680473445
H 3.3738911416 -4.1917812683 1.3083873572
H -0.8452124561 0.8617531229 3.6808689362
H -0.1247973266 1.8874677740 2.4325986328
H 0.6977830708 0.4108722604 2.9667336700
