33
CONF531
C 6.7372027530 -1.3197966551 -0.1731336171
C 5.8933117570 -1.9007284528 -1.3159734232
C 4.4369916467 -2.0039103161 -0.9541336915
C 3.8216474882 -3.1651005536 -0.7028411718
C 3.6964778585 -0.7134303077 -0.8991928678
O 4.1419698620 0.3420931139 -1.3125974996
O 2.4676245002 -0.8232012570 -0.3486779197
C 1.6921486369 0.3978573810 -0.3078227672
C 0.3704377046 0.0093517613 0.3382185106
C -0.5696180838 1.1885530169 0.4011651950
C -1.8966242035 0.8710546959 1.1552629942
C -3.0298785625 1.9373993900 0.9932842734
C -4.1649352269 1.8334039039 2.0640807967
F -5.1880957124 2.6152764016 1.6905271007
F -4.6030976352 0.5703223752 2.1655909628
F -3.7322708397 2.2445006030 3.2616114976
F -2.5108933467 3.1843443150 1.0780114681
F -3.6021069249 1.7834687745 -0.2224090087
F -2.3796530478 -0.3125245245 0.6998399178
F -1.6097414669 0.7343169000 2.4759165484
F -0.9059436688 1.6169421695 -0.8590705739
F 0.0236554192 2.2471995032 1.0367755291
H 7.7869813901 -1.2483951467 -0.4726472770
H 6.6752766219 -1.9591105156 0.7130008881
H 6.3930835817 -0.3183255232 0.1009746586
H 6.0003372119 -1.2684663915 -2.2041896800
H 6.2581520689 -2.8993358702 -1.5739257766
H 2.7727794928 -3.2138172942 -0.4342669691
H 4.3689028956 -4.1007177285 -0.7726689894
H 1.5527074167 0.7725365762 -1.3262216207
H 2.2296286855 1.1470329765 0.2796217771
H -0.1102341863 -0.7852267061 -0.2385825789
H 0.5385188224 -0.3540791668 1.3571181513
