40
CONF25
C -6.5540203116 -1.6180542755 1.1251946588
N -5.4016597017 -1.9519045447 0.2803974250
C -4.2432830002 -1.1120556264 0.5985404331
C -3.0489765857 -1.5067351935 -0.2626143850
C -1.7814733031 -0.7430066907 0.1116864650
O -0.7537037982 -1.2845973014 -0.7574446212
C 0.5464257248 -0.9751321218 -0.5186480140
C 1.4609238728 -1.4710160196 -1.4577353248
C 2.8153508149 -1.2318311874 -1.3060036221
C 3.2741945746 -0.4852942444 -0.2176573276
C 2.3661585455 0.0058593314 0.7176263709
C 1.0040454061 -0.2298288890 0.5739701029
C 4.7349546524 -0.2607024889 -0.0160995426
F 5.2955929129 -1.1966451480 0.8090227185
F 5.0001106895 0.9428852468 0.5550753272
F 5.4376325068 -0.3119172316 -1.1741417780
C -1.9271238957 0.7491722393 -0.0756361781
C -1.9030238314 1.3064850986 -1.3560195914
C -2.0827814839 2.6758719828 -1.5285028412
C -2.2961990065 3.4994781770 -0.4238960660
C -2.3234763548 2.9475880519 0.8548692064
C -2.1345876574 1.5784535671 1.0271730658
H -6.8996816828 -0.6053110100 0.8875855902
H -6.3302377501 -1.6522750624 2.2060312290
H -7.3750928623 -2.3120970129 0.9205998845
H -3.9641495949 -1.1709877046 1.6690468882
H -4.5169825366 -0.0667730067 0.4033060106
H -2.8452637869 -2.5779398339 -0.1397092156
H -3.2738094770 -1.3262378895 -1.3204639936
H -1.5204814032 -0.9634795005 1.1556916572
H 1.0896404982 -2.0437122622 -2.3009150446
H 3.5135067204 -1.6219314803 -2.0384927486
H 2.7150689978 0.5840655826 1.5668196832
H 0.3205048671 0.1737412152 1.3088159370
H -1.7359600170 0.6663364024 -2.2173337744
H -2.0570169331 3.1014680158 -2.5270227817
H -2.4363779581 4.5673297700 -0.5599032763
H -2.4838152598 3.5838558900 1.7197905178
H -2.1446083971 1.1493747157 2.0261362294
H -5.1465457654 -2.9195705278 0.4581768535
