42
CONF53
C 4.2334515131 -1.2572125983 -3.6815227431
C 4.4619445587 -2.0486483090 -2.5587553143
C 4.6565829339 -1.4148452679 -1.3383561694
N 4.6017184667 -0.0852085612 -1.1823018059
C 4.3792034049 0.6567496170 -2.2701006454
C 4.2062665966 0.1235164452 -3.5494388723
N 4.3740680302 2.0609211517 -2.0495023584
S 2.9812203493 2.9645424213 -2.4838456715
O 3.1692620691 4.2637561231 -1.8259379878
O 2.8359354791 2.8735763841 -3.9409786090
C 1.6083512811 2.1021139987 -1.7274044793
C 0.8706236091 1.1990626604 -2.4872472806
C -0.1529499160 0.4944163478 -1.8686038506
C -0.4346731689 0.6977610298 -0.5130150007
C 0.3248850066 1.6111442965 0.2375115356
C 1.3511818982 2.3113806277 -0.3699105656
N -1.4994880397 -0.0776762089 -0.0001276058
N -1.8106132062 0.1828850292 1.1929342269
C -2.8573064807 -0.5833796619 1.7230157536
C -3.2080586401 -0.2863914192 3.0374156047
C -4.2355454630 -0.9790148876 3.6798714208
C -4.9254053944 -1.9977568941 2.9742715671
C -4.5654798817 -2.2921379689 1.6463663502
C -3.5514145169 -1.6003663198 1.0295029277
O -5.9178926851 -2.7030872710 3.5199969790
C -4.6240771058 -0.6862807091 5.0613875576
O -5.5242184914 -1.2831576366 5.6541002727
O -3.9176062364 0.2918165286 5.6402001798
H 4.0952669905 -1.7093983903 -4.6582413679
H 4.4989812503 -3.1298620760 -2.6275826484
H 4.8559576856 -1.9934751772 -0.4388147248
H 4.0643927083 0.7725086823 -4.4042251568
H 4.6030683016 2.2686172844 -1.0768909054
H 1.0870108153 1.0563043593 -3.5394425522
H -0.7511950629 -0.2166891128 -2.4285265132
H 0.1070650652 1.7609649408 1.2878761853
H 1.9476486804 3.0175500065 0.1980929668
H -2.6679393004 0.4959130155 3.5581951274
H -5.1086629130 -3.0758968021 1.1289267014
H -3.2775536972 -1.8303321180 0.0064813584
H -6.0353688983 -2.3665925751 4.4459291755
H -4.2486376856 0.4119087132 6.5467487310
