59
CONF420
C -0.3137160697 4.3249026668 -4.3441984086
C 0.6752824014 5.2130924287 -5.1514777349
C 1.8956512964 4.3168596213 -5.4322528323
C 1.9025167028 3.2877056182 -4.2915885758
C 0.3990803558 2.9698003916 -4.1553022046
C 2.4499720499 3.8948579204 -2.9975649814
C 2.4961120309 2.9151049948 -1.8473201948
O 2.3514693871 3.2648315637 -0.6906181778
N 2.7322939188 1.5702519077 -2.1651757353
C 2.8075709432 1.0605713655 -3.4695518906
O 2.9275281951 -0.1343090296 -3.6646083467
C 2.7513051364 2.0618702242 -4.6004259680
C 2.7580686992 0.6027732183 -1.0543423339
C 1.3607877399 0.0792716000 -0.7333450028
C 1.3878752946 -0.9191795925 0.4224818634
C -0.0180417200 -1.4023468522 0.7705497746
N -0.0389730672 -2.5131127890 1.7252410763
C 0.4075136616 -2.0968367264 3.0582496921
C 0.3964673496 -3.2793463044 4.0234158775
N -0.9359673626 -3.8717436351 4.0794407985
C -1.4106222684 -4.2771687338 2.7602880330
C -1.3870059786 -3.0841601158 1.8094462224
C -1.8034738693 -3.5912287399 5.0993213595
N -1.2952713523 -2.9851609339 6.1979806858
C -2.1443914695 -2.7741835608 7.1972354234
C -3.4861662287 -3.1361161629 7.1486689996
C -3.9032369252 -3.7398022432 5.9674452531
N -3.0929303569 -3.9717025096 4.9408258234
H -1.2686862035 4.1996913859 -4.8608337714
H -0.5407502160 4.7816145652 -3.3763351679
H 0.2327284336 5.5888798779 -6.0775286223
H 0.9691170298 6.0902237833 -4.5668289248
H 2.8355996617 4.8749387866 -5.5029955729
H 1.7599766138 3.7806997408 -6.3801814537
H 0.1462025960 2.4874764310 -3.2046359666
H 0.1173805413 2.2755403950 -4.9562185975
H 3.4763932690 4.2535600055 -3.1620399743
H 2.3883449443 1.5227911131 -5.4798157778
H 3.7861640113 2.3681891631 -4.8134016693
H 3.4140325243 -0.2178049154 -1.3535794338
H 0.7150508310 0.9288235453 -0.4775119937
H 0.9459384146 -0.3977733576 -1.6298733195
H 1.8575419293 -0.4404653203 1.2902704493
H 2.0042058488 -1.7875206334 0.1577493368
H -0.4993172497 -1.7564418802 -0.1509018607
H -0.6226853299 -0.5453316641 1.1350777301
H 1.4296273192 -1.7098528277 2.9938158492
H -0.2351953490 -1.2901259227 3.4695595015
H 0.6937260801 -2.9616343922 5.0222618490
H 1.0966665060 -4.0451970966 3.6643843642
H -0.7381589990 -5.0573993497 2.3797340966
H -2.4184887208 -4.6821756485 2.8456081302
H -1.6902127693 -3.4138438691 0.8081288134
H -2.1303448554 -2.3368221754 2.1577809361
H -1.7301350007 -2.2867979696 8.0799764498
H -4.9402306555 -4.0491996681 5.8357002963
H 3.1807718099 1.1162395751 -0.1879017931
H 1.8643080536 4.7498448182 -2.6516917314
H -4.1632923316 -2.9528509213 7.9732344094
