45
CONF69
C -2.8975342503 4.8992946728 -2.6978792365
O -3.2247342506 3.5025476804 -2.7115392626
N -2.4779058349 2.8559428967 -1.7477773598
C -2.7203877840 1.5831562359 -1.6795596055
C -3.6568445420 0.8318520430 -2.4714371409
C -4.3905569327 1.0950372338 -3.6071291762
C -5.1652434601 -0.0624834524 -3.8681058801
C -4.8713028144 -0.9507992590 -2.8755832028
O -3.9625231111 -0.4318817243 -2.0225654316
C -1.8542612866 0.8624078143 -0.6726199431
O -1.4850449224 -0.2908688911 -0.8206650360
N -1.4903631142 1.6118028458 0.4111832193
C -0.6187122756 1.0729601783 1.4022451458
C 0.7932747551 0.5286283625 1.0220274357
N 0.4227555249 -0.7365156382 1.6574995597
C -0.8741218409 -0.3555283170 1.9213749550
O -1.8178209580 -0.9364506379 2.4205599573
C 1.3034606288 -1.7688795773 2.0242100837
C 2.6440294894 -1.5453126797 1.9657973029
C 3.2553777536 -0.2158723518 1.6069137239
S 2.2164515010 1.2722898550 1.8748201610
C 3.6491610953 -2.6514153571 2.2349533927
O 5.0188664828 -2.1870894669 2.1663329510
C 5.5556189376 -2.1335224387 0.9120981658
O 4.9438577186 -2.3549205163 -0.1111315851
N 6.8616465280 -1.7396114830 0.9834511838
C 0.7474768721 -3.1088926219 2.4250516675
O 1.4915602416 -4.0520436680 2.5986646269
O -0.5668196889 -3.2553936495 2.5795372574
H -1.8352330331 5.0467399210 -2.9171447479
H -3.5102712321 5.3466098143 -3.4824923815
H -3.1461592753 5.3436485051 -1.7283895998
H -4.3618031440 2.0051537206 -4.1801402589
H -5.8532628025 -0.2170513234 -4.6848269245
H -5.2108087572 -1.9489426686 -2.6474298191
H -1.7559479173 2.5838233273 0.4352926877
H -0.5568673440 1.7633423753 2.2500440309
H 0.9685413450 0.4212335098 -0.0527023406
H 4.1483440864 -0.0592126093 2.2182537821
H 3.5907198834 -0.2400306387 0.5619955086
H 3.5431462575 -3.0465174345 3.2463502413
H 3.5115199811 -3.4745206200 1.5322501844
H 7.4001872059 -1.8560563625 0.1424545418
H 7.3422251418 -1.8166387579 1.8642111247
H -1.1036915296 -2.4210504433 2.5215458355
