53
CONF224
C -3.6652996576 -3.3965690921 -1.5117524589
O -3.2864239106 -2.1264075532 -0.9102338659
C -3.3563118915 -1.0617155107 -1.7112241760
O -3.6739484939 -1.0785964943 -2.8774962556
C -3.0364782645 0.2266814926 -0.9279474854
C -4.2784894226 0.6045830518 -0.0821689634
C -3.9145760689 0.1232001499 1.3013293677
C -2.5435424312 -0.1594848112 1.4004498456
C -1.9426078009 0.0570623064 0.1006345651
N -0.6980536567 0.2774686521 -0.1327206021
N -0.3846473253 0.6302293154 -1.4142085818
C -1.4163062573 0.9743524168 -2.4346693882
O -2.6510758794 1.2680046531 -1.8170615013
C 0.9197721986 0.6137255811 -1.8298926930
O 1.2627313584 1.0754061666 -2.9082740222
N 1.8530826713 0.0552957265 -0.9070106813
C 3.0394863909 0.7978152258 -0.6405842405
C 2.9374736519 2.1623312455 -0.3731972453
C 4.0846964759 2.9090266069 -0.1351258055
C 5.3114016720 2.2646965496 -0.1486824286
C 5.4336694158 0.9092681271 -0.4152636882
C 4.2848537069 0.1716599206 -0.6714477176
O 6.4823091659 3.0351523551 0.0397395264
C 6.9464896079 3.1093040622 1.3066831843
F 7.3004814478 1.9038154942 1.8099437342
F 6.0451239038 3.6361665663 2.1671951807
F 8.0302141307 3.8937678463 1.3002642127
C 1.6438001049 -1.1761565936 -0.2829068439
O 2.2099451400 -1.5330866384 0.7283916907
O 0.7788733797 -1.9198015915 -0.9921355340
C 0.3185606361 -3.1218156258 -0.3271106156
C -1.9732375884 -0.5588397435 2.6069774545
C -2.7938407915 -0.6919707592 3.7201705006
C -4.1573158826 -0.4172675175 3.5998342304
C -4.7429279617 -0.0053033420 2.4044331987
Cl -5.1786064371 -0.5993965609 5.0170272212
H -3.5394802822 -4.1340617497 -0.7210838953
H -4.7049513752 -3.3524530160 -1.8428066468
H -3.0092264355 -3.6142452703 -2.3568604467
H -4.3803838716 1.6960723764 -0.0984234025
H -5.2064433809 0.1714758631 -0.4644427572
H -1.0965506756 1.8775095567 -2.9553600715
H -1.5040780634 0.1387412221 -3.1429834420
H 1.9639062587 2.6415804557 -0.3501223908
H 4.0282145428 3.9723274471 0.0683457362
H 6.4123250639 0.4437900611 -0.4413842461
H 4.3584315543 -0.8854462015 -0.9001257802
H -0.4027094025 -3.5661720141 -1.0116523545
H -0.1608289281 -2.8622606744 0.6205346462
H 1.1558780026 -3.8008294103 -0.1532450073
H -0.9122586007 -0.7753197352 2.6773764898
H -2.3868989371 -1.0129773643 4.6719850790
H -5.8042221981 0.2096669872 2.3482890905
