32
CONF1
C 3.2479375366 -0.7767932819 -1.8583675326
C 1.9280728132 -0.4403370676 -1.5971997850
C 1.4311870815 -0.3029807182 -0.2979084955
C 2.3354097583 -0.5343247340 0.7450420828
C 3.6661835471 -0.8703955423 0.5189669961
C 4.1081157728 -0.9885963952 -0.7901867529
Cl 5.7794739100 -1.4097212028 -1.0876789428
Cl 1.8625223730 -0.4018707567 2.4396067050
C -0.0404136328 0.0514887836 -0.0898531958
C -0.2560863199 1.3772623070 0.6885190694
C -0.6640696228 2.3733709180 -0.3841426286
C -1.3787244768 1.4908454953 -1.3811179726
O -0.6482874950 0.2606828736 -1.3799315712
Br 0.9344097621 3.2234811387 -1.2209863842
C -0.7629929106 -1.1735107803 0.5307181566
N -2.2024841931 -1.0066684468 0.5559254520
C -3.1013131277 -1.2875845609 -0.4153893460
N -4.3128482754 -0.9021742726 -0.0501237141
C -4.0930938890 -0.3701839885 1.1841452757
N -2.8325987377 -0.4074050952 1.5986654558
H 3.6047741412 -0.8665466282 -2.8771653989
H 1.2505831908 -0.2531308756 -2.4202739050
H 4.3393112418 -1.0331525584 1.3507837694
H -1.0883126669 1.2665720968 1.3931820004
H 0.6225762000 1.6929412079 1.2461390066
H -1.2601263437 3.2071080372 -0.0162525151
H -2.4129348744 1.3272924854 -1.0320518632
H -1.3972648318 1.8758993346 -2.4023586250
H -0.5344746420 -2.0457070374 -0.0891106145
H -0.4229309899 -1.3617994334 1.5495969705
H -2.8230719848 -1.7601997932 -1.3475632483
H -4.8785281235 0.0461389887 1.8012160563
