46
CONF123
C -0.1857531503 -2.0079955347 0.2943881219
C -1.6941722775 -1.9491678945 0.3068577523
C -2.4543992847 -1.9353160756 1.6082059968
C -2.4134162509 -0.6686239367 0.7274828146
C -1.6729282214 0.5330182485 1.1458762453
O -0.7426883073 0.5942829683 1.9263469743
O -2.1795153446 1.6218123834 0.5045989721
C -1.5492731356 2.8882747365 0.7842840816
C -0.3468457638 3.1517028121 -0.0870341244
C 0.2449313281 2.1553273788 -0.8552695431
C 1.3721748851 2.4569294178 -1.6159949083
C 1.9107860884 3.7350013732 -1.6450519378
C 1.3026687333 4.7318473843 -0.8833422514
C 0.1872195296 4.4452343199 -0.1060041450
O 1.9449538825 1.4888843692 -2.4283419055
C 2.3651289191 0.3068322867 -1.8462531357
C 2.7790551465 0.2287374107 -0.5174678838
C 3.2518187837 -0.9862391499 -0.0284459334
C 3.3160245614 -2.1091718600 -0.8496768259
C 2.9009015358 -2.0121655648 -2.1768569470
C 2.4212154950 -0.8076407474 -2.6807642753
C -1.7756830302 -1.9931301539 2.9042593626
C -2.3356278906 -2.4192087902 4.0367328199
Cl -1.4470841328 -2.5074904086 5.5371657190
Cl -3.9950079118 -2.9369768632 4.1808134361
C -2.3386209307 -2.6967787874 -0.8401532494
H 0.1891425319 -1.6666436244 -0.6765839486
H 0.2784579428 -1.3903249528 1.0625756341
H 0.1409400750 -3.0442718049 0.4341957247
H -3.4277669412 -2.4153089928 1.5795985988
H -3.3316369092 -0.4546088584 0.1914836932
H -1.2669271966 2.9281643928 1.8418248795
H -2.3236725197 3.6364850534 0.5969390328
H -0.1515596098 1.1459237428 -0.8779879691
H 2.7861280049 3.9376671021 -2.2525539950
H 1.7081890097 5.7385124045 -0.8965283150
H -0.2776791293 5.2279536174 0.4867997142
H 2.7357518111 1.1021332858 0.1241021109
H 3.5743578640 -1.0489920064 1.0063724038
H 3.6842213245 -3.0519384869 -0.4588651445
H 2.9437249492 -2.8809088946 -2.8265345488
H 2.0930758376 -0.7173324281 -3.7110931131
H -0.7397502078 -1.6829264937 2.9677565636
H -3.4298231514 -2.6446204075 -0.7932633804
H -2.0406380524 -3.7505841344 -0.8105527976
H -2.0103975878 -2.2763578368 -1.7970167347
