56
CONF52
C -1.2926055321 -4.5979189309 -1.0608201745
C -0.5665648014 -3.8014677534 0.0237157545
C -0.2083216295 -4.6394657291 1.2502696187
N -1.3145036487 -2.5877982118 0.3988939799
C -2.6087765534 -2.5352855384 0.8769423044
C -3.4819277706 -3.5508456594 1.2813073495
C -4.7338624148 -3.1812545234 1.7559364581
C -5.1188096550 -1.8313115034 1.8411476871
C -4.2574080272 -0.8218160612 1.4418394282
C -2.9935996418 -1.1653047386 0.9394941657
C -1.8826671482 -0.3897049241 0.4808621341
C -0.8756799476 -1.2899620747 0.1510262932
C 0.4572169778 -1.0135458594 -0.3588674261
C 0.7248700724 -0.0558608136 -1.2547432711
C 2.1075810946 0.3507152082 -1.6461184437
C 2.4110418055 1.7527441838 -1.0944783970
C 3.8499364631 2.1985382690 -1.3137192615
C 4.1258462783 3.5280547102 -0.6185906058
C 5.5475662691 3.9858120201 -0.7917304512
O 6.3827904130 3.4352978996 -1.4851957950
O 5.8060808254 5.1019431507 -0.0854985477
O 4.0632837105 2.3177435009 -2.7351848110
O 2.1857963439 0.3149345020 -3.0814991768
C -1.8128081314 1.0762583093 0.4681378703
C -0.7565318574 1.7581527633 1.0903806814
C -0.6894397006 3.1463879740 1.0834584424
C -1.7050364059 3.8493552422 0.4562143462
C -2.7760968106 3.2238980268 -0.1565704994
C -2.8200601289 1.8321458150 -0.1472723645
F -1.6485626005 5.2088776250 0.4478567800
H -1.5291428869 -3.9555297044 -1.9140214176
H -0.6421577692 -5.4067937348 -1.4062018705
H -2.2192073464 -5.0447186585 -0.6931521893
H 0.3655779135 -3.4381202064 -0.4165614227
H 0.4409680772 -5.4655029301 0.9457810982
H -1.0945906861 -5.0652946960 1.7274229635
H 0.3247450816 -4.0320687432 1.9874179005
H -3.2079982664 -4.5975217878 1.2441115519
H -5.4253520584 -3.9547324280 2.0751200300
H -6.1017949655 -1.5807636900 2.2275927569
H -4.5532646993 0.2203368071 1.5153694116
H 1.2857179688 -1.5916757244 0.0507493515
H -0.0835623630 0.5196841182 -1.7037824253
H 2.8321584773 -0.3588185886 -1.2111771889
H 1.7238812615 2.4797351239 -1.5479371625
H 2.2171291152 1.7444776885 -0.0159000290
H 4.5308722609 1.4343828480 -0.9086872517
H 3.4648158524 4.3097893418 -1.0150200182
H 3.9160381935 3.4547415100 0.4550097188
H 6.7306557392 5.3589744691 -0.2451174390
H 5.0131981365 2.4606797493 -2.8604672153
H 2.9346369882 0.8855730908 -3.3246275862
H 0.0237653340 1.1894574914 1.5853103117
H 0.1259267253 3.6775935069 1.5629943715
H -3.5503633165 3.8124696255 -0.6368267987
H -3.6414002292 1.3243283467 -0.6429348395
