47
CONF53
C -4.0178731169 -1.7293384642 -0.0745904367
C -2.9337639415 -1.8946581888 -1.1473640245
C -2.9518700044 -3.3430112456 -1.6506242224
C -1.4981068544 -1.5206902130 -0.7097240064
C -1.0745397314 -2.0253353191 0.6993268508
C -0.7848216674 -0.7645108115 1.5197445222
C -0.2073301778 0.1992792746 0.4800370845
C -0.0428477087 1.6492912072 0.9520554256
C 0.9617463311 1.7546656726 2.0693772231
C 0.5554228691 1.8566194575 3.4018428833
C 1.4823316677 1.9126758583 4.4400932120
C 2.8344500607 1.8664287159 4.1283778693
Cl 4.0216875481 1.9417488491 5.4325970942
C 3.2775467646 1.7678126894 2.8148278500
C 2.3324280764 1.7121056403 1.7953190113
C -1.1516848539 0.0080946689 -0.7356751302
O -2.2997417350 0.8651927070 -0.6515559145
C -0.4544366392 0.4363493765 -2.0302225879
N -1.2635019657 0.1920879676 -3.2195714635
C -2.2695910585 0.9359768712 -3.7169182000
N -2.8173411820 0.3301161065 -4.7662406940
C -2.0859931386 -0.8151826386 -4.8629292434
N -1.1328901081 -0.9449052341 -3.9481542903
H -5.0002541450 -1.9256346332 -0.5171509120
H -3.8828433279 -2.4461271946 0.7420408500
H -3.9568158470 -3.6289143594 -1.9796812567
H -2.2637406128 -3.4789512135 -2.4913628131
H -2.6533377292 -4.0329682881 -0.8517039516
H -0.8361740906 -1.9872213384 -1.4476110996
H -1.8287622420 -2.6642949787 1.1645708874
H -0.1582217237 -2.6194343852 0.6174738299
H -0.0997712172 -0.9409371527 2.3539437136
H -1.7107056913 -0.3477924750 1.9435402066
H 0.7794233545 -0.1859545838 0.1823141440
H 0.2834861826 2.2756115510 0.1134797080
H -0.5043272345 1.8925708800 3.6386120953
H 1.1553280549 1.9930798409 5.4708068161
H 4.3380276358 1.7390144532 2.5905279198
H 2.6711402237 1.6367438861 0.7653014141
H 0.4807702027 -0.1136775038 -2.1521046255
H -0.2374471464 1.5080565027 -1.9942590518
H -2.5549014937 1.8901148773 -3.2952597524
H -2.2490899986 -1.5668021291 -5.6253582601
H -4.0531234856 -0.7280258510 0.3608298764
H -3.1968870675 -1.2423812783 -1.9902974844
H -1.0096114502 2.0345134643 1.2912767503
H -2.7060064889 0.7584155983 0.2169866131
