43
CONF2
C 0.7919947665 1.7905643130 0.8546746626
O 2.0628893811 1.0430378824 0.8499612471
C 1.8065837162 -0.1906881599 0.2914283051
C 2.7438008119 -1.1182963791 -0.1568208321
O 4.1007003460 -1.0007993036 -0.0405196357
C 4.5911214703 -0.4097322174 1.1709031181
C 2.2417016876 -2.2206043528 -0.8642618596
C 0.8875760929 -2.3634448742 -1.1486872791
C -0.0447855087 -1.4347167582 -0.6669711431
C 0.4545867408 -0.4093285306 0.1089747468
C -0.3278452418 0.7442260329 0.6689509723
C -1.0091657804 0.3906040460 2.0016693629
C -2.0341463700 -0.7221377890 1.8253145680
N -2.9701155822 -0.3924454737 0.7495307305
C -4.0516990191 -1.3630690900 0.6694059273
C -2.2886544661 -0.1700296493 -0.5374258945
C -1.4942544175 -1.3939027956 -1.0825984341
C -1.4054824954 1.0872053662 -0.3801408036
C -0.7481804779 1.5531136675 -1.6473535938
C 0.3196876219 2.3484201562 -1.5865695920
C 0.8311649700 2.8589789568 -0.2633322305
O 2.1178935079 3.4528203654 -0.3542515612
H 0.7554724544 2.2842663185 1.8297196640
H 5.6545535519 -0.6528998808 1.2116880624
H 4.4594334140 0.6764984519 1.1732709188
H 4.0817455323 -0.8374874681 2.0430527226
H 2.9629666826 -2.9436571726 -1.2310027253
H 0.5584140723 -3.1963070899 -1.7637122505
H -1.5089632738 1.2898996066 2.3847383358
H -0.2507484334 0.0852314251 2.7321605608
H -2.6083301600 -0.8431454685 2.7519016930
H -1.5135685281 -1.6838600618 1.6450498099
H -4.6217967725 -1.3457229518 1.6049357300
H -3.7167852315 -2.4057230947 0.5070841568
H -4.7317339222 -1.0936522849 -0.1459622202
H -3.0778944855 0.0629246148 -1.2648336820
H -1.5276925106 -1.3747705608 -2.1797330972
H -2.0141034225 -2.3152351677 -0.7919063705
H -2.0604237832 1.8790844934 0.0149201283
H -1.1495048449 1.2261261875 -2.6043152579
H 0.8216177536 2.7180622274 -2.4761693223
H 0.1586505281 3.6663921144 0.0668969735
H 2.7533195295 2.7241996559 -0.3251412126
