20
CONF67
C -0.0872706182 -0.4607467006 1.0370932066
O -0.1121562883 -1.8056777857 0.5224952879
C 1.0880547000 -2.0601591000 -0.1046479417
O 1.3356566135 -3.1330312591 -0.6165887239
C 1.9220150108 -0.8757684590 -0.0427543691
O 3.1577912086 -0.8135262765 -0.5931816647
C 1.2396365692 0.0906099441 0.6023159308
O 1.6211974966 1.3481136109 0.8494579891
C -1.2843527687 0.3411382213 0.5239302761
O -1.1611229613 1.6092853907 1.1909301355
C -1.2903024586 0.5193425182 -0.9821698006
O -2.4470019355 1.3133680609 -1.2752004099
H -0.1493195192 -0.5112964770 2.1326509065
H 3.3532601724 -1.6805424024 -0.9815888524
H 0.8327864641 1.8420950908 1.1512502729
H -2.2117892712 -0.1616585839 0.8349094892
H -1.7216692946 2.2346773208 0.7077327365
H -1.3427610538 -0.4636357727 -1.4702855875
H -0.3734271350 1.0319377212 -1.3054642320
H -2.3692247351 1.6354748374 -2.1808849509
