35
CONF3
C 1.0538767956 -2.3042844022 -0.5787477741
C -0.0933112156 -1.3798221691 -0.3039364856
C -1.4156896153 -1.6758408710 -0.6792225159
N -2.4397474172 -0.8540370436 -0.4279073800
C -2.1653129575 0.2972496733 0.2235906888
N -0.9252077077 0.7027159935 0.5820557248
C 0.0503250344 -0.1406079700 0.3093802869
O 1.3026909842 0.2717174602 0.7532349371
C 2.2095873520 0.6339563444 -0.2320161572
O 1.8700891604 0.8041145762 -1.3944517461
N 3.4495021640 0.7670975825 0.2749125386
C 4.5014551899 1.3511576069 -0.5517824894
C 3.7601110098 0.5963115250 1.6939158619
N -3.2105328121 1.1098389988 0.5494709158
C -4.5270979859 0.8542800274 -0.0285152350
C -2.9461287952 2.4625465233 1.0322062752
C -1.7307713459 -2.9531482276 -1.3965218017
H 1.9249867757 -2.0458612955 0.0274283407
H 0.7839062951 -3.3401084590 -0.3542493541
H 1.3543826304 -2.2650735257 -1.6329138760
H 4.1544450061 1.4348520651 -1.5808197555
H 5.3909416626 0.7136767929 -0.5192098874
H 4.7689191766 2.3473538799 -0.1776887002
H 3.1472257206 -0.1913891703 2.1308564415
H 4.8119343210 0.3114770980 1.7792070840
H 3.6030734089 1.5286794035 2.2512222676
H -4.5606126233 1.1035253784 -1.0991394063
H -5.2597147377 1.4692756498 0.4975377602
H -4.7990167109 -0.1956502198 0.0877773835
H -3.8751669878 2.8746348718 1.4307145872
H -2.1989551135 2.4455187105 1.8269545511
H -2.5828049988 3.1213643430 0.2299747868
H -1.0831587598 -3.0781787048 -2.2704435751
H -1.5495227477 -3.8135148990 -0.7415189558
H -2.7747010393 -2.9638273352 -1.7113555322
