41
CONF306
C -1.9005861597 4.0492109383 2.2686972300
C -2.3269734593 3.4666567034 0.9230268620
C -3.7878553420 3.0298040851 0.9614454690
N -1.4981421564 2.2997728642 0.5766074937
C -0.1163741725 2.6420155442 0.2332102539
C 0.6031309101 1.4535338610 -0.3844849393
O -0.0572501641 1.1342818398 -1.6146766051
C 0.6116977624 0.2473322634 0.5384844110
O 1.3744566992 -0.7579833015 -0.1489798395
C 1.2842908913 -2.0510099164 0.2758872187
C 0.7280956488 -2.4283093419 1.4985827628
C 0.6917186031 -3.7769871793 1.8503033399
C 1.2076514586 -4.7427686130 0.9953884593
C 1.7658891849 -4.3500400301 -0.2209151891
C 1.8149834767 -3.0127156536 -0.6029980715
C 2.3940908832 -2.5882044647 -1.9312912565
C 1.3483579569 -2.1180155801 -2.9056402659
C 1.4212541313 -0.9959229889 -3.6200542095
H -2.5506981617 4.8864679330 2.5407204177
H -1.9737364865 3.2828696733 3.0485827003
H -0.8726609394 4.4224257808 2.2474717234
H -2.2195075606 4.2597354634 0.1558847877
H -4.4373891506 3.8799582618 1.1895962461
H -3.9343196900 2.2641292837 1.7311097851
H -4.1013106992 2.6133971923 -0.0022476733
H -1.9052256792 1.8608445031 -0.2455558681
H -0.0518964116 3.4854303029 -0.4802745071
H 0.4309389340 2.9392063513 1.1360002368
H 1.6469172993 1.7468702031 -0.5827776714
H 0.3422997331 0.3185073782 -1.9572764934
H -0.4097971703 -0.1085732541 0.7108520485
H 1.0812230374 0.4965737111 1.5004099918
H 0.3313764579 -1.6848335696 2.1794706602
H 0.2576651596 -4.0641612519 2.8029195550
H 1.1809907596 -5.7919267683 1.2697169200
H 2.1726224009 -5.0989863898 -0.8954469380
H 3.1429858231 -1.8000500636 -1.7942807768
H 2.9081645269 -3.4552324206 -2.3660588656
H 0.4885678450 -2.7775706238 -3.0262715161
H 2.2665510882 -0.3177640697 -3.5215967240
H 0.6478032290 -0.7273282544 -4.3335411735
