45
CONF52
C -4.6723845964 2.7888006560 0.0095252206
O -3.9092095362 1.5581748124 0.0659312263
C -3.4242265226 1.1499532429 -1.1200821516
O -3.5897916369 1.7258115069 -2.1843886402
N -2.6743721610 0.0061511601 -0.9985994700
C -2.2228892663 -0.7711341593 -2.0979331788
C -3.1280138388 -1.1875587143 -3.0744720251
C -2.6896596065 -1.9692308710 -4.1356887487
C -1.3535768094 -2.3581524112 -4.2010283264
C -0.4578080529 -1.9561834578 -3.2149301880
C -0.8734017240 -1.1478549316 -2.1555779956
C 0.0800584239 -0.6983778162 -1.0877039948
O 1.4027172958 -0.6361392524 -1.6611276627
C 2.3861265069 -0.2857292404 -0.8129349246
N 2.1803121576 -0.0019654942 0.4681292810
N 3.4258918037 0.2911995851 0.9477651414
C 4.3789396153 0.1952254791 -0.0253740629
C 3.7460272177 -0.1792699638 -1.1856703769
C 3.5922221713 0.6627563378 2.2965899672
C 4.8604628006 0.6299834606 2.8831484028
C 5.0240125800 1.0117251484 4.2085226955
C 3.9137082775 1.4084621124 4.9438296368
C 2.6449869892 1.4335263343 4.3785292861
C 2.4848951576 1.0632298046 3.0491003826
Cl 4.1192875249 1.8823971416 6.6266434948
O -2.4936352330 -0.5621087847 0.2718207403
C -3.5013796273 -1.5699990655 0.5242670058
H -4.0475045180 3.6061450463 -0.3575009566
H -5.5441367061 2.6643858470 -0.6368550722
H -4.9815490978 2.9755445726 1.0371198354
H -4.1678833285 -0.8893633738 -2.9950365536
H -3.3929671591 -2.2875514420 -4.8981781297
H -1.0067837731 -2.9795721298 -5.0204191170
H 0.5813586825 -2.2593875937 -3.2730891880
H 0.0861474067 -1.3980259426 -0.2422190194
H -0.1998034125 0.2893188179 -0.7030609267
H 5.4179856588 0.4165714240 0.1643091579
H 4.1846820408 -0.3439148921 -2.1570968535
H 5.7261376008 0.2959445980 2.3239488164
H 6.0077419177 0.9843619086 4.6628162828
H 1.7863052895 1.7455812216 4.9620072155
H 1.5022837852 1.0899469706 2.5958030812
H -3.2673100660 -1.9550231041 1.5185139133
H -4.5003795951 -1.1218271833 0.5153487299
H -3.4336245522 -2.3759665663 -0.2147023584
