43
CONF11
C -2.8509082304 0.5972443831 -4.3241253567
N -3.1018432866 -0.0568122389 -3.0375642787
C -2.6527351477 0.2498832115 -1.7947617984
C -3.1990595731 -0.6777408409 -0.9020716335
C -3.9680663461 -1.5010036159 -1.7418221272
N -3.8984486818 -1.1361016884 -3.0177622827
Cl -4.8838766063 -2.8906170905 -1.3043182678
C -3.0367762135 -0.8282163793 0.5533279384
O -3.9261855433 -1.1980527024 1.2925927978
O -1.7858036167 -0.5507706740 0.9453601398
C -1.5395627878 -0.6828471675 2.3711313450
S -1.7284640155 1.7276477776 -1.4001376479
O -1.6553633789 2.5465201390 -2.6084737968
O -2.2730180685 2.2848697781 -0.1599524081
N -0.1853872441 1.1970875266 -0.9831012957
C 0.4752726375 0.2535029477 -1.7466635296
O 0.1136643540 -0.0724670902 -2.8701792065
N 1.5891647880 -0.3168743877 -1.1557232023
C 2.1316087350 -0.1537866852 0.1171366656
N 3.1629668707 -0.9558770242 0.3810247783
C 3.6990774455 -0.8164727176 1.5983434579
C 3.2345106428 0.0998256588 2.5404511051
C 2.1597428741 0.8799902325 2.1366991855
N 1.5944328502 0.7605363511 0.9265846993
O 1.6809431106 1.7836080796 2.9973682626
C 0.6168780614 2.6553251077 2.5441837575
O 4.7367972640 -1.5821838174 1.9513993181
C 5.2362719023 -2.5322744707 0.9792216936
H -1.7786505230 0.7408476411 -4.4536867170
H -3.2435866520 -0.0693187159 -5.0907057518
H -3.3643507766 1.5596707141 -4.3618458932
H -2.1341540492 0.0509907103 2.9202674664
H -1.7908284941 -1.6932060723 2.7000057719
H -0.4750196880 -0.4919220307 2.4946834715
H 0.1158494563 1.2978303459 0.0022217233
H 2.0469076245 -1.0113798535 -1.7323873408
H 3.6876865213 0.2041532111 3.5169023054
H 0.9360728569 3.2238695517 1.6666531198
H -0.2825436845 2.0786353033 2.3122002133
H 0.4271822471 3.3239709043 3.3827601311
H 6.0673076815 -3.0295713635 1.4779702401
H 4.4596537113 -3.2544273105 0.7166116732
H 5.5826418616 -2.0140852305 0.0819858905
