39
CONF23
C 4.0317046411 -1.8626630323 -1.4671537773
C 3.2931521316 -0.9595853163 -0.4822344805
C 3.6764034682 0.5099237129 -0.6492009599
C 2.9825446874 1.4479422238 0.3396084365
N 1.5288651655 1.4597059298 0.1859512157
C 0.7241720778 0.7246267318 0.9898628501
O 1.1138058048 0.0537783390 1.9381258656
N -0.6535587438 0.7847342452 0.6492777903
C -1.3320451896 1.7356387818 -0.1322510037
C -1.0069105934 3.0158661733 -0.5642919267
C -1.9750134107 3.7017080864 -1.2988616919
C -3.2242311276 3.1350106150 -1.5672316395
C -3.5583013636 1.8699886811 -1.0947546802
C -2.6032563271 1.1694888881 -0.3652571434
N -2.7231335372 -0.0671493181 0.2483922300
C -1.5816137803 -0.2722954731 0.8377269691
N -1.1900577516 -1.3537219019 1.5864418286
C -1.8222526164 -2.5749292545 1.7923355315
O -1.3494633728 -3.4129068186 2.5298680903
O -2.9563437823 -2.6989073044 1.0922587259
C -3.6324895287 -3.9581479550 1.2898460006
H 5.1160768945 -1.7911388261 -1.3303740200
H 3.8080909201 -1.5834367340 -2.5025595043
H 3.7466119205 -2.9101339252 -1.3347089780
H 3.5011489813 -1.2728487878 0.5477344295
H 2.2110647819 -1.0755899666 -0.6209699900
H 4.7597068495 0.6267475705 -0.5126375410
H 3.4609067433 0.8356809188 -1.6770290909
H 3.3479326514 2.4736567901 0.2099344847
H 3.1907154836 1.1416355260 1.3681597297
H 1.1477199162 1.7900466876 -0.6884019837
H -0.0672155787 3.4970328373 -0.3182842977
H -1.7524197553 4.7020108768 -1.6542284972
H -3.9513843490 3.7008700292 -2.1400207308
H -4.5348547815 1.4331122535 -1.2708744626
H -0.3079767966 -1.2441724768 2.0798754314
H -3.8977371584 -4.0862718471 2.3421930058
H -2.9942379639 -4.7873352513 0.9742176177
H -4.5261238164 -3.8979732223 0.6695166057
