21
CONF6
C -3.1475424777 -0.3986168224 -0.1922608551
C -2.3502791242 0.2703487643 0.7318213510
C -1.0114760260 0.5518060016 0.4606992089
C -0.4670908475 0.1620567318 -0.7651865836
C -1.2607433175 -0.5131604842 -1.6994280021
C -2.5901239574 -0.7916308339 -1.4094843233
O 0.8225697433 0.3938415439 -1.1648380635
C 1.6845348950 1.1856929101 -0.3434709631
C 2.4686519052 0.3668888098 0.6499137122
C 2.7584489651 -1.0498830755 0.4410560293
O 1.7595884065 -0.6304519304 1.4046511898
H -4.1867914560 -0.6143654055 0.0324187230
H -2.7655648612 0.5751301002 1.6879012072
H -0.4100689688 1.0463040330 1.2126293227
H -0.8200757967 -0.8085661461 -2.6464583710
H -3.1949892721 -1.3160205160 -2.1432210549
H 2.3986121238 1.6556609389 -1.0288955943
H 1.1269786247 1.9854900693 0.1571824409
H 3.1739265225 0.9598214860 1.2363509282
H 3.6586288454 -1.4798874881 0.8764797231
H 2.3528066765 -1.5504586760 -0.4356703146
