24
CONF5
C -2.0650033953 1.7116024230 0.5045933979
C -3.0938286834 1.6308597689 1.4442235604
C -3.5910533991 0.3658837905 1.7824379166
C -3.0881758830 -0.7880257279 1.1991730917
C -2.0696591196 -0.6913000795 0.2592136864
C -1.5592352440 0.5606118143 -0.0798044778
O -0.5923774078 0.6971052445 -1.0589526855
C 0.7011766113 0.3860843030 -0.7395818556
C 1.1389611098 0.2232143515 0.5701651788
C 2.4733003932 -0.0712252924 0.8260079967
C 3.3808032876 -0.1996822965 -0.2240164983
C 2.9443970868 -0.0314769556 -1.5360595449
C 1.6135181360 0.2558864950 -1.7896334639
Br 1.0239332321 0.4675913951 -3.5837660683
Br 5.2174930532 -0.6026274986 0.0597227798
Br 2.9963643505 -0.2856036915 2.6417908763
Br -1.3941747089 -2.2624538635 -0.5739358506
Br -4.9946276571 0.2251538018 3.0621034410
O -3.6245023060 2.7203591979 2.0410058015
H -1.6487142976 2.6740502893 0.2221481617
H 0.4391487021 0.3258850778 1.3912138696
H 3.6435284125 -0.1322975192 -2.3569547057
H -3.1890455664 3.5193938599 1.7125865794
H -3.4941325588 -1.7553787022 1.4682890563
