45
CONF420
C 4.3860785820 -0.7066066601 4.1545735314
C 5.5468720634 -0.9868391546 3.2001229607
C 5.1196303013 -1.6219872219 1.8734079228
C 4.2217646698 -0.7330420200 1.0123820180
C 3.8845988962 -1.3720127585 -0.3356757487
C 3.0818611687 -0.4700147358 -1.2767908346
C 1.6932277603 -0.1017764167 -0.7560678284
C 0.8825302503 0.7158195385 -1.7761690367
C -0.4779668715 1.1175523277 -1.2714509700
C -0.5939072226 2.2556911748 -0.4803391523
N -1.8416048208 2.5618983973 -0.0371882824
C -2.9594367358 1.7850745498 -0.3402932427
N -4.0239443125 2.3422577704 0.2508411127
C -3.4997384905 3.4146699847 0.8780061997
N -2.1815244092 3.6138158094 0.7512860692
N -2.8669200081 0.6875526202 -1.0904714296
C -1.6556564938 0.3674520466 -1.5389332025
C -1.5653827452 -0.8747808322 -2.3979096999
C -2.8584009102 -1.6747286649 -2.4906887005
N 0.4014790607 3.1218640258 -0.1464735239
H 4.7491609473 -0.3398448338 5.1193317971
H 3.8051560780 -1.6170013119 4.3401284095
H 3.7022346118 0.0480886321 3.7544496604
H 6.2628863049 -1.6547834167 3.6941832567
H 6.0890963987 -0.0538857552 2.9958862187
H 4.5997716013 -2.5688095326 2.0773278851
H 6.0169973204 -1.8821222431 1.2964538927
H 4.7226441752 0.2318014694 0.8420721491
H 3.2965136478 -0.5119392930 1.5571449807
H 3.3287608014 -2.3046184536 -0.1657338078
H 4.8191955832 -1.6596484998 -0.8348061909
H 2.9700852031 -0.9734480784 -2.2463963439
H 3.6521872530 0.4492384620 -1.4741490045
H 1.1371593591 -1.0145576566 -0.5044689926
H 1.7745755515 0.4625786687 0.1818311790
H 1.4529405506 1.6104144622 -2.0631555073
H 0.7807542575 0.1349237232 -2.6970680265
H -4.0983551874 4.1006196054 1.4647470417
H -0.7577055676 -1.5113392345 -2.0138196821
H -2.7045202694 -2.5577540633 -3.1178518251
H 1.3473742862 2.7841272371 -0.1771812901
H 0.1779199313 3.7921336647 0.5748880762
H -3.1897453372 -2.0004109206 -1.5018493790
H -1.2436119900 -0.5723262077 -3.4047642174
H -3.6632107697 -1.0744826612 -2.9191629394
