47
CONF20
C -4.2996670077 -1.9366273227 -3.6178502185
O -4.5974575843 -1.7604582969 -2.2034768503
P -5.0384055469 -0.3265849337 -1.6528311641
S -3.9904818364 1.2114326186 -2.2066040902
O -6.5990071142 -0.3210166342 -1.9972293590
C -7.3931558249 0.8750687710 -1.7588302855
O -5.0808078357 -0.6177076111 -0.0564977571
C -3.9613331460 -0.4110025939 0.7539407023
C -4.0077575653 0.6217736313 1.6773339002
C -2.9165162970 0.8276379603 2.5165614231
C -1.8031342716 -0.0096859201 2.4324685002
C -1.7830782547 -1.0589793378 1.5090159398
C -2.8612280717 -1.2565715581 0.6570563619
S -0.4523061340 0.2399581801 3.5780520412
C 0.9780205779 0.1978724319 2.5036863772
C 0.9637182570 0.7737024187 1.2302130592
C 2.1130993748 0.7629069150 0.4511568431
C 3.2737504570 0.1917217465 0.9578041128
C 3.3091838410 -0.3745702490 2.2248501450
C 2.1513297507 -0.3771539929 2.9966134884
O 4.3955455077 0.1534567373 0.1277981636
P 5.7601255716 0.9768731239 0.4837450958
S 5.4956894695 2.7231152583 1.2768202477
O 6.5043139638 0.8701673367 -0.9266391041
C 6.0041911233 1.6247484712 -2.0660307726
O 6.6428188597 0.0147222625 1.3987776083
C 6.9396243230 -1.3502463955 0.9697559686
H -4.0026323890 -2.9792944719 -3.7249103030
H -3.4812162905 -1.2749269558 -3.9120115163
H -5.1908119860 -1.7339964027 -4.2176245240
H -7.3855228816 1.1252993152 -0.6943440993
H -7.0021283649 1.7070100364 -2.3497728288
H -8.4037173144 0.6230220389 -2.0786411095
H -4.8782142001 1.2672125314 1.7223416007
H -2.9294338847 1.6473151837 3.2270813442
H -0.9244444706 -1.7197273528 1.4520677126
H -2.8578676883 -2.0656101287 -0.0652224863
H 0.0590426956 1.2315903226 0.8446924275
H 2.1193927371 1.2052733658 -0.5393376688
H 4.2216934373 -0.8259640359 2.5997808553
H 2.1631740488 -0.8357345179 3.9800469417
H 4.9873485641 1.3056377733 -2.3096426661
H 6.0272869091 2.6945672256 -1.8425812585
H 6.6792280990 1.3951396940 -2.8896975531
H 6.0199354058 -1.8652479239 0.6799871860
H 7.6467445865 -1.3297286235 0.1382063146
H 7.3850672889 -1.8363899064 1.8369672397
