28
CONF2
F 2.1075397885 -0.0396596978 0.5439654597
C 1.5991212700 1.1373293853 0.1153349473
F 1.3409137263 1.9150244203 1.1893007379
C 0.2911926780 0.8816900063 -0.6939483184
F 0.0220295468 1.9804144810 -1.4304387674
F 0.5013113290 -0.1696886236 -1.5160509280
C -0.9497581880 0.5721390816 0.2160371103
F -0.5568344509 -0.2532477749 1.2146010858
F -1.3937429082 1.7319333253 0.7495556772
C -2.1308837441 -0.1111020458 -0.5576639768
F -1.8278379186 -1.4154729104 -0.7470534965
F -2.2727604687 0.4879859790 -1.7608936067
C -3.4986081519 -0.0199178385 0.2008056448
F -4.0000564369 1.2238989220 0.0528859906
F -3.3008932335 -0.2674254964 1.5170682251
C -4.5778296408 -1.0293561441 -0.3113049748
F -4.6845625543 -0.9606146979 -1.6455690714
F -5.7587319970 -0.7100127944 0.2351850306
F -4.2707766364 -2.2819495546 0.0411890474
S 2.9625633005 2.0108732657 -0.9132460026
O 2.6022043032 3.4233892964 -0.9358821811
O 3.1436871539 1.1773282448 -2.0971740268
N 4.3158038530 1.8734552276 0.0314879456
C 5.0598715316 0.6174623414 0.1714011156
H 4.9207937228 0.0290118422 -0.7372410858
H 6.1234870815 0.8548352573 0.2655453483
H 4.7356563222 0.0296756569 1.0363591169
H 4.3122203664 2.5164891276 0.8143611246
