37
CONF4
C -6.7561765197 1.9152898992 -0.9175994507
C -6.3829184733 2.2173064520 0.5251950822
N -5.9372686290 1.0025230105 1.2419731313
S -4.4811039187 0.8240186365 1.9512580979
O -4.5202627979 -0.3852069999 2.7760237218
O -4.0285260081 2.1219321472 2.4579160826
C -3.2671914775 0.4212831315 0.5212917866
C -1.7692173593 0.4826769601 0.9547744926
C -0.8006101311 -0.2452877738 -0.0437138469
C 0.7023046258 0.1743133718 0.1387526640
C 1.7077468576 -0.8517256039 -0.4959848186
C 3.1408180134 -0.2488660256 -0.7182297069
C 4.2471231380 -1.3440373830 -0.8977714902
C 5.5750239309 -0.8067133117 -1.5282377952
F 5.4119500627 -0.5334381852 -2.8266094580
F 6.5215510434 -1.7461716067 -1.4037784949
F 5.9775697955 0.3016520793 -0.8911746079
F 3.7803703041 -2.3279833431 -1.7007657072
F 4.5476505137 -1.8629582948 0.3114343416
F 3.1165943352 0.5297814467 -1.8232078647
F 3.4687050553 0.5129380021 0.3498520917
F 1.8085100545 -1.9198664492 0.3261465372
F 1.2237452581 -1.2564577663 -1.6917240146
F 0.8866856592 1.3803631230 -0.4439581083
F 0.9695871542 0.2740588396 1.4598099899
F -0.9086437118 -1.5791835604 0.1487359572
F -1.1790417744 0.0514328449 -1.3080036039
F -1.4039541666 1.7817467895 1.0437501064
F -1.6456483559 -0.0971105111 2.1699050678
F -3.5671064494 -0.8131258880 0.0653287218
F -3.4853258070 1.3188745995 -0.4625973734
H -5.8961660735 1.5482832203 -1.4831987734
H -7.5533466800 1.1668704670 -0.9651331640
H -7.1226987335 2.8293088335 -1.3935871756
H -5.5807127599 2.9572642355 0.5831105443
H -7.2432322858 2.6241714507 1.0684124395
H -6.4189602497 0.1286429221 1.0536110724
