42
CONF87
C -5.6812449559 1.9284824069 2.9260523621
C -5.5170060843 1.6813342634 1.4277527626
C -4.3614151244 0.7599429415 1.1283668235
O -4.6035024239 -0.5434194484 1.6393840192
C -3.6972995028 -1.3786424418 0.9089185341
C -3.6337277300 -0.7205961942 -0.4875377370
O -4.2130092510 0.5830287101 -0.2846471392
C -2.2409209926 -0.6269493462 -1.0731510790
O -1.4175275414 0.0988760260 -0.1524276153
C -0.1053782085 0.2850860149 -0.4763264233
C 0.6520322400 1.0009614134 0.4578876890
C 1.9985526901 1.2414220294 0.2252689661
C 2.5853916933 0.7725013675 -0.9452661599
C 1.8434495704 0.0662521319 -1.8798049648
C 0.4914400181 -0.1843546703 -1.6503128512
O 3.9211693360 1.0787512416 -1.2016796089
C 4.8640981812 0.0916741370 -1.0065500991
C 6.1571200084 0.3933538318 -1.4378657416
C 7.1717587078 -0.5394975066 -1.2609370852
C 6.9072880698 -1.7707903006 -0.6597920024
C 5.6133234827 -2.0567519301 -0.2337290511
C 4.5826470532 -1.1325570953 -0.4014231139
H -4.7636269472 2.3431305593 3.3567894903
H -5.9161510017 1.0006655160 3.4553396197
H -6.4915351936 2.6387724580 3.1112669766
H -5.3264124717 2.6256516012 0.9057489340
H -6.4245655208 1.2418914198 0.9980860202
H -3.4127474693 1.1447842466 1.5462185678
H -2.7088361226 -1.3850207316 1.3870765041
H -4.1044891870 -2.3907761804 0.8814456979
H -4.2600635414 -1.2578954326 -1.2099574497
H -2.2745140389 -0.1072013000 -2.0394500020
H -1.8453571561 -1.6416968839 -1.2278729321
H 0.1713714473 1.3607633876 1.3618667913
H 2.5961658222 1.7920012328 0.9446002033
H 2.3194352115 -0.2912273424 -2.7875658211
H -0.0757297786 -0.7353777461 -2.3901539231
H 6.3496923800 1.3536387666 -1.9053285963
H 8.1760907830 -0.3021816945 -1.5984410798
H 7.7018934431 -2.4971471740 -0.5255380039
H 5.3938139016 -3.0095306921 0.2385914824
H 3.5783274262 -1.3632996933 -0.0649028690
