44
CONF6
C 4.6331805613 -1.4663317036 -3.1455195729
C 3.5498561660 -0.7127131743 -2.4503966263
N 2.2931067995 -1.1522311946 -2.6266180591
C 1.3463053647 -0.4313353939 -2.0177361098
N 1.5862631669 0.6577755040 -1.2685956831
C 2.8698227713 0.9910231801 -1.1548257047
N 3.8998071545 0.3522001932 -1.7220713359
O 3.2112934615 2.0493254474 -0.4294920418
C 2.1500643550 2.7979080324 0.2192081776
N 0.0363381297 -0.8617159584 -2.1930107243
C -0.1871215516 -1.9908403284 -3.1182433493
C -1.1025233853 -0.4294912471 -1.4747423279
O -2.1673518921 -1.0203585680 -1.5686788813
N -0.9425047529 0.6942337039 -0.6940109115
S -2.1234261207 1.1639635070 0.4340238075
O -1.4437794559 2.1923667219 1.2353727559
O -3.3544402427 1.4993427450 -0.2858852653
C -2.4541658254 -0.2593063168 1.4813441384
C -3.6561930335 -0.9308946633 1.2921584470
C -4.0029643436 -1.9633589216 2.1580859646
C -3.1620535451 -2.2975599206 3.2140808221
C -1.9681435808 -1.6085105869 3.4069827376
C -1.5906247651 -0.5879492355 2.5340447073
C -0.2434243257 0.0365367386 2.7122827944
O 0.6266573343 0.0148340196 1.8648904359
O -0.1034783882 0.5466079236 3.9376945612
C 1.2024154546 1.1173594010 4.2314966274
H 5.6002794479 -1.2767164838 -2.6792512467
H 4.4104012358 -2.5350842247 -3.1543724778
H 4.6802181857 -1.1307616565 -4.1888281710
H 1.6283885616 2.1618934706 0.9386381087
H 1.4516312145 3.1875582997 -0.5256831129
H 2.6585687383 3.6144982460 0.7295271331
H 0.3880537048 -1.8233404432 -4.0273966874
H -1.2485809726 -2.0318297375 -3.3484689839
H 0.1257921496 -2.9336531462 -2.6608775156
H -4.3147908206 -0.6406703248 0.4830188343
H -4.9364597107 -2.4951744176 2.0099670316
H -3.4353325845 -3.0948704615 3.8970637096
H -1.3115921586 -1.8694761277 4.2300864452
H 1.1288413620 1.4857934994 5.2530911363
H 1.9713269643 0.3462702212 4.1492458425
H 1.4122372175 1.9338567730 3.5371085857
H 0.0262580816 1.0241951330 -0.5386923030
