24
CONF4
C 2.2844222704 -1.0960472027 -1.0762369691
C 1.1177202026 -0.2216971369 -0.6393454702
C -0.1183196818 -1.0610619326 -0.2994495647
C -1.4042281738 -0.2277417458 -0.1099662191
C -1.1980290957 0.9682082226 0.8585658898
C -2.5355531417 1.5812323198 1.1856950301
O -2.9105035455 1.6799145194 2.3357829662
O -0.5424910289 0.5697045110 2.0505780158
O -1.9351560587 0.2472800756 -1.3357737893
O 0.1550649018 -1.8736732892 0.8338844834
O 0.7778813138 0.6854796719 -1.6990197980
O 3.3689917673 -0.2750464379 -1.5384511326
H 2.5886187582 -1.7629000554 -0.2617202467
H 1.9849238506 -1.7033266883 -1.9374009351
H 1.4142577876 0.3520522381 0.2570487447
H -0.3237794877 -1.7415096895 -1.1374822930
H -2.1494473522 -0.9078903402 0.3230710300
H -0.5966096382 1.7251065436 0.3261533907
H -3.1542585083 1.9071589333 0.3300075233
H -1.1581429433 0.7941701278 2.7730325746
H -1.1894094499 0.6142321136 -1.8358260477
H 0.0929782380 -1.2884308257 1.6054298460
H 1.6125638882 0.9452848817 -2.1154682243
H 3.8185046404 0.0895008896 -0.7674158043
