48
CONF181
C -2.6312365119 2.0052263298 -2.5355132065
C -1.1193250692 2.1577377997 -2.3936077582
C -0.6387394402 1.8629654901 -0.9721224646
C 0.8522903511 2.1629094830 -0.7878402128
O 1.5099793580 2.8140651766 -1.5719322634
O 1.2914433095 1.7170726802 0.3951684875
C 2.6720728430 2.0358636757 0.7512669876
C 3.6459618117 1.0298940117 0.1716791651
C 3.4184058638 -0.3991158254 0.6853978086
C 4.4792409761 -1.3329683532 0.1916162670
C 4.2797867507 -2.3459932810 -0.6502068840
N -1.0093407308 0.5067221367 -0.5380513330
C -1.9078532174 0.3902674036 0.6357552084
C -1.2049688397 0.7373360102 1.8936874579
C -1.2628186244 1.7974528373 2.7455455330
C -0.2716660067 1.5669824209 3.7508923955
C 0.3220430061 0.3847079387 3.4390014414
O -0.2401872291 -0.1431871928 2.3100093581
C -0.3027892495 -0.5154279014 -1.0678837444
O 0.6988831022 -0.3818612416 -1.7603226956
N -0.8119416457 -1.8333753899 -0.8028802857
C -2.0936968254 -2.3132161738 -1.0286204572
C -2.0403256486 -3.6430689828 -0.7176291456
N -0.7686854030 -3.9960739624 -0.3011368750
C -0.0544236389 -2.8953999707 -0.3771623568
H -3.1607591291 2.6771385441 -1.8511957607
H -2.9431185640 2.2461603518 -3.5555224392
H -2.9515504977 0.9804271170 -2.3214620608
H -0.5960580397 1.4999346487 -3.0951882755
H -0.8187226886 3.1817667960 -2.6331222895
H -1.1481360566 2.5480604961 -0.2804153827
H 2.6732349246 2.0017490209 1.8439419380
H 2.8950033203 3.0508015392 0.4125693750
H 3.5904017692 1.0460149693 -0.9225938124
H 4.6545661776 1.3652768266 0.4464784460
H 2.4303769709 -0.7523601189 0.3722467782
H 3.4295176906 -0.3789917878 1.7846521999
H 5.4912200141 -1.1280539789 0.5452155489
H 5.0992121253 -2.9760105511 -0.9839007456
H 3.2881687186 -2.5757317835 -1.0342125816
H -2.7501057989 1.0719970605 0.4937379198
H -2.3035953203 -0.6249346008 0.6875082951
H -1.9289614931 2.6435688164 2.6589203331
H -0.0334237386 2.1992630671 4.5934813967
H 1.1081617610 -0.1996855125 3.8918618319
H -2.8818478254 -1.6805619862 -1.4080571383
H -2.8409729362 -4.3669805172 -0.7786554140
H 0.9908020696 -2.7822000099 -0.1222314075
