31
CONF9
C 3.8394213493 2.2117214765 0.5544580116
O 3.0129259618 1.2792511929 -0.1797707525
C 2.2797307699 0.4581761698 0.5893682185
O 2.1539803582 0.5448197251 1.7863624040
C 1.5248049695 -0.5273712530 -0.2521793849
C 2.1308726143 -1.4620235028 -1.0913909674
C 1.3755611955 -2.3135775011 -1.8924366741
C -0.0037980096 -2.2498153012 -1.8464805484
C -0.6177318543 -1.3308097144 -0.9942182210
C 0.1369267565 -0.4713501224 -0.1995211767
O -1.9879187270 -1.3504510312 -0.9860214960
C -2.6590666900 -0.3729762189 -0.2774668009
C -2.8361059094 0.9062731259 -0.8089370255
C -3.5726472325 1.8598633266 -0.1157528370
C -4.1302497411 1.5125920225 1.1093340890
C -3.9687641831 0.2424283085 1.6511439696
C -3.2264511143 -0.6970908321 0.9473269231
Cl -5.0586271568 2.7086377526 1.9819407936
Cl -2.1318423055 1.3114094421 -2.3467921815
N 3.5882483309 -1.6260572055 -1.0879457859
O 4.1005513579 -2.1684312918 -2.0600158099
O 4.1967889253 -1.2363669708 -0.0961070125
H 4.3626428088 2.7922760040 -0.2041761570
H 4.5469152255 1.6607708210 1.1792845986
H 3.2197714992 2.8564085548 1.1823279427
H 1.8835559156 -3.0274314035 -2.5290700620
H -0.6196520500 -2.9051677703 -2.4510376105
H -0.3399342541 0.2464158924 0.4579059344
H -3.7098591545 2.8508728941 -0.5296012996
H -4.4126694206 -0.0059525996 2.6072233163
H -3.0773808494 -1.6970439956 1.3397455999
