45
CONF68
C 7.4827900706 1.5774173938 1.5866194595
C 6.6197369112 0.4729128752 2.1924286339
C 5.3490048812 0.2059017817 1.3862002400
C 4.4776550740 -0.8922237274 1.9963687544
C 3.2519703234 -1.2632808344 1.1573585758
C 2.2404187965 -0.1285963027 0.9915797305
C 0.9735562108 -0.5669668877 0.2607993681
C -0.0366500607 0.5780184686 0.0825191685
C -1.3048362426 0.1520073966 -0.6090592790
C -2.3377478514 -0.3909278511 0.1517461433
N -3.4568715440 -0.7607422472 -0.5220076709
C -3.5851440891 -0.6250133891 -1.9060159300
N -4.7935933783 -1.0845488722 -2.2560045435
C -5.3262201594 -1.4737444713 -1.0803336640
N -4.5752036982 -1.3114033994 0.0166377345
N -2.6021646998 -0.1261917668 -2.6531728467
C -1.4923133670 0.2448731436 -2.0121486059
C -0.4277499623 0.8469085750 -2.8937529281
C -0.6373992391 2.3588721945 -3.0587994559
N -2.3619090185 -0.5412196129 1.5035706780
H 7.7922168394 1.3184142941 0.5683097789
H 8.3874460313 1.7497549426 2.1773002544
H 6.9313497222 2.5224250021 1.5350015165
H 6.3437895803 0.7413376812 3.2207512703
H 7.2033476179 -0.4542905001 2.2647133339
H 5.6219409096 -0.0760722796 0.3590071812
H 4.7774543606 1.1399049984 1.3065194333
H 4.1507007323 -0.5808044464 2.9985177064
H 5.0923663777 -1.7904171648 2.1407499769
H 2.7473286241 -2.1204983640 1.6228955906
H 3.5791014614 -1.6031399405 0.1649263104
H 2.6956054761 0.7049094069 0.4414611247
H 1.9737301006 0.2680361057 1.9823965835
H 1.2326883599 -0.9692168051 -0.7272393296
H 0.5016005095 -1.3991150655 0.8027356940
H -0.2756840277 1.0125459875 1.0630563441
H 0.4373304408 1.3892206243 -0.4775484343
H -6.3177734729 -1.9022571999 -1.0002110773
H -0.5011003304 0.3621818025 -3.8709218615
H -0.5914359450 2.8762677888 -2.0949124640
H -1.4824996743 -0.5816551966 1.9877899378
H -3.1143456194 -1.1057728163 1.8705661002
H 0.1267259953 2.7872579806 -3.7140080500
H 0.5721172951 0.6444266675 -2.4979790018
H -1.6195058163 2.5533175735 -3.4982059150
