42
CONF1118
C -1.8805075828 -0.6086311903 1.2852769417
C -1.6625004099 0.6688626113 0.4966227838
O -2.3166230677 1.7088577486 1.2244976950
C -2.6234697137 2.8696644108 0.4671676475
C -1.4203028523 3.7308718716 0.1328170799
O -0.6739202803 3.0841627460 -0.8864175699
C 0.6062906663 3.6471214762 -1.1310243878
C 1.4856836284 2.5575600823 -1.6969329988
O 1.7579209572 1.6388895429 -0.6504151793
C 2.2640917788 0.3919291792 -1.1017807791
C 2.4838116823 -0.4620677040 0.1391216687
O 2.9150523943 -1.7722073488 -0.2166791378
C 1.8415557471 -2.6948196456 -0.4153809692
C 1.4268808366 -3.2991799795 0.9248560268
O 0.4845047218 -4.3625750280 0.8019542091
C -0.8060720238 -4.0127594927 0.3104561093
C -1.5411356091 -2.9416844052 1.0977298727
O -1.1795184003 -1.6512546965 0.6148593920
H -2.9573465911 -0.8372004735 1.3346567946
H -1.5123913017 -0.4874820306 2.3171429725
H -2.0986597330 0.5650726625 -0.5085728552
H -0.5908786134 0.8743237500 0.3765575358
H -3.1443205435 2.5975626175 -0.4658813057
H -3.3102530485 3.4552940137 1.0887163285
H -0.8047396286 3.8643553733 1.0372934017
H -1.7650725269 4.7264328356 -0.2017715910
H 1.0535021884 4.0209695236 -0.1968358037
H 0.5368738060 4.4875943470 -1.8419487228
H 0.9588992187 2.0577724932 -2.5260999165
H 2.4202427765 2.9908894645 -2.0921851168
H 1.5413507821 -0.0970387598 -1.7768891902
H 3.2124479051 0.5179570853 -1.6494245728
H 1.5549456413 -0.4837734416 0.7264521092
H 3.2695932201 -0.0184676713 0.7597385569
H 0.9894462208 -2.2048516909 -0.9061572870
H 2.2187563387 -3.4843531028 -1.0746892168
H 2.3087754112 -3.7465877045 1.3935836154
H 1.0479766901 -2.5107180488 1.5914247299
H -0.7709260107 -3.7075732927 -0.7470414241
H -1.3793966456 -4.9437080613 0.3704104929
H -1.3131752568 -3.0405042919 2.1729382838
H -2.6273930683 -3.0887059757 0.9699057763
