44
CONF5
C 3.3948811917 -1.4469199929 -2.1191052474
C 2.8060646684 -0.4292723201 -1.1463151125
C 3.7445394684 -0.0938173257 0.0728272136
N 2.8770816302 0.2516848871 1.1790458147
C 1.6263272409 -0.5129689575 1.3156095353
S 1.2641477969 -1.1736679206 -0.3617930231
C 0.9305430532 0.8066539401 1.8076558265
C 2.2724137666 1.4814450396 1.4173448240
O 2.6766731512 2.6143748133 1.3079991054
N -0.2268680037 1.2727618370 1.1234452068
C -1.4138690631 1.5052421376 1.7355865674
O -1.5965143176 1.4171583115 2.9488449598
C -2.5692760341 1.8449066225 0.7782717211
C -3.3829863905 0.5794926971 0.5867948435
C -2.9166894364 -0.4540480623 -0.2304106204
C -3.6447366295 -1.6279038580 -0.3835185950
C -4.8569041327 -1.7848042774 0.2930928651
C -5.3328865203 -0.7644716757 1.1172243822
C -4.5954020796 0.4056489007 1.2571576281
O -5.6182379023 -2.9134621756 0.1829605954
N -2.0692080165 2.3415147203 -0.5104365074
C 4.6335117312 -1.2648957790 0.4594866832
O 5.8119904216 -1.2102103375 -0.1797460685
O 4.3134635026 -2.1426335925 1.2299678415
C 2.4467039125 0.8601302486 -1.8847761391
H 2.6771507538 -1.6485391230 -2.9190044426
H 3.6397683058 -2.3935861958 -1.6302402115
H 4.3009436191 -1.0350914499 -2.5750489527
H 4.3695074125 0.7666854697 -0.1850885997
H 1.6581426218 -1.3310074900 2.0369189648
H -0.2192737944 1.3588426023 0.1122878067
H -3.1902141637 2.5702845607 1.3236408673
H -1.9737656860 -0.3444267115 -0.7573011822
H -3.2748003492 -2.4241352221 -1.0245210081
H -6.2778973447 -0.8932861344 1.6351337056
H -4.9736511572 1.1990772391 1.8957042842
H -5.1896607796 -3.5357779648 -0.4205966569
H -2.8361304504 2.3660975987 -1.1743402954
H -1.7462969018 3.2987622476 -0.4049103066
H 1.7115081181 0.6476284196 -2.6653429613
H 2.0243407729 1.6153338926 -1.2170992469
H 3.3459105269 1.2746366834 -2.3548223204
H 0.7394719908 0.8061636751 2.8848508375
H 6.3310826812 -2.0003867014 0.0539984946
