26
CONF41
C -2.3148130723 -1.2563514070 -0.0766615273
C -1.5277849644 -0.7502129737 1.1273450571
C -0.1946795194 -0.0757675489 0.7610988404
C 0.7009239344 -0.9534643391 -0.1279289056
C 2.1550795533 -0.4761411982 -0.2984257633
C 2.3693178125 0.8877748602 -0.9551845900
O 2.1452509811 1.9690874241 -0.0473879310
O 2.8363129456 -0.5331756806 0.9616682684
O 0.7314396882 -2.2870941669 0.3975837976
O -0.4588517483 1.2010794429 0.1403675540
O -2.3183220694 0.1574639816 1.9067076819
O -2.5620034733 -0.2225045298 -1.0532068389
H -1.7513348876 -2.0408413433 -0.5901021784
H -3.2624280120 -1.6856804913 0.2712138147
H -1.3162667029 -1.6121829230 1.7682538765
H 0.3296483569 0.1581955811 1.6966250104
H 0.2500403567 -1.0216480435 -1.1272916832
H 2.6305003223 -1.2291075510 -0.9412107475
H 1.7386834309 0.9731484863 -1.8514933808
H 3.4171812968 0.9586461423 -1.2635804022
H 2.7496936638 0.3502463640 1.3533104055
H 1.3266134230 -2.2605074476 1.1620614720
H -1.0239211929 1.0209472576 -0.6331835894
H -2.2113726393 1.0339377208 1.5088831743
H 1.1777022157 2.0105791670 0.0715943131
H -3.2987703727 0.3130401647 -0.7314674069
