97
CONF66
C -1.0638084997 -5.5630001098 -1.0118397462
C -1.2897243685 -5.1111734027 0.4449342812
C -0.0562933732 -5.4406025159 1.2408653253
C 0.8539901207 -4.5759353027 1.7194213283
C 2.0198058799 -4.9981473313 2.4627663272
C 2.9757587534 -4.1927084349 2.9733846263
C 2.9432272809 -2.7215881517 2.7465280653
O 2.8304014302 -1.9297586385 3.7094508974
N 3.0800235273 -2.3224414149 1.4615120667
C 2.9579987932 -1.0281659772 0.8941417380
C 2.5268160520 -0.9700988921 -0.4376813720
C 2.4293139771 0.2259873732 -1.1259344193
C 2.6905669589 1.4465893543 -0.4540350602
C 3.1167445335 1.3953349558 0.9102537370
C 3.3088561762 0.1451335275 1.5570911387
O 3.8790243208 0.1274297626 2.7979347660
C 3.3255013635 2.6352078508 1.6254490707
C 3.1020301458 3.8928712307 1.0629393721
C 2.6781084579 3.8947144608 -0.2574965097
C 2.4949499064 2.7409472196 -1.0373743203
C 2.0359261704 3.1808442926 -2.3058030710
O 1.7116246177 2.5598292581 -3.3328252562
C 1.9976322744 4.7237424831 -2.2667147533
O 2.3708099215 5.0519389224 -0.8924220812
O 0.7306765537 5.2473732176 -2.5765689496
C -0.3940284613 4.5589784209 -2.1428877307
C -0.5794410097 4.0335108348 -0.9348524341
C -1.7395293182 3.1207051811 -0.6638944052
C -1.2457891760 1.6722046602 -0.4591132943
C -2.3964610587 0.6614917908 -0.5639753478
C -1.9573721914 -0.8106915234 -0.5588960766
C -3.1748068227 -1.7177494318 -0.2839872802
C -2.8732613494 -3.2313015574 -0.3687673084
C -1.6944040791 -3.6353537872 0.5348273493
O -1.9534853051 -3.2632033130 1.9126754485
C -4.1413357478 -4.0442220643 -0.0975430000
O -3.7795034295 -1.3713503666 0.9728341639
C -1.2237398151 -1.1952822175 -1.8487300453
O -3.0949467904 0.8905714384 -1.8322936589
C -4.3880160999 1.2704066994 -1.8138349735
O -5.0415252612 1.4465083174 -0.8036012684
C -4.9097324065 1.4283145573 -3.2121093547
C -0.5221475379 1.5044264645 0.8831901562
O -2.4747202180 3.5026172573 0.5045768177
C -3.2271821575 4.6980553696 0.3064367078
C 3.0001088598 5.3572474788 -3.2002714359
C 3.2864201653 5.1429984214 1.8674716118
O 3.7100104623 2.6363783688 2.9042296781
O 2.0692012826 0.1479409512 -2.4275755825
C 4.0782725232 -4.6706362258 3.8706536852
H -0.6518328240 -6.5761055871 -1.0317991048
H -0.3488581839 -4.8956691107 -1.5058101149
H -1.9956680542 -5.5668000632 -1.5831333544
H -2.1126070883 -5.7176417844 0.8552039849
H 0.1157512740 -6.5071850055 1.3936043084
H 0.7017034542 -3.5074330713 1.5899539880
H 2.0956292698 -6.0638280463 2.6785505915
H 3.1563744025 -3.0755159299 0.7893113616
H 2.2742292891 -1.8884935995 -0.9596391374
H 3.4669013316 -0.6572620015 3.3194232707
H -1.1343824127 4.4839648704 -2.9364151554
H 0.1437260826 4.1735786135 -0.1387562760
H -2.4084106453 3.1485423263 -1.5388221434
H -0.5351489294 1.4871337578 -1.2745111862
H -3.1028749360 0.8369513900 0.2492764874
H -1.2749280422 -0.9225211469 0.2926394088
H -3.9380049648 -1.5028102922 -1.0468567989
H -2.5621787301 -3.4173808716 -1.4028193809
H -0.8265725388 -3.0323952392 0.2453181702
H -2.4810298757 -3.9659520830 2.3163369246
H -4.4453004830 -3.9778778403 0.9514176506
H -4.0021807553 -5.1001608688 -0.3467311569
H -4.9688285369 -3.6629388557 -0.7045580607
H -3.2401558632 -1.8225162210 1.6449225953
H -1.9269496057 -1.3020441184 -2.6807767829
H -0.4843545661 -0.4398626133 -2.1256557194
H -0.6873031550 -2.1410074800 -1.7363644744
H -4.9851871690 0.4390068987 -3.6755929588
H -5.8939712308 1.8946897523 -3.1906328758
H -4.2172549101 2.0223070416 -3.8137757649
H 0.0874619789 0.5973532379 0.8944939199
H 0.1494890687 2.3448718525 1.0775440423
H -1.2390469827 1.4495817547 1.7080410376
H -3.9446965726 4.5779989256 -0.5192236091
H -2.5743796760 5.5538001672 0.0860597677
H -3.7722535059 4.8892709444 1.2335196792
H 2.9435151283 6.4448260546 -3.1072704705
H 2.7693023757 5.0631448900 -4.2267675550
H 4.0077740837 5.0213336065 -2.9445166951
H 4.2959520638 5.1867835163 2.2875114064
H 3.1250849412 6.0266797816 1.2498284454
H 2.5849530664 5.1724240929 2.7080393604
H 3.8380829940 1.6911469312 3.1815889017
H 1.9252604939 1.0498650852 -2.8348916848
H 4.0265144896 -5.7541765465 3.9960320594
H 4.0026920010 -4.1978413209 4.8565862961
H 5.0614166128 -4.4067265528 3.4630104132
