24
CONF293
C 1.7832188448 -1.3508205412 -0.2624979714
C 1.4745185819 -0.0381564763 0.4538329006
C 0.5441870175 0.8942838176 -0.3226555108
C -0.8144619108 0.2957502306 -0.7092376610
C -1.6327859089 -0.1756595248 0.5031760648
C -2.9258796144 -0.7808150093 0.0174384847
O -4.0051819773 -0.3727144416 0.3943020909
O -1.8686815356 0.9055872942 1.3829420740
O -1.5604644652 1.2657268744 -1.4521797209
O 1.2485310834 1.2774704525 -1.5105989112
O 2.7042794782 0.6448683829 0.7469149085
O 2.6926788290 -2.1408175027 0.5079728108
H 0.8748911517 -1.9508997933 -0.3795745523
H 2.1933618556 -1.1419989700 -1.2613739541
H 1.0274890735 -0.2587181048 1.4298292107
H 0.3619845392 1.7804240197 0.3051945343
H -0.6616930085 -0.5503212024 -1.3891369825
H -1.0849815630 -0.9890167561 1.0118192113
H -2.8291177396 -1.6191806215 -0.6985540042
H -2.8319167711 0.9511301942 1.5122240418
H -1.8271983666 1.9577760555 -0.8272722770
H 0.6954782453 1.9211895937 -1.9735271920
H 3.0110882749 1.0316344661 -0.0867551082
H 3.4306560925 -1.5567222467 0.7334109211
