47
CONF11
C -7.8130683371 1.1015057956 1.5827045290
O -7.2052399439 0.4149338748 0.4658550641
P -6.0688191562 -0.6858778556 0.7322632963
S -6.3616979280 -1.9382515168 2.1724264701
O -5.8601414266 -1.2812789001 -0.7422734610
C -6.6769678372 -2.3861514358 -1.1929095897
O -4.7671302235 0.2791062594 0.8417297624
C -3.5098405967 -0.2528048378 1.1393500491
C -3.0982228641 -0.3302990681 2.4607669355
C -1.8160203142 -0.7893800303 2.7427674705
C -0.9691348749 -1.1880819551 1.7073403727
C -1.4078751321 -1.1179323348 0.3821761575
C -2.6775013156 -0.6372733411 0.0945607323
S 0.6321593636 -1.8595036816 2.1288828907
C 1.7129950357 -1.0442492430 0.9628949808
C 2.7637141751 -1.7819283634 0.4140928149
C 3.6773636436 -1.1712774912 -0.4383524573
C 3.5141144613 0.1696912786 -0.7523481589
C 2.4696325488 0.9165484390 -0.2227600592
C 1.5741429871 0.3099002495 0.6464161009
O 4.3831935898 0.7704948631 -1.6673885912
P 5.7871031031 1.4162868428 -1.1690127715
S 5.7225713829 2.5723999048 0.3755422170
O 6.3058103472 2.0502143457 -2.5493672023
C 5.8439150460 3.3588889055 -2.9517469669
O 6.6952445829 0.0967642470 -1.0777953541
C 8.0013400458 0.1691929719 -0.4615097521
H -8.2151687187 0.3794311411 2.2993887632
H -8.6161954493 1.7050628625 1.1586861933
H -7.0794203964 1.7493264871 2.0729475346
H -6.2722346323 -2.6766483710 -2.1628631604
H -6.6114660059 -3.2184074355 -0.4865235202
H -7.7178348876 -2.0665701283 -1.3025537744
H -3.7734000029 -0.0267007797 3.2521033009
H -1.4702005665 -0.8336820716 3.7699417248
H -0.7522023963 -1.4333636581 -0.4222884471
H -3.0359203437 -0.5695131053 -0.9263333052
H 2.8624766067 -2.8369589335 0.6470305670
H 4.4989252064 -1.7279051815 -0.8744277127
H 2.3816139136 1.9670723848 -0.4748719515
H 0.7659680935 0.8882934212 1.0806916995
H 6.4079901364 3.6098607059 -3.8506003738
H 4.7737878693 3.3284530555 -3.1802259606
H 6.0386268651 4.0900794429 -2.1616489003
H 8.6718742821 0.7857560463 -1.0679749799
H 7.9219061000 0.5814747432 0.5483598170
H 8.3692328841 -0.8566983531 -0.4260970080
