71
CONF263
C 7.2253166453 0.0059830007 2.8622577329
C 6.9858213048 0.1390108275 1.3862452263
C 5.7201690398 -0.0780133491 0.8173649709
C 5.4848223046 0.1122563977 -0.5556546872
C 6.5509223131 0.5059805256 -1.3642177422
C 7.8193124526 0.6989686950 -0.8251813172
C 8.0292902529 0.5188402421 0.5365132018
C 4.1185712818 -0.1172129867 -1.1381470102
N 4.6258344756 -0.4566348922 1.6382818291
C 4.5426209404 -1.6013942864 2.3620816865
O 5.4218935807 -2.4602036735 2.4182807307
C 3.2585620583 -1.7265435631 3.1808186808
N 2.1493970960 -0.9517889766 2.6378376412
C 1.1425774458 -0.6194311090 3.6517798900
C 0.0535896831 0.2408975822 3.0317950895
N -0.5974770592 -0.4529492673 1.9139894994
C 0.4148447386 -0.7995369153 0.9098555944
C 1.5017777132 -1.6626942403 1.5281713844
C -1.6511341070 0.4020189942 1.3536367635
C -2.5157895645 -0.2848537641 0.3006701323
C -3.7170216394 0.5876092449 -0.0617389503
C -4.5988671167 -0.0097434393 -1.1717598507
C -5.8624571471 0.8201443280 -1.3390741665
C -7.0843092520 0.3476972900 -0.8555772914
C -8.2468638611 1.1097692874 -0.9576619819
C -8.1592282781 2.3554641677 -1.5518914518
C -6.9699231015 2.8645236315 -2.0467184837
C -5.8233771645 2.0839668693 -1.9362368451
F -9.2857419298 3.1108286446 -1.6563562134
C -3.8928285358 -0.2009449586 -2.5037379530
C -2.8673689167 0.6391889527 -2.9458153545
C -2.2762293172 0.4630980618 -4.1953468656
C -2.7289737826 -0.5699732670 -4.9959711684
C -3.7387140429 -1.4305308264 -4.6001447890
C -4.3124083258 -1.2343815386 -3.3478236577
F -2.1563632716 -0.7512427631 -6.2161782702
H 7.3472998056 -1.0442912920 3.1464772966
H 8.1271785909 0.5506713330 3.1512210049
H 6.3790105335 0.3951346618 3.4371109151
H 6.3820224845 0.6527542045 -2.4271988484
H 8.6418513950 1.0003450815 -1.4665113203
H 9.0142644238 0.6911455039 0.9612839487
H 3.7785266516 -1.1410451924 -0.9482054914
H 4.1290760758 0.0493907274 -2.2172891181
H 3.3707352822 0.5540161894 -0.6992016365
H 3.7607478634 0.0765008253 1.6014097802
H 3.0342574178 -2.8019781354 3.2805563012
H 3.5017646871 -1.3536511163 4.1850454933
H 0.6908386490 -1.5328956530 4.0836484760
H 1.6253440080 -0.0630557444 4.4631693596
H 0.4996597765 1.2007389615 2.7008986427
H -0.7021750289 0.4690824127 3.7925376207
H -0.0536690949 -1.3607032221 0.0953568218
H 0.8743773192 0.1115685234 0.4732214480
H 2.2544301524 -1.9003502366 0.7675748520
H 1.0622811330 -2.6166914708 1.8769713087
H -1.2203531138 1.3288241715 0.9207372640
H -2.2937571016 0.7132966358 2.1881989402
H -1.9310523193 -0.4910820375 -0.6022234978
H -2.8656440942 -1.2507170111 0.6878689816
H -4.3480511766 0.7245005316 0.8252026448
H -3.3831690938 1.5923021313 -0.3526505448
H -4.9158909915 -1.0047579029 -0.8351459536
H -7.1333793664 -0.6323793687 -0.3893659085
H -9.1992870462 0.7469823835 -0.5863664480
H -6.9474611116 3.8457977680 -2.5084972144
H -4.8866956931 2.4689213071 -2.3283477395
H -2.5070533317 1.4446783320 -2.3139854846
H -1.4776048233 1.1108967750 -4.5404306312
H -4.0613396513 -2.2326580081 -5.2551216653
H -5.1073303098 -1.8994648098 -3.0208371187
