52
CONF5
C 1.8048723977 0.6269654345 -0.1523649899
C 2.9086518843 1.4363719230 -0.8526878302
C 4.2275325156 0.7437131672 -0.4246387489
C 3.8167166250 -0.5137831935 0.4161347647
O 4.7287604828 -1.6135984354 0.2712187945
C 3.8355109991 -0.1865032438 1.8423398487
C 3.8551375366 0.1110193700 3.0109110588
C 2.3607014492 -0.8050932892 -0.0905968177
C 2.4648030822 -1.4641367518 -1.4757583736
C 1.4686009565 -1.6372312526 0.8266283788
C 0.0104640007 -1.5993119261 0.3431385992
C -0.5313092324 -0.1647604824 0.1997611505
C 0.3805287361 0.7063158061 -0.6928576983
C -0.1223359713 2.1464467876 -0.7083273536
C -1.5593769674 2.2077307949 -1.2225413697
C -2.4881174148 1.3191217857 -0.4510681652
C -3.7294581669 1.7549483223 -0.1362225485
C -4.6319341910 0.8261652502 0.4676936195
C -4.2821026883 -0.4092889597 0.9301339436
C -2.8507948588 -0.8194641177 0.9341319420
C -2.0407137439 -0.1290083131 -0.2069518769
C -2.3124189057 -0.8811504164 -1.5298174498
C -5.4986305656 -0.9452164824 1.3975253864
N -6.5138580699 -0.1160926362 1.2307025598
O -5.9551294074 1.0394545108 0.6272225395
H 1.7547539563 0.9772367957 0.8911314461
H 2.8879731048 2.4900811501 -0.5633562909
H 2.7831961273 1.3933381560 -1.9404606104
H 4.8806282569 1.3969589487 0.1575626041
H 4.8016027635 0.4020046854 -1.2914802303
H 4.8197609164 -1.7916921969 -0.6746653431
H 3.8714312203 0.3705846558 4.0450325060
H 2.8072292804 -2.4997237424 -1.3764863776
H 3.1530916522 -0.9355754916 -2.1419888431
H 1.4937730570 -1.4912252911 -1.9731134776
H 1.5185916806 -1.2274249517 1.8427821981
H 1.8187983422 -2.6761497228 0.8734217080
H -0.0695726399 -2.1222290629 -0.6154967497
H -0.6026359062 -2.1607467918 1.0548748308
H -0.4871893966 0.2973418375 1.2005721205
H 0.3641002450 0.3254767266 -1.7244099269
H 0.5176578779 2.7681708115 -1.3439305939
H -0.0708864404 2.5588901818 0.3095230362
H -1.9434407795 3.2327987233 -1.2164601947
H -1.5587539761 1.8774795358 -2.2725431492
H -4.0600749961 2.7587788493 -0.3856190272
H -2.7571946667 -1.9046828199 0.8393910191
H -2.4085276679 -0.5459005541 1.9039226166
H -3.3740664536 -0.8024297232 -1.7869252734
H -2.0692307558 -1.9421937938 -1.4260856966
H -1.7296521714 -0.4726031342 -2.3594489588
H -5.6874634091 -1.9101769039 1.8545642033
