50
CONF14
C 1.9114445478 -1.3661048284 -1.3649503879
C 2.5249232034 -0.3330041027 -0.4507475010
C 1.7391252950 0.7446660796 -0.0372777049
C 2.2357918362 1.6609747985 0.9086889319
C 3.4789167332 1.5135902993 1.4714684026
C 4.3127905420 0.4482006468 1.0730882785
C 3.8550551504 -0.4447904611 0.0524621178
C 4.8650317645 -1.3864287255 -0.3872427644
N 6.0188807595 -1.5283047460 0.2557428837
C 6.2685213210 -0.6997555965 1.2978191893
N 5.5191908582 0.3200827641 1.6936711391
N 7.4141042080 -0.9636632057 1.9979806914
N 4.7120887437 -2.1732132593 -1.4826564322
C 0.3327761764 0.9509894157 -0.5424198639
N -0.6058834121 0.1224562513 0.2180661218
C -1.9765702862 0.2356489863 0.0162232741
C -2.4945032143 0.8177068432 -1.1497486560
C -3.8794049433 0.8506443155 -1.3446371802
C -4.7557532739 0.3334062576 -0.3841399369
C -4.2226106653 -0.2428448263 0.7802976882
C -2.8461619283 -0.2901047157 0.9880203019
O -5.1457594640 -0.7267996271 1.6582753557
C -4.6591877421 -1.3198459489 2.8676268987
O -6.1208883343 0.4166752193 -0.5604619350
C -6.6667933890 -0.7360855626 -1.2301055761
O -4.4758609416 1.3845217945 -2.4481764979
C -3.6262091888 1.9279602184 -3.4650441416
H 0.8263320407 -1.3625700587 -1.2618161789
H 2.1362647810 -1.1709466643 -2.4220640364
H 2.2552044948 -2.3725132341 -1.1193828388
H 1.6024390151 2.4907623692 1.2123176235
H 7.7562869318 -0.2306760457 2.5991070710
H 8.1104923026 -1.5281786013 1.5380066890
H 4.0468121743 -1.9304112049 -2.1946822794
H 5.5420473743 -2.6557041164 -1.7936194797
H 0.0790528737 2.0206055784 -0.4611918117
H 0.2657274532 0.6894730555 -1.6047543560
H -0.3407316231 0.0134396153 1.1874249176
H -1.8308929957 1.2317580915 -1.8945997138
H -2.4292385619 -0.7361854104 1.8828634579
H -5.5460951168 -1.6353196203 3.4180658082
H -4.0953488678 -0.5929163669 3.4640044550
H -4.0288162761 -2.1914343220 2.6550458113
H -6.2285965902 -0.8444339965 -2.2296172405
H -6.4814566673 -1.6453579273 -0.6456945480
H -7.7426005094 -0.5681494962 -1.3168908902
H -4.2967901981 2.2880399827 -4.2459397441
H -3.0312915766 2.7637393145 -3.0783831083
H -2.9610565603 1.1600102637 -3.8772980440
H 3.8433239111 2.1985247161 2.2298612301
