39
CONF15
C 3.4002476326 -2.5554819365 2.5372747984
C 3.0537681027 -1.1095005122 2.1890962089
C 3.6407626028 -0.6859603610 0.8440498911
C 3.2670834476 0.7385663860 0.4331171445
N 1.8281247578 0.9123670432 0.2221686811
C 1.2378555508 0.4921039898 -0.9052189725
O 1.7916595840 -0.0033268663 -1.8735252782
N -0.1889581312 0.7437126609 -0.9201864557
C -0.8132492839 1.9851496873 -0.7389902998
C -0.3584502614 3.2034359289 -0.2503305438
C -1.2740656698 4.2545631569 -0.2426331917
C -2.5875255677 4.0896613484 -0.7050685599
C -3.0305672392 2.8691804327 -1.2043121338
C -2.1273629637 1.8078721516 -1.2249707701
N -2.3104415644 0.5057773504 -1.6691238893
C -1.1503514721 -0.0767245985 -1.4879090280
N -0.9039790021 -1.3885945278 -1.8425178785
C -0.1565276578 -2.2715869732 -1.0906218075
O 0.4041101163 -2.0004240972 -0.0463938483
O -0.1433546712 -3.4730416543 -1.6935905207
C 0.5977247442 -4.4977327330 -0.9854354591
H 4.4855386922 -2.6998621789 2.5811145991
H 3.0017881667 -3.2405659474 1.7802669006
H 2.9816413699 -2.8445215825 3.5062531253
H 3.4241505696 -0.4363236640 2.9737950280
H 1.9632380734 -0.9965595711 2.1627130604
H 4.7362562468 -0.7456849101 0.8841074816
H 3.3115623454 -1.3796974868 0.0607711143
H 3.7759623263 1.0128097456 -0.4957073599
H 3.5663721700 1.4529973488 1.2070401981
H 0.6565985359 3.3451314122 0.1023692113
H -0.9578982393 5.2232886478 0.1301786576
H -3.2689651192 4.9338199580 -0.6766767033
H -4.0431164950 2.7397557632 -1.5724045194
H 1.6444337646 -4.2017706729 -0.8850624099
H 0.5077888893 -5.3900108700 -1.6031352671
H 0.1595920226 -4.6665434264 0.0009510217
H 1.2452555938 1.1329425824 1.0161688688
H -1.5139560919 -1.7734462718 -2.5513049074
