33
CONF8
C -4.2999929740 -0.3688446176 0.5276576027
C -3.5441674385 0.7430732321 -0.1995609956
C -3.3888216086 1.9685969988 0.6836764569
O -3.0785381654 3.0649730642 -0.0484719238
O -3.4998953397 1.9901324155 1.8880866579
C -2.1641666259 0.2992255888 -0.6588800866
C -1.8419590950 0.2631679344 -2.0178086263
C -0.5861126839 -0.1653360817 -2.4379022018
C 0.3738429841 -0.5374315513 -1.5042675111
C 0.0660566504 -0.5009860503 -0.1395049149
C -1.2064788881 -0.0953398739 0.2718994221
C 1.0284702267 -0.9685805420 0.9016579866
O 0.6164279863 -1.4983875053 1.9273874872
C 2.4921444135 -0.7895085486 0.6815093132
C 3.0080274124 0.2982422887 -0.0327137272
C 4.3836585700 0.4674044798 -0.1496469430
C 5.2515376327 -0.4580878955 0.4242237011
C 4.7432641197 -1.5449077154 1.1358206874
C 3.3716339010 -1.7022790500 1.2762877781
H -3.7606321136 -0.6842383619 1.4234873945
H -4.4110960693 -1.2306058435 -0.1353961473
H -5.2921118406 -0.0242521767 0.8314406910
H -4.1036496472 1.0589707850 -1.0867328587
H -2.9548547219 3.8042460320 0.5696283922
H -2.5829906390 0.5673755996 -2.7514260121
H -0.3565454448 -0.2084861572 -3.4977130314
H 1.3482091698 -0.8824759182 -1.8331523655
H -1.4293128097 -0.0859014907 1.3347635706
H 2.3340177310 1.0270095435 -0.4707951153
H 4.7785749581 1.3226375333 -0.6885318141
H 6.3246617651 -0.3307036372 0.3221085079
H 5.4201068025 -2.2654979098 1.5836051032
H 2.9606919724 -2.5332044684 1.8399849993
