41
CONF23
C 4.3485400997 -1.7776329258 -2.3618537333
C 4.0918902153 -2.7079942362 -1.1980636986
O 2.7285870040 -2.5390629076 -0.6883747017
C 2.5096385980 -1.5413138873 0.1388862682
N 3.4334001406 -0.7253789378 0.5791865100
C 3.0702588068 0.2366833803 1.4370411912
C 1.8113924619 0.4775435868 1.9159306432
C 0.8197069235 -0.3898350235 1.4301980971
N -0.4928594503 -0.4752823913 1.6226050573
C -0.8306463868 -1.5283274561 0.8369024944
N 0.1314724191 -2.1349344410 0.1545922223
N 1.2083493469 -1.3968658992 0.5388961186
S -2.5624507233 -1.9873222939 0.5895455919
O -3.2432190918 -1.8130056710 1.8648544824
O -2.5829299272 -3.2165069440 -0.1883494430
N -3.0882216983 -0.7392403207 -0.4772793274
C -3.3386899348 0.5385792473 0.0724519768
C -2.4054709470 1.5988470521 -0.0122490270
C -2.7040151040 2.8415917065 0.5520670770
C -3.9116691936 3.0492294167 1.1992264717
C -4.8493637705 2.0276267869 1.2658242454
C -4.5713733873 0.7912392984 0.6947725340
Cl -5.8225331224 -0.4169490953 0.7039604210
C -1.1242010361 1.4156936390 -0.7368281465
O -0.8928389225 0.5437857751 -1.5577572657
O -0.2134840579 2.3563774319 -0.4116101926
C 1.0197650296 2.2917955792 -1.1574714283
F 4.0780824535 1.0244946745 1.8302410940
H 4.3408645461 -0.7334693339 -2.0408201380
H 3.5986587620 -1.9219823865 -3.1438697715
H 5.3342333325 -1.9976302441 -2.7831560455
H 4.1093594397 -3.7554759010 -1.5033519214
H 4.7948834306 -2.5493898840 -0.3766227213
H 1.5812438726 1.2772386611 2.6050161341
H -2.4211069106 -0.6898908285 -1.2506260811
H -1.9798795680 3.6420619019 0.4743197281
H -4.1362889068 4.0146818000 1.6389347318
H -5.8108770561 2.1842988128 1.7405759204
H 1.4895449814 1.3113683946 -1.0413684782
H 0.8296960243 2.4719040411 -2.2188247814
H 1.6525509105 3.0730899392 -0.7375526058
