52
CONF24
O 4.2366092769 -1.2703272387 -2.1974349450
C 2.8690472678 -1.3230823235 -1.7652505176
C 2.7358198734 -0.5161359180 -0.4817600747
C 3.8065552906 -0.5890812307 0.4349958210
C 3.7136180338 0.1462658847 1.5890025179
C 2.6035160292 0.9363254582 1.8633492641
C 1.5391343977 1.0074055260 1.0012573047
C 1.6035926775 0.2657905631 -0.1979666344
C 0.4028312255 0.3818602402 -1.1455441790
C -0.9181416265 0.3193706833 -0.4014262551
C -1.7938025039 1.4001626758 -0.4532657475
C -3.0092247483 1.3428707462 0.2380052038
O -3.9351979318 2.3403723993 0.2535164416
C -3.6321554019 3.5319301685 -0.4848861080
C -3.3443652027 0.2008264375 0.9770009695
O -4.5566542872 0.1231119194 1.6208228807
C -4.5117033128 0.6468353947 2.9646141822
C -2.4471350281 -0.8778233771 1.0325498827
O -2.8538011954 -1.9339173077 1.7889277087
C -1.9682430991 -3.0583506544 1.8758525111
C -1.2358019235 -0.8182669202 0.3420111761
C 0.5208263603 -0.6952488937 -2.2160940946
C -0.3391740361 -0.5863349316 -3.4547507786
O 0.3430533748 -1.1170937889 -4.5059266165
C 1.6737240428 -1.5596600784 -4.0734877909
C 1.9228634687 -0.7601813889 -2.8028395830
O -1.4534770125 -0.1398854471 -3.5901279236
O 2.7441843522 1.5251615168 3.0961053713
C 4.1195990839 1.2874315715 3.4650640312
O 4.5954113408 0.2023412403 2.6414938455
H 4.3760994470 -1.9983041277 -2.8163358668
H 2.5946942697 -2.3723316657 -1.5614944582
H 4.6736333212 -1.2021188408 0.2216239022
H 0.6646361556 1.6057654560 1.2338534844
H 0.4606288118 1.3587587933 -1.6451915540
H -1.5259390297 2.2728617716 -1.0361829078
H -4.4885455751 4.1911732327 -0.3410235105
H -2.7263763857 4.0139529082 -0.0991411878
H -3.5102569133 3.3129971982 -1.5519215321
H -3.7965965990 0.0805632751 3.5728261091
H -4.2324606362 1.7067977745 2.9541817704
H -5.5167155062 0.5338506973 3.3757567529
H -1.7916927368 -3.4967008270 0.8867833211
H -1.0123881534 -2.7720178494 2.3298666076
H -2.4755023813 -3.7826405122 2.5136754355
H -0.5286169691 -1.6376318245 0.3951007215
H 0.2824721305 -1.6783559898 -1.7757561306
H 2.3627822613 -1.3498891943 -4.8921058448
H 1.6280010241 -2.6382010773 -3.8800779027
H 2.2516975330 0.2551100751 -3.0655528060
H 4.7104938697 2.1888727813 3.2519367612
H 4.1684443713 0.9948160031 4.5153706438
