31
CONF92
F 1.5209266378 -0.1451115709 1.3047061215
C 1.7043713444 -0.2195662588 -0.0316884254
F 2.1501493385 0.9672471875 -0.4830612407
C 0.3608023135 -0.5771381005 -0.7410317178
F 0.4813107810 -0.2817789071 -2.0529813359
F 0.1369483052 -1.9014212237 -0.6010673383
C -0.8704505180 0.1995427096 -0.1512589922
F -0.5036027518 1.4845224927 0.0799508269
F -1.2189799565 -0.3791722521 1.0185345478
C -2.1110197840 0.2163926206 -1.1021052484
F -1.8747727910 1.0798881903 -2.1122359392
F -2.2761379973 -1.0268840481 -1.6140516990
C -3.4924337331 0.6003542376 -0.4553146260
F -4.3746740631 0.6602409795 -1.4814737248
F -3.8768933507 -0.3791630065 0.3894548977
C -3.5844874090 1.9570493044 0.3073455899
F -2.8781637455 1.9136073430 1.4443209761
F -4.8673658196 2.1922001774 0.6119042336
F -3.1299241983 2.9603283564 -0.4542375177
S 3.0720845536 -1.5220104745 -0.3489568696
O 3.2085563701 -1.5908374078 -1.8029316731
O 2.7557399988 -2.6612335083 0.5091197135
N 4.3757308565 -0.7060538159 0.2744770184
C 5.0038317770 -1.1279067067 1.5399027479
C 6.0159382649 -2.2520872274 1.3672585040
H 4.9922422357 -0.3749144511 -0.4589922075
H 5.4732653001 -0.2345040713 1.9674378787
H 4.2023090068 -1.4282809698 2.2196898084
H 5.5297083151 -3.1517380669 0.9812658060
H 6.4756766105 -2.4937346634 2.3305625718
H 6.8139508004 -1.9612207059 0.6764941307
