37
CONF8
C 1.3240035342 1.2319781266 -2.4796948579
Si 0.5223399895 0.2935138367 -1.0737248473
C 0.2022242051 -1.4884139839 -1.7011814340
N -0.5913100396 -2.2816765085 -0.7661420061
C -0.2067977327 -2.8593624905 0.3888243051
N -1.2513556569 -3.4194091192 0.9957282095
C -2.2739319767 -3.1371444375 0.1456262473
N -1.9249984496 -2.4469018756 -0.9363184985
C 1.6684823900 0.1864819426 0.4137901641
C 1.4419111285 0.9306561484 1.5806808833
C 2.3178740027 0.8776998974 2.6621956571
C 3.4325560264 0.0641327921 2.5580797181
F 4.2910167051 0.0006710426 3.6067007326
C 3.7102409108 -0.6880189172 1.4285615396
C 2.8195472719 -0.6167615552 0.3618020390
C -1.1168318716 1.0445982870 -0.5633946400
C -1.7135827982 2.0690045439 -1.3125524777
C -2.9543501671 2.5991482233 -0.9653652539
C -3.5935667306 2.0819110528 0.1476986570
F -4.8029975390 2.5886500944 0.4966250774
C -3.0515720231 1.0708912789 0.9244669948
C -1.8104612465 0.5610423169 0.5586346206
H 0.6946692585 1.2262156398 -3.3760273360
H 2.2835892806 0.7685402911 -2.7337938529
H 1.5158706446 2.2720083584 -2.1956669808
H -0.3477382534 -1.4523827612 -2.6462685856
H 1.1457962775 -2.0126281816 -1.8904989236
H 0.8187267026 -2.8550293879 0.7345535141
H -3.2977927678 -3.4452834959 0.3164482252
H 0.5656707030 1.5680645804 1.6561026375
H 2.1437287810 1.4506983682 3.5666354068
H 4.5981741104 -1.3099914159 1.3917314799
H 3.0370727938 -1.2062655647 -0.5255653752
H -1.2087137026 2.4705984052 -2.1864508854
H -3.4176517880 3.3934327240 -1.5407226171
H -3.5899393498 0.6983809567 1.7893285955
H -1.3799014271 -0.2290500331 1.1691536822
