54
CONF12
C -2.1992579885 2.3119934666 -1.5654807998
C -2.2158023143 1.3874606480 -0.3179950236
C -2.4612988303 2.2418644257 0.9398265767
C -3.8912453546 2.7674182305 1.0267402689
C -4.8991423484 1.6465759290 0.9219038546
O -6.0102981394 1.7236389772 1.4512348353
C -4.5272831512 0.5048385723 0.0958469439
C -3.3301396864 0.3878086350 -0.5204335395
C -3.0798072975 -0.6920337510 -1.5264559621
C -1.7466820764 -1.4016920413 -1.2876450585
C -0.5631565887 -0.4303172349 -1.2703338431
C -0.8147695044 0.7156877860 -0.2332067877
C -0.3458086951 0.1230065632 1.0673966655
O -1.0711453246 -0.3097460937 1.9488033808
C 1.1678654821 0.0148286371 1.1463300208
C 1.8280532405 -0.3546026291 -0.2196210541
C 0.7868710018 -1.1714500579 -1.0307011017
C 0.7192750530 -2.5046013126 -0.2464252667
C 2.1252958288 -2.7130858721 0.3636071478
C 2.9337376033 -1.4568278769 -0.0030626997
C 3.9672293378 -1.0595163781 1.0426719330
O 3.7453559794 -1.1000965670 2.2437835654
C 5.3239753206 -0.5940941441 0.5619867163
O 6.1217063591 -0.1388123168 1.6344520530
O 3.5907402765 -1.6193762167 -1.2682220172
C 2.3972884447 0.8583830136 -0.9570102111
H -1.4575943621 3.1042570297 -1.4208276816
H -1.9441943729 1.7657905906 -2.4760517685
H -3.1776220747 2.7749847590 -1.7186553967
H -2.2764867221 1.6298115846 1.8248899630
H -1.7447384970 3.0714453889 0.9555690317
H -4.0622365412 3.3084290190 1.9619416531
H -4.1127209140 3.4694187586 0.2104802168
H -5.3048177514 -0.2364610091 -0.0769714234
H -3.0688087897 -0.2306294770 -2.5249381415
H -3.9061327081 -1.4087730185 -1.5169118291
H -1.5862742740 -2.1564377122 -2.0656358883
H -1.8133113270 -1.9342530086 -0.3334672615
H -0.5036081421 0.0505367919 -2.2534734375
H -0.1022309736 1.5149091037 -0.4570814684
H 1.5397781218 0.9920161799 1.4843431377
H 1.4062292253 -0.7021728425 1.9322483601
H 1.2204805714 -1.3835100419 -2.0124909475
H -0.0156727436 -2.4526921995 0.5601668191
H 0.4229528910 -3.3328858469 -0.8940745306
H 2.0761065223 -2.8240927039 1.4493116096
H 2.6309181533 -3.6021627220 -0.0262468719
H 5.8051931996 -1.4384286506 0.0430373606
H 5.1909923562 0.1947889144 -0.1916840610
H 5.6108295069 -0.3250972452 2.4414449830
H 3.9900430530 -2.4982932928 -1.2819150121
H 1.6143164155 1.5603967156 -1.2509134027
H 2.9156052491 0.5462936912 -1.8656568746
H 3.1014474960 1.4055585501 -0.3212768385
