47
CONF4
C 4.1841581547 -3.1953338033 0.6803502431
C 4.1437161074 -1.8931138219 -0.0117560611
C 3.1840783680 -0.9249804098 -0.1610677500
C 3.8228879161 0.0789808709 -0.9516218232
N 5.0532122270 -0.2576634725 -1.2640771609
O 5.2629398334 -1.5023734337 -0.6492990498
C 3.2497985009 1.3334763198 -1.4658993314
C 2.1511753565 1.2836972199 -2.3278113934
C 1.5338488635 2.4038314807 -2.8476624621
C 2.0366230538 3.6506599101 -2.4889888100
C 3.1235547804 3.7634594589 -1.6288054117
C 3.7149394931 2.6104798026 -1.1252398199
Cl 5.0439970397 2.7776006990 0.0005184264
F 1.6767669593 0.0645448808 -2.6623798867
C 1.8082623355 -0.9903460858 0.3605121865
O 1.2276312770 -2.0612597803 0.5480345303
N 1.2135075620 0.2079706463 0.6177523947
C -0.1604496708 0.2981452009 0.9960330926
C -1.2897443745 -0.2053825924 0.0306445096
N -1.7536927901 -1.0862481610 1.1073421392
C -0.7671175669 -0.7064984037 2.0092131843
O -0.5607021090 -1.0171590819 3.1578863179
C -3.1759256666 -1.2139796874 1.3135129012
C -3.7878616928 0.2039191127 1.0084895921
S -2.7200692968 0.8775960568 -0.3833598101
C -3.6548326354 1.0810063374 2.2534440714
C -5.2371586218 0.1642047890 0.5348707901
C -3.7416754726 -2.2991465676 0.4100398633
O -3.2958596055 -2.5902742255 -0.6765258890
O -4.8132287447 -2.8856503068 0.9707808397
H 5.1543443362 -3.3372655997 1.1631657395
H 3.3836944416 -3.2461602760 1.4182306239
H 4.0375873162 -4.0069401647 -0.0412786067
H 0.6867464309 2.2938170506 -3.5146928595
H 1.5731645152 4.5488830137 -2.8821827134
H 3.5065270535 4.7358437312 -1.3437795427
H 1.7416576302 1.0622120397 0.5201306672
H -0.3728953874 1.3156445437 1.3357554152
H -0.9354274007 -0.7180032003 -0.8668658190
H -3.3747906857 -1.4730679330 2.3584375114
H -2.6279698518 1.1086923100 2.6282857512
H -4.3032689809 0.6916647981 3.0468664345
H -3.9604554467 2.1047198026 2.0228552708
H -5.8688559645 -0.2565479944 1.3236972939
H -5.5865790075 1.1794897159 0.3276765660
H -5.3572138710 -0.4326280280 -0.3730396450
H -5.1690452006 -3.5405172432 0.3446066910
