24
CONF74
C 2.2952680170 -0.9910583533 -1.3716074567
C 1.2964153385 0.1442612041 -1.1993033520
C 0.3130623298 -0.1094865758 -0.0499659688
C -0.4438539238 1.1779833463 0.3139589531
C -1.7152676693 0.8724330373 1.1353940683
C -2.8005677470 0.2830329692 0.2715994280
O -3.3315799398 -0.7711307617 0.5476946313
O -1.4365110296 0.0094496173 2.2275273812
O 0.4000033408 2.0825842076 1.0040983693
O 1.0470123871 -0.5941403047 1.0807266561
O 0.5390220765 0.3478388878 -2.3945381787
O 1.6229796716 -2.2329300744 -1.6184607366
H 2.9023826810 -0.7879698477 -2.2594766937
H 2.9543169346 -1.0576414387 -0.4985091579
H 1.8433423811 1.0767602308 -1.0109228238
H -0.4132622544 -0.8681575400 -0.3897535351
H -0.7521037552 1.6736031214 -0.6158884282
H -2.0905462750 1.8452909859 1.5028212587
H -3.0903259875 0.8656506128 -0.6267623687
H -2.1160727320 -0.6874586766 2.1875193852
H 0.9622366365 1.5472104636 1.5837117197
H 0.3880577198 -0.7252724965 1.7824915515
H 0.3016091286 -0.5349197513 -2.7127908043
H 1.3243821838 -2.5659331597 -0.7638708868
