47
CONF61
C -6.4158727984 -1.1073849573 2.6819277325
O -5.3780481166 -1.5138953580 1.7460309076
P -5.7755637665 -2.3506225610 0.4438991933
S -6.7082104333 -4.0343289432 0.6685986298
O -6.5159880483 -1.2211556905 -0.4230133556
C -7.2968981042 -1.5803678281 -1.5960592443
O -4.3217333661 -2.5734327604 -0.2329751043
C -3.4683128585 -1.4903420499 -0.5026910699
C -2.5179549212 -1.1306309062 0.4449788596
C -1.6329452562 -0.0994956148 0.1589364330
C -1.6885418745 0.5460923122 -1.0797436989
C -2.6416440943 0.1622159722 -2.0255548446
C -3.5445883268 -0.8555848910 -1.7332260416
S -0.6219729333 1.9251345256 -1.4790063086
C 0.9333664820 1.4547266191 -0.7320333904
C 1.6276336981 2.4083753157 0.0141616105
C 2.8764751682 2.1039512827 0.5486428405
C 3.4051024627 0.8380968206 0.3408219273
C 2.7240344142 -0.1259262714 -0.3923177386
C 1.4877656115 0.1883158910 -0.9399085873
O 4.6265402923 0.4776636941 0.9160404405
P 6.0308793029 1.1038787636 0.3965932438
S 6.1692749192 1.4117450656 -1.5153288616
O 7.0732640290 0.0886052309 1.0581864748
C 7.3633748050 -1.1824509062 0.4118324185
O 6.1637971061 2.3696331065 1.3631675103
C 7.2441352566 3.3256374774 1.1660149021
H -6.9247053486 -1.9895294902 3.0797459261
H -7.1289595972 -0.4435198856 2.1864947985
H -5.8986764231 -0.5771278087 3.4808358616
H -7.6350399854 -0.6356270988 -2.0214024067
H -6.6770482998 -2.1182152793 -2.3187541812
H -8.1503554829 -2.1946180640 -1.2997468941
H -2.4821146078 -1.6466086290 1.3979842796
H -0.8982402269 0.1972978040 0.8996859948
H -2.6772513599 0.6500922384 -2.9942006235
H -4.2830963540 -1.1676701219 -2.4633241373
H 1.1929363266 3.3872180943 0.1870783228
H 3.4225473682 2.8352236336 1.1345124259
H 3.1704080891 -1.1029426553 -0.5429980306
H 0.9557972435 -0.5517518524 -1.5284340570
H 7.7760050338 -1.0088962048 -0.5850506646
H 8.0993643889 -1.6725678013 1.0483586698
H 6.4551447096 -1.7883461377 0.3492892564
H 7.0932843290 4.0956586839 1.9218519223
H 8.2103744965 2.8359259602 1.3130884026
H 7.1822559607 3.7575514502 0.1640562578
