23
CONF3
C -1.6606989597 -2.5337873915 -1.0927284323
N -0.7228230106 -1.5634798221 -1.6412301256
C 0.1699996185 -0.8849239299 -0.9169145672
N 1.0714845519 0.0313086129 -1.3526658714
N 1.1314040057 0.3485773723 -2.6582835676
O 1.9793637233 1.1997663150 -2.9573791273
O 0.3910152538 -0.1634645222 -3.5336454611
N 0.2334793103 -1.1202421635 0.4141259779
C 1.0371507425 -0.3227334725 1.3414624034
C 0.4912832756 1.0499663931 1.5862976672
C 1.0574766969 2.2532313992 1.2814903078
N 0.3411954998 3.3784261150 1.6224633275
C -0.7739875373 3.0376087483 2.1806496959
S -1.0566331972 1.3234911156 2.3522710278
Cl -1.9512387958 4.1716977576 2.7412135904
H -2.2603502090 -2.9217246917 -1.9161438976
H -2.3349113262 -2.0693899631 -0.3626546619
H -1.1374368835 -3.3732046043 -0.6191062876
H -0.7035006042 -1.3677124376 -2.6345996840
H -0.4606290088 -1.7245109613 0.8244460256
H 2.0553230270 -0.2196793398 0.9588411661
H 1.0853642855 -0.8903090619 2.2753750198
H 2.0176701394 2.3610883155 0.7896388908
