68
CONF101
C 1.8739126944 -4.6053546628 -0.5517441089
C 2.5442236324 -3.4455142843 -1.2853578998
C 1.7169246204 -2.1379737933 -1.3233666142
C 0.4048753434 -2.3350831737 -2.0878111951
C 1.5117050286 -1.6921610797 0.1233764466
O 0.2182638517 -1.5902129083 0.4695134955
C -0.0906239567 -1.1560373870 1.8351065441
C -0.1862476226 -2.4037248839 2.6963393395
C -0.5173524726 -2.0532101641 4.1459475527
C -1.6567336559 -1.0809413399 4.1847545866
C -2.0713908955 -0.3457904196 3.1362896496
C -3.1989159178 0.5662738926 3.2596622191
C -3.5170421416 1.4630280634 2.3136063681
C -2.7020956670 1.6683939312 1.0695065864
C -1.2896693987 1.0648179294 1.2430637807
C -1.4084758669 -0.3889918381 1.7694806679
C -0.4255599475 1.2063301541 -0.0139943704
C -0.3213090050 2.6425012637 -0.5296356503
C 0.7147128180 2.7910358897 -1.6283557026
C 0.8686491327 4.2092159685 -2.1365030430
C 1.8292407383 4.2237971148 -3.3064633079
C 1.2548134016 3.3584332533 -4.4229975250
C 0.6802189585 2.0309582933 -3.9852702678
O 0.3053674411 1.8684148111 -2.7036055500
O 0.4714991638 1.1223540301 -4.7651569968
O 1.9926921197 5.5797015605 -3.7352469879
C -3.4667299467 1.1534619784 -0.1636258437
C -0.8287153647 -3.3118305799 4.9627097702
O 2.4322636759 -1.4461940062 0.8823654363
C 2.5470142842 -1.0416943837 -2.0158629319
H 1.6430060575 -4.3399111581 0.4867099437
H 0.9420332710 -4.9086656323 -1.0374113503
H 2.5362002685 -5.4759805330 -0.5298604372
H 3.5091418093 -3.2224331857 -0.8166887089
H 2.7495759574 -3.7283070225 -2.3253681277
H -0.2508109649 -3.0638304350 -1.6071268612
H -0.1426316425 -1.3921808225 -2.1756619660
H 0.6349356148 -2.6895409847 -3.0982232878
H 0.7214267846 -0.5091161341 2.1866084030
H 0.7570600897 -2.9575808869 2.6401494083
H -0.9795586978 -3.0461399039 2.2902231603
H 0.3652818733 -1.5722862727 4.5992421752
H -2.1802897494 -0.9699988106 5.1347377708
H -3.7963334063 0.4931726967 4.1665445680
H -4.3968950577 2.0915771608 2.4388596348
H -2.5847785054 2.7538033568 0.9421628414
H -0.8010751358 1.6445825154 2.0422911475
H -2.0709131999 -0.9483267099 1.0912538538
H -0.8022515373 0.5536082459 -0.8073997113
H 0.5907161180 0.8648051399 0.2138694930
H -1.2829244120 3.0058860712 -0.9100456621
H -0.0233264783 3.3123101393 0.2878595860
H 1.6851860992 2.4136125196 -1.2763541652
H 1.2531854134 4.8289360093 -1.3199354778
H -0.1046006024 4.6116658032 -2.4464494561
H 2.7991022363 3.8153764279 -2.9819776713
H 0.4151031221 3.9009965525 -4.8806111619
H 1.9827276077 3.1621185605 -5.2152939325
H 2.6388983396 5.5908571560 -4.4530381621
H -2.9531170150 1.4092091862 -1.0952476639
H -4.4644066479 1.6028425291 -0.1962054913
H -3.5945975420 0.0671227631 -0.1276816686
H 0.0152608173 -4.0087133108 4.9359399732
H -1.7094003437 -3.8213074112 4.5562704324
H -1.0321640187 -3.0586156500 6.0080272265
H 2.7499568153 -1.3423416720 -3.0489248740
H 1.9972466036 -0.0949875602 -2.0388515340
H 3.4985152297 -0.8862205649 -1.5005557733
