45
CONF2
C 2.8720373761 -1.3552683318 2.5219282615
N 2.4229844107 -0.9782816130 1.1828585068
C 3.5745561413 -0.8699038990 0.2896094015
C 1.4621196382 -1.9451244226 0.6435709612
C 0.1465511291 -2.0074218142 1.4169261405
C -0.5054191380 -0.6392869856 1.6260777229
N -0.7474420458 0.0755335673 0.3673524876
C -0.5553039187 1.4825969511 0.4064915348
C -0.9774757123 2.2316390544 1.5097014997
C -0.7455648227 3.6024201026 1.5603289085
C -0.0993159553 4.2397266404 0.5048842268
C 0.3205947400 3.4930544819 -0.5923925696
C 0.1127134548 2.1154079306 -0.6506523448
C 0.5579956976 1.2883806756 -1.8137888787
C -0.6361106533 0.8031346544 -2.6363389872
C -1.5970747058 -0.1574797833 -1.9618861719
C -2.5219043267 -0.7752951849 -2.8113504838
C -3.4554555858 -1.7027681933 -2.3706896998
C -3.4786090758 -2.0295631932 -1.0196533407
C -2.5858412869 -1.4242389293 -0.1480041309
C -1.6318498925 -0.4848738785 -0.5852247826
H 2.0357439997 -1.3529800968 3.2272636216
H 3.6092712590 -0.6282170232 2.8772764221
H 3.3395865227 -2.3600767169 2.5446631266
H 4.1285978554 -1.8246078952 0.1901179943
H 3.2448391410 -0.5636574064 -0.7087455587
H 4.2684627504 -0.1120170346 0.6682685919
H 1.2455819820 -1.6524859501 -0.3910287106
H 1.8994306146 -2.9645916601 0.6048478070
H -0.5241145027 -2.6815800796 0.8737484782
H 0.2937972953 -2.4572224152 2.4059976134
H -1.4135704492 -0.7495194636 2.2404582182
H 0.1882414966 -0.0156684606 2.1952311833
H -1.4972788737 1.7415059080 2.3265317678
H -1.0814486957 4.1723125144 2.4211664716
H 0.0823631762 5.3091798805 0.5381126976
H 0.8405895394 3.9804820502 -1.4131031532
H 1.2162337058 1.8783886751 -2.4592817300
H 1.1301113599 0.4259622815 -1.4522363156
H -0.2683038084 0.3135618847 -3.5464835889
H -1.1995014784 1.6843697453 -2.9728530936
H -2.4857726398 -0.5194102366 -3.8679406758
H -4.1459157350 -2.1631945971 -3.0695384591
H -4.1972539330 -2.7466478461 -0.6347168160
H -2.6418763465 -1.6762732838 0.9033563434
