47
CONF187
C -4.1991160740 -0.4150658489 -3.3417057449
O -4.7233478038 0.5732440288 -2.4034685723
P -5.5690777492 0.0853411934 -1.1297748212
S -6.0905170836 1.5895578686 -0.0288175954
O -6.7080788638 -0.8949995887 -1.6854566537
C -7.8001000785 -0.3190301175 -2.4568960211
O -4.7002046638 -1.0918622724 -0.4255711742
C -3.6810021976 -0.8240636313 0.4887082759
C -3.7355688489 -1.4889114495 1.7049980776
C -2.7019726211 -1.3173573627 2.6195946180
C -1.6402744151 -0.4595903219 2.3237930578
C -1.6115208075 0.2191588692 1.1029540745
C -2.6245963801 0.0248665418 0.1727226662
S -0.3919178079 -0.2035972513 3.5787172282
C 1.1205370886 -0.1291132960 2.6276631603
C 2.0748832279 0.8266605995 2.9806373849
C 3.2966732933 0.8734289395 2.3156889690
C 3.5354405520 -0.0218824684 1.2821408619
C 2.5934225743 -0.9752966306 0.9144562947
C 1.3889982680 -1.0398473235 1.6014878843
O 4.7559571101 -0.0236593293 0.6058674619
P 5.2404025297 1.2462826473 -0.3004776554
S 3.8417623978 2.1338802133 -1.3025732033
O 6.4448938138 0.5580065571 -1.0933530929
C 6.1625220994 -0.4263209132 -2.1271167866
O 6.0122834627 2.2339780598 0.6847547999
C 7.0807059413 1.7340627068 1.5472481223
H -3.7052672594 0.1595886171 -4.1244506693
H -5.0147627879 -1.0073623232 -3.7641054872
H -3.4784193066 -1.0642282623 -2.8371482105
H -8.4181588852 -1.1626442506 -2.7619262593
H -8.3760897491 0.3680190850 -1.8315923816
H -7.4122718484 0.2012890460 -3.3375352640
H -4.5695782918 -2.1472315508 1.9220465721
H -2.7247501549 -1.8531180856 3.5629167406
H -0.7947013447 0.8935006329 0.8689106037
H -2.5951143953 0.5394427517 -0.7818785794
H 1.8664651790 1.5387149203 3.7723580713
H 4.0443295535 1.6109039354 2.5879300553
H 2.8130336602 -1.6632402569 0.1050111279
H 0.6550436351 -1.7914988345 1.3310486523
H 5.5521422500 0.0248862786 -2.9138133364
H 7.1330057838 -0.7222949669 -2.5238793150
H 5.6516545095 -1.2899046372 -1.6930602130
H 6.7245789315 0.8833976302 2.1342336884
H 7.9429183703 1.4492066952 0.9410796487
H 7.3347540805 2.5647033885 2.2046789245
