111
CONF68
C 3.0003951739 -1.0979141252 1.4263560444
N 2.1074402032 -2.0327327954 2.1293314147
C 2.5980455188 -3.3128203601 2.6031353701
C 0.8457445965 -1.9170585391 1.5651645347
C -0.2229263464 -2.8070381537 1.6356733810
C -1.4105546153 -2.4514191590 0.9811020571
O -2.5114874634 -3.2623161511 0.9685767058
C -2.4170510538 -4.5506210938 1.5840998721
C -1.5408389081 -1.2453673399 0.2666770809
C -0.4387601218 -0.3809074136 0.2340268384
C 0.7365702260 -0.7089282123 0.8704042615
C 2.0239717195 0.0582063527 1.0558605313
C 1.9042240389 1.0530605447 2.2709754601
C 2.2375817733 2.4222914621 1.6802205444
N 3.1369055961 2.0916252487 0.5753397278
C 3.3829388971 3.2086380918 -0.3241032574
C 4.0464985075 2.7362217945 -1.5790303685
C 4.0383406087 1.4607396259 -1.9612141098
C 3.2763156443 0.3666452885 -1.2455896917
C 2.2731216906 -0.2423491504 -2.2748098379
C 2.8687456632 -1.0371539334 -3.4337217363
C 4.2972996935 -0.6723551877 -0.7346832797
O 5.3177469813 0.0487935261 0.0002340827
C 6.6128817978 -0.2622228397 -0.2284546386
C 7.5126265322 0.5748882550 0.6270225739
O 6.9777847241 -1.1183872184 -1.0092602507
C 3.6957333239 -1.7603117401 0.2042725394
O 2.7631744502 -2.5332317019 -0.5241782822
C 4.8448511772 -2.7076357400 0.6023041287
O 5.0347409957 -3.7541376231 0.0114263143
O 5.6013045527 -2.2581625942 1.6012166638
C 6.7416819572 -3.0925294464 1.9489306709
C 2.4514085288 0.9835909504 -0.1023144152
C -2.8620840081 -0.9170944008 -0.4359677417
C -3.9960252400 -0.6411734179 0.5800334078
C -3.7057449133 0.3709064680 1.7196422766
C -2.9623721959 1.6659016219 1.3613263760
N -3.7789131238 2.6552864237 0.6537180650
C -4.8805163040 3.0751961286 1.5298103922
C -5.5739119703 1.9476836187 2.2695550642
C -6.8956796594 2.2792650832 2.9071994713
C -6.7979078899 3.3800276335 3.9736077580
C -5.0195316348 0.7323806435 2.3610212258
C -4.3071316127 2.1489296022 -0.6376210872
C -3.2660964856 1.4975983697 -1.4944225319
C -2.6988303808 0.2327379493 -1.4163508937
N -1.7888651043 0.0869837648 -2.4482259441
C -1.7173818948 1.2390212296 -3.1834259374
C -0.9321705624 1.5572051733 -4.2912980958
C -1.0734756373 2.8312481191 -4.8254893607
C -1.9767612820 3.7586818948 -4.2715278119
C -2.7587378252 3.4337491813 -3.1719106672
C -2.6364944285 2.1553861701 -2.6070627329
C -3.2222671647 -2.1194691145 -1.3473418780
O -2.4091681500 -2.7161825355 -2.0254327267
O -4.5353897503 -2.3735996019 -1.3766611279
C -4.9431417115 -3.4453951330 -2.2644054427
H 3.7875502207 -0.7380241451 2.0925738887
H 2.7276576605 -4.0472229829 1.7919150352
H 1.8927838540 -3.7282317844 3.3298245500
H 3.5536388938 -3.1698398326 3.1148644282
H -0.1299564253 -3.7527419002 2.1527275099
H -3.3864943385 -5.0241953413 1.4247651800
H -1.6298207001 -5.1533487678 1.1162591596
H -2.2249400238 -4.4605035979 2.6596441271
H -0.5059682513 0.5482900377 -0.3212665910
H 2.6218858635 0.7837240030 3.0507616394
H 0.9026839006 1.0259257692 2.7060130291
H 2.7194209465 3.0991790734 2.3941600809
H 1.3176991919 2.9154727844 1.3055755889
H 4.0188466243 3.9479123023 0.1810887885
H 2.4384761110 3.7362007536 -0.5838753417
H 4.5496934548 3.4852099249 -2.1857521889
H 4.5621385118 1.1666184766 -2.8680697040
H 1.7117589458 0.6118089820 -2.6750810489
H 1.5547639036 -0.8668139248 -1.7397036167
H 3.6144054598 -0.4658264813 -3.9951891382
H 3.3350110180 -1.9662903881 -3.0946816352
H 2.0720763116 -1.3086173819 -4.1338096211
H 4.7674728522 -1.1772951715 -1.5835712512
H 7.1877497423 1.6179103978 0.6230444260
H 7.4470363653 0.2108128625 1.6582760277
H 8.5413252782 0.4877180367 0.2791935214
H 3.2590960379 -3.2834437206 -0.8932500120
H 7.2316766004 -2.5755979234 2.7722553073
H 7.4080041244 -3.1776224534 1.0877442120
H 6.3959612526 -4.0810754306 2.2583250619
H 1.5197891830 1.3752640725 -0.5647710271
H -4.8869154768 -0.3424675219 0.0274794449
H -4.2450629969 -1.5915862111 1.0574667659
H -3.0825666941 -0.1563720879 2.4571854648
H -2.0628910997 1.4618674031 0.7818312174
H -2.6358367765 2.1338511171 2.2997143699
H -4.4868268859 3.7956753792 2.2638139583
H -5.6196236732 3.6269899996 0.9315976262
H -7.5973875705 2.6072081735 2.1266369888
H -7.3152957931 1.3711978660 3.3552865481
H -7.7731846692 3.5509613721 4.4395332260
H -6.0888275831 3.0949752192 4.7579815590
H -6.4636132843 4.3287743312 3.5431107012
H -5.5571856015 -0.0612286652 2.8818327241
H -4.6977432934 3.0158301969 -1.1844490379
H -5.1659636964 1.4778740044 -0.4853523727
H -1.2478179051 -0.7504538061 -2.6040888883
H -0.2368833890 0.8385116276 -4.7142339773
H -0.4761636794 3.1176569413 -5.6854667887
H -2.0591998356 4.7463530391 -4.7146139571
H -3.4489346382 4.1614631747 -2.7551965155
H -4.6693539211 -3.2046322675 -3.2942120615
H -4.4670038369 -4.3814093570 -1.9628746427
H -6.0249994462 -3.5107723582 -2.1570149386
