45
CONF16
C 1.6415558644 -4.0918902116 -1.3723235755
C 2.0987866436 -2.6565070452 -1.5832657520
C 0.8772952282 -1.7428807796 -1.7291897263
O 0.3061922048 -1.6335816076 -2.8117835751
N 0.4687936805 -1.1364043464 -0.5872199579
C -0.6485703322 -0.2497653741 -0.5382580792
C -1.7794089318 -0.5010243842 0.5142177426
N -1.4714438159 0.8162782113 1.0905399217
C -0.4716013970 1.1132120042 0.1732903586
O 0.2276531272 2.0882782635 0.0259159461
C -2.5733823780 1.6443195369 1.5275818892
C -3.7465067694 1.3743745300 0.5120974628
S -3.5549289355 -0.4339003447 0.0337344772
C -5.1335394130 1.5780027163 1.1116342227
C -3.5549093155 2.2662220530 -0.7149129418
C -2.9699344971 1.3901068592 2.9738262143
O -3.4197385932 2.2515526208 3.6970940421
O -2.7885459576 0.1134210489 3.3421157171
O 2.9153110638 -2.3115143615 -0.4549627500
C 3.6605486021 -1.1568087880 -0.5157023554
C 3.6574057498 -0.2685887851 -1.5924996794
C 4.4537791091 0.8760195205 -1.5296768206
C 5.2417258511 1.1411973209 -0.4150733418
C 5.2324594290 0.2454461162 0.6553974038
C 4.4469326639 -0.8983449028 0.6106768390
H 1.0771289751 -4.1781186723 -0.4393429284
H 1.0034527746 -4.3988413715 -2.2043359296
H 2.5106637190 -4.7527103501 -1.3302067716
H 2.6772781981 -2.5763671842 -2.5112399698
H 1.0061854329 -1.2928291718 0.2556671307
H -1.0478509401 -0.1104351337 -1.5472595673
H -1.6041142125 -1.3477850368 1.1823101732
H -2.2856038268 2.6979334069 1.4617382550
H -5.2447083715 2.6201621826 1.4284816811
H -5.3106801023 0.9248597219 1.9700276054
H -5.8968899698 1.3705827121 0.3567120844
H -4.2922097593 2.0101035593 -1.4799192679
H -3.6949866466 3.3152434432 -0.4300130739
H -2.5589210376 2.1543535130 -1.1530215496
H -3.0790982749 0.0122359518 4.2658429541
H 3.0504716535 -0.4418937269 -2.4731925033
H 4.4475526146 1.5650288197 -2.3687009207
H 5.8554730876 2.0349420351 -0.3771756134
H 5.8410743051 0.4381733966 1.5335658411
H 4.4298537005 -1.6019837871 1.4368078891
