36
CONF242
C 2.9223653865 2.5849386705 -1.7933873556
C 3.4029223114 1.2317471469 -1.2797337989
C 2.4241240175 0.1023310507 -1.4118913362
C 1.2003767260 0.1692538183 -1.9393371877
C 0.2560616157 -0.9915587425 -2.0340460175
C -1.0545111766 -0.7488640179 -1.2757832351
C -0.9517863172 -0.3661895483 0.2069624019
C -2.3351032965 0.2357221516 0.5133237141
C -2.6503703420 1.0632046848 -0.7369108429
C -1.9338946877 0.3460918356 -1.8652387181
O -2.0350967013 0.6068610302 -3.0497720167
C -0.5609193051 -1.5357209173 1.1079772712
C -0.4138753934 -1.0957848546 2.5414325209
O 0.2736603026 -0.1619848196 2.9083590403
O -1.1345542938 -1.8597476439 3.3832003229
C -1.0342425522 -1.5114445110 4.7883374522
H 2.6814496606 2.5422598856 -2.8607093173
H 3.6976430277 3.3434749277 -1.6526336652
H 2.0250345897 2.9156989554 -1.2597860412
H 3.6857215168 1.3173953851 -0.2205521420
H 4.3316948127 0.9477879766 -1.7953512107
H 2.7681788926 -0.8609191083 -1.0293682445
H 0.8276457920 1.1200091560 -2.3211159822
H 0.7363223162 -1.8980922152 -1.6492630578
H -0.0015763639 -1.1828845892 -3.0841922251
H -1.6756985726 -1.6596077813 -1.3473846763
H -0.1933584125 0.4216457211 0.3064993494
H -2.3415393477 0.8284301554 1.4322721227
H -3.0660995468 -0.5748367400 0.6253219684
H -2.2002460027 2.0639962644 -0.6697228678
H -3.7120553912 1.1989227232 -0.9604103378
H -1.2945508902 -2.3433277210 1.0300469705
H 0.4152072814 -1.9307233859 0.7978779178
H -1.6729945146 -2.2241106409 5.3082561899
H -1.3867099700 -0.4898798227 4.9482646570
H 0.0007751303 -1.6040950831 5.1253819814
