58
CONF5
C -5.3964614907 0.5422143167 2.9667643615
C -4.8631776565 -0.1255965766 1.7467423828
C -3.8557224386 0.3489997382 0.8639847235
C -3.7559827207 -0.6594809242 -0.0956797940
N -4.6420965730 -1.6229375372 0.2249220808
N -5.3344653714 -1.3100206988 1.3513442391
C -4.8850916240 -2.8738009207 -0.4721680153
O -3.0057781905 -0.7423958135 -1.2179310567
C -1.6573143533 -1.0816252585 -1.0778741816
C -0.8607466962 -0.8542431069 -2.1943164669
C 0.4828317432 -1.2092889402 -2.1441921649
C 1.0213486710 -1.7796924803 -0.9917755314
C 0.2066656089 -1.9917073509 0.1162920473
C -1.1436239914 -1.6452669653 0.0837668050
C -3.1444912228 1.5924189333 0.9717306921
N -2.2973182405 1.9692267468 0.0800493259
O -1.7545895847 3.2280781851 0.4258327083
C -0.7738054551 3.5932506790 -0.5469341981
C 0.4716835084 2.7454271380 -0.4999721622
C 1.3045400650 2.6857572877 -1.6207441945
C 2.4688381675 1.9321053537 -1.5934680613
C 2.8169417206 1.2127868491 -0.4461471963
C 1.9872632692 1.2754620643 0.6777275090
C 0.8278057487 2.0388081407 0.6502945381
C 4.0432883499 0.3700659636 -0.4866526987
O 4.7732394431 0.2995715203 -1.4620047388
O 4.2253778661 -0.2910295381 0.6646277227
C 5.3819033811 -1.2052374834 0.8748041252
C 6.6872661458 -0.4272287719 0.7643338701
C 5.3037528056 -2.3714145471 -0.1021363903
C 5.1596773297 -1.6854995737 2.3033528391
H -5.8348029288 1.5157077185 2.7233689840
H -6.1657931055 -0.0818568383 3.4261044412
H -4.6015790509 0.7142428892 3.7000349058
H -4.2354241717 -2.9144396708 -1.3472918755
H -5.9300943949 -2.9236639685 -0.7892279065
H -4.6618031086 -3.7149445034 0.1896057646
H -1.2962124406 -0.4052494203 -3.0808071072
H 1.1129602549 -1.0302459723 -3.0097160270
H 2.0722659381 -2.0471068612 -0.9557969434
H 0.6183281209 -2.4306765888 1.0197983814
H -1.7795222990 -1.8158689031 0.9463216811
H -3.3519851580 2.2184139640 1.8446849117
H -0.5296155531 4.6342285278 -0.3034246788
H -1.2110966226 3.5714625955 -1.5534018430
H 1.0315099279 3.2257316030 -2.5234946108
H 3.1079899570 1.8756554402 -2.4679430026
H 2.2424341398 0.7172797375 1.5706322920
H 0.1850074782 2.0757546149 1.5232646585
H 6.6590926811 0.4554989324 1.4106854043
H 7.5052415988 -1.0716420107 1.1007511291
H 6.8867062386 -0.1164507383 -0.2617053312
H 5.4632771895 -2.0476688035 -1.1314008893
H 4.3309692385 -2.8667179677 -0.0240734848
H 6.0791244563 -3.0974425450 0.1610135060
H 5.9555034336 -2.3826511082 2.5790855066
H 4.1982576336 -2.2004354362 2.3892950331
H 5.1757305918 -0.8424914875 3.0003344116
