88
CONF7
C 1.7394635459 -1.2445880656 -0.1404706985
C 0.2713439236 -0.9001209563 0.1286712400
C -0.3954503794 -0.3814572000 -1.1375966719
O -1.7549377882 0.0367613002 -0.8367145873
C -2.7336577187 -0.8999654723 -0.9243124132
O -2.5336306996 -2.0587269646 -1.2502187022
C -4.0273101741 -0.3071545095 -0.5765953345
C -5.1511790972 -1.0483840202 -0.6085130208
C -6.5006896586 -0.6134280729 -0.2909848523
C -7.5358220213 -1.5486043632 -0.4410493391
C -8.8517966387 -1.1864467817 -0.1535256373
O -9.9237578654 -2.0130650435 -0.2630660492
C -9.6776145060 -3.3533765707 -0.7122213343
C -9.1396028813 0.1162971891 0.2804756749
O -10.4335203692 0.4909640814 0.5183978152
C -10.8513675125 0.2602548942 1.8828771496
C -8.0963415033 1.0485753433 0.4381337869
O -8.4842498293 2.2739117259 0.8763268347
C -7.4609784673 3.2624924402 1.0582256288
C -6.7836172200 0.6890686041 0.1492965974
C 0.3108980411 0.8426694254 -1.7084259495
O -0.2560973917 1.1994210407 -2.9740885469
C -1.1293588989 2.3301630894 -2.9308948306
C 1.7841886933 0.5095365388 -1.9559283004
C 2.5783499751 1.6663077985 -2.5239569434
O 3.6003954310 1.5245527035 -3.1666982431
O 2.0778518943 2.8655000622 -2.1848781596
C 2.8380050272 4.0146856012 -2.6349490209
C 2.5085673929 -0.0380620964 -0.7021279102
C 2.7131444817 1.0166316380 0.3868816673
C 3.3841431318 0.4307429732 1.6312190914
N 2.6297837434 -0.7424755104 2.1280823418
C 3.2934567398 -1.2964804104 3.3215943558
C 4.7028912971 -1.8744027852 3.0584823410
C 5.4405179715 -0.9835943855 2.1126995048
C 4.8279024544 0.0503708495 1.4499958553
N 5.7471065093 0.6775250525 0.6230218957
C 6.9614387813 0.0413840964 0.7346229592
C 6.8034844266 -1.0181508622 1.6686092284
C 7.9151080707 -1.8241403331 1.9543336781
C 9.1206127300 -1.5689796133 1.3236915537
C 9.2473315396 -0.5093628909 0.3988239251
O 10.4971411610 -0.3731103835 -0.1489348531
C 10.6837148772 0.6774214928 -1.0999819064
C 8.1695029046 0.3156909713 0.0877218430
C 2.4640426614 -1.7758177814 1.0952516597
H 1.7652145031 -2.0423999031 -0.8957953391
H -0.2616841014 -1.7926004190 0.4737099351
H 0.1849919166 -0.1431600918 0.9152888956
H -0.4321154027 -1.1633227149 -1.9045629631
H -4.0226210625 0.7416409275 -0.3001185606
H -5.0501010999 -2.0909188587 -0.9064551953
H -7.2949311348 -2.5486129509 -0.7796964702
H -9.2404900306 -3.3552806853 -1.7172374807
H -9.0170736436 -3.8848655453 -0.0175851120
H -10.6539166491 -3.8376680411 -0.7347827807
H -10.2280217723 0.8370332528 2.5753864371
H -11.8870767673 0.5976227992 1.9476288214
H -10.7912087427 -0.8066715573 2.1252780769
H -6.9536455794 3.4801897166 0.1113044006
H -6.7289917869 2.9364391817 1.8061853915
H -7.9766679130 4.1550389074 1.4127701924
H -5.9819338634 1.4047878310 0.2698858529
H 0.2116934687 1.6791861705 -1.0042158429
H -2.0105482991 2.1381801511 -2.3067515007
H -0.6015690689 3.2164925622 -2.5535770286
H -1.4501982229 2.5147128205 -3.9590014620
H 1.8195616291 -0.2760923730 -2.7213192723
H 2.2868858895 4.8829029311 -2.2760247117
H 2.9005008712 4.0202870780 -3.7254900130
H 3.8429638512 3.9903779131 -2.2065367019
H 3.4963681367 -0.3899655766 -1.0286209398
H 1.7552162548 1.4483667570 0.6928974701
H 3.3169208286 1.8504966862 0.0107298107
H 3.3235091287 1.1954854820 2.4211530353
H 2.6456386289 -2.0710848534 3.7485154362
H 3.3689337284 -0.4851578671 4.0566543118
H 4.6340443458 -2.8932743002 2.6512238929
H 5.2324083972 -1.9664516159 4.0151873790
H 5.5601810477 1.4626340355 0.0209883397
H 7.8362320364 -2.6438292926 2.6628847772
H 9.9955918078 -2.1781381901 1.5263727338
H 11.7269073658 0.6161225024 -1.4123389339
H 10.0309160856 0.5425400701 -1.9715412720
H 10.4928436388 1.6590288989 -0.6483968345
H 8.2454703245 1.1328842159 -0.6191037518
H 1.8882684855 -2.5981174969 1.5389307501
H 3.4321258629 -2.1928726988 0.7648727977
