32
CONF21
C 2.6487607889 1.3180692548 0.8439261702
C 2.1383775910 1.6172764529 -0.4067107064
C 1.6109260575 0.6140618443 -1.2279805398
C 1.6462636592 -0.7180524166 -0.7737822883
C 2.1706390138 -1.0414379432 0.4656939722
C 2.6514244744 -0.0084202360 1.2602910767
N 3.1827677793 -0.3404853464 2.5887527637
O 3.5769541615 0.5829989208 3.2940961569
O 3.2016453743 -1.5210162725 2.9236769831
Cl 0.9958211394 -1.9968868297 -1.7691238799
N 1.0440741609 0.9679641380 -2.4711811280
S -0.4954042753 1.7588111881 -2.4072882992
O -0.9226312024 1.8708269616 -3.8034951954
O -0.3257763195 2.9378863205 -1.5543013051
C -1.5391413752 0.5834255566 -1.5531143102
C -1.4081266522 0.4757347480 -0.1734892242
C -2.0902007974 -0.5328479055 0.4986079962
C -2.9196629470 -1.3940082297 -0.2323667772
C -3.0649320172 -1.2551035212 -1.6095875365
C -2.3567602254 -0.2705338868 -2.2830438855
Cl -3.8047777441 -2.6750388185 0.5502824138
C -1.8893466779 -0.6828212436 1.9857329796
F -1.0389686019 0.2469530893 2.4696763336
F -3.0464839938 -0.5561460291 2.6756919828
F -1.3648454026 -1.8926074223 2.2983597986
H 3.0505282096 2.0959047529 1.4797894765
H 2.1391928108 2.6378895327 -0.7685028054
H 2.1850927086 -2.0654321270 0.8152576179
H 0.9645046425 0.1813381140 -3.1165156199
H -0.7788261587 1.1632954740 0.3777174141
H -3.7191186958 -1.9268177638 -2.1527471892
H -2.4419692842 -0.1747798641 -3.3594783374
