38
CONF28
C 2.7095124131 2.9139201149 -1.6722960159
C 1.2078662373 2.8340288485 -1.4178612586
C 0.6064361610 4.2327084872 -1.2997231928
N 0.9794569359 2.0781540638 -0.1714485705
C -0.3679566306 1.5087399113 -0.0416892439
C -0.6744750526 1.2591370959 1.4337262347
O -0.5844312951 2.4708082764 2.1788302605
C 0.2930691308 0.2473903027 2.0657448525
O 0.5111708388 -0.9111948442 1.2506403165
C -0.4916269303 -1.8323876729 1.1382352017
C -1.6361770681 -1.8867834952 1.9236943443
C -2.5898347538 -2.9031245288 1.7258482116
C -2.4400003131 -3.8784614887 0.7556386827
C -1.2849271287 -3.8096506210 -0.0264543592
N -0.8537845188 -4.6152406464 -1.0562927937
C 0.3569978932 -4.1507956081 -1.5328611985
C 0.7265264033 -3.0402520684 -0.8222824473
C -0.3027777479 -2.8045681591 0.1406262538
H 3.1444837392 1.9179417641 -1.8123310049
H 2.9183332119 3.5003495904 -2.5713483211
H 3.2104775687 3.3938559524 -0.8243827294
H 0.7367329345 2.3192660471 -2.2766991426
H 1.1079071670 4.7874559379 -0.4996456203
H -0.4622461832 4.2008580500 -1.0701211281
H 0.7294213169 4.7831658253 -2.2377313893
H 1.6473939398 1.3142484032 -0.1341285907
H -1.0983187527 2.2391896795 -0.4049912802
H -0.5061184829 0.5821522808 -0.6222395356
H -1.7079216985 0.9076044098 1.5227469841
H 0.2043281052 2.9141862533 1.8253704718
H 1.2784747353 0.7137170630 2.1587388161
H -0.0407655878 -0.0274018297 3.0737220203
H -1.8119974286 -1.1541638746 2.7012215362
H -3.4707106347 -2.9136769224 2.3594022148
H -3.1845007251 -4.6541354609 0.6131371485
H -1.3445351302 -5.4185662135 -1.4060611143
H 0.8583527249 -4.6561371297 -2.3452690259
H 1.6261645106 -2.4623372962 -0.9617966841
