47
CONF72
C -2.2580407212 -0.2688377280 0.2100559721
C -1.9132889323 -0.7207635431 -1.1891220230
C -1.6484410174 -2.2057840264 -1.2989865140
C -2.5327804327 -0.0519866331 -2.3925709154
C -3.5060894021 1.0343495983 -2.2641004619
C -4.4724083484 1.3058202182 -3.1411769653
Br -5.7129767306 2.7230685158 -2.8490177063
Br -4.7488754244 0.3491950881 -4.7649788157
C -1.0402453756 0.1573126641 -2.0908789073
C -0.5138750638 1.4301164502 -1.5860110423
O -1.1157083578 2.3498337269 -1.0765504485
O 0.8533021378 1.4393729401 -1.7332227447
C 1.5124062154 2.5464489858 -1.0886616801
C 2.8699640054 2.5665241615 -1.6362808284
N 3.9547992060 2.6056932709 -2.0297039207
C 1.5538375583 2.3952940265 0.4243847691
C 1.6634019502 3.5336180861 1.2171669809
C 1.7183083417 3.3915923513 2.6020289672
C 1.6618076391 2.1340113328 3.1884033151
C 1.5467940036 1.0049254577 2.3768600421
O 1.4382211937 -0.1995915234 3.0322626206
C 1.6134308416 -1.3811908539 2.3193221642
C 2.8228386250 -1.6608228939 1.6896375702
C 2.9771476119 -2.8838007396 1.0439134202
C 1.9402650013 -3.8164625663 1.0394068388
C 0.7430361243 -3.5242485837 1.6878239950
C 0.5714416370 -2.2995521002 2.3300140324
C 1.4982972051 1.1240497465 0.9900519226
H -3.1855172357 -0.7567534323 0.5278736544
H -2.3846203588 0.8098700661 0.3014389610
H -1.4620226988 -0.5754787347 0.8971339263
H -1.4257037244 -2.5004850689 -2.3279965642
H -2.5268699179 -2.7653268235 -0.9593065711
H -0.7999825702 -2.4846662908 -0.6639765091
H -2.6852302609 -0.7005888515 -3.2495646277
H -3.4572523807 1.6729162519 -1.3894343794
H -0.3539785025 -0.3804488598 -2.7359110321
H 1.0178033670 3.4888893705 -1.3545042322
H 1.6988463132 4.5178887405 0.7609508830
H 1.7998364673 4.2711729431 3.2322003058
H 1.6950509673 2.0119616562 4.2657308472
H 3.6251823518 -0.9301247146 1.7063388758
H 3.9162741095 -3.1106106887 0.5492192245
H 2.0687394017 -4.7692098736 0.5364057037
H -0.0661610745 -4.2477456812 1.6922829379
H -0.3545152038 -2.0523031931 2.8385125937
H 1.4035511629 0.2456570257 0.3625354979
