52
CONF82
C -0.4279011243 -2.1044572020 -1.8198160713
C -0.9195579242 -1.9941271378 -0.4059907392
C -1.9237316784 -1.1931397328 -0.0099275981
C -2.7639127866 -0.3744956228 -0.9023777640
C -2.7517727779 1.1867942932 -0.8750336202
C -3.9681371918 0.3809918455 -0.4299329918
C -4.3821650570 0.3536810238 1.0234032808
C -5.1446030977 0.4497017079 -1.3824649987
C -1.8493071544 1.8802547655 0.0479724183
O -1.5807016989 1.5844492118 1.1967008186
O -1.2788300925 2.9488702510 -0.5899074278
C -0.3032754785 3.6945649331 0.1593991403
C 1.0734776756 3.0786627210 0.1105848093
C 1.3053387504 1.8193294312 -0.4376975893
C 2.5942698564 1.3013773692 -0.4346257191
C 3.6683523853 2.0089262272 0.0895628719
C 3.4293022539 3.2677096549 0.6346415128
C 2.1436756818 3.7993920869 0.6477698049
O 2.7937101421 0.0627343445 -1.0342208998
C 3.1330275719 -1.0067720754 -0.2314479767
C 3.5327504289 -2.1642760458 -0.9003822409
C 3.8528554701 -3.3005937516 -0.1672596754
C 3.7829155058 -3.2890628984 1.2259956804
C 3.3821553135 -2.1268354182 1.8786379940
C 3.0513627413 -0.9793062085 1.1599378015
C -0.1995574502 -2.8738919849 0.5753162067
H -0.9138022638 -1.4061944742 -2.5032715454
H 0.6525106976 -1.9138283538 -1.8496809560
H -0.5724657191 -3.1243273352 -2.1991529878
H -2.1655612858 -1.1753405351 1.0491377564
H -2.8317024186 -0.7322906449 -1.9260739258
H -2.8284030362 1.6574904970 -1.8492027767
H -5.0065034899 1.2264110435 1.2438035624
H -3.5353423561 0.3635033085 1.7076812057
H -4.9813275839 -0.5442041342 1.2122146680
H -5.7931952113 -0.4213194265 -1.2361433155
H -5.7376675033 1.3515983201 -1.1950031481
H -4.8165075610 0.4617873257 -2.4258124409
H -0.2882961660 4.6854895491 -0.3025874169
H -0.6344938697 3.7956792455 1.1985817971
H 0.5053344598 1.2272665362 -0.8690656290
H 4.6641628423 1.5784074024 0.0722120256
H 4.2547605408 3.8393445380 1.0468249053
H 1.9690395490 4.7832184894 1.0744929966
H 3.5828820352 -2.1594116318 -1.9843733810
H 4.1617703927 -4.2003143042 -0.6904161520
H 4.0355471208 -4.1776585662 1.7946597774
H 3.3143415513 -2.1062793547 2.9620407262
H 2.7275649108 -0.0834463760 1.6771331555
H -0.5644858113 -2.7299770409 1.5958628301
H 0.8788211904 -2.6752794859 0.5567158378
H -0.3267193423 -3.9308055761 0.3058498983
