63
CONF158
C 2.6736695169 1.2723029303 1.4717750592
C 1.2543428149 1.4942726165 1.9836080834
N 0.2921885827 0.6468710823 1.2685867132
C 0.6191621154 -0.7679100435 1.4790468454
C 2.0113664209 -1.0927304634 0.9450027686
C 3.0483749106 -0.2012320990 1.6272118188
N 4.4114490167 -0.4785640811 1.1652872014
C 5.4594467868 -0.9297827944 1.9608527143
C 5.5337344400 -1.2326661002 3.3130775733
C 6.7649953903 -1.6711479278 3.8103612719
C 7.8815017607 -1.8009044850 2.9814949592
C 7.8091485130 -1.4955391423 1.6193468951
C 6.5889352260 -1.0613535335 1.1282315012
N 6.1877878416 -0.6848158696 -0.1396577827
C 4.8507076137 -0.3192163478 -0.1468058527
O 4.1986094735 0.0646076589 -1.1162384883
C -1.0706127652 0.9595078690 1.7218377135
C -2.1727272094 0.2467753444 0.9401791475
C -2.0717551733 0.4529758726 -0.5685592824
C -3.2321282094 -0.2077762618 -1.3293700830
C -4.5697195655 0.4034231285 -0.9438840020
C -5.5164540860 -0.3346552119 -0.2318220473
C -6.7371929184 0.2250948270 0.1434645210
C -6.9870368425 1.5384959767 -0.2090025585
C -6.0786129539 2.3086630957 -0.9173050238
C -4.8692273446 1.7268299740 -1.2831395041
F -8.1742970463 2.0981935973 0.1516351557
C -3.0664267869 -0.1958761528 -2.8413997342
C -3.8280622456 -1.0890764967 -3.6051336551
C -3.7491517728 -1.1108174889 -4.9928272964
C -2.8910088193 -0.2151139099 -5.6102250331
C -2.1187212260 0.6845105816 -4.9004397990
C -2.2142581484 0.6863684961 -3.5082804194
F -2.8034140944 -0.2263239153 -6.9685441980
H 3.3728089947 1.8968429004 2.0390991652
H 2.7363076636 1.5581135594 0.4170518191
H 0.9699935533 2.5426782592 1.8377470438
H 1.2209076252 1.2947779866 3.0755317020
H 0.5618597836 -1.0296830965 2.5569377778
H -0.1147119373 -1.3882331736 0.9553911587
H 2.0383876747 -0.9268048069 -0.1365455989
H 2.2420897057 -2.1467641000 1.1358139764
H 3.0436151856 -0.4394512876 2.6974738216
H 4.6759258087 -1.1358355695 3.9689532819
H 6.8493607449 -1.9143809109 4.8644891805
H 8.8226643550 -2.1436874260 3.3986948029
H 8.6720664624 -1.5930181835 0.9691815151
H 6.7608275299 -0.6665163224 -0.9683615923
H -1.2068752413 2.0430274955 1.6068684238
H -1.1893203042 0.7328709283 2.8009545502
H -2.1837191474 -0.8268629148 1.1671800636
H -3.1301115671 0.6400532797 1.3040211580
H -2.0440135827 1.5295969159 -0.7826498314
H -1.1276117451 0.0337068787 -0.9348956631
H -3.2643385131 -1.2616141006 -1.0229688613
H -5.3001834803 -1.3642499149 0.0391654148
H -7.4772351605 -0.3430004966 0.6969173777
H -6.3180917139 3.3344512964 -1.1764907948
H -4.1499329611 2.3149091086 -1.8464583190
H -4.4985886104 -1.7810989538 -3.1020616709
H -4.3343105553 -1.8052504316 -5.5861788582
H -1.4564157648 1.3670089971 -5.4222914840
H -1.6059646424 1.3900608989 -2.9509338373
