50
CONF75
C 0.9077650289 -0.2561591151 -1.7717540448
C -0.5979122544 -0.2203425004 -1.8806381817
C -1.3802891373 -1.4807266504 -2.1907485494
C -1.4682230458 -0.8479089604 -0.7924877898
C -0.8516695719 -1.4524401096 0.3950990803
O 0.0289279281 -2.2819069110 0.4547669805
O -1.4084634645 -0.8898248665 1.5186802583
C -0.7713601486 -1.2647428406 2.7534258471
C -1.7160116148 -0.8968774781 3.8099702369
N -2.4288632443 -0.6012995784 4.6687127582
C 0.5607006580 -0.5590273582 2.9660356374
C 0.8574525893 0.5979261719 2.2518706337
C 2.0797436559 1.2282038639 2.4763753361
C 2.9864190933 0.7221884365 3.4072606011
C 2.6677959200 -0.4326655822 4.1099397141
C 1.4553676469 -1.0831590720 3.8948400952
O 2.4952891270 2.3365324552 1.7752497513
C 1.5702291880 3.0940621246 1.0667600243
C 1.8381650783 3.3335531245 -0.2754904617
C 0.9789841793 4.1554473436 -1.0012512055
C -0.1367288571 4.7214890327 -0.3893651642
C -0.3871471872 4.4737738735 0.9598296541
C 0.4685934355 3.6631549710 1.6996971400
C -0.7041326470 -2.7601013197 -2.4100803499
C -1.0821248056 -3.6910868535 -3.2918161078
C -2.2988311041 -3.5616026145 -4.1795138663
F -2.2356263247 -2.4386754669 -4.9429376815
F -3.4371529836 -3.4611253677 -3.4430928529
F -2.4618859592 -4.5973819981 -5.0180377795
Cl -0.1685568264 -5.1717616680 -3.4762600296
C -1.1342480944 1.0660079039 -2.4671710251
H 1.2494921989 0.6164383578 -1.2050303909
H 1.2887079595 -1.1499574003 -1.2783619178
H 1.3437318603 -0.1990543195 -2.7747141804
H -2.2874005255 -1.3117710309 -2.7597297703
H -2.3962724163 -0.3262201252 -0.5862110091
H -0.6225271701 -2.3514662453 2.7856875646
H 0.1577195158 0.9957816073 1.5267198881
H 3.9312020953 1.2327294437 3.5596978234
H 3.3748392862 -0.8324002782 4.8293967221
H 1.2105779452 -1.9888856324 4.4409180143
H 2.7110002179 2.8817012272 -0.7349864744
H 1.1822891849 4.3467046298 -2.0502509586
H -0.8068305247 5.3568158038 -0.9591014076
H -1.2487717436 4.9209549943 1.4453540529
H 0.2875392151 3.4731596573 2.7527167805
H 0.1781868126 -2.9698641049 -1.8173283670
H -0.8429240594 1.9143498753 -1.8376454383
H -0.7124483264 1.2225995317 -3.4659646945
H -2.2243178625 1.0498614178 -2.5490348853
