43
CONF76
C 3.0151402750 -0.1384014878 3.6777227001
C 1.5331986540 0.1108959222 3.5271550956
O 1.2538348733 0.0908433068 2.1029024571
N -0.0895151317 0.3444766819 1.8958536892
C -0.4216561837 0.3416322164 0.6617692742
C -1.7701206022 0.7419706286 0.2359446299
C -2.4904964338 -0.0797263949 -0.6603097562
C -3.7429829941 0.3153155920 -1.1287896164
C -4.2764590717 1.5324871150 -0.7218263563
C -3.5737989113 2.3501135997 0.1489944599
C -2.3201964842 1.9694062426 0.6455586046
O -1.5968494254 2.8167044715 1.4295918960
C -1.9671817287 2.8091968838 2.8308779793
Cl -4.2373954451 3.9171153779 0.5792754302
O -1.8906216131 -1.2465315694 -0.9871785352
C -2.5649452855 -2.1221035085 -1.9060913051
O 0.4759350803 0.1231223115 -0.3773103845
C 1.0734630520 -1.1144612174 -0.4951058743
O 0.8083002132 -2.0483805285 0.2226210805
C 2.0411540452 -1.1351724895 -1.6121906070
C 2.3033576682 -0.0080560009 -2.4005865984
C 3.2258829242 -0.0907155308 -3.4369130148
C 3.8887452849 -1.2901231222 -3.6911093185
C 3.6290629005 -2.4137155696 -2.9068659553
C 2.7086659032 -2.3386933590 -1.8703869751
H 3.2728888739 -0.1386695799 4.7405378064
H 3.2924116109 -1.1085134935 3.2551558765
H 3.5962549132 0.6445743136 3.1821109691
H 0.9384555193 -0.6706720486 4.0140791775
H 1.2410600443 1.0879100216 3.9301754476
H -4.3106354129 -0.3075688081 -1.8075016787
H -5.2441453520 1.8482087602 -1.0956752921
H -1.7495142412 1.8289302666 3.2641239261
H -3.0261174059 3.0556568801 2.9550321944
H -1.3513192941 3.5746331519 3.3049222670
H -3.5233072161 -2.4548284860 -1.4930973800
H -2.7216917536 -1.6272726031 -2.8705406996
H -1.8993180253 -2.9759914935 -2.0315052104
H 1.7896217943 0.9253187394 -2.2046805003
H 3.4287396677 0.7829180007 -4.0476742822
H 4.6086359034 -1.3496815188 -4.5013423954
H 4.1454593519 -3.3472738726 -3.1048318451
H 2.4979993530 -3.2048771927 -1.2528913008
