51
CONF16
C 2.9772383316 -3.1361329258 0.9037341613
C 3.1898626850 -2.0482892228 1.9677128305
C 2.8234518756 -0.6928393671 1.4298016513
N 3.7122902652 0.2119348487 1.1522873727
O 5.0390743098 -0.1532493434 1.3679707218
C 5.8891131498 0.9932294002 1.1249707331
C 5.7559214428 2.0499766065 2.2023456504
C 1.4380345407 -0.3413677462 1.0559267262
C 1.1920597480 0.7220324767 0.1899441079
C -0.1505790547 1.0430445312 -0.3803154512
C -1.0967459371 -0.1559687776 -0.3001743584
C -1.1005887369 -0.6652511874 1.1400133662
C 0.2885694028 -1.0512836613 1.6212973455
O 0.3840775424 -1.8998218337 2.5124725643
C -2.4453763098 0.1042139779 -0.9510441978
C -3.4626893818 0.8806851519 -0.3585295233
C -4.6678599306 1.0750583615 -1.0435248404
C -4.9068473672 0.5322157986 -2.3015162831
C -3.8846354031 -0.2112807826 -2.8885861936
C -2.6672993811 -0.4293219451 -2.2429251403
C -1.6165493914 -1.2319924080 -2.9726050300
C -6.2236634478 0.7274348213 -3.0017348487
C -3.3490777641 1.5265911886 1.0018770534
O 2.1419966662 1.5375063100 -0.2242266838
H 3.5972460526 -2.9459416290 0.0221464270
H 3.2510851930 -4.1133131171 1.3114820883
H 1.9313940823 -3.1792027532 0.5876982484
H 2.5651837834 -2.2638837456 2.8343662744
H 4.2336640056 -2.0345433112 2.2811096312
H 6.8944650324 0.5630922816 1.1112689615
H 5.6650631575 1.3973119774 0.1295457091
H 5.9767038671 1.6274817167 3.1870673611
H 6.4644855100 2.8610965121 2.0064326752
H 4.7474755271 2.4727595655 2.2157165088
H -0.5564060817 1.9093709849 0.1591606049
H -0.0019691744 1.3667088427 -1.4167034255
H -0.6158075053 -0.9504974520 -0.8778475692
H -1.7453695722 -1.5407114313 1.2602321307
H -1.4563550045 0.0976544121 1.8405322118
H -5.4407907543 1.6781220137 -0.5722216099
H -4.0356831034 -0.6295003398 -3.8813087777
H -1.3925972292 -2.1745854351 -2.4599594753
H -1.9649632849 -1.4766855323 -3.9784804542
H -0.6739962628 -0.6823567699 -3.0684692605
H -6.0808269536 0.9016364087 -4.0724743594
H -6.8525884872 -0.1649335724 -2.8992897579
H -6.7746540647 1.5723271916 -2.5805859949
H -3.5284775386 0.8013557448 1.8036314712
H -4.1019486352 2.3125105594 1.1013384198
H -2.3725803329 1.9793512698 1.1820942130
H 3.0084680305 1.2282508064 0.2506951184
