52
CONF43
C 2.4075189298 -0.7453175187 -2.5079513086
C 1.9410963953 0.5734610193 -1.9352303945
C 2.7131747607 1.7768363796 -2.4850755926
C 2.3356246457 3.0672182579 -1.7436236482
C 2.4747954457 2.8764652134 -0.2241774180
C 1.7798798220 1.6013066074 0.2507337572
O 2.1394450918 0.4780480065 -0.4913805138
O 0.3547412721 1.9019814394 0.1889956361
C -0.5395162595 0.8677028176 0.1102695337
C -0.6382374909 -0.1397999749 1.0323939406
O -1.4979993045 -1.1806510488 0.8353603613
C -2.3322439626 -1.2213342595 -0.2442914117
C -3.1547366344 -2.3284241882 -0.3538573646
C -4.0244767479 -2.3780349118 -1.4438401276
C -4.0748495268 -1.3566989619 -2.4014475257
C -3.2382712634 -0.2593739545 -2.2708377625
C -2.3434155450 -0.1667615182 -1.1699205232
C -1.4258008926 0.9269034134 -1.0276164625
O -1.3673778148 1.8764565873 -1.8602211643
O -3.2704264729 0.7164948343 -3.1928350836
O -4.8226598240 -3.4693101265 -1.5301953356
C 0.1013491655 -0.2690322035 2.2800196332
C 0.4775554790 -1.5433554675 2.7370213131
C 1.1515768599 -1.6775659857 3.9371931846
C 1.4490873566 -0.5413946742 4.7125837231
C 1.0625971233 0.7181516762 4.2664743440
C 0.3963829811 0.8582409675 3.0575156436
O 2.1059229585 -0.6562621979 5.8933182438
O 1.5748858206 -2.8678516654 4.4560032121
O 3.8495642277 2.8260569689 0.1572700490
O 1.0413953398 3.5194248448 -2.1434889014
O 2.4791998001 1.9251423992 -3.8819442364
H 1.8253859896 -1.5696217667 -2.0863039924
H 2.2762046830 -0.7424681544 -3.5922724975
H 3.4667043991 -0.9040055839 -2.2806673112
H 0.8714188616 0.7106145638 -2.1424813989
H 3.7879903453 1.5878164752 -2.3611037245
H 3.0299875139 3.8599275065 -2.0442662807
H 2.0382259645 3.7373166604 0.2920563256
H 2.0651103781 1.3730853236 1.2834004611
H -3.1288177900 -3.1234047170 0.3809362412
H -4.7561447918 -1.4168162146 -3.2444155043
H 0.2559073731 -2.4259474890 2.1449781033
H 1.2858921905 1.5825332144 4.8828399886
H 0.0842923988 1.8423545284 2.7278546413
H 2.2981558223 -1.5917665143 6.0583516118
H 1.3213577331 -3.5971339203 3.8744406042
H 4.2167177924 1.9773198555 -0.1268068353
H 0.3470681269 2.9231862936 -1.8007805191
H 1.6502312168 2.4238601811 -3.9590898956
H -5.3856157565 -3.4053571143 -2.3143221223
H -2.5793819281 1.3795766095 -2.9143563249
