15
CONF23
C -1.5439487951 0.3082394869 -0.3978610203
C -0.4441726056 0.8475408131 0.5106805931
C 0.7868213384 -0.0776365291 0.7423936849
C 1.5577179479 -0.5546009101 -0.5219284618
F 2.6435702729 -1.2451421241 -0.1470798387
F 1.9461245384 0.4870077040 -1.2689508304
F 0.7806493648 -1.3580285249 -1.2668152203
F 0.3696150510 -1.1897565514 1.4005378094
F 1.6747726389 0.5812027147 1.5296257302
F -0.9466305884 1.0954806796 1.7595697547
F 0.0214145146 2.0429244581 0.0295218421
O -2.6577740833 1.1797206014 -0.3864567043
H -1.8694634739 -0.6620180077 -0.0108889058
H -1.1359541845 0.1728316261 -1.4061737402
H -2.4604101159 1.9356593787 -0.9553922127
