66
CONF98
C -0.3854088717 -3.0942846614 2.8642416819
C 0.3486029828 -1.8060872555 3.1754366591
O -0.1962442942 -0.6981915866 2.4106875640
C -1.2942151556 -0.0734355598 2.9173985381
O -1.7969324431 -0.3961424097 3.9870878095
C -1.7389726163 0.9912958459 2.0244142492
C -2.8104127143 1.7699746218 2.3500014637
N -3.2413232748 2.7183510021 1.4498604666
C -2.8113280689 2.8097100688 0.1446109510
C -1.7440617198 2.0591025084 -0.2527976486
C -0.9375047112 1.2514148655 0.7570074224
C 0.3761151093 1.9633566305 1.0919142913
C 0.2896625983 3.1896774640 1.7573811010
C 1.4205528243 3.9193515097 2.0985158665
C 2.6837398028 3.4199788762 1.7804305083
C 2.7920557123 2.2093355290 1.1169117435
C 1.6544484193 1.4641756279 0.7503058079
C 1.8096329267 0.2027760013 0.0342353907
C 2.8849775044 -0.1659766029 -0.6861147862
C 2.9930355879 -1.4426322897 -1.4061108172
O 4.0084035766 -1.7668041710 -2.0086959982
O 1.8699752005 -2.1794223180 -1.3362124244
C 1.7518366894 -3.4986019445 -2.0095730166
C 1.9186877196 -3.3349502298 -3.5158634813
C 2.7508923222 -4.4789314349 -1.4074672083
C 0.3242701975 -3.9101298148 -1.6711903824
C -1.3340151410 2.0373370468 -1.6534531233
O -1.8123807140 2.6945809287 -2.5701157977
O -0.3113376343 1.1598742582 -1.8447168403
C 0.1564079419 0.9735191379 -3.2062531788
C -0.7160513186 -0.0191058603 -3.9473167896
C -3.6226135227 3.7352042236 -0.7088630409
C -3.6144043811 1.7048440215 3.6117891094
H 0.0915936338 -3.9224859276 3.3977753271
H -0.3465766261 -3.3079391743 1.7921100201
H -1.4308526735 -3.0362015569 3.1779422211
H 1.3932075029 -1.8589239584 2.8581433647
H 0.3060058940 -1.5614938184 4.2401977406
H -4.0388316232 3.2777441184 1.7137013942
H -0.7122812646 0.2898191458 0.3023913278
H -0.6905392215 3.5803967595 2.0145409855
H 1.3194521791 4.8672321819 2.6179204714
H 3.5779260465 3.9687743549 2.0584363303
H 3.7778495291 1.8131579823 0.8967678109
H 0.9811370825 -0.4932818916 0.0769291505
H 3.7518859094 0.4757943349 -0.8083167390
H 2.9474320298 -3.0936413873 -3.7850952890
H 1.6393647707 -4.2749678386 -4.0016728667
H 1.2543572926 -2.5478661211 -3.8865859013
H 2.5399669384 -5.4788246299 -1.7992401856
H 2.6431434185 -4.5077876106 -0.3185790068
H 3.7778715795 -4.2136772015 -1.6615340872
H -0.3893112214 -3.1782759571 -2.0614937610
H 0.1097975948 -4.8831434670 -2.1214043889
H 0.1941273946 -3.9894579934 -0.5881021201
H 1.1742502310 0.5928021825 -3.0861293218
H 0.1893072567 1.9428182996 -3.7109535945
H -0.2917077338 -0.2070704853 -4.9387326873
H -0.7585899874 -0.9693937365 -3.4064042357
H -1.7318313281 0.3650059355 -4.0718141235
H -4.3729773648 4.2543848670 -0.1075613822
H -4.1309477637 3.1794923913 -1.5012566769
H -2.9833990285 4.4709107460 -1.1998705179
H -2.9668942537 1.7689062314 4.4879079266
H -4.3451132154 2.5167016395 3.6428606597
H -4.1449148195 0.7513294244 3.6796370543
