44
CONF68
C -3.8559814679 0.6147926485 3.4991799702
C -3.0146790665 0.2161540682 2.3128730855
C -3.5288270243 -0.9885928889 1.5236996354
O -3.2076708428 -0.6781131039 0.1520569716
C -2.6717543549 0.6447814593 0.1101952152
O -3.0654255372 1.2609754592 1.3145843816
C -3.3137032468 1.3596796826 -1.0890750463
N -4.7438732705 1.5157885703 -0.9117403506
C -5.7156031741 0.5931362322 -1.0615297723
N -6.8899341214 1.1007933790 -0.7067960187
C -6.5637693106 2.3697181771 -0.3290159783
N -5.2756149316 2.6681176167 -0.4317455180
C -1.1474135707 0.5906550047 -0.0383937377
C -0.3127201338 1.7076553040 0.0902917549
C 1.0670290405 1.6185455422 -0.0342080252
C 1.6424131591 0.3826797607 -0.3128799928
C 0.8498166442 -0.7505680315 -0.4669478167
C -0.5253380811 -0.6271234198 -0.3267146057
O 3.0073621537 0.3780840835 -0.4859482864
C 3.7141347865 -0.7824211554 -0.2090653531
C 3.5699549118 -1.4417121758 1.0085222633
C 4.3519903740 -2.5589605499 1.2763554500
C 5.2699556673 -2.9869563833 0.3229042933
C 5.4254872748 -2.3257543452 -0.8888950726
C 4.6340425457 -1.2128488309 -1.1568429558
Cl 6.2621556673 -4.3998773466 0.6640800500
Cl -0.9537248313 3.3122235504 0.4366291003
H -4.8868719983 0.8055054613 3.1851961120
H -3.8563863106 -0.1933145422 4.2368617448
H -3.4520859696 1.5128089566 3.9737247294
H -1.9662718769 0.0595719094 2.6075625919
H -3.0373210753 -1.9226748886 1.8132995645
H -4.6174115416 -1.0917881006 1.6144215747
H -2.8788347381 2.3487669171 -1.2336509068
H -3.1236956066 0.7517511776 -1.9778996651
H -5.5227473417 -0.4042232877 -1.4324270730
H -7.2886046832 3.0929952015 0.0228284805
H 1.6963776173 2.4931211482 0.0807011606
H 1.2937325552 -1.7123890358 -0.6962140463
H -1.1511218154 -1.5037037484 -0.4438521952
H 2.8556252033 -1.0862654148 1.7435319888
H 4.2533947002 -3.0821577316 2.2205630438
H 6.1473504032 -2.6730303553 -1.6190258286
H 4.7299090552 -0.6785869413 -2.0958098477
