45
CONF64
C 1.0059130835 2.8406503701 3.6977760920
O 0.9225909397 2.5111776364 2.2942401177
C 1.4948963871 1.3729356842 1.8921686810
C 2.1992694721 0.5024409313 2.7086860298
C 2.7171992803 -0.6335058145 2.0738366076
O 3.4028197374 -1.4863445022 2.8393179982
C 3.9380013155 -2.6767348034 2.2101986144
N 2.5502455534 -0.8975332697 0.7784831599
C 1.8446630773 0.0171872825 0.1025847987
N 1.6572371420 -0.2875330944 -1.2442651868
C 0.7935819108 0.2631174023 -2.1785800483
O 0.6273370452 -0.2611451806 -3.2702105752
N 0.1501755402 1.4251091795 -1.7772707172
S -1.2296370134 1.9744847153 -2.5824193418
O -1.7969841917 2.9853619703 -1.6873912880
O -0.8985715504 2.3304709813 -3.9616801202
C -2.2525940394 0.5183010932 -2.6067414993
C -2.4377156941 -0.4207402574 -1.5899023754
C -3.2098764553 -1.4235544260 -2.1984516826
N -3.4869381248 -1.1235236537 -3.4687367903
N -2.8946507660 0.0532210468 -3.7116161318
C -3.0007377793 0.6420925366 -5.0462190031
C -1.9658757166 -0.4222531039 -0.2197256011
N -1.4910946127 -1.5228023950 0.3790504063
N -1.2467429430 -1.0812352645 1.6029586120
C -0.7186643115 -1.9288789461 2.6651942709
N -1.5402308168 0.1985154322 1.7795850598
N -1.9991683782 0.6378089438 0.6306213679
N 1.3246350109 1.1422660759 0.5767333901
H 0.4674147273 3.7810566662 3.8041535377
H 2.0499709936 2.9688603666 3.9993406920
H 0.5270184462 2.0620985213 4.2995354599
H 2.3576329139 0.6602552483 3.7654576989
H 4.4446390175 -3.2114230090 3.0125939742
H 4.6449361129 -2.4060894406 1.4225776745
H 3.1298571305 -3.2833213635 1.7947210312
H 2.0926994538 -1.1474741794 -1.5531154912
H 0.2896711217 1.7135861883 -0.7889687207
H -3.5863077571 -2.3327313433 -1.7497205778
H -2.0430835875 0.5704489452 -5.5661681299
H -3.7610400536 0.0728782659 -5.5797405122
H -3.2997269662 1.6881537646 -4.9707414555
H -1.4704249944 -2.6720273006 2.9410626215
H 0.1835014088 -2.4263431048 2.3036291334
H -0.4858413500 -1.2872843721 3.5145228268
