21
CONF80
C 0.8280085365 -1.3404473194 -0.0774519907
C -0.0112224409 -0.0502790113 -0.0333287931
C 0.8265606332 1.1539494430 -0.4661620639
O 0.9917627267 1.1136084776 -1.8929794589
C -1.2075965556 -0.2578276825 -0.9805508659
O -1.9125032582 0.9517474030 -1.2784540029
C -0.4943836684 0.2397689494 1.3888198340
O -0.9596803660 -0.9856512661 1.9778793495
O 1.8004500971 -1.4210326216 0.9696119420
H 1.3833987413 -1.3709862056 -1.0204800012
H 0.1625681702 -2.2144272613 -0.0491513641
H 0.3228005028 2.0860702911 -0.1689652875
H 1.8005442362 1.1156441850 0.0414260298
H 1.5432337267 1.8639141327 -2.1453940901
H -0.8658895927 -0.7390399751 -1.9074107664
H -1.9288905196 -0.9270197829 -0.5004395332
H -1.3276226561 1.4756106679 -1.8435048759
H 0.3299529466 0.6579111174 1.9860208348
H -1.3003799525 0.9857601081 1.3487325127
H -1.2871036887 -0.7803438743 2.8618415727
H 1.3059926881 -1.5569294735 1.7899410182
