38
CONF35
O 0.1039530666 -0.6957756440 2.7090207686
P -0.4879609010 -0.3741931219 1.3967399466
O -1.2004648191 -1.5537670241 0.5738788790
C -0.4207652271 -2.6013317192 0.0449068858
C 0.0593012616 -3.5942992815 0.8867671463
C 0.7911794770 -4.6400027246 0.3278021887
C 1.0256980377 -4.6815046880 -1.0447020925
C 0.5272448886 -3.6734265177 -1.8679870155
C -0.2020182942 -2.6189812915 -1.3248143850
O 0.5281966735 0.1954652892 0.2849758765
C 1.7553321284 0.7907459817 0.6071212764
C 1.8254632015 1.8632277371 1.4861853123
C 3.0678390578 2.4454679152 1.7271482737
C 4.2094626645 1.9633599851 1.0909671957
C 4.1114023278 0.8888924545 0.2091568507
C 2.8782534694 0.2915246298 -0.0371315838
O -1.6831036219 0.6818134039 1.5264463642
C -2.3494952089 1.1952210212 0.3952388784
C -1.8440975643 2.3282964373 -0.2250764960
C -2.5418864155 2.8613085750 -1.3064020776
C -3.7217635622 2.2647366522 -1.7456463739
C -4.2108235444 1.1303475996 -1.1008574777
C -3.5237165932 0.5842279566 -0.0195836431
H -0.1393175366 -3.5473203683 1.9518242053
H 1.1743654151 -5.4252939723 0.9713181693
H 1.5944865746 -5.5001037373 -1.4732015928
H 0.7065348506 -3.7034041371 -2.9378855305
H -0.5964082007 -1.8202447354 -1.9437290712
H 0.9304587758 2.2365926277 1.9733430843
H 3.1377011772 3.2825303208 2.4142472712
H 5.1730254887 2.4239332978 1.2819669966
H 4.9972091961 0.5079318654 -0.2888211666
H 2.7778269590 -0.5494996072 -0.7151852913
H -0.9270470359 2.7819880214 0.1347624653
H -2.1599894996 3.7475486844 -1.8028202767
H -4.2618694698 2.6854167962 -2.5874127812
H -5.1318013387 0.6650842681 -1.4370938572
H -3.8870183995 -0.2965604657 0.4981494059
