33
CONF55
C 5.1599742932 -2.8071050669 -1.7241938090
C 4.2350419278 -2.8502908264 -0.5005368735
C 3.8865927157 -1.4749783347 -0.0025755698
C 4.3355400133 -0.9709076976 1.1523320496
C 2.9545144087 -0.6962972230 -0.8646417309
O 2.2565312167 -1.2026043310 -1.7237116819
O 2.9655548355 0.6273588067 -0.5862589068
C 2.0066332227 1.4726499877 -1.2665615813
C 0.9566332135 1.9854719575 -0.2902738006
C -0.0411638729 0.9324698529 0.1348484182
C -1.1277466111 1.4794329804 1.1111031861
C -2.3509213358 0.5332145662 1.3500155070
C -3.1959076614 0.8817102815 2.6186259151
F -3.5111100343 2.1846699619 2.6322334395
F -4.3284338033 0.1639353713 2.5959508033
F -2.5268085947 0.5811709205 3.7378257091
F -3.1751637273 0.6083339086 0.2801583936
F -1.9301680258 -0.7458120156 1.4873189701
F -0.5296618445 1.7322747370 2.3049911050
F -1.6081093679 2.6498946062 0.6199943060
F 0.5818440277 -0.1115016676 0.7687020600
F -0.6932639421 0.4076485764 -0.9522223372
H 5.3798170767 -3.8205294694 -2.0726378734
H 6.1060284147 -2.3169633710 -1.4740306476
H 4.6974086719 -2.2576677721 -2.5496574825
H 3.3132162389 -3.3822125395 -0.7609139548
H 4.7187485397 -3.4024708530 0.3106200625
H 4.0672521461 0.0247798921 1.4861793534
H 4.9770266528 -1.5649364662 1.7969049511
H 1.5597825953 0.9326922105 -2.1033400991
H 2.5752389427 2.3243104877 -1.6452222536
H 1.4337276907 2.3989286289 0.6037377465
H 0.4060948640 2.7928173426 -0.7821185472
