47
CONF95
C -7.8511489016 -1.1811582211 -1.1806448221
O -6.8182499977 -0.8231286686 -2.1410517528
P -5.3355385094 -1.3919138425 -1.9604604040
S -5.0755776939 -3.3055089553 -1.8227274980
O -4.5833327875 -0.7588670973 -3.2164411329
C -4.6351762468 0.6805214994 -3.4628320898
O -4.8728073780 -0.5230895047 -0.6579744345
C -3.7364503644 -0.8463301562 0.0854222953
C -2.4704784600 -0.7897902362 -0.4858230969
C -1.3580947437 -1.0747071836 0.2969975805
C -1.5152023393 -1.3853254353 1.6499248845
C -2.7946174173 -1.4258513373 2.2113698528
C -3.9108913665 -1.1689415957 1.4234824608
S -0.1382094772 -1.8217015665 2.7049186967
C 1.2171663397 -0.8932811596 1.9988105194
C 1.1336533483 0.4927568440 1.8343707029
C 2.2171726400 1.1977833796 1.3291606922
C 3.3846625450 0.5121505115 1.0129128254
C 3.4907429557 -0.8611827559 1.1835442411
C 2.3943990869 -1.5669561366 1.6717281234
O 4.4370015768 1.2433695763 0.4633004632
P 5.8567857568 1.4334559172 1.2504475428
S 5.7149721686 1.6926223274 3.1632932699
O 6.4977979070 2.5912585744 0.3553700000
C 5.9591607653 3.9416840635 0.4258723376
O 6.7575442304 0.1755647229 0.8654798558
C 6.9648830002 -0.1881277786 -0.5346887898
H -7.5838504884 -0.8110546881 -0.1873188615
H -7.9831598438 -2.2661869702 -1.1630158254
H -8.7604433367 -0.6949367758 -1.5322727357
H -3.9472224012 0.8577412491 -4.2887324907
H -5.6495346450 0.9727363163 -3.7416542676
H -4.3071989814 1.2269979327 -2.5746915902
H -2.3520379044 -0.5374809642 -1.5345204495
H -0.3705185527 -1.0482719049 -0.1504267247
H -2.9225715229 -1.6582890409 3.2638245229
H -4.9101449377 -1.2026153554 1.8440445486
H 0.2229014627 1.0196590947 2.0993385494
H 2.1718921293 2.2730164214 1.1933644931
H 4.4082534964 -1.3780766989 0.9231172930
H 2.4566005318 -2.6434618857 1.7899558198
H 4.9161579006 3.9464247868 0.0985665041
H 6.0430924962 4.3223090083 1.4470880887
H 6.5700707963 4.5369318801 -0.2518192073
H 7.4796768954 -1.1479412099 -0.5111391679
H 6.0036581963 -0.2884219617 -1.0455931060
H 7.5842109504 0.5656151823 -1.0248317254
