41
CONF157
C 6.3509127903 -0.4061606227 3.3196405900
C 4.8970342848 -0.8193819967 3.2230874763
O 4.0174004974 0.3369511868 3.2787630446
C 3.8394071373 1.0088543001 2.1080818191
O 4.2882212739 0.6467851512 1.0297425301
N 3.1170959944 2.1372040209 2.3266379619
C 2.5776673396 2.9359842071 1.2399898312
C 1.1088972353 2.6578141659 0.9764275688
O 0.9984307049 1.2945750106 0.5474602532
C -0.2500540486 0.8029029434 0.2982978323
C -1.4261932623 1.5499928443 0.3881656360
C -2.6500102162 0.9422596086 0.1024268189
C -2.6929123910 -0.3937268192 -0.2594245829
C -1.5231778906 -1.1467482829 -0.3453282240
C -0.3047721333 -0.5477312047 -0.0698588813
O -3.9341789304 -0.9922098753 -0.4600032934
C -4.2412449308 -1.4567752432 -1.7220640775
C -5.3193769352 -2.3387484051 -1.8026757261
C -5.7164658115 -2.8207283858 -3.0443716623
C -5.0439158522 -2.4337645220 -4.2035560926
C -3.9710894738 -1.5515852450 -4.1075811983
C -3.5616751294 -1.0550069798 -2.8713836888
H 6.5311146321 0.1625208465 4.2365307306
H 6.6419333138 0.2027785508 2.4596078250
H 6.9826207631 -1.2999917707 3.3383284407
H 4.5966247721 -1.4216221922 4.0835794308
H 4.6944699243 -1.3775366675 2.3051742060
H 2.7358904734 2.2692713941 3.2520437164
H 3.1657631869 2.7277300143 0.3426106010
H 2.6848897741 4.0002742522 1.4787929936
H 0.5153316806 2.8115124835 1.8886476612
H 0.7408342829 3.3358756283 0.1940537522
H -1.4108818693 2.5955194753 0.6694127329
H -3.5723382032 1.5106221464 0.1640306685
H -1.5721373605 -2.1940343999 -0.6264337801
H 0.6185602181 -1.1150512630 -0.1271510944
H -5.8320899559 -2.6334076023 -0.8927940319
H -6.5550214901 -3.5077372634 -3.1043773622
H -5.3544603254 -2.8154777195 -5.1704094593
H -3.4425566769 -1.2375941913 -5.0025626073
H -2.7285463870 -0.3644074775 -2.8043998712
