44
CONF31
C -5.1157988719 1.9571322835 1.6462713878
N -3.8041136912 1.6283986027 1.0742861570
C -3.9297394568 0.9490313214 -0.2352963575
C -4.3777520603 -0.5013515605 0.1002244549
C -3.8135934938 -0.7406906763 1.5250165713
C -3.0991219121 0.5967274625 1.8687151534
C -1.6316421923 0.5897207599 1.4180140401
C -1.5477594630 0.2046019316 -0.0516401942
C -2.5492567152 0.9751895534 -0.9053528010
O -0.1795969095 0.4975993712 -0.4897502946
C 0.3112742680 -0.2219529119 -1.5111139284
O -0.3056921411 -1.0820489333 -2.1085229285
C 1.7479448988 0.1718104426 -1.8023166045
C 2.2067541204 -0.4189926902 -3.1437940094
O 3.5085411266 0.0485831831 -3.4967716977
C 2.6545165253 -0.2632725634 -0.6670933901
C 3.5276929659 0.6459107102 -0.0673554298
C 4.3882258966 0.2342554412 0.9488944549
C 4.3806693064 -1.0904998873 1.3771223566
C 3.5115963524 -2.0042563684 0.7822814850
C 2.6562488884 -1.5940957281 -0.2354973532
H -5.7878750634 1.0905226099 1.7643341125
H -4.9744707975 2.4130196188 2.6317438764
H -5.6155775898 2.6873597002 1.0013069602
H -4.6534458298 1.4775413307 -0.8640015212
H -5.4684020483 -0.5762817564 0.0926017205
H -3.9977269175 -1.2197392573 -0.6324256551
H -3.1231824065 -1.5882440461 1.5705162313
H -4.6181588430 -0.9387797513 2.2381251537
H -3.1542977277 0.8412298437 2.9342096852
H -1.0490705348 -0.1160025549 2.0206165756
H -1.2120468322 1.5920381729 1.5592789393
H -1.7009502124 -0.8716999936 -0.1724663976
H -2.2181234973 2.0156384603 -0.9998929756
H -2.6022033437 0.5360931267 -1.9070797382
H 2.1768747327 -1.5156936010 -3.0977820151
H 1.5333819020 -0.0897749549 -3.9400607745
H 5.0634962955 0.9510177437 1.4060349088
H 5.0485925014 -1.4111746954 2.1704195279
H 3.4998715724 -3.0384347399 1.1123859837
H 1.9826090299 -2.3123852048 -0.6962089255
H 3.5317295061 1.6806397157 -0.3982286711
H 1.7819667059 1.2651530240 -1.8723437742
H 4.1326433020 -0.2916705977 -2.8415837250
