23
CONF4
C -1.8754122954 -2.2383677309 -1.4030882590
N -0.4432223032 -2.0214900638 -1.2472244144
C 0.1174075667 -0.8296109356 -1.0368318471
N 1.4392402228 -0.5406953713 -0.9133511092
N 2.3582146097 -1.5204983851 -0.9925926645
O 3.5325441851 -1.1556834919 -0.8544557395
O 2.0691795473 -2.7260310167 -1.1843465471
N -0.6802905668 0.2576464510 -0.9410167786
C -0.1776199668 1.5930635364 -0.6099695762
C 0.1115127207 1.7910839152 0.8456448557
C -0.5778582647 2.5808676697 1.7207662961
N -0.1195188445 2.6196445406 3.0185834091
C 0.9217280547 1.8600924587 3.1316952836
S 1.4425599919 1.0283425347 1.6874119247
Cl 1.7790323390 1.6370335405 4.6181165714
H -2.0321146323 -3.2952335633 -1.6188743530
H -2.2771748488 -1.6482275154 -2.2350705956
H -2.4226791867 -1.9886253318 -0.4858200644
H 0.2072467598 -2.7944266629 -1.3155142141
H -1.6731675247 0.1140310168 -0.8388537806
H -0.9578830315 2.3058028255 -0.8913498047
H 0.7050421380 1.8013044221 -1.2183514431
H -1.4467660776 3.1699769615 1.4474162459
