48
CONF532
C -2.3509787545 2.5377171380 -0.4860871325
C -0.8597899356 2.6498685703 -0.7902711182
C 0.0002728890 1.8798511777 0.2142407936
C 1.4987777068 2.0782124933 -0.0274401846
O 1.9624664176 3.0023087508 -0.6606497305
O 2.2225619326 1.1623544484 0.6319862560
C 3.6778366036 1.2899862175 0.5557532910
C 4.2303348265 0.6792970993 -0.7170360431
C 3.9319054110 -0.8211846774 -0.8519654774
C 4.5884421437 -1.4017713918 -2.0659519968
C 3.9444649143 -1.8901872599 -3.1249470358
N -0.3585838178 0.4581597896 0.3237461280
C -0.5814963774 -0.0606596620 1.6959758294
C -1.7778322553 0.5251433915 2.3446626461
C -1.9343995389 1.4408985818 3.3405965834
C -3.3417433124 1.6285253352 3.5091316300
C -3.9467369715 0.8163100987 2.6031276679
O -3.0081349201 0.1288871202 1.8843181538
C -0.0852069278 -0.3129118840 -0.7554237441
O 0.5409460012 0.0692101041 -1.7362855156
N -0.6124787167 -1.6452496898 -0.7287235165
C 0.0352174665 -2.7504310870 -1.2565965454
C -0.8644653313 -3.7737362641 -1.1739708507
N -2.0624357742 -3.3276636772 -0.6392982586
C -1.8825857557 -2.0529452011 -0.3820940560
H -2.7011037537 1.5052460367 -0.5781297471
H -2.5740637014 2.8792461397 0.5311972489
H -2.9256272235 3.1521314421 -1.1848462580
H -0.6445650182 2.2998529677 -1.8037834795
H -0.5429936129 3.6956234129 -0.7404790070
H -0.1897653268 2.3079779311 1.2085897090
H 4.0326577204 0.7522147025 1.4383849669
H 3.9397612660 2.3479132974 0.6386272321
H 3.8392565539 1.2163845480 -1.5881481841
H 5.3161501313 0.8405947162 -0.7025970035
H 2.8497774688 -0.9797916496 -0.9006364044
H 4.3037650080 -1.3331527425 0.0469385431
H 5.6797185009 -1.3886060256 -2.0670760229
H 4.4807427619 -2.2830006501 -3.9839119401
H 2.8574127236 -1.9100932756 -3.1654030889
H -0.6430774883 -1.1498333763 1.6584142855
H 0.2933564311 0.2001520965 2.3022534277
H -1.1360973697 1.9246555582 3.8847371763
H -3.8360158730 2.2829315829 4.2117550245
H -4.9758013762 0.6102802928 2.3520863977
H 1.0531180157 -2.6939879956 -1.6083871133
H -0.7217088574 -4.8049980693 -1.4649430342
H -2.6157321530 -1.3655669419 0.0177266850
