43
CONF32
C -1.1642216412 -1.6988104956 2.2309195219
Si -1.8717971012 0.0275732452 2.1830712320
C -3.2683283191 0.2750750267 3.3882809779
O -0.7163770558 1.1476421761 2.5730090953
O -2.4920545222 0.3138590104 0.6769062640
Si -2.0553215022 0.7250215613 -0.8561530157
C -1.0620291404 2.3044451248 -0.8433847812
C -3.6154391790 0.8716729049 -1.8576804360
O -1.1646090668 -0.5043511433 -1.5139891311
Si 0.4259877510 -0.9216464718 -1.6231057238
C 0.5262438380 -2.7750582502 -1.7347745636
C 1.1982762614 -0.0709044882 -3.0894353354
O 1.1559333608 -0.4305656268 -0.2270125538
Si 2.5330734324 0.1550883847 0.4413163924
C 3.7712591227 -1.2157925365 0.6626975597
C 3.2240592815 1.5866708422 -0.5272855021
O 1.9791584647 0.6848772692 1.9308134011
H -0.8149341674 -1.9492526762 3.2387272280
H -0.3158479547 -1.7869075548 1.5433501641
H -1.9186383776 -2.4374680660 1.9381697800
H -3.6294349292 1.3091492370 3.3543603197
H -4.1094469083 -0.3848178425 3.1505668336
H -2.9454286639 0.0600917022 4.4124200964
H 0.2040174305 0.9641647482 2.3024591171
H -1.6478347517 3.1234086845 -0.4115429534
H -0.1509111694 2.1887723883 -0.2469898582
H -0.7727065885 2.5911451585 -1.8605353179
H -3.3869211601 1.1335678704 -2.8963641926
H -4.2715876814 1.6466773604 -1.4474005345
H -4.1652394162 -0.0760119811 -1.8577837311
H 0.0757312738 -3.2384155219 -0.8500882520
H -0.0006508288 -3.1443950876 -2.6211810660
H 1.5698819553 -3.1024263643 -1.7979185519
H 2.2542000319 -0.3436664240 -3.1946785665
H 0.6803390055 -0.3578915162 -4.0112784458
H 1.1348970585 1.0179224951 -2.9870397378
H 3.3347490257 -2.0419876043 1.2344237857
H 4.0927411516 -1.6040462207 -0.3105140325
H 4.6610405908 -0.8615283505 1.1950417573
H 3.6069694947 1.2561326159 -1.4987432931
H 2.4561233817 2.3482054450 -0.7010707203
H 4.0519960741 2.0528909872 0.0192601745
H 2.6030820220 1.1618902063 2.4901560928
