44
CONF36
C 1.1311462992 -0.0023559882 -3.7796364463
C 2.0712515767 -0.2828452274 -2.6582280898
N 1.5490288062 -0.7953697516 -1.5291196795
C 2.4201699728 -0.9897120634 -0.5338874932
N 3.7330194392 -0.7282166497 -0.5845864076
C 4.1329396565 -0.2336781791 -1.7539607362
N 3.3592242442 0.0121778001 -2.8251314599
O 5.4137465621 0.0648595735 -1.9378620326
C 6.3279851071 -0.1676419928 -0.8352049518
N 1.9753143725 -1.5007622651 0.6661886337
C 0.6892784007 -1.8490276847 1.0913383382
O 0.4963763938 -2.1969444509 2.2456646071
N -0.2858165150 -1.7769709584 0.1245341831
S -1.9442277821 -1.9294216437 0.4848068010
O -2.5956275338 -1.5440689692 -0.7758907233
O -2.1868038675 -3.2645323024 1.0393051195
C -2.2694982821 -0.7062461774 1.7595616565
C -2.6594441983 -1.2062055451 3.0015329032
C -2.9552476946 -0.3231174663 4.0310712733
C -2.8447891060 1.0469366815 3.8125451773
C -2.4443087295 1.5274931602 2.5712827993
C -2.1487247571 0.6700025003 1.5069214423
C -1.7616946513 1.2819132939 0.1841120156
C -3.0105407973 1.6458321497 -0.6340585119
C -2.6547263026 2.1780223051 -1.9935240889
F -3.7594393366 2.5198805263 -2.7051980073
F -1.8710262689 3.2871786487 -1.9331140207
F -1.9748915557 1.2689831630 -2.7430734197
H 0.7850617055 1.0350077857 -3.6935275789
H 1.6368682639 -0.1080332989 -4.7405379986
H 0.2578318332 -0.6540183269 -3.7259060910
H 6.3368984802 -1.2267829254 -0.5692751193
H 7.3010247781 0.1428259510 -1.2127885590
H 6.0384604844 0.4349223132 0.0283185409
H 2.6815853954 -1.6012474988 1.3849907650
H -0.0137806974 -1.3802871872 -0.7929841342
H -2.7246984872 -2.2763036061 3.1557664717
H -3.2609142160 -0.7068229661 4.9983756956
H -3.0653078119 1.7458082206 4.6129178948
H -2.3539115791 2.5982125922 2.4112203980
H -1.1228993830 0.6179577273 -0.3992028101
H -1.1866628794 2.1906039022 0.3848507806
H -3.6433792254 0.7676951589 -0.7863962701
H -3.5988510980 2.4142996610 -0.1232670809
