46
CONF6
C -3.6293411523 -0.7920184003 -2.0610149802
C -3.4486571571 -0.5555927054 -0.5801219464
C -2.3527748744 -1.2709052388 0.1780228088
C -2.2623392373 0.2488151679 -0.0571093515
C -1.2614662544 0.8453078898 -0.9600974330
O -0.7436222970 0.3235502818 -1.9313561129
O -0.9848903406 2.1104115882 -0.5535096215
C -0.0109308981 2.8701965603 -1.3274789218
C 1.3192077163 2.8810842723 -0.6274213491
C 1.9300796495 1.6759737959 -0.2763739993
C 3.1546293615 1.6961636118 0.3818786842
C 3.8008528887 2.8975062448 0.6655829624
C 3.1952165124 4.0920666073 0.2932385941
C 1.9527560642 4.0904875780 -0.3382103632
O 3.8257251120 0.5357058318 0.7184048187
C 3.1004514480 -0.5791089667 1.1109588898
C 2.0124914317 -0.4843915323 1.9770085882
C 1.3784350540 -1.6520819483 2.3921565109
C 1.8313168837 -2.8977861422 1.9606697610
C 2.9249265821 -2.9733714509 1.1016048296
C 3.5624546779 -1.8140581865 0.6676348554
C -1.4467613001 -2.2097754471 -0.4861234554
C -1.1314866876 -3.4174194227 -0.0181519022
Cl -0.0689692719 -4.5016130411 -0.8803191681
Cl -1.7347860126 -4.0800627614 1.4785064066
C -4.7491166690 -0.3368988909 0.1619554938
H -2.6880631696 -0.9238794748 -2.5931171021
H -4.2424725339 -1.6877192228 -2.2077277328
H -4.1598331602 0.0560999631 -2.5069018328
H -2.5964429079 -1.5143624119 1.2075015641
H -2.4661645714 0.8507421113 0.8216024033
H -0.4193807777 3.8798945535 -1.3977578014
H 0.0643032226 2.4336888764 -2.3272350489
H 1.4541508478 0.7288747696 -0.5068401319
H 4.7593408875 2.8827626783 1.1735462082
H 3.6881451362 5.0330340570 0.5161143293
H 1.4735963319 5.0277221071 -0.6040733984
H 1.6686912164 0.4857584434 2.3199125790
H 0.5286076353 -1.5845127462 3.0647553347
H 1.3322731702 -3.8029191755 2.2896933358
H 3.2824498857 -3.9390222939 0.7579975202
H 4.4133698090 -1.8551464407 -0.0043984162
H -1.0035021489 -1.9226621898 -1.4329313614
H -4.5824221510 -0.1831147875 1.2315356130
H -5.4013652177 -1.2076842320 0.0340139934
H -5.2686814004 0.5402601359 -0.2390010570
