37
CONF477
C -3.6394987231 -0.2909884598 -2.8956236196
C -2.6315542147 -0.4927323869 -1.7894140152
O -2.2589911115 0.8284756439 -1.2957824649
P -1.1695152037 1.0030333192 -0.1544141675
O -0.9284883210 2.3978291859 0.2499342662
O -1.6135421518 -0.0265764521 0.9801956426
C -1.4541426593 0.3277293833 2.3954790199
C -2.6808401008 1.0577226636 2.8911270918
O 0.1160172264 0.2784249195 -0.8713061968
P 1.4634791316 -0.2388934136 -0.1434837231
O 1.5194360672 -0.0120045993 1.3181569908
O 1.4571864908 -1.7400050693 -0.6782211214
C 2.5001688016 -2.6422806344 -0.1969451930
C 2.0477914086 -3.3608204381 1.0551493843
O 2.6512919286 0.4160806532 -0.9838706246
C 3.2615253869 1.6632124589 -0.5166707589
C 2.4193162731 2.8646922124 -0.8832388330
H -3.2069596996 0.2952916103 -3.7102691066
H -4.5247641306 0.2294055479 -2.5213781164
H -3.9475242116 -1.2636623107 -3.2910539145
H -3.0522735167 -1.0679431014 -0.9575483384
H -1.7295770971 -0.9986133216 -2.1521910914
H -0.5434408598 0.9188279898 2.5123665062
H -1.3122956891 -0.6325283005 2.8969236792
H -3.5822863548 0.4568654140 2.7405732889
H -2.5749245311 1.2608633808 3.9619810219
H -2.7939742945 2.0119110893 2.3695774299
H 3.4248027664 -2.0768747021 -0.0294175450
H 2.6692410334 -3.3352182707 -1.0253374676
H 2.8184381376 -4.0736415453 1.3664817516
H 1.8780667488 -2.6483977203 1.8660459258
H 1.1221698165 -3.9113781918 0.8666352013
H 3.4145237688 1.5895722560 0.5649906123
H 4.2332451919 1.6818813180 -1.0167490480
H 1.4601338890 2.8640510591 -0.3570577021
H 2.9581493574 3.7767601550 -0.6056623991
H 2.2296102505 2.8899283563 -1.9599819790
