50
CONF23
C 4.4525625378 4.8559704860 1.2902734696
C 4.2798718992 3.5864884072 2.0920769549
O 3.6466311310 2.6196130131 1.2196713496
C 3.4089636934 1.4087791606 1.7991875779
O 3.6735821586 1.1589324570 2.9620880130
N 2.8775675093 0.5143711508 0.9040760944
C 2.3088901153 -0.7142888959 1.4509295788
C 0.7897303696 -0.5549800415 1.6596752365
C 0.1377814503 -0.1220078474 0.3751648781
C -0.8548849137 -0.7907591112 -0.2437525719
C -1.4120491463 -2.0842257446 0.2320011193
C -2.7809527975 -2.3076262669 0.4752950388
C -3.8891470289 -1.2785897269 0.3372618436
C -3.5103103315 0.1420342421 -0.0962439294
C -2.8126717596 0.1668974754 -1.4238108397
C -1.4846116553 -0.2821439584 -1.4944581659
N -0.7706917271 -0.2980685192 -2.6260821020
C -1.3693830801 0.1315144886 -3.7428874197
C -2.6821405059 0.5853695977 -3.7831068341
C -3.4112692588 0.6059018030 -2.5989499269
C -3.1952280376 -3.5801977454 0.8857621730
C -2.2861764381 -4.6120767228 1.0397243906
C -0.9362006959 -4.4219485933 0.7751574488
C -0.5241646210 -3.1636545576 0.3681769944
Cl -2.8524486384 -6.1893728349 1.5607207906
C 0.7477477384 1.1377510651 -0.1773512246
C 2.2650359524 0.9337756569 -0.3567889740
H 3.4854971894 5.2393884850 0.9530428203
H 5.0827798541 4.6822498503 0.4137211010
H 4.9287793831 5.6202798029 1.9114270182
H 3.6473161037 3.7386536528 2.9727885899
H 5.2384519460 3.1820828838 2.4336853919
H 2.5027446165 -1.5269027443 0.7385608535
H 2.8106053489 -0.9416174242 2.3925013716
H 0.3637927442 -1.4809248057 2.0517958410
H 0.6443460256 0.2267327511 2.4192211460
H -4.4163949256 -1.2187233044 1.2980073686
H -4.6183359173 -1.6758537671 -0.3817391499
H -4.4260433238 0.7408960156 -0.1439972535
H -2.8622419016 0.5961139450 0.6626763205
H -0.7652109666 0.1095165386 -4.6482804623
H -3.1191568124 0.9206400538 -4.7176283610
H -4.4357512894 0.9691420039 -2.5858582618
H -4.2465653835 -3.7604060399 1.0876811035
H -0.2315607772 -5.2392894734 0.8714142527
H 0.5201458583 -3.0034472633 0.1212886598
H 0.3032736730 1.4220752134 -1.1324784925
H 0.6001663174 1.9630077539 0.5344071736
H 2.4332542859 0.1434324111 -1.0994683543
H 2.7440751481 1.8454942136 -0.7115785321
