47
CONF9
C -1.8314112735 2.0969696479 2.2889493333
C -2.2841157917 1.5200436383 0.9499620825
C -3.7465314957 1.8448495374 0.6442679941
C -4.2284979131 1.2626347213 -0.6654709656
O -4.1834400516 -0.1938628449 -0.5290311383
C -4.3435770702 -0.9066916357 -1.6418777920
O -4.5930902733 -0.4493263308 -2.7391984400
C -4.2320977915 -2.4109694494 -1.3907844693
C -5.6221965961 -2.9974759701 -1.1923320262
O -3.4778740851 -2.7260904703 -0.2180683176
C -2.1585357568 -2.3601022842 -0.1787518349
C -1.5268170735 -2.5278869734 1.0565651881
C -0.1919629689 -2.1800068189 1.2088806112
C 0.5036098744 -1.6667057922 0.1226817106
C -0.1055878773 -1.5047997562 -1.1097047692
C -1.4463301148 -1.8499875004 -1.2671851328
O 1.8716177518 -1.3901462033 0.2667049247
C 2.2552081969 -0.0990605486 0.4490006021
N 1.3373256128 0.8497868950 0.5426894018
C 1.7587837457 2.1082093157 0.7257267969
C 3.1005243488 2.4433739963 0.8208832679
C 4.0583269896 1.4246720916 0.7227854971
C 3.6371282723 0.1277540678 0.5328038650
C 3.5459558273 3.8523293616 1.0262543733
F 2.5137477135 4.7211237088 1.0988897969
F 4.3562496360 4.2805074788 0.0198596564
F 4.2664045718 3.9943281882 2.1726311533
H -2.4446267292 1.7059039286 3.1084900372
H -1.9188341888 3.1892915635 2.2976770822
H -0.7886552869 1.8388422210 2.4975878822
H -2.1444343554 0.4324409421 0.9525066245
H -1.6521091732 1.9113266786 0.1416523897
H -3.8826009650 2.9325775781 0.5874180363
H -4.3912590145 1.4878080592 1.4576361909
H -5.2589509891 1.5503014299 -0.8963049864
H -3.5820268035 1.5477575496 -1.5019756436
H -3.7641178996 -2.8517101040 -2.2802187356
H -5.5452435270 -4.0793192101 -1.0606856890
H -6.0967456573 -2.5598893628 -0.3097068942
H -6.2371639872 -2.7904652135 -2.0711333497
H -2.0955387154 -2.9246460592 1.8908538033
H 0.3077249084 -2.2995905987 2.1644046246
H -1.9069158115 -1.7156813512 -2.2386628527
H 0.9860167097 2.8690739140 0.7986745452
H 5.1171945750 1.6527943150 0.7941717163
H 4.3336392245 -0.6978855972 0.4489839544
H 0.4591427434 -1.1054047948 -1.9456084715
