44
CONF2
C -1.7060340095 -1.4433026413 -2.9448229132
C -1.6267838895 -2.3213346170 -1.7054977848
N -1.8769204876 -1.5433583844 -0.4582212781
C -3.1461132662 -1.5190016779 -0.0194372159
C -3.5713762965 -0.8416808793 1.0968053852
C -2.6304134738 -0.0893868036 1.8719876975
O -2.9608609469 0.5456636895 2.9127269209
C -1.2615554285 -0.0935170761 1.3866383346
C -0.2960083257 0.6301972067 2.1025765206
C 1.0012438817 0.6286149403 1.6861623914
C 1.4435031671 -0.0509587763 0.5254170273
C 0.4486670700 -0.7311047791 -0.1895958012
C -0.8938522348 -0.8181232322 0.2228254841
F 0.8357548433 -1.2794449276 -1.3640137347
N 2.7765796846 -0.0478680048 0.1804293176
C 3.4035298281 -1.1790618506 -0.5059496203
C 4.8675862582 -1.2564054139 -0.0635315931
N 5.6144703231 -0.0098141675 -0.2736293552
C 4.9351557540 1.1346785838 0.3592689086
C 3.4650759032 1.2293838020 -0.0585745758
C 5.6709980586 2.4239498197 0.0258395717
F 1.9319765726 1.2630380025 2.4312653995
C -5.0044690836 -0.9197676052 1.4669392447
O -5.8319931759 -1.5516239052 0.8285520249
O -5.3388742638 -0.2418010956 2.5680204928
H -2.7045506582 -1.0058918357 -3.0383960684
H -0.9701465693 -0.6368831232 -2.9173607929
H -1.5128793291 -2.0561990513 -3.8298415511
H -0.6708831221 -2.8327378058 -1.6155432402
H -2.4028087399 -3.0888422314 -1.7348215210
H -3.8607322752 -2.0898888860 -0.6028656062
H -0.5873184447 1.1508669124 3.0070034983
H 3.3553187904 -1.0650085041 -1.6010994343
H 2.8856734868 -2.1013782934 -0.2279465676
H 5.3616811136 -2.0657676758 -0.6129088517
H 4.9047486850 -1.5030257103 1.0058557163
H 5.6667928764 0.1708794342 -1.2752806492
H 4.9634572843 0.9638579075 1.4458221989
H 2.9606182895 2.0292904148 0.4871149915
H 5.1976600874 3.2785456321 0.5185821091
H 5.6602424026 2.6054083617 -1.0555126826
H 6.7123030231 2.3647585146 0.3541404662
H -4.4865783539 0.1962949580 2.9137725233
H 3.4137469234 1.4717759544 -1.1359705372
