23
CONF28
C -2.9932975883 -0.7094319200 -1.0400727104
C -1.8323637056 -0.7912367691 -0.0808516624
C -0.4640939185 -0.6477893795 -0.8310610449
C 0.7725059464 -0.4092168077 0.1111104753
C 2.1496425912 -0.7030230287 -0.5620523922
C 3.4443895068 -0.3624417258 0.2693682275
C 3.6924989022 1.1087140061 0.7449875245
F 3.3885289024 1.9827875306 -0.2230482211
F 2.9754227021 1.3885852457 1.8381347787
F 4.9907916670 1.2408216305 1.0518484937
F 4.4777447680 -0.6936780789 -0.5423606788
F 3.4774648865 -1.1578063518 1.3610000711
F 2.2358059832 -2.0312231669 -0.8103461018
F 2.2085586393 -0.0325818069 -1.7353108935
F 0.7570578112 0.8927981462 0.4846813431
F 0.6697863005 -1.1846655701 1.2133970972
F -0.5434327159 0.4088460558 -1.6769768452
F -0.2722035659 -1.7694260034 -1.5656360842
F -1.8141424568 -1.9857218747 0.5765205083
F -1.8922420429 0.1975737939 0.8607349331
I -4.8753724216 -0.9978260347 -0.0105027810
H -3.0420795565 0.2742021156 -1.5028802911
H -2.9235824861 -1.4940703771 -1.7927703568
