38
CONF26
F -1.8374178634 1.3716877154 0.7133769329
C -1.4492651632 0.0871100724 0.5707213487
F -1.2317015412 -0.4399438275 1.7971089078
C -0.1441836617 0.0241499665 -0.2815787993
F -0.0005756430 -1.2319722455 -0.7554765317
F -0.2710840919 0.8829173187 -1.3169856980
C 1.1439394266 0.4030454650 0.5307497923
F 0.8604351235 1.4721502575 1.3113391908
F 1.4824540323 -0.6428400949 1.3176017359
C 2.3687668790 0.7648428529 -0.3804800855
F 2.4185126686 -0.1024526160 -1.4159894922
F 2.1963550712 2.0167716785 -0.8619520954
C 3.7389254601 0.7037831253 0.3767838572
F 3.6013816280 1.2616989364 1.6025995889
F 4.1060262387 -0.5874403996 0.5147671868
C 4.9032303551 1.4509768409 -0.3526392338
F 4.9712818167 1.0686896003 -1.6353416470
F 4.7342565057 2.7761141859 -0.2969631673
F 6.0575140443 1.1428518819 0.2540348251
S -2.9113625265 -0.8708601974 -0.2206344701
O -2.6561964222 -2.2791746971 0.0982703517
O -3.0114858334 -0.3467061079 -1.5804279991
N -4.1905506081 -0.3371289882 0.6648345178
C -4.5480406068 -1.0370510119 1.9049334628
C -5.7545618282 -1.9676440375 1.7639143005
O -5.6610196792 -2.8437246046 0.6568639588
C -5.0506470152 0.7435777880 0.1382431304
C -6.0994640572 0.2772733152 -0.8655067273
H -3.6802806192 -1.6165177606 2.2329701180
H -4.7491061756 -0.2880584179 2.6831679954
H -5.8556022468 -2.5166375293 2.7155453833
H -6.6750569131 -1.3891189435 1.6261992237
H -5.5215099517 1.1998419070 1.0172659463
H -4.4118108507 1.5074305923 -0.3150337783
H -6.7246897180 1.1288141498 -1.1531991684
H -5.6191002442 -0.1169316678 -1.7629737503
H -6.7406572770 -0.5031049371 -0.4519149193
H -4.7480962510 -3.1534365901 0.5789466865
