51
CONF17
C -3.6850042532 -1.7789509813 0.2054873359
N -2.4824604421 -1.9435760312 -0.6075474487
C -2.6174279597 -3.1550257488 -1.4285777789
C -1.4327063173 -3.3427634888 -2.3655144765
C -0.1377260800 -3.4050499161 -1.5621441511
C -0.0296054211 -2.1598893871 -0.6888271434
C -1.2573160415 -1.9910190723 0.2132193592
C -1.1208778919 -0.7490793407 1.1097866491
C -1.1854368316 0.5787456647 0.3387036067
N 0.1255947990 1.0080688590 -0.1519133602
C 0.2253269037 1.5771674343 -1.4372010518
C -0.8741853219 2.1501417617 -2.0869333085
C -0.7531407789 2.6529430718 -3.3789472171
C 0.4725852237 2.6338099740 -4.0333448486
C 1.5856408486 2.1117118627 -3.3813120497
C 1.4610519207 1.5723068536 -2.1056774171
S 2.8549758134 0.7954586847 -1.3233754807
C 2.4887374341 1.2563243086 0.3520409297
C 1.1478181009 1.2685722313 0.7756449154
C 0.8739333881 1.5378212700 2.1169254844
C 1.9093483299 1.7634921877 3.0325032529
C 3.2341197480 1.7602410474 2.5989374959
C 3.5079078571 1.5275607391 1.2528186553
S 1.4049963531 2.0432985137 4.7130632059
C 2.9765649654 2.4023720599 5.5601453506
H -3.7749958490 -2.5418522566 1.0046140789
H -4.5668838089 -1.8601864800 -0.4377046861
H -3.7139097262 -0.7910056707 0.6748561291
H -3.5448867696 -3.0671293298 -2.0071122682
H -2.7196971129 -4.0565101976 -0.7861723283
H -1.5789958264 -4.2562391689 -2.9535080708
H -1.3933884558 -2.4992039098 -3.0662373062
H 0.7314607116 -3.4828802011 -2.2244477162
H -0.1435076365 -4.3036820629 -0.9288594933
H 0.8671894109 -2.1981305909 -0.0597876232
H 0.0713365845 -1.2767072442 -1.3296935252
H -1.3028904779 -2.8704496558 0.8945895956
H -0.1740775365 -0.8306513884 1.6521910088
H -1.9039502989 -0.7528928848 1.8747285860
H -1.8176499331 0.4136086065 -0.5368960805
H -1.6637999439 1.3640065793 0.9455638652
H -1.8313864043 2.2097025937 -1.5831399257
H -1.6255804447 3.0768997317 -3.8652630785
H 0.5697505435 3.0329210339 -5.0370035134
H 2.5565420872 2.1035215174 -3.8663258113
H -0.1522078785 1.5662097131 2.4653404086
H 4.0555596346 1.9369511817 3.2808311438
H 4.5361739158 1.5299417621 0.9051450916
H 3.4665935864 3.2796161261 5.1289553099
H 2.7112760403 2.6187539967 6.5975165335
H 3.6492100461 1.5407056676 5.5398595691
