42
CONF1181
C -2.4508647365 -0.6178595634 -0.1834582149
C -3.2982243493 0.6051657164 -0.4662277518
O -2.6022438988 1.8336569115 -0.2285679491
C -1.9348373470 2.3284813070 -1.3943292592
C -1.1084699233 3.5533100844 -1.0444937594
O 0.2061302358 3.2586195736 -0.5728074489
C 0.2566398330 2.7763303945 0.7735303400
C 1.6470310835 2.2559402435 1.0330252103
O 1.8302046696 1.0814061207 0.2466816064
C 3.1254357693 0.5070127311 0.3933013623
C 3.1868539378 -0.7182722370 -0.4836334943
O 2.2972268166 -1.6987562074 0.0479065751
C 1.8722641008 -2.6549733463 -0.9182293793
C 0.8486390946 -3.5755887539 -0.2906016184
O -0.3758673994 -2.9172769377 0.0467347507
C -0.4045286286 -2.3845671363 1.3768356044
C -1.8100573118 -1.9399087815 1.7253768773
O -2.1848823896 -0.6574791008 1.2214493655
H -1.5124548209 -0.5932673058 -0.7566162772
H -3.0118164562 -1.5150145367 -0.4897266013
H -4.1651279429 0.6018520829 0.2045240456
H -3.6634231619 0.5645364516 -1.5032448011
H -1.2770665226 1.5611143372 -1.8314248670
H -2.6866067737 2.6055065644 -2.1516623018
H -1.6553085051 4.1766311015 -0.3189793342
H -0.9628019373 4.1394771248 -1.9577043308
H -0.4708527392 1.9685320367 0.9248364697
H 0.0268826893 3.5907091945 1.4792694165
H 2.3989225229 3.0166637258 0.7667040490
H 1.7542854055 2.0248474095 2.1051161956
H 3.9047795875 1.2197703029 0.0790143367
H 3.3102824769 0.2362076611 1.4457011053
H 4.2174573525 -1.1051176614 -0.5164407974
H 2.8871457044 -0.4474296880 -1.5074955717
H 1.4287854356 -2.1409927799 -1.7861593496
H 2.7236689425 -3.2595630316 -1.2762485729
H 0.5978256221 -4.3510400934 -1.0240099523
H 1.2729176425 -4.0666874795 0.5979786152
H -0.1032615166 -3.1685415701 2.0907918659
H 0.2913649099 -1.5407290282 1.4781403067
H -1.8725810534 -1.8489288557 2.8151794852
H -2.5334666936 -2.7037771927 1.3980160484
