29
CONF4
C -3.8472154504 0.2208325232 -1.2164362983
C -2.3620226502 -0.0386223033 -1.1670961549
O -1.9617862262 -0.2311066413 0.2351548880
P -0.9211070037 0.6868704961 1.0133307971
S -0.6177675697 2.4855320647 0.3542201438
O -1.3417963940 0.5018418526 2.5356831921
C -2.2123460435 1.4652039066 3.2242439409
C -3.6535648058 1.3252177898 2.7947173296
O 0.4350404918 -0.2580880459 1.1730266803
C 1.1922190149 -0.6503715785 0.1221430882
N 0.7798139084 -0.4111954975 -1.1086121192
C 1.5084080304 -0.7969253245 -2.1382316347
Cl 0.8733649024 -0.4306381216 -3.7230057181
C 2.7223538653 -1.4651500797 -1.9867709427
Cl 3.6778132167 -1.9707026717 -3.3453128481
C 3.1675929324 -1.7261049214 -0.6933879346
C 2.3984882954 -1.3144093574 0.3808345226
Cl 2.9153198641 -1.6167632342 2.0107187172
H -4.1594673215 0.2850990354 -2.2636496132
H -4.4040225119 -0.5903392262 -0.7391355531
H -4.0951476155 1.1643133149 -0.7222931392
H -2.0841865194 -0.9632975254 -1.6782283513
H -2.0778138642 1.2180761493 4.2787367674
H -1.8237332491 2.4711327492 3.0384300308
H -4.2683214602 1.9895837866 3.4101913823
H -3.7876851824 1.6102000776 1.7473333831
H -4.0048263189 0.2989827876 2.9336387379
H 4.1060420054 -2.2433711083 -0.5312307748
H -1.7881098062 0.7889539877 -1.5905575372
