32
CONF8
N 5.0280982013 0.4358063135 0.1686386227
C 3.7063835849 0.7046201491 0.1008911840
C 2.7544717195 -0.2968247462 -0.1565444114
N 2.8807214402 -1.6473822464 -0.4129968937
C 1.6461580902 -2.0492012507 -0.5867127763
N 0.7045768079 -1.0452079095 -0.4514712932
C -0.7296671820 -1.1981992944 -0.5894928911
O -1.1974234213 -0.3311307902 -1.5968717847
C -2.5239584920 0.1712035102 -1.2474462370
C -2.4743727173 1.6893333833 -1.1725729921
O -1.7795111733 2.1684131025 -0.0366034067
C -2.8993892441 -0.5081364760 0.0692270230
O -3.6117445318 -1.7052369861 -0.2245912852
C -1.5290146493 -0.8478475766 0.6720619555
O -1.5619330488 -1.9775855193 1.5421221689
C 1.4170520055 0.1046997546 -0.1769480942
N 0.9704598358 1.3510628532 0.0257109889
C 1.9709607555 2.2102072618 0.2594295146
N 3.2836479478 1.9650200154 0.3062776778
H 5.3566480799 -0.4726775682 -0.1094618585
H 5.6732163283 1.2048613678 0.2270597905
H 1.3399180459 -3.0633403493 -0.8115157791
H -0.9079164777 -2.2562595042 -0.8409178207
H -3.2199266088 -0.1445183551 -2.0351736239
H -3.5035875734 2.0645066710 -1.1048423580
H -2.0394614988 2.0677402687 -2.1108806875
H -0.8304391412 1.9298593401 -0.1245643418
H -3.4818674882 0.1616365265 0.7170913291
H -3.4684012087 -2.3004147533 0.5251027256
H -1.1025516018 0.0352343751 1.1578730863
H -1.5465669206 -1.6644788391 2.4518696113
H 1.6754204379 3.2442376792 0.4310959598
