63
CONF105
C 2.2419594872 1.0455241271 0.4784955831
C 1.0030094080 1.7652801576 1.0037252480
N -0.1223984497 0.8335145255 1.1249044358
C 0.2006184552 -0.2231610679 2.0881474055
C 1.4003243537 -1.0373972377 1.6139261672
C 2.6002404993 -0.1122348849 1.4096617593
N 3.7871565894 -0.8400975899 0.9515418617
C 4.9913789037 -0.9417697970 1.6402319168
C 5.4048461285 -0.4374008665 2.8652121919
C 6.7089747653 -0.7292840796 3.2770155585
C 7.5671931043 -1.4990222502 2.4886678442
C 7.1529418988 -2.0077302594 1.2543426634
C 5.8609810227 -1.7176443959 0.8477516258
N 5.1557637873 -2.0575700477 -0.2913254518
C 3.8748626054 -1.5291925807 -0.2557063914
O 3.0052975578 -1.6494981155 -1.1174267441
C -1.3632004945 1.5180925149 1.5011062384
C -1.9087662340 2.4370311650 0.4039811803
C -1.9317641608 1.7914295321 -0.9833287054
C -2.6332964153 0.4193160471 -1.0291508685
C -4.0814457067 0.4495776193 -0.5848352099
C -4.5993193692 -0.6406571845 0.1219929433
C -5.9299566993 -0.6800294682 0.5285563468
C -6.7376528961 0.3994858703 0.2153444247
C -6.2719620662 1.5029250648 -0.4770774391
C -4.9360768578 1.5180365533 -0.8725320193
F -8.0400534929 0.3773011430 0.6096594008
C -2.4474828762 -0.2004843667 -2.4056695092
C -1.2804629571 -0.9274961087 -2.6665537965
C -1.0302563858 -1.4706009227 -3.9233795869
C -1.9723777252 -1.2711779422 -4.9181177354
C -3.1398097166 -0.5594012618 -4.7077371680
C -3.3685905340 -0.0257826791 -3.4407320174
F -1.7446636974 -1.8036618650 -6.1503442509
H 3.0818730322 1.7464808522 0.4174745714
H 2.0417547293 0.6594856975 -0.5262704605
H 0.7342983402 2.5684652943 0.3107712754
H 1.2311104830 2.2377410179 1.9824238169
H 0.4133355545 0.2016413848 3.0917226555
H -0.6719043214 -0.8789123172 2.1901712302
H 1.1548166582 -1.5340287542 0.6696144076
H 1.6454173946 -1.8065059666 2.3548441940
H 2.8688751373 0.3106364473 2.3850770318
H 4.7495101575 0.1618159913 3.4872142730
H 7.0569318518 -0.3465025040 4.2308737291
H 8.5734865274 -1.7071902519 2.8370687595
H 7.8140455587 -2.6058172042 0.6362749252
H 5.4942326339 -2.6112887925 -1.0623612986
H -1.2364775974 2.1011608825 2.4349946653
H -2.1093459240 0.7424829916 1.7175909302
H -2.9223188328 2.7319856542 0.7014242636
H -1.3263131148 3.3641630923 0.3507616156
H -2.4008718085 2.4721500743 -1.7042416713
H -0.9036189227 1.6390328679 -1.3300700633
H -2.0992668685 -0.2329497238 -0.3289227300
H -3.9483468619 -1.4778055286 0.3598818973
H -6.3327913941 -1.5233678390 1.0791824194
H -6.9379566392 2.3303468182 -0.6973211025
H -4.5645897377 2.3828716922 -1.4125956510
H -0.5530745125 -1.0732218263 -1.8714516619
H -0.1300506283 -2.0403151522 -4.1280526374
H -3.8536666532 -0.4312907779 -5.5144628718
H -4.2851026706 0.5275540468 -3.2619634939
