78
CONF959
C -0.8148161229 -0.6935543809 -0.3206268185
C 0.0916764975 -1.8505516297 -0.7135455970
O -0.7331745313 -3.0380384620 -0.4402485110
C -1.6944811437 -2.7458250315 0.4739863808
O -2.4403350345 -3.5990249019 0.8967572414
C -1.5846444942 -1.2881903752 0.8483015748
C -2.8427010863 -0.4788479318 1.1717911912
C -3.9498902584 -0.6304965670 0.1343036887
C -4.0262941025 0.2228705810 -0.9684066207
C -5.0248865047 0.0511163066 -1.9288974513
O -5.1790092118 0.8296011274 -3.0393854595
C -4.2282903329 1.8848355899 -3.2324867250
C -5.9627563769 -0.9765216466 -1.7832082885
O -6.9387184611 -1.1286860875 -2.7279052304
C -5.8901971753 -1.8175199314 -0.6663729642
O -6.8710145327 -2.7705270647 -0.6296467833
C -6.8456674905 -3.7034271607 0.4596201112
C -4.8926594015 -1.6485848171 0.2912233176
C -2.4229151367 0.9761314043 1.3358905484
C -3.3198490675 1.8202264433 2.0244302627
C -2.9989488447 3.1499392719 2.1316744184
C -1.8329975970 3.6693721352 1.5772800396
O -1.7575788672 5.0153890726 1.8181016489
C -2.9421458223 5.3572830327 2.5716957165
O -3.7088830087 4.1438032153 2.7473658283
C -0.9454314131 2.8750726152 0.8984496371
C -1.2479781176 1.4992371460 0.7781667375
C -0.2120739625 0.6382721466 0.0784057499
O 0.8946707781 0.4239365483 1.0061502830
C 2.1221966356 0.9009595050 0.5721267084
O 2.6213793477 0.0069431714 -0.4392682781
C 3.8803713707 0.4542348724 -0.9339043986
C 4.3290491425 -0.4580306894 -2.0606375960
O 5.6412359973 -0.0388965550 -2.4841669821
C 6.5986772120 -0.0066634533 -1.4401835180
O 6.1880316828 0.8057132290 -0.3432342608
C 4.9183446956 0.3863872824 0.1829978319
C 4.5059341384 1.2973662651 1.3153029197
O 5.4276870210 1.1547941774 2.3919742216
C 3.0840916316 0.9257377992 1.7640580470
O 2.6428552574 1.8118814650 2.7898909162
C 6.9914916167 -1.3947686379 -0.9982070470
C 6.9183089414 -2.5663552325 -1.7029925399
C 7.4858110322 -3.6714413761 -1.0109224313
C 7.9979917972 -3.3284223744 0.2100215779
S 7.7865408664 -1.6384394679 0.5329516469
H -1.5175505998 -0.5066835967 -1.1429046161
H 0.9859294826 -1.9126068905 -0.0894592114
H 0.3607206009 -1.8817046745 -1.7698266121
H -0.9335586557 -1.2743835550 1.7384823975
H -3.2431457613 -0.8293434116 2.1299329878
H -3.3180936653 1.0362648746 -1.0634207864
H -4.5119909586 2.3689692241 -4.1673670178
H -3.2100458211 1.4866755233 -3.3165665062
H -4.2737195581 2.6114627031 -2.4125715661
H -7.4926572505 -1.8771885543 -2.4593526454
H -5.9045042697 -4.2648315625 0.4676534437
H -6.9787833108 -3.1874021428 1.4171282838
H -7.6808193970 -4.3823004721 0.2869497624
H -4.8348749428 -2.3026412852 1.1516622002
H -4.2374063438 1.4238210383 2.4474279396
H -3.5368237537 6.0802210965 2.0037130310
H -2.6478490829 5.7435928450 3.5531933741
H -0.0409786959 3.2865310832 0.4627057224
H 0.1739796683 1.1661198281 -0.8015503946
H 2.0333376495 1.9123467457 0.1310208005
H 3.8060184949 1.4907022979 -1.3020739325
H 3.6836331017 -0.3681921208 -2.9371694233
H 4.3368847439 -1.5010242128 -1.7156525632
H 7.4618907184 0.5172826021 -1.8646535299
H 4.9816681221 -0.6504572975 0.5500102999
H 4.5002179699 2.3389154726 0.9480183410
H 5.0782362583 1.6711359587 3.1317881956
H 3.0986527238 -0.0754007444 2.2116429357
H 2.5881657394 2.7042018979 2.4175617701
H 6.4686618615 -2.6297201703 -2.6868804660
H 7.5104703053 -4.6818105393 -1.4022728436
H 8.4763272481 -3.9633705704 0.9441597367
