48
CONF16
C -3.1193982872 0.6397785914 -2.1894378722
C -3.7770624960 0.8247110143 -0.8174109963
C -5.3070493022 0.8227773261 -0.9824806222
C -3.3782039088 2.1832818737 -0.2189630687
C -3.4121643501 -0.3426695814 0.1468972818
C -1.9299295057 -0.7459063884 0.1536166182
N -1.6980647129 -1.8403735643 1.0963781532
C -1.3498726583 -3.1176956503 0.8375698387
N -1.3003837106 -3.8153650308 1.9634368544
C -1.6410326827 -2.8870385764 2.9038452449
N -1.8967448201 -1.6767035378 2.4270195956
O -1.1605073291 0.3733980508 0.5192552604
C 0.2078163721 0.3401428372 0.3596651885
C 0.8908236134 1.4044100908 0.9502853224
C 2.2679835747 1.4937896244 0.8309808955
C 3.0013638112 0.5245058355 0.1292421129
C 2.2937515356 -0.5329083189 -0.4517164366
C 0.9092293600 -0.6360360130 -0.3452645442
C 4.4706787212 0.6186650101 0.0095220217
C 5.2713416445 -0.5324856702 0.0412307943
C 6.6546298716 -0.4419022070 -0.0736748654
C 7.2681417488 0.8006072344 -0.2197470558
C 6.4843608965 1.9522435918 -0.2511412216
C 5.1008204350 1.8628678081 -0.1389415299
O -4.0609815707 -1.5656307109 -0.2213934355
H -2.0310993778 0.7540816876 -2.1330215698
H -3.4948897636 1.3971730146 -2.8853059687
H -3.3487870076 -0.3465752258 -2.6067355503
H -5.6120916336 1.7038978658 -1.5554139814
H -5.6576877861 -0.0640883663 -1.5178899357
H -5.8087029363 0.8664766361 -0.0076790037
H -2.2964471565 2.3086924166 -0.1601605444
H -3.7809187445 2.9839081409 -0.8485544476
H -3.7946179293 2.3050873444 0.7876979667
H -3.6937226268 -0.0529721810 1.1698232630
H -1.6625777566 -1.1358834876 -0.8359361417
H -1.1516074141 -3.4810052108 -0.1627012764
H -1.6991296908 -3.1049533260 3.9629153594
H 0.3280108277 2.1471676697 1.5062304947
H 2.7858821084 2.3161857883 1.3143776288
H 2.8267214815 -1.2869244759 -1.0224238053
H 0.4106156965 -1.4669790496 -0.8282139634
H 4.8076640783 -1.5043284681 0.1808176784
H 7.2564786716 -1.3449969571 -0.0385162752
H 8.3476811963 0.8708992234 -0.3080244713
H 6.9514320162 2.9248532491 -0.3731027405
H 4.4997307658 2.7656679588 -0.1898570367
H -4.9714812634 -1.5297506086 0.0929003953
