29
CONF8
C -2.7371192031 -2.2788624451 2.3414842007
C -3.1294913975 -1.2326834200 1.5052815674
C -2.4738076287 -1.0229857328 0.2967191408
C -1.4160546102 -1.8521630746 -0.0908143285
C -1.0268813521 -2.8926925152 0.7531962042
C -1.6857443306 -3.1093282629 1.9629826571
C -0.7015207683 -1.5970811178 -1.3949981528
O -0.1011836838 -0.2938216669 -1.4519954028
C 0.9888902863 -0.1589349506 -0.5233461570
C 1.5254278359 1.2363089637 -0.6459036379
C 2.6733087338 1.4994835390 -1.3954119451
C 3.1440096280 2.8039899760 -1.5331622234
C 2.4645221463 3.8576081869 -0.9260437364
C 1.3149193764 3.6033209886 -0.1781713140
C 0.8502446712 2.2990474419 -0.0385965610
H -3.2501305360 -2.4438214816 3.2839741880
H -3.9509285482 -0.5845099788 1.7956130557
H -2.7794116347 -0.2091047109 -0.3555834110
H -0.2004051088 -3.5361624369 0.4622480724
H -1.3736346870 -3.9223664702 2.6114809183
H -1.4110607693 -1.6170076305 -2.2287664577
H 0.0609752269 -2.3720969805 -1.5650092701
H 1.7679367581 -0.9000688877 -0.7582798273
H 0.6316148050 -0.3439553928 0.5005514317
H 3.2019283906 0.6770764586 -1.8701267079
H 4.0404966706 2.9975838017 -2.1142538391
H 2.8307662342 4.8741707548 -1.0319610512
H 0.7852312971 4.4218431005 0.2997126526
H -0.0428971988 2.0972135259 0.5474798326
