26
CONF66
C -2.6710657888 -0.1051914646 0.1954012453
C -1.2037606313 -0.4170031274 0.4764016131
C -0.3944729898 -0.5666072165 -0.8157652956
C 1.0478133612 -1.0934833775 -0.6631599832
C 2.0725512104 -0.2584200918 0.1154651941
C 2.1858351032 1.1822267085 -0.3662582692
O 3.2911571167 1.8430772470 0.2578183480
O 1.8528778149 -0.3199592885 1.5314617099
O 1.0091246398 -2.4243992993 -0.1272969488
O -1.0876646887 -1.4648618994 -1.6920325947
O -0.6463516254 0.6732338129 1.2344224028
O -3.3392494556 0.2430401509 1.4196611031
H -2.7420409092 0.7755152161 -0.4526405745
H -3.1584149662 -0.9514404773 -0.2971967047
H -1.1391480236 -1.3495237155 1.0628830200
H -0.3740940976 0.4049582084 -1.3259171950
H 1.4263333127 -1.1910171540 -1.6890642960
H 3.0448052765 -0.7435095702 -0.0402531401
H 1.2508509770 1.7259407191 -0.1713864089
H 2.3776556216 1.1972055744 -1.4447614738
H 0.9875063327 0.1128439732 1.6923319690
H 1.0781971488 -2.3318372118 0.8355579513
H -0.9258184651 -2.3568169778 -1.3492125431
H -1.3009299489 0.8845744393 1.9190732373
H 3.1737012224 1.7335300613 1.2113055894
H -3.4975582208 -0.5726082908 1.9127503659
