48
CONF20
Cl -4.4764996923 1.9559861845 -3.0005221468
C -3.7559017794 2.0724032608 -1.3885308648
C -3.9487944277 3.2339336942 -0.6560592166
C -3.3435246918 3.2876443463 0.5983377113
C -2.5885438924 2.2347395457 1.0948277056
C -2.4128332379 1.0493778366 0.3457525578
C -3.0110791106 0.9959202482 -0.9333417438
N -1.6832884380 -0.0283558335 0.8431543264
C -1.2743605374 -1.0419672147 -0.1394614755
C -0.5084492075 -2.1955702271 0.4831437121
N 0.6144602132 -1.7035903330 1.2753873085
C 1.4783959270 -2.7911277309 1.7509121198
C 2.4012690857 -3.3491324728 0.6676767169
C 3.4959502820 -2.3844170838 0.2038850153
N 2.9779214415 -1.2151875253 -0.4889095489
N 2.3437606213 -1.3634529841 -1.7035461561
C 1.7862443104 -0.1893302690 -1.9223221361
C 1.0016541840 0.2706660172 -3.0070713827
C 0.4979189385 1.5401730226 -2.9539832136
C 0.7601748245 2.4002557505 -1.8428582968
C 1.5328410993 1.9666952500 -0.8133710562
N 2.0390238140 0.6932539578 -0.8729073701
C 2.7994335914 0.0101209903 0.0926249234
O 3.2029008276 0.4513093290 1.1671284415
C 0.0473581858 -0.9416221509 2.3822195636
C -0.6741515149 0.2908009769 1.8664025755
H -4.5328975880 4.0591292359 -1.0441716847
H -3.4602448922 4.1813158408 1.2039156256
H -2.1404905423 2.3445115330 2.0726227803
H -2.8971521656 0.1370423808 -1.5783691482
H -2.1684390699 -1.4620408804 -0.6106240434
H -0.6607257370 -0.5831480802 -0.9322387687
H -1.1902047241 -2.8110131440 1.1054871957
H -0.1477051061 -2.8253566487 -0.3360858831
H 2.0973500072 -2.3919184487 2.5647883647
H 0.8778748564 -3.6174114381 2.1794212614
H 1.8287941875 -3.6958869189 -0.1996029239
H 2.9081451797 -4.2311737989 1.0760965892
H 4.1876788984 -2.8979356194 -0.4721602018
H 4.0658824607 -2.0081242616 1.0590177350
H 0.8064119590 -0.3987506894 -3.8366533181
H -0.1192881706 1.9069831240 -3.7669856774
H 0.3469059064 3.4007056234 -1.8133588026
H 1.7913333497 2.5450319941 0.0659320514
H 0.8509930609 -0.6020620412 3.0450029841
H -0.6486709318 -1.5610107931 2.9844576917
H 0.0659218488 1.0030514933 1.4628357514
H -1.1633529998 0.7629746580 2.7221048547
