47
CONF74
C -2.1994571708 -0.4440917479 0.2745315312
C -1.8728342810 -0.8209176285 -1.1508861803
C -1.5011204959 -2.2768583786 -1.3239283691
C -2.5813167957 -0.1604579823 -2.3087608238
C -3.6268569123 0.8457529946 -2.1125883678
C -4.6409879858 1.0708299027 -2.9478327321
Br -5.9728032471 2.3801846860 -2.5674750596
Br -4.9041445729 0.1454151268 -4.5918161315
C -1.0986802040 0.1512579471 -2.0472242352
C -0.6516369711 1.4417057879 -1.5125917931
O -1.2992429166 2.2888256937 -0.9376879589
O 0.7025878780 1.5673125858 -1.7186439072
C 1.2997558025 2.7012352488 -1.0631923551
C 2.6168068042 2.8645062104 -1.6816715279
N 3.6689939009 3.0161568526 -2.1323918498
C 1.4411382335 2.4985913349 0.4385113914
C 1.5703365978 3.6146454012 1.2599482982
C 1.7167940904 3.4319570625 2.6329614451
C 1.7311782296 2.1556548794 3.1806876052
C 1.5944934800 1.0497487604 2.3416735233
O 1.5542006494 -0.1766784040 2.9636711934
C 1.7415599280 -1.3329382716 2.2146079056
C 2.9096834275 -1.5327624490 1.4842103425
C 3.0819733678 -2.7370829840 0.8085154573
C 2.1055363759 -3.7306302561 0.8735638602
C 0.9502700571 -3.5177606495 1.6214285185
C 0.7600209707 -2.3128959433 2.2946922293
C 1.4551434960 1.2098557723 0.9648418601
H -2.4177643731 0.6156126022 0.4048831160
H -1.3513874143 -0.6960592376 0.9203550329
H -3.0660825811 -1.0226693977 0.6113049413
H -2.3254675741 -2.9131958885 -0.9839715323
H -0.6167647036 -2.5138374750 -0.7217259091
H -1.2856898920 -2.5165009432 -2.3686614417
H -2.7140406547 -0.7895371198 -3.1834479985
H -3.5935580689 1.4603892908 -1.2202170448
H -0.3975258155 -0.3115783572 -2.7328265444
H 0.7108026793 3.6056097542 -1.2605163427
H 1.5516721428 4.6132088881 0.8347863588
H 1.8152540963 4.2937577487 3.2848976048
H 1.8358351725 2.0015002458 4.2493019680
H 3.6673543539 -0.7566136215 1.4477496687
H 3.9894137114 -2.9015899460 0.2361760691
H 2.2482905935 -4.6682655583 0.3466292458
H 0.1877495853 -4.2881249153 1.6795956914
H -0.1339015941 -2.1277536941 2.8809849237
H 1.3444182984 0.3478853903 0.3175474131
