38
CONF9
C -2.2767789343 -1.4640096973 -0.6067511150
C -1.3752867847 -0.3342599130 -1.1112674587
C -1.9960531519 1.0043596191 -0.7719407501
C -1.7882347601 2.2189394805 -1.6376798281
C -3.1212379582 1.5161434047 -1.6319337875
C 0.0967973451 -0.5241580112 -0.6130984211
C 0.9853042463 0.6041635475 -1.1930902686
N 2.4002762069 0.4086487988 -0.9105429763
C 3.1124934753 0.8166397269 0.1591232700
N 4.3710384587 0.4016153572 0.0626076459
C 4.3703718291 -0.2753486128 -1.1199932780
N 3.2009744189 -0.2987372054 -1.7468610931
C 0.1825184174 -0.5800397381 0.9043006269
C 0.3369900126 -1.8015940738 1.5650941333
C 0.3835332271 -1.8717797981 2.9544969983
C 0.2711634023 -0.7003172693 3.6897060985
C 0.1180898570 0.5314246354 3.0683121796
C 0.0762062715 0.5803907121 1.6787462745
Cl 0.3315697799 -0.7756208167 5.4491705039
O 0.5863734448 -1.7784782562 -1.0956619545
H -1.8540263479 -2.4478354129 -0.8243853766
H -3.2557959225 -1.3913448703 -1.0891550328
H -2.4255777581 -1.3836482199 0.4754031229
H -1.3125464778 -0.3978143539 -2.2091525705
H -2.1166982632 1.1906534769 0.2926414971
H -1.1738364709 2.1029384506 -2.5251272176
H -1.7128084116 3.1863833781 -1.1513490850
H -3.3811926587 0.9327923305 -2.5107795411
H -3.9568195209 2.0034021246 -1.1404851939
H 0.8693281572 0.6240464046 -2.2804162494
H 0.6942101054 1.5805310344 -0.8042692727
H 2.6874760795 1.4104069660 0.9573948451
H 5.2479890666 -0.7554544970 -1.5346967292
H 0.4224505344 -2.7162263716 0.9923736505
H 0.5054688415 -2.8270558220 3.4526899556
H 0.0384719380 1.4411521527 3.6524699380
H -0.0314934118 1.5531002911 1.2117616949
H 0.4892915160 -1.7840086505 -2.0576554255
