40
CONF3
C -1.9551604559 -0.4467866635 2.3834300109
Si -2.0144281085 -0.1411747169 0.5477777136
C -3.7470951915 -0.0614809094 -0.1228819031
O -1.2468945168 1.2960336521 0.2607262415
Si -0.2904948007 1.9098540943 -0.9400718718
C -0.0432242439 3.7178173349 -0.5813702287
C -1.0514163852 1.5934613865 -2.6096751672
O 1.1718827834 1.1361025914 -0.9110738658
Si 2.0681529789 0.3347743779 0.2234831966
C 3.7234681844 -0.0353635739 -0.5398907348
C 2.1943680549 1.3390940828 1.7862573521
O 1.3085616122 -1.0842968772 0.6064439217
Si 0.2399015763 -2.1015460567 -0.1392003684
C 0.8119920044 -2.4994659273 -1.8655974594
C 0.0655537654 -3.6076111892 0.9379761439
O -1.2258955617 -1.3446472490 -0.2664264692
H -0.9176595980 -0.4969063086 2.7325182597
H -2.4591489923 0.3588372911 2.9283778914
H -2.4475714023 -1.3913574726 2.6387051624
H -3.7344721676 0.1195541114 -1.2033672436
H -4.3104824312 0.7486822498 0.3521688459
H -4.2802561314 -1.0007290033 0.0595979730
H 0.3900093829 3.8581899847 0.4151234079
H 0.6325030723 4.1709089957 -1.3145511080
H -0.9964561119 4.2562097555 -0.6179968968
H -2.0305154513 2.0774875740 -2.6922545345
H -1.1857708694 0.5183951151 -2.7739317445
H -0.4102781717 1.9822743453 -3.4083365332
H 4.3479807286 -0.6152791710 0.1479488696
H 4.2555929245 0.8898084871 -0.7860844264
H 3.6016378563 -0.6151513305 -1.4614785079
H 2.7775474357 0.8053420059 2.5446117861
H 2.6834250882 2.3000846935 1.5937697961
H 1.1993397831 1.5378262631 2.2000628366
H 0.9075991783 -1.5850577667 -2.4619078344
H 1.7860918904 -3.0002141375 -1.8490445814
H 0.0977440190 -3.1603322062 -2.3688339629
H -0.2672453772 -3.3247878652 1.9427641678
H 1.0205917909 -4.1358799722 1.0305758375
H -0.6694780412 -4.3026701062 0.5183612225
