41
CONF60
O 8.8817605117 -0.8774816505 0.0670003420
N 8.1400973407 -0.2307231786 -0.6782845575
O 8.5564251320 0.4602398481 -1.6127570046
C 6.7088695283 -0.2848623049 -0.4440032264
C 6.2197847740 -1.0618140997 0.6074621565
C 4.8559271771 -1.1067677930 0.8211096844
C 3.9717299659 -0.3820974075 -0.0002330477
C 4.4921970902 0.3933369868 -1.0586074866
C 5.8529781756 0.4416378491 -1.2787397390
N 2.6169181537 -0.5088282036 0.3170073619
N 1.8386460378 0.1981681152 -0.4127390093
C 0.4941807667 0.0976619335 -0.1447923557
C -0.3596171177 0.8887407032 -0.9426909332
C -1.7217976134 0.8793004773 -0.7696741890
C -2.3207834640 0.0629826347 0.2312167754
C -1.4514592678 -0.7419900577 1.0310125687
C -0.0935796883 -0.7222924186 0.8486706789
N -3.6631453332 0.0438778614 0.4210949002
C -4.5777500006 0.7785904887 -0.4499727528
C -4.7743009895 2.2221588168 0.0298400582
O -5.7122374921 2.9129191567 -0.7955713896
C -4.2952657421 -0.7392144565 1.4918784118
C -4.5835119601 -2.1766871695 1.0667010618
H 6.9018266575 -1.6163850097 1.2392290591
H 4.4454759658 -1.7022250964 1.6299085525
H 3.8185520333 0.9489246409 -1.6988680971
H 6.2624213479 1.0328357709 -2.0884524844
H 0.0862538504 1.5221635744 -1.7036997034
H -2.3297006109 1.5187399616 -1.3961649674
H -1.8614561902 -1.3973000528 1.7883663525
H 0.5389453331 -1.3484844566 1.4669654584
H -4.2158687231 0.7668002044 -1.4832539097
H -5.5429505885 0.2625679007 -0.4411713631
H -3.8081726610 2.7448253201 0.0615174302
H -5.1916693737 2.2186938221 1.0417503591
H -5.3013887859 3.0537029811 -1.6582367069
H -3.6679283820 -0.7083011129 2.3865646726
H -5.2290081263 -0.2303234148 1.7497475238
H -3.6603617704 -2.7061747597 0.8137550228
H -5.2436654269 -2.1956964519 0.1942353636
H -5.0773702378 -2.7112207676 1.8835191450
