119
CONF1507
C 3.3541931833 -0.7176371141 -0.4479336643
C 3.9407888354 -0.4744117709 -1.8428005036
C 5.1459894209 0.4628428622 -1.7978206225
C 6.2258347437 -0.0577767633 -0.8423577644
C 5.6549725595 -0.3304894100 0.5656628038
C 6.7684335745 -0.8242263844 1.4930783240
C 7.9055600396 0.1776823295 1.5737694438
O 8.8485853410 -0.3429697017 2.5275687227
C 8.5619839188 0.4509361583 0.1943608560
C 9.3340209123 -0.7807714573 -0.2769399804
C 9.4418544582 1.7700726055 0.3416053300
C 8.5758095995 2.9233261858 -0.2349704470
C 7.1803391286 2.3366508448 -0.4693220604
C 7.4529977439 0.8763354159 -0.8233640332
O 8.0264117819 0.9355753950 -2.1494001569
C 10.8019323354 1.6829332360 -0.2557533055
C 11.2406621592 1.9395788431 -1.5000780789
C 12.6732740305 1.6794035226 -1.5673313834
O 13.4524556856 1.7747810944 -2.4954445129
O 13.1019156896 1.2632076651 -0.3268947165
C 11.9736027197 1.2485590213 0.5663887110
C 4.4197665629 -1.2842705645 0.5299379545
C 4.8209447009 -2.7038366774 0.0929470231
C 3.7610231341 -1.4250630348 1.9216546889
C 3.1013466619 -0.1512817840 2.4464532346
C 2.0649989781 0.3783977693 1.4680322065
C 2.6743615256 0.5555400312 0.0828665170
O 0.9778256898 -0.5911812634 1.4253860070
C -0.2486231999 -0.0497840680 1.0525393598
C -1.1675102021 -1.1651450373 0.5943231291
C -2.5583753893 -0.6235365599 0.2854699050
O -2.4699962176 0.1744718287 -0.8992586726
C -3.0729271720 0.2004147467 1.4786019137
O -4.2811463467 0.9237154349 1.1760425914
C -5.3733342733 0.1522512926 0.7695886352
C -6.6560397853 0.8626525667 1.1529434863
C -7.8689465552 0.1276093028 0.5925888041
O -7.9998422950 -1.1108242247 1.2964757220
C -7.6877049049 -0.1059465211 -0.9177486784
O -8.6919181851 -0.9740016368 -1.4734435471
C -10.0156007868 -0.5451240328 -1.3352954463
C -10.8423227426 -1.1052836783 -2.4767631181
C -12.3183988138 -0.7993801573 -2.2630411961
O -12.5044263637 0.6114045588 -2.4421499644
C -12.7693006658 -1.2231652299 -0.8583817938
O -14.0895097732 -0.7282999928 -0.5964457805
C -11.8439415315 -0.6506695676 0.2162036235
C -12.1655992682 -1.1459363062 1.6093805855
O -10.5020649422 -1.0774211840 -0.0887093913
C -6.3453351225 -0.7774102478 -1.2174777038
C -6.0638323718 -0.9197696594 -2.6978534997
O -5.3038320247 0.0486466388 -0.6658754593
C -2.0511517349 1.2540753071 1.9147877723
C -2.4706747628 2.0038804116 3.1622058553
O -0.8130725008 0.5900546039 2.2131196912
H 2.5701441813 -1.4832036194 -0.5354015938
H 4.2404028923 -1.4302383162 -2.2898812157
H 3.1646976727 -0.0538127326 -2.4951413160
H 5.5683574354 0.5819054222 -2.8006052729
H 4.8256657744 1.4600855254 -1.4735148717
H 6.5869606178 -1.0182641224 -1.2435683746
H 5.3045814100 0.6322094924 0.9635640754
H 7.1598574614 -1.7875795753 1.1465096682
H 6.3907781684 -0.9753303198 2.5088934613
H 7.5049157269 1.1272855219 1.9605080721
H 9.4802619855 0.3523236006 2.7510295980
H 10.0126174926 -1.1328516863 0.5030667146
H 8.6530892921 -1.6044872965 -0.5112778784
H 9.9245574909 -0.5634381399 -1.1699172006
H 9.5958982905 1.9436452211 1.4139873982
H 8.9941990353 3.2639679189 -1.1841108584
H 8.5623940280 3.7806679985 0.4431344551
H 6.6478884749 2.8491828121 -1.2741685565
H 6.5633202092 2.3987925637 0.4316441027
H 8.2072809215 0.0309454437 -2.4365901509
H 10.6732170562 2.2721179965 -2.3571584817
H 12.1635809335 1.9418958965 1.3958342823
H 11.8547433037 0.2380870122 0.9754365533
H 3.9193478417 -3.3068619496 -0.0630830524
H 5.4154856493 -3.1965946761 0.8690003330
H 5.3996596205 -2.7247231456 -0.8337997402
H 4.4923735377 -1.7934247964 2.6486367240
H 2.9953905651 -2.2074242315 1.8416196143
H 3.8488256368 0.6351255246 2.6092534298
H 2.6251285121 -0.3425246270 3.4148358703
H 1.6581727809 1.3315040140 1.8308399919
H 1.9013714801 0.8693962329 -0.6302722622
H 3.3853645036 1.3874258989 0.1462960395
H -0.1277787490 0.7150720927 0.2657529934
H -0.7592294203 -1.6481294209 -0.2993575042
H -1.2270854033 -1.9108424056 1.3952462074
H -3.2414871840 -1.4683479181 0.1135217982
H -3.3888654399 0.3744432150 -1.1424065755
H -3.2586002586 -0.4851693460 2.3214419014
H -5.3253902915 -0.8619014705 1.2006181544
H -6.6170125903 1.8798484627 0.7475022851
H -6.7401105249 0.9254888848 2.2424088305
H -8.7645354821 0.7446578479 0.7552396700
H -8.8579836396 -1.4725763869 1.0214419067
H -7.7202989414 0.8693372325 -1.4297785365
H -10.0726017877 0.5553686900 -1.2948559458
H -10.5080411243 -0.6779699402 -3.4278114298
H -10.6903029751 -2.1899110794 -2.5116405909
H -12.9210513297 -1.3497807169 -3.0034742460
H -13.3800368767 0.8173115865 -2.0824119853
H -12.7415950904 -2.3215051093 -0.7925550083
H -14.7102493312 -1.2365828580 -1.1351534081
H -11.8895734323 0.4497366293 0.1809379249
H -13.1721303672 -0.8349838360 1.8974445170
H -11.4528458324 -0.7321630414 2.3286546877
H -12.1111780744 -2.2391018267 1.6456563774
H -6.3253454975 -1.7623730080 -0.7249562909
H -6.8090829625 -1.5668323688 -3.1650705607
H -5.0742454706 -1.3609250717 -2.8484291817
H -6.0931118156 0.0604304059 -3.1852738325
H -1.8967296776 1.9580310322 1.0805625287
H -2.6365101652 1.3037855133 3.9879039992
H -3.3943437493 2.5578816227 2.9817048181
H -1.6896348919 2.7125111055 3.4518401126
