54
CONF69
C -6.2612038358 -0.5464116285 -0.3010452412
C -4.7742240543 -0.3181706230 -0.5406069558
C -3.8881312065 -1.5908269381 -0.2783211050
N -2.5778972535 -1.0810303971 0.0800468723
C -2.4379493839 0.3522433644 0.3933140251
S -4.1426229519 0.9467605790 0.6929612393
C -1.5211676606 -0.0476551420 1.5930555956
C -1.7070426892 -1.4959233060 1.0799003476
O -1.3156460470 -2.5900496823 1.4082178842
N -0.2078550252 0.5011536666 1.7323631748
C 0.7395780630 0.3237933224 0.7813609899
O 0.5479907638 -0.3363507186 -0.2357614245
C 2.0634181058 1.0572195049 1.0526719749
C 1.9185200189 2.5321238981 0.7494506675
C 1.4006651641 2.9595279088 -0.4760930854
C 1.2632917316 4.3178052887 -0.7417171253
C 1.6403417770 5.2609062628 0.2133507631
C 2.1548217665 4.8390609769 1.4361702741
C 2.2918011828 3.4786679340 1.7040558439
C 3.1343084104 0.3781059081 0.2131119823
O 3.6296334837 0.8027806187 -0.7982794886
O 3.4495390624 -0.8176491132 0.7799079336
C 4.3509418922 -1.6380117849 0.0757915977
C 3.8536840429 -2.5021803589 -0.8877888398
C 4.7427624790 -3.3550717041 -1.5371079182
C 6.0991856399 -3.3320474376 -1.2177399433
C 6.5725598037 -2.4536553917 -0.2452747965
C 5.6946648645 -1.5943472693 0.4119947513
C -4.4624680819 -2.4506741259 0.8441121702
O -4.2951032231 -2.2522987663 2.0254391803
O -5.2154221465 -3.4446613146 0.3426693319
C -4.5277836303 0.1660614421 -1.9705775956
H -6.6260615503 -1.3272299131 -0.9758952424
H -6.8122135234 0.3726255529 -0.5182555547
H -6.4735244287 -0.8413722911 0.7303525052
H -3.8644738600 -2.1828556639 -1.1997795063
H -1.9326480296 0.9273524188 -0.3876183812
H -2.0601816373 0.0539166135 2.5390390907
H -0.0015222675 1.0688334433 2.5409486642
H 2.3292850556 0.9212889681 2.1065602120
H 1.1075215087 2.2276727994 -1.2225961982
H 0.8606699645 4.6413214027 -1.6964825011
H 1.5320138452 6.3205222577 0.0043211529
H 2.4501156889 5.5675082919 2.1848024570
H 2.6928418360 3.1501917191 2.6587852926
H 2.7933984573 -2.5028626500 -1.1181785663
H 4.3714101756 -4.0392771130 -2.2931588393
H 6.7870272465 -3.9998184930 -1.7260600917
H 7.6281999522 -2.4343819203 0.0056877330
H 6.0406626197 -0.9017679131 1.1719540736
H -5.6086590210 -3.9362099552 1.0849832915
H -5.0567636202 1.1066645064 -2.1418171852
H -4.9059382673 -0.5820500325 -2.6764650793
H -3.4643519007 0.3207320083 -2.1724758980
