36
CONF1
C -1.8629471417 -0.7805362433 -1.9267906625
C -2.0761438252 0.7181745061 -1.8806776435
S -2.4659603739 1.5825796352 -3.2376201024
N -1.8702091748 1.2559718125 -0.6313109586
C -1.6275195612 0.4493532171 0.5223371803
C -0.6145957537 -0.5243581215 0.5384895715
C -0.3591639497 -1.2233223110 1.7231411544
C -1.1076181170 -0.9674403774 2.8575339128
C -2.1231168389 -0.0153285261 2.8468515108
C -2.3737002581 0.6861142124 1.6798297711
Cl -0.7804560595 -1.8578226563 4.3263576561
C 0.1319601078 -0.8925092411 -0.6843936074
N -0.4298641198 -1.0442268179 -1.8288447469
C 1.5752135528 -1.2102373421 -0.5831288163
C 2.1232627246 -2.2425379926 -1.3562853918
C 3.4732301901 -2.5514520610 -1.2884470374
C 4.3127226299 -1.8239282493 -0.4465596129
C 3.8017059622 -0.7848002164 0.3219172835
C 2.4493799303 -0.4990687507 0.2402068622
F 1.9789310986 0.5353726235 0.9692353660
C -1.8727740607 2.7024618413 -0.4481995154
C -0.4693077531 3.2394962337 -0.2049928357
F -0.4975940877 4.5917532346 -0.2250024157
F 0.0224886540 2.8654025396 0.9994874479
F 0.3992012132 2.8215707709 -1.1430503318
H -2.2258350922 -1.1507491907 -2.8840346563
H -2.4306102684 -1.2600504190 -1.1107749172
H 0.4271638959 -1.9694804533 1.7419453010
H -2.7126305965 0.1666093657 3.7373768086
H -3.1713098582 1.4199438542 1.6685507866
H 1.4555523480 -2.7927827993 -2.0095495269
H 3.8732327157 -3.3605468314 -1.8894734575
H 5.3699955715 -2.0604384472 -0.3900515360
H 4.4303018398 -0.1866348152 0.9715340883
H -2.4991206927 3.0083819595 0.3930314725
H -2.2538660369 3.1550665488 -1.3686380151
