37
CONF9
C -2.5088522209 -1.4385671853 -2.1550626776
C -1.3196198174 -1.6991168950 -1.2330328797
C -0.0466561476 -2.0759495610 -1.9868490671
N -1.0997863706 -0.5566578354 -0.2942224406
C -1.4198909217 -0.7799628717 1.0834918151
C -2.5980184376 -0.2628806329 1.6209904994
C -2.9166108428 -0.4931044093 2.9563411363
C -2.0448690545 -1.2560499839 3.7139914174
C -0.8742344427 -1.7956259595 3.2036110741
C -0.5624702107 -1.5492465824 1.8720689862
F -2.3496756186 -1.4892856669 5.0145360884
C -0.6910034297 0.6570398394 -0.7341707055
O -0.4811979064 0.9338011823 -1.9137219569
C -0.4873412771 1.7212991896 0.3562879806
O 0.3698098893 2.7747199145 -0.1510665688
C 1.6249577057 2.4255519946 -0.3604492568
N 2.1633166078 1.2644633019 -0.0772072006
N 3.4826596066 1.2223185220 -0.3946926108
C 3.9212904470 2.3327071811 -0.9028654422
S 2.7275784942 3.6006555412 -1.0624972663
C 5.3439184640 2.5158966325 -1.3453587502
F 6.1022596147 1.4653415297 -1.0018587153
F 5.4250440334 2.6659418913 -2.6893721190
F 5.8871535825 3.6265807402 -0.7947841975
H -2.7175629295 -2.3423429849 -2.7355927781
H -2.2951190486 -0.6212225379 -2.8471135240
H -3.4016815418 -1.1892174859 -1.5735515442
H -1.5787244139 -2.5321883909 -0.5713421676
H 0.7851956326 -2.2252908604 -1.2918989004
H -0.2201780257 -3.0145087355 -2.5220920830
H 0.2295019984 -1.3075924472 -2.7108830977
H -3.2651019199 0.3205391267 0.9943654760
H -3.8241472721 -0.0975036587 3.3987421528
H -0.2227841694 -2.3856810918 3.8387207928
H 0.3506590783 -1.9472290593 1.4412422006
H -1.4302704954 2.2228315608 0.5831039623
H -0.0575470418 1.3095363914 1.2721930612
