38
CONF16
C 2.0704961445 -3.0364531715 0.4091345585
C 0.8642080035 -2.1145421239 0.2592441525
C 1.0413789082 -0.7122156464 0.7954565840
C 0.1321414962 0.3080921688 0.4566843092
C 0.2463885751 1.6083244966 0.9718514081
C 1.3113230235 1.8860653233 1.8333573563
C 2.2307445817 0.9023418894 2.1639449025
C 2.0958454805 -0.3829412182 1.6481637336
C -0.7020978582 2.7227539492 0.6007299325
C -0.1075390782 3.6686413116 -0.4518181933
N -0.9782457820 0.0123097323 -0.4118505807
C -2.2652546022 -0.3030721728 0.2300249791
O -2.4016066019 -1.6558761681 0.5966773489
C -2.6465119116 -2.5233134992 -0.5162936832
C -0.9299590950 0.1334643610 -1.7787173982
O -1.9002533002 -0.0486286954 -2.5027142840
C 0.4124941383 0.5264348020 -2.3872062595
Cl 1.0795843063 -0.8889077212 -3.3184966700
H 2.3048349857 -3.2416443177 1.4580829206
H 1.8613418141 -3.9948717889 -0.0740015298
H 2.9607661972 -2.6088541970 -0.0637875690
H -0.0061816856 -2.5590990801 0.7576379530
H 0.5933869326 -2.0567432918 -0.7994028430
H 1.4123306054 2.8880960311 2.2416168932
H 3.0552208869 1.1316140321 2.8319416247
H 2.8217453497 -1.1406464382 1.9191004706
H -1.6492380675 2.3238122257 0.2287410461
H -0.9308635126 3.2965347587 1.5058816137
H -0.7981904788 4.4899318950 -0.6647407619
H 0.8380508759 4.0946984514 -0.1030598839
H 0.0890285176 3.1423123803 -1.3904915074
H -3.0614205958 0.0030106175 -0.4604349032
H -2.3166878175 0.2635893165 1.1634687645
H -3.5488605113 -2.2144241890 -1.0597745869
H -1.7997527950 -2.5342367136 -1.2130864126
H -2.7884706962 -3.5238710125 -0.1027930834
H 0.2397555989 1.3226700886 -3.1126861542
H 1.1700687670 0.8156433290 -1.6603840410
