67
CONF1
C 1.1917125480 0.5461854861 -1.7230255393
C 0.5821917063 0.4133649310 -3.1391983900
C -0.9506652000 0.2587343177 -2.9380298775
C -1.1531610527 0.5367532027 -1.4457629709
C -2.4548022694 0.1155680260 -0.7732074946
C -3.6748919068 0.6761164675 -1.5105964376
C -4.9781874648 0.3735389822 -0.7718559238
C -4.8721710791 0.9192194236 0.6416638470
N -6.1376758422 0.7985757212 1.3677582829
C -6.2302796639 1.1384998548 2.6773030191
O -7.3143915647 1.2527175438 3.2715455016
C -4.9348659904 1.3158680828 3.3672075694
C -3.7815183117 0.9063937474 2.8219107312
C -3.7299659171 0.2700527360 1.4529124921
C -3.9315059592 -1.2465087711 1.6599692644
C -2.4030351289 0.5838964146 0.7047750974
C -1.1522887633 0.0350370320 1.4091510190
C 0.1471926430 0.4067697185 0.6767967706
C 0.1038753422 -0.0619562465 -0.7781857831
C 0.1591561496 -1.5954804699 -0.8557657524
C 2.5458201390 -0.1098280974 -1.5696192455
O 2.9707210211 -0.9990184695 -2.2980993713
N 3.2598568714 0.3671889462 -0.4859817228
C 4.4984186577 -0.1051764561 -0.0357851401
C 4.8165772800 -1.4612064534 -0.1230235685
C 6.0430892623 -1.9190704242 0.3445739884
C 6.9695265581 -1.0572522089 0.9194097147
C 6.6524607556 0.2911961243 1.0205195167
C 5.4390585535 0.7740856301 0.5411946148
C 5.1528893749 2.2471490983 0.6183833468
F 6.1532175058 2.9412804599 1.1920128927
F 4.0269729054 2.5144425467 1.3446436908
F 4.9483728321 2.7884495825 -0.6106907164
C 6.3256879462 -3.3896178934 0.2212307519
F 6.2933878097 -3.7971888727 -1.0744943773
F 5.3989420942 -4.1339617150 0.8794255817
F 7.5332311800 -3.7338244907 0.7145271268
H 1.2880568127 1.6066076443 -1.4563981071
H 1.0078878885 -0.4532944964 -3.6498733353
H 0.8251096645 1.2950406490 -3.7382663223
H -1.2815637005 -0.7556794314 -3.1886750414
H -1.5170438086 0.9495524030 -3.5681972173
H -1.0695720484 1.6284902242 -1.3093914335
H -2.5264530603 -0.9806971133 -0.7986516323
H -3.5629930462 1.7655777499 -1.6129814951
H -3.7147088529 0.2623293093 -2.5237879889
H -5.1705245832 -0.7061392732 -0.7508232778
H -5.8251200596 0.8461350836 -1.2843516594
H -4.6180232830 1.9915045997 0.5632071972
H -6.9992002457 0.7652981311 0.8388329494
H -4.9849062214 1.7209739721 4.3727606085
H -2.8650765361 0.9673994508 3.4041350695
H -3.2390595604 -1.6210275491 2.4187364233
H -3.7629775408 -1.8112087026 0.7396697706
H -4.9487889568 -1.4468343404 2.0078842994
H -2.3135006476 1.6830746054 0.6805271789
H -1.2248289281 -1.0550562809 1.4894771539
H -1.0925532118 0.4158417901 2.4338523368
H 0.2745410975 1.4987456784 0.6975334787
H 1.0009979524 -0.0325868609 1.2079026194
H -0.7051454550 -2.0619782738 -0.3788333286
H 1.0553525718 -1.9605518423 -0.3411315702
H 0.2028788186 -1.9496749043 -1.8888508323
H 2.8717467815 1.1742545138 -0.0196900183
H 4.0962970734 -2.1507934141 -0.5419201693
H 7.9211314250 -1.4209110584 1.2859692953
H 7.3650874375 0.9746143246 1.4652138545
