44
CONF20
C -1.1218118922 -2.3209782710 0.7074350096
C -1.0270199417 -0.8086530000 0.8945553705
C -1.9628642213 -0.1366286861 -0.1127873046
O -1.6315276693 0.2136645668 -1.2273344265
O -3.2001649314 -0.0611780791 0.3864170937
C -4.2648943778 0.4405836400 -0.5048987647
C -4.7470970949 -0.7018562589 -1.3782267407
C -5.3359078368 0.9938946892 0.4104188824
N 0.3390112121 -0.2768912488 0.7301811631
C 1.3219134857 -1.0069875922 -0.0118584745
C 2.0286473231 -2.0467883475 0.5893205440
C 2.9904261663 -2.7415749580 -0.1328118108
C 3.2427690182 -2.3800219267 -1.4450487857
C 2.5437847920 -1.3420766061 -2.0534438898
C 1.5698472962 -0.6583906054 -1.3388825570
Cl 2.8924903419 -0.9155160663 -3.7090954819
F 4.1856177279 -3.0429844064 -2.1398507082
C 0.4708547025 1.0709512576 0.9592132130
O -0.5014201595 1.7582470010 1.2846652302
C 1.8292205046 1.6782277658 0.8330616919
C 2.9463579284 1.1291094489 1.4686691481
C 4.1783549848 1.7692494649 1.3825895049
C 4.3057338718 2.9466763108 0.6477579024
C 3.1913929260 3.4979421054 0.0174656598
C 1.9526273843 2.8745540177 0.1217491162
H -0.8092370568 -2.6235258223 -0.2954930614
H -0.5083917230 -2.8417277140 1.4455292067
H -2.1627688815 -2.6198181984 0.8541686352
H -1.3689506842 -0.5454184569 1.8994333708
H -3.8259736068 1.2356604593 -1.1149464839
H -3.9338201866 -1.0992943840 -1.9908459275
H -5.5370422388 -0.3421374286 -2.0444286387
H -5.1556395407 -1.5061770087 -0.7581233623
H -4.9367458163 1.7938995076 1.0396643605
H -5.7407078577 0.2037712164 1.0505248778
H -6.1509842081 1.4014305781 -0.1944161263
H 1.8433676808 -2.2981218494 1.6273700980
H 3.5588247522 -3.5507549643 0.3124922107
H 1.0068708903 0.1415298236 -1.8047576859
H 2.8490743266 0.2135832020 2.0421618897
H 5.0403579091 1.3471286991 1.8894517308
H 5.2709244475 3.4375208487 0.5720221341
H 3.2868856350 4.4168535791 -0.5522587296
H 1.0776157242 3.3030243957 -0.3568090786
