37
CONF461
C 1.6172186755 -3.2819928586 -0.0672064791
C 0.2939163357 -2.5991919233 0.1682404319
O -0.0332751653 -1.8455137530 -1.0496662028
P -1.0841834673 -0.6597101494 -1.0349395955
O -1.3715258320 -0.1010256593 -2.3684011722
O -2.3137521502 -1.2395713825 -0.2026816526
C -3.6492602393 -0.6598322816 -0.3672887474
C -3.7682134385 0.6795410302 0.3254549055
O -0.4907936606 0.4330265272 0.0317246294
P 1.0032395184 1.0664217106 0.1315207066
O 2.0290520830 0.1216932308 0.6318748043
O 1.2152589185 1.6914446158 -1.3095692068
C 2.4916704609 1.5356390503 -2.0169533763
C 2.4668555251 0.2885856778 -2.8686659567
O 0.7320681967 2.3507685949 1.0341243135
C 0.8629196602 2.2553203906 2.4891424831
C -0.3008639186 1.5174777883 3.1142283091
H 1.8732528835 -3.8822741774 0.8113031667
H 2.4028912623 -2.5385957164 -0.2213711813
H 1.5650365807 -3.9429799445 -0.9367348218
H -0.5175865389 -3.3136184339 0.3377574023
H 0.3544279500 -1.9048853787 1.0119959611
H -4.3139680827 -1.4029424248 0.0783808606
H -3.8623713664 -0.5835195181 -1.4380187695
H -4.8055390758 1.0233658012 0.2614319513
H -3.4932336788 0.5967316336 1.3808413053
H -3.1309319297 1.4312709757 -0.1490237115
H 3.3068913804 1.5155042574 -1.2872638521
H 2.5747724389 2.4412448074 -2.6219215659
H 1.6187394910 0.3105307421 -3.5583182430
H 3.3929154476 0.2285203787 -3.4497458439
H 2.3894120342 -0.6061385118 -2.2445562816
H 1.8188712025 1.7749961971 2.7208893792
H 0.8975670419 3.2964741671 2.8168271707
H -0.2088806411 1.5638321366 4.2040814314
H -1.2509672468 1.9750179123 2.8244104036
H -0.3116298399 0.4643841912 2.8180974358
