48
CONF13
C -2.9414551315 1.8624842304 -1.5709171435
C -3.1457640057 1.1789897117 -0.2197432462
C -3.6031234531 2.1785305922 0.8794432312
C -4.6589848300 1.4008079505 1.6560821333
N -5.3393999151 0.6753114566 0.5813125460
C -4.2876612988 0.1027775367 -0.2441801199
N -3.6702385147 -1.1414895429 0.2919726632
C -2.3026516338 -0.9515573262 0.4436479171
C -1.9395762910 0.3776298941 0.2026213488
C -0.6248962999 0.7842115816 0.3347634321
C 0.3259440286 -0.1647117700 0.6995639431
C -0.0144034574 -1.4908930849 0.9184569686
C -1.3399553210 -1.9017230139 0.7864832889
O 1.6434584218 0.2755031016 0.8912491684
C 2.5932545013 -0.1971704592 0.0073893878
O 2.3705039512 -0.9473807117 -0.9118104363
N 3.7975931537 0.3425174710 0.3723269298
C 5.0489595898 0.1626789131 -0.2379660592
C 5.2499825861 -0.6483480234 -1.3596941554
C 6.5290470259 -0.7630872725 -1.8939914102
C 7.6108700123 -0.0894380021 -1.3371060754
C 7.4040918862 0.7157538962 -0.2205383111
C 6.1357319490 0.8429340183 0.3265896663
C -4.1417770925 -2.4304322491 -0.1874122100
C -6.3741645465 -0.2408244474 1.0269290384
H -2.1769042380 2.6428248455 -1.4945860536
H -2.6154341740 1.1430003601 -2.3278850867
H -3.8743339851 2.3301784640 -1.9033446335
H -2.7651155238 2.5077140625 1.4990675871
H -4.0618193247 3.0565882527 0.4129975495
H -5.3683857028 2.0436644618 2.1890352979
H -4.6822885251 -0.0976027170 -1.2527534275
H -0.3175621634 1.8084531185 0.1464350757
H 0.7584982490 -2.2048692002 1.1795141532
H -1.6032515395 -2.9402102125 0.9532931342
H 3.7695510599 0.9538615313 1.1736174970
H 4.4154519095 -1.1750003943 -1.7998125720
H 6.6750071064 -1.3943647603 -2.7648399971
H 8.6018865050 -0.1893490027 -1.7660508382
H 8.2338169411 1.2505622363 0.2303165916
H 5.9829318724 1.4738320935 1.1984745718
H -3.6142425968 -2.7549262279 -1.1002208869
H -4.0071453521 -3.2017298022 0.5796565955
H -5.2103878075 -2.3719553398 -0.4044340747
H -7.1285701804 0.3163193715 1.5925685806
H -5.9895620846 -1.0510424441 1.6725973177
H -6.8737707088 -0.6908648000 0.1608376017
H -4.1900885951 0.7187967602 2.3914330867
