43
CONF76
C 3.7400974633 -2.0277458936 1.4905281985
C 3.3167601629 -0.6663982673 2.0005107016
O 2.2431027887 -0.0979515830 1.2072713146
N 1.0742522059 -0.7924519791 1.4596767435
C 0.0972560166 -0.4336658661 0.7187675373
C -1.1819516606 -1.1593153784 0.7761360666
C -1.2287993023 -2.5665307920 0.6397236512
C -2.4585890113 -3.2264337234 0.6953038169
C -3.6280203041 -2.5048758600 0.8991856855
C -3.5900499422 -1.1253127270 1.0292636253
C -2.3742181473 -0.4383189394 0.9486533486
O -2.2908661606 0.9118349595 1.1275230147
C -2.7444609432 1.7101167231 0.0058658304
Cl -5.0721675872 -0.2553589144 1.3804373423
O -0.0514919757 -3.1964258367 0.4279777088
C -0.0737795836 -4.6181217732 0.2282837237
O 0.1952927516 0.5294089646 -0.2780292202
C 0.5038861949 1.8297617136 0.0716357269
O 0.5613030433 2.2105366829 1.2147563242
C 0.7004967806 2.6710715848 -1.1279151040
C 0.6516615599 2.1509955499 -2.4268299097
C 0.8382953081 2.9952430964 -3.5149782005
C 1.0729808062 4.3544043881 -3.3150489148
C 1.1228282619 4.8738470009 -2.0218542122
C 0.9377630256 4.0365070620 -0.9302142092
H 4.0440964661 -1.9703048916 0.4410427657
H 4.5898218530 -2.3893308962 2.0784478485
H 2.9241273871 -2.7496759455 1.5849165213
H 2.9980234110 -0.7030071784 3.0482797261
H 4.1202952644 0.0682792610 1.8989118163
H -2.5214711472 -4.3011437632 0.5883925189
H -4.5767020737 -3.0255849410 0.9680556204
H -2.5035037897 2.7427807790 0.2627368847
H -3.8226303165 1.6070455044 -0.1430822781
H -2.2117996123 1.4157726019 -0.9045182859
H 0.9648766026 -4.9011559383 0.0579801723
H -0.4558318657 -5.1317204230 1.1173205506
H -0.6785099123 -4.8820036021 -0.6466425144
H 0.4699313107 1.0946001519 -2.5833883580
H 0.8011577493 2.5921878483 -4.5217279949
H 1.2176248796 5.0100291017 -4.1679788326
H 1.3056293832 5.9320617810 -1.8664751539
H 0.9732826013 4.4263509454 0.0810985035
