38
CONF68
F -1.8925270838 1.2724682698 0.5279179705
C -1.4712233228 -0.0098890350 0.4649881045
F -1.2720121854 -0.4642566656 1.7206244142
C -0.1459687307 -0.0931963094 -0.3534660124
F 0.0307134781 -1.3731583368 -0.7449059565
F -0.2643693038 0.6995289753 -1.4406946922
C 1.1147449305 0.3602756468 0.4644360377
F 0.7890333121 1.4637644037 1.1783262917
F 1.4586723472 -0.6320373084 1.3147996627
C 2.3505840079 0.7007708879 -0.4396233549
F 2.4461251062 -0.2246785974 -1.4200389396
F 2.1575557217 1.9174913901 -0.9977458236
C 3.7041263792 0.7209880096 0.3492842125
F 3.5242319100 1.3445831575 1.5373090620
F 4.1009173310 -0.5495454094 0.5700710630
C 4.8642844479 1.4567989974 -0.3982571865
F 4.9689075072 1.0046267782 -1.6556143755
F 4.6600678796 2.7778146024 -0.4212481517
F 6.0131325641 1.2139618067 0.2467283406
S -2.8965558155 -1.0345842341 -0.3162942614
O -2.6845603275 -2.4052809329 0.1558281527
O -2.9022465701 -0.6615239184 -1.7285401672
N -4.2621768313 -0.4527943459 0.4042734762
C -4.6300736150 -0.9103957309 1.7658592159
C -5.6075159022 -2.0893633386 1.7844066243
O -4.9828568962 -3.3554405776 1.6968684675
C -4.8712058565 0.7988620173 -0.0957534035
C -6.3605913773 0.6357879022 -0.3673106111
H -3.7352105801 -1.1864064627 2.3336337420
H -5.0800402562 -0.0446872703 2.2665197363
H -6.1322002616 -2.0775466081 2.7474256607
H -6.3585512311 -1.9526853252 0.9900423569
H -4.6952593334 1.5951556601 0.6404765795
H -4.3563653597 1.0771812455 -1.0175624819
H -6.7593607834 1.5770513680 -0.7573744262
H -6.5355236247 -0.1492494024 -1.1076977363
H -6.9187698270 0.3904098977 0.5408479844
H -4.3283193968 -3.3278182002 0.9846012770
