33
CONF4
C -2.9079483524 -0.2670751752 -1.4682870922
C -3.1693934521 0.4460851020 -0.1417726231
C -4.6553938162 0.4014965547 0.2157028135
C -2.3344084771 -0.1663085176 1.0028913514
C -0.8495050318 -0.0674864643 0.7801126787
C -0.1898460997 1.1570385974 0.9252450739
C 1.1760662633 1.2702676771 0.6840514960
C 1.9251159332 0.1574677899 0.2979355285
C 1.2730364850 -1.0693881005 0.1528499019
C -0.0940764851 -1.1769725685 0.3895817687
C 3.4224360600 0.2718224106 0.0568975897
C 4.2399390016 -0.5501602975 1.0529079476
C 3.7171587175 -0.1419467655 -1.3724656044
O 4.2567950029 -1.1740892128 -1.7136566547
O 3.2786315370 0.7817357770 -2.2547568498
H -1.8541819970 -0.2050703460 -1.7580613789
H -3.5086087674 0.1734191122 -2.2708651513
H -3.1740787413 -1.3285418310 -1.3885000076
H -2.8677293264 1.4981320193 -0.2467997509
H -5.2613766956 0.8634579157 -0.5707174081
H -4.8543097179 0.9281071467 1.1552120416
H -4.9887565988 -0.6370081479 0.3317239235
H -2.5969798257 0.3479210348 1.9360211187
H -2.6207386009 -1.2194171663 1.1193666951
H -0.7536810847 2.0339923239 1.2339372830
H 1.6680815669 2.2318257608 0.8039971929
H 1.8348833734 -1.9494365245 -0.1495981897
H -0.5855031302 -2.1387328035 0.2669852394
H 3.6927045862 1.3304161684 0.1405019901
H 3.9893653045 -1.6115039498 0.9823374075
H 4.0250319964 -0.2086132128 2.0688086837
H 5.3107487801 -0.4357066772 0.8622304590
H 3.4565209993 0.4542723701 -3.1530960971
