32
CONF1
C 5.6871669374 -0.3166091904 -0.3944467859
C 4.9073229343 -1.3766182013 -0.8484948801
C 3.5209582904 -1.3004678418 -0.7923562779
C 2.8847297829 -0.1621115739 -0.2801260316
C 3.6815111729 0.8972111205 0.1737202059
C 5.0677881519 0.8205303956 0.1166889384
C 1.4125045838 -0.0807501880 -0.2196245846
C 0.7658968937 0.5017628510 0.8776636600
C -0.6175757729 0.5776149676 0.9355339540
C -1.4127618817 0.0771961067 -0.1031142752
C -0.7661554962 -0.5040376388 -1.2010786302
C 0.6173057334 -0.5830428178 -1.2573433580
C -2.8848725469 0.1602997669 -0.0419360636
C -3.5668039572 -0.0564356114 1.1626413580
C -4.9528807319 0.0231237222 1.2203346834
C -5.6868012594 0.3212614323 0.0756560919
C -5.0218085101 0.5386146352 -1.1278529896
C -3.6357593060 0.4586698918 -1.1865161112
H 6.7697229631 -0.3762938732 -0.4386093779
H 5.3813352470 -2.2715761317 -1.2391824051
H 2.9206969162 -2.1430951924 -1.1211758836
H 3.2060565234 1.7991015649 0.5465165269
H 5.6672790632 1.6562974904 0.4636847470
H 1.3577625375 0.8826420429 1.7042130620
H -1.0923586352 1.0493916962 1.7902438256
H -1.3590803067 -0.9164580815 -2.0115808733
H 1.0931288276 -1.0233460797 -2.1281151619
H -3.0040740934 -0.3182211881 2.0532570099
H -5.4632395605 -0.1584094827 2.1609941606
H -6.7691527023 0.3836540508 0.1210981371
H -5.5847567364 0.7814882585 -2.0236027509
H -3.1230852615 0.6586133991 -2.1222464200
