53
CONF27
C -5.4037080631 -1.2982866821 -0.3113961714
O -4.0653732577 -0.7389281110 -0.1904172448
C -3.6357055070 -0.0367960030 -1.2394874868
O -4.2518156214 0.1352716974 -2.2655811540
C -2.2514721632 0.5928567926 -0.9591907600
C -2.4422636311 1.7344991541 0.0731852074
C -2.1278007622 1.0575678945 1.3864420481
C -1.4341097623 -0.1454830737 1.1841989170
C -1.2834031738 -0.3352686028 -0.2478122158
N -0.3008857783 -0.9471717519 -0.8060125984
N -0.1922356924 -0.8119887252 -2.1633575209
C -1.2324432681 -0.1028825534 -2.9189074364
O -1.6710649300 1.0317424275 -2.1744880934
C 1.0029877074 -1.1243607911 -2.7814197481
O 1.0931918961 -1.2161147303 -3.9926571118
N 2.1081338170 -1.2779873583 -1.8966575961
C 2.3247273581 -0.2790087908 -0.8904342444
C 2.1853842786 1.0622089856 -1.2369572486
C 2.2795119650 2.0438568841 -0.2558704396
C 2.5389498324 1.6550749010 1.0469784079
C 2.7285332854 0.3261994557 1.4022650768
C 2.6057519290 -0.6491010928 0.4235895014
O 2.6817361683 2.6586205871 2.0333611061
C 1.5677897437 2.9540359412 2.7397400621
F 1.1221737824 1.9119709443 3.4794242582
F 0.5341344012 3.3402407172 1.9560568053
F 1.8642907074 3.9596458308 3.5705158243
C 3.0673816851 -2.2464398475 -2.2170584396
O 2.8483882575 -3.2145964590 -2.9121341747
O 4.2406543308 -1.9589460931 -1.6353769097
C 5.2733183633 -2.9596071725 -1.8239661912
C -0.9743854914 -0.9036405753 2.2565520826
C -1.2299036016 -0.4557460639 3.5476314430
C -1.9291737820 0.7372859262 3.7291978309
C -2.3872089174 1.5148777572 2.6675237088
Cl -2.2324083252 1.2916678836 5.3686280145
H -5.5793835213 -1.8198410368 0.6276911181
H -6.1288251699 -0.4942256723 -0.4529278202
H -5.4392784248 -1.9905345616 -1.1549564716
H -1.6997817179 2.5122943640 -0.1431259341
H -3.4364237725 2.1870827057 0.0370361789
H -0.8019305750 0.2561540886 -3.8529038887
H -2.0709236746 -0.7817746519 -3.1196302416
H 1.9873931264 1.3427246852 -2.2668108228
H 2.1612373150 3.0935307692 -0.4997191612
H 2.9440356723 0.0610571589 2.4310875220
H 2.7037497175 -1.6973734894 0.6822386723
H 4.9422684926 -3.9204115511 -1.4237178741
H 6.1325506752 -2.5856409668 -1.2693015555
H 5.5105459437 -3.0570318532 -2.8854457442
H -0.4373729527 -1.8320122760 2.0931301461
H -0.8954420492 -1.0252111519 4.4070027918
H -2.9140982625 2.4459443379 2.8442452637
