42
CONF38
C 3.7480801182 -2.0281968947 1.4210826876
C 3.5164582571 -0.7073945594 0.7692905652
N 2.3068717480 -0.1399716870 0.9215791850
C 2.1592102086 1.0507788496 0.3288449615
N 3.0963121101 1.6884252328 -0.3851381920
C 4.2479342618 1.0247375975 -0.4677854420
N 4.5233082870 -0.1681300833 0.0824474132
O 5.2600779215 1.5497759940 -1.1498211223
C 5.0559035623 2.8426985263 -1.7736967367
N 0.9581155559 1.7157572294 0.4324386074
C -0.2367969953 1.3729678477 1.0780515133
O -1.2114187757 2.1006974784 0.9773967482
N -0.2024062355 0.2085727754 1.8072873048
S -1.6210768228 -0.5050432378 2.4320782717
O -1.1623138266 -1.8210320307 2.8932832499
O -2.2323203033 0.4207478565 3.3891886117
C -2.7155472889 -0.6641247848 1.0322953398
C -3.9722787714 -0.0736853776 1.1117491523
C -4.8648881999 -0.2115048418 0.0562915626
C -4.4803826837 -0.9283697726 -1.0731467810
C -3.2199726503 -1.5109414216 -1.1663348916
C -2.3169879260 -1.3887252163 -0.1074008590
O -1.0675890438 -1.9024620548 -0.1021873990
C -0.6495291926 -2.6931456368 -1.2264628108
C 0.7391182634 -3.1914829212 -0.9436128520
Cl 0.7514227295 -4.3841007946 0.4420570652
H 2.8359616881 -2.3990261115 1.8881652189
H 4.5316910011 -1.9245002955 2.1790635839
H 4.1087641153 -2.7488313839 0.6811360614
H 4.2501051360 2.7853905810 -2.5087292021
H 6.0041696494 3.0683071798 -2.2593107342
H 4.8208981788 3.5947678485 -1.0173929857
H -4.2383474866 0.4890329138 1.9988744432
H -5.8473108984 0.2427047326 0.1151683632
H -5.1681866293 -1.0364107745 -1.9057129318
H -2.9473153018 -2.0528780203 -2.0631158510
H -0.6115637388 -2.0679509415 -2.1299418944
H -1.3472437182 -3.5231102139 -1.3859482802
H 1.1312261544 -3.7151542868 -1.8167717431
H 1.4062587953 -2.3749097167 -0.6613052611
H 0.6274656924 -0.3943719209 1.6988738437
H 0.9097964012 2.6011430684 -0.0563990653
