45
CONF80
O -0.8404351690 0.0918114093 -2.7981431893
C -2.1216726725 -0.5147214520 -2.7820529053
C -2.7141389245 -0.6090979078 -1.3907531141
O -1.8819536971 -1.4917660417 -0.5755366165
C -1.5996472225 -0.8893689104 0.6689014828
C -1.6748952920 -1.9341006549 1.7764153803
O -1.4616732807 -1.3141542582 3.0382749051
O -0.3162999631 -0.2424708922 0.6759340880
C 0.7955736820 -1.0105174457 0.2828853906
O 1.3213233537 -0.5429182130 -0.9541448822
C 1.7525989100 0.8433555475 -0.9463720942
C 2.3147665476 1.1090388662 -2.3356735890
O 3.4101980229 0.2525537758 -2.6404782992
C 2.7944681116 1.0734797115 0.1527851222
O 3.1437185370 2.4576792015 0.2586414283
C 2.3027806011 0.5490442047 1.4936885543
O 3.3258212438 0.5869639636 2.4884719679
C 1.8836578613 -0.9008418137 1.3499264335
O 1.3817826137 -1.4326192947 2.5776065353
C -2.6450576537 0.2293477974 0.8213223546
O -2.3044049123 1.2904291901 1.6827957067
C -2.7951522122 0.7032762913 -0.6159291521
O -4.0345449564 1.3331605208 -0.9057014742
H -0.2611138326 -0.4082784531 -2.1997708015
H -2.7828540157 0.1080422900 -3.3953174202
H -2.0940098649 -1.5224791496 -3.2255975987
H -3.7217609315 -1.0455092072 -1.4539121962
H -0.9598030383 -2.7503272242 1.5973943683
H -2.6809811656 -2.3646296628 1.7782781555
H -0.5021105473 -1.1639678045 3.0933484689
H 0.5240630464 -2.0558106529 0.0998437085
H 0.8762800496 1.4899750546 -0.7751601509
H 2.6990402484 2.1328030821 -2.3630872150
H 1.5091586087 1.0160017298 -3.0763604847
H 3.0687417802 -0.6494631882 -2.6452469278
H 3.7218893112 0.5580603647 -0.1214729343
H 2.3357512596 2.9541596019 0.4470644387
H 1.4275121600 1.1371705331 1.8201502718
H 3.7168213743 1.4696110966 2.4613054676
H 2.7494075998 -1.4919318625 1.0141123509
H 2.0345107330 -1.2163130834 3.2570332370
H -3.5932051212 -0.2468677390 1.1249567834
H -2.1100126464 0.8902265258 2.5423632617
H -1.9443692774 1.3506968271 -0.8730256795
H -4.0497682484 2.1712674214 -0.4297629463
