45
CONF14
C 2.0929476961 0.7721143744 -4.1889700916
C 2.5960042631 1.0359629400 -2.7781392702
C 1.4353834131 1.5038996667 -1.8942051082
O 1.0802789862 2.6792605697 -1.9021965073
N 0.8296535144 0.5301332493 -1.1682395211
C -0.2359598443 0.7999904888 -0.2580925683
C -1.6025632986 0.0505951857 -0.4133020078
N -1.3895636282 -0.5178062396 0.9255305694
C -0.1817364028 0.1378075730 1.1380379256
O 0.5728882898 0.1564193585 2.0811149913
C -2.5265113022 -0.6159110707 1.8131605308
C -3.4153547487 0.6506619695 1.5194191180
S -3.1975664190 0.9657083119 -0.3204728567
C -4.8970852714 0.4386849229 1.8102069823
C -2.8734482068 1.8332112796 2.3229074392
C -3.2894264424 -1.9229608042 1.6631068422
O -3.8740469753 -2.4562399757 2.5796874383
O -3.2633614109 -2.3963238169 0.4072577373
O 3.1879291586 -0.1855243834 -2.3130090545
C 3.9352514500 -0.1497587302 -1.1578033690
C 4.1343314002 0.9912084220 -0.3788671443
C 4.9049581401 0.8945802745 0.7806706414
C 5.4708173696 -0.3151771518 1.1669242458
C 5.2621973480 -1.4479235533 0.3789750900
C 4.4984239957 -1.3711019612 -0.7776900475
H 2.9314704641 0.5012824742 -4.8348827638
H 1.3626056772 -0.0421194608 -4.1860291778
H 1.6188714138 1.6742329979 -4.5826654551
H 3.3409868550 1.8405724071 -2.7858987088
H -0.3732782567 1.8819740233 -0.1695959215
H -1.6384297772 -0.6814639004 -1.2238863494
H -2.1821837417 -0.5721408794 2.8509288821
H -5.3210678070 -0.3755307470 1.2169585389
H -5.4533792571 1.3533267698 1.5875900150
H -5.0310929721 0.2102644820 2.8726211930
H -1.8046616128 1.9890135018 2.1517907033
H -3.3990956553 2.7483917945 2.0391361890
H -3.0326752475 1.6540562693 3.3924918365
H -3.7849532787 -3.2175727523 0.3767605331
H 3.7021097896 1.9481443917 -0.6466205482
H 5.0547774994 1.7837872145 1.3851750327
H 6.0660419608 -0.3781462983 2.0716502092
H 5.6967179058 -2.4003128880 0.6667831193
H 4.3277014000 -2.2448685517 -1.3982943303
H 1.2028849183 -0.4082670589 -1.2229143787
