45
CONF166
C 2.5079804032 -2.5771887820 0.7038421484
C 2.0774620768 -1.9419681114 2.0237347754
C 2.6670426980 -0.5440171359 2.2580328574
C 2.3722931238 0.4703662855 1.1559148745
N 0.9363766108 0.6868357491 1.0284618656
C 0.3872736996 1.2734206859 -0.0819683420
C -0.9978506367 1.1534959182 -0.3349037375
C -1.5810609561 1.7804433754 -1.4294731782
C -0.8312002279 2.5495665983 -2.3077206905
C 0.5396430032 2.6649031339 -2.0755405181
C 1.1428737341 2.0343855020 -0.9860000315
C 1.3261687580 3.4849871515 -3.0290850161
O 0.8651052175 4.0733540652 -3.9802126444
O 2.6543101598 3.5152866185 -2.7266922331
S -3.3383424908 1.5188141652 -1.7702795761
O -3.6902805628 2.3904628680 -2.8902935459
O -3.5651482552 0.0734573102 -1.7965790596
N -4.1903417847 2.1074015007 -0.4323264583
O -1.7964662456 0.4851328010 0.5740415965
C -1.6518709365 -0.8960570809 0.6795864931
C -2.0512832852 -1.4613424849 1.8862244878
C -1.9397280472 -2.8369960593 2.0555876031
C -1.4259649222 -3.6329885262 1.0351053976
C -1.0352275114 -3.0461574337 -0.1650014837
C -1.1483401777 -1.6730673694 -0.3564138055
H 2.1042782506 -2.0312540489 -0.1548134136
H 3.5997614564 -2.5974598168 0.6108681041
H 2.1419280658 -3.6052762049 0.6322554691
H 2.3883765328 -2.5813477075 2.8583301225
H 0.9804578816 -1.9185618713 2.0696101705
H 3.7575572426 -0.6248417586 2.3420219113
H 2.3083094481 -0.1461060104 3.2159751730
H 2.7944495056 0.1191801034 0.2009277782
H 2.8711296156 1.4199769284 1.3955268443
H 0.3576326077 0.0006945614 1.4869263977
H -1.2926586626 3.0330896489 -3.1596334482
H 2.2054013554 2.1581663780 -0.8257794636
H 3.0678011320 4.0721926740 -3.4037850851
H -4.0677589165 3.1124884375 -0.3451915617
H -3.8979932836 1.6229745665 0.4127744876
H -2.4424709455 -0.8220803451 2.6705844746
H -2.2521267891 -3.2854228309 2.9929913186
H -1.3373764374 -4.7051152551 1.1719475196
H -0.6468319962 -3.6612392810 -0.9701598554
H -0.8732892062 -1.2125887268 -1.2985577172
