52
CONF602
C -0.4350504516 1.2691647474 -3.9201007693
C -0.3188868792 -0.2032210196 -4.3150250491
C 0.4420247485 -1.0512272803 -3.2905877340
C -0.2419449164 -1.1058613889 -1.9241815828
C 0.3765031780 -2.1085091863 -0.9381453435
C 1.8492389071 -1.7885591389 -0.6396481043
C 2.5111218096 -2.7121520797 0.3815998978
C -0.4732252273 -2.1955547713 0.3210118906
O -0.5397441514 -0.8756037701 0.9421336267
P -0.3056832826 -0.6632067718 2.5058474721
O 0.4379839175 -1.7170879648 3.2167743555
O 0.2998921925 0.8355558282 2.5227315551
C 1.4447039823 1.1105584309 1.7670926571
C 1.3043750447 1.9239956256 0.6510983652
C 2.4327114960 2.2262879117 -0.1038408736
C 3.6769070309 1.7139155095 0.2568169604
C 3.7941299453 0.9025764771 1.3819002732
C 2.6751859905 0.5952597125 2.1511924985
O -1.7486797380 -0.3939176770 3.1644923045
C -2.6536332192 0.5106113551 2.5969116235
C -3.5584242757 0.0543942991 1.6484615217
C -4.4919111970 0.9443484691 1.1269677594
C -4.5148717323 2.2690038660 1.5544897624
C -3.6015648044 2.7050348770 2.5105690106
C -2.6615872947 1.8260038131 3.0393921830
H 0.5545702770 1.6957585773 -3.7190664975
H -0.8982289443 1.8574513063 -4.7180286512
H -1.0422421862 1.3995638642 -3.0192525713
H 0.1914933832 -0.2772592546 -5.2831116300
H -1.3223823231 -0.6243568034 -4.4626781775
H 1.4555337773 -0.6438412667 -3.1854422296
H 0.5544672171 -2.0727448229 -3.6796740336
H -0.2230967606 -0.1143947952 -1.4569774337
H -1.3023191075 -1.3606853561 -2.0702109799
H 0.3269392797 -3.1159075388 -1.3841299606
H 1.9235761435 -0.7478590586 -0.3017247100
H 2.4045543591 -1.8442299011 -1.5820164524
H 2.1038108781 -2.5731610494 1.3874728558
H 2.3847715057 -3.7656467394 0.1046719925
H 3.5852871207 -2.5102278665 0.4349642518
H -0.0698429602 -2.9123916161 1.0421748507
H -1.5029944362 -2.4775738587 0.0715578113
H 0.3209393213 2.2964415278 0.3856350236
H 2.3364239949 2.8594268854 -0.9798987392
H 4.5536262574 1.9480641896 -0.3374993948
H 4.7618624828 0.5025716617 1.6664406950
H 2.7399972882 -0.0439017954 3.0248340358
H -3.5263846339 -0.9829392003 1.3345867642
H -5.2053183556 0.5982448103 0.3862121231
H -5.2459468000 2.9589162965 1.1467668922
H -3.6189372461 3.7353962310 2.8505085267
H -1.9397296262 2.1434754773 3.7828278915
