41
CONF46
C -4.2372592313 1.8488327909 -2.3227223548
C -4.0152797161 2.1680515483 -0.8453670239
N -3.5918894251 0.9962682983 -0.0687741364
C -4.6867672914 0.2126636225 0.5067155887
C -5.1625039666 0.7305884486 1.8541049011
O -4.1196422088 0.5423138038 2.8146469863
C -2.2907936440 0.6138122322 0.0010141310
C -1.8690685474 -0.4838482589 0.8016632255
C -0.5472802194 -0.8536739878 0.8447479380
C 0.4410913971 -0.1645166752 0.1108484747
C 0.0332991336 0.9341112780 -0.6813615272
C -1.2835376458 1.3113191927 -0.7355846131
N 1.7294508903 -0.6284910850 0.2422686934
N 2.6253284298 -0.0102305491 -0.4288709218
C 3.9205939086 -0.5041160037 -0.2460396709
C 4.2818342901 -1.5292840977 0.6536450559
C 5.5979913610 -1.9298841546 0.7556665283
C 6.5666802686 -1.3101877608 -0.0403446539
C 6.2363087257 -0.2924866227 -0.9359588199
C 4.9167361223 0.1053184595 -1.0311404882
N 7.9521109949 -1.7343477164 0.0706361831
O 8.2262520219 -2.6353535554 0.8675554026
O 8.7932599456 -1.1775872931 -0.6394691468
H -4.5761270596 2.7470960567 -2.8474091054
H -5.0013521269 1.0747439420 -2.4417380025
H -3.3163578830 1.4980945780 -2.7967008600
H -4.9485143522 2.5274808182 -0.4004709387
H -3.2861486386 2.9729710186 -0.7190187174
H -4.4001083766 -0.8386062621 0.5861016966
H -5.5318728312 0.2584751142 -0.1901546507
H -5.4321966469 1.7936049614 1.7743277961
H -6.0652092521 0.1671530662 2.1337198061
H -4.4021727059 0.9488499885 3.6424890961
H -2.5805783452 -1.0172198955 1.4156842225
H -0.2377478413 -1.6882609698 1.4667907047
H 0.7710362608 1.4796628410 -1.2581937477
H -1.5518702584 2.1479248309 -1.3672877349
H 3.5215101917 -1.9969575524 1.2665914919
H 5.8877011266 -2.7140601695 1.4440802738
H 7.0052845357 0.1719293156 -1.5399740362
H 4.6278096202 0.8950049182 -1.7167175221
