42
CONF190
C -6.8050967168 0.4273949117 2.6681866601
C -5.8467707040 1.1473118446 1.7224870926
C -4.5796749570 0.3473346804 1.4799795272
O -4.8200294667 -0.8744617194 0.7833163207
C -4.5480814576 -0.6082987245 -0.6006501755
C -3.3725339625 0.3585592651 -0.5179084027
O -3.6717294445 1.1138770292 0.6672831198
C -2.0485622438 -0.3712071864 -0.3938653472
O -1.0273410087 0.6211752467 -0.2342418996
C 0.2599052511 0.1902115853 -0.0914303413
C 1.2182611842 1.1969406236 0.0857847032
C 2.5553823623 0.8682979665 0.2386651671
C 2.9406465555 -0.4709338178 0.2065918677
C 2.0016096755 -1.4738896742 0.0328918198
C 0.6514480592 -1.1497249149 -0.1130878607
O 4.2674794738 -0.8309127584 0.4300315074
C 5.2205452484 -0.4171330246 -0.4783927722
C 4.9139464781 -0.0294650894 -1.7823128114
C 5.9496859785 0.3335262237 -2.6411769610
C 7.2746784325 0.3085578187 -2.2130168196
C 7.5641650786 -0.0881477581 -0.9075176958
C 6.5430349932 -0.4492682627 -0.0356547902
H -7.6988277203 1.0312466805 2.8475930999
H -6.3284994182 0.2345849348 3.6356034613
H -7.1226816508 -0.5320335732 2.2492252690
H -5.5499351078 2.1151068305 2.1438252264
H -6.3228510842 1.3451807470 0.7543976294
H -4.0914559677 0.0802357438 2.4289898900
H -4.3120861969 -1.5567018649 -1.0889136669
H -5.4088331401 -0.1388805452 -1.0943658131
H -3.3396020698 1.0570896553 -1.3604564409
H -1.8687676109 -0.9561881707 -1.3069329313
H -2.0634082805 -1.0463987920 0.4727892411
H 0.8963375740 2.2330244056 0.1090061745
H 3.3007731956 1.6444321484 0.3812734439
H 2.3210452041 -2.5108023940 0.0135870085
H -0.0692411341 -1.9470166273 -0.2457274244
H 3.8847311565 -0.0133999121 -2.1231261542
H 5.7113658962 0.6338579820 -3.6570409675
H 8.0740707865 0.5937021503 -2.8888028348
H 8.5926142575 -0.1123276853 -0.5604358573
H 6.7542837290 -0.7564040795 0.9835497911
