52
CONF17
C -2.4987974413 -0.5142508797 0.9400274556
C -1.9248437786 -1.3094186029 -0.1947067809
C -1.1371280002 -2.3777461800 -0.0170190164
C -0.7748319683 -2.9429653820 1.3043473697
C 0.3631792193 -2.3210685343 2.1616288465
C 0.4888694373 -3.7071557210 1.5411018558
C 1.4536775099 -3.9574364758 0.4043667650
C 0.4259053734 -4.8477009610 2.5362004297
C 1.0358985713 -1.1247202307 1.6328623261
O 1.4384788778 -0.9466677195 0.5031073591
O 1.1166971279 -0.1697939972 2.6086948119
C 1.6176460258 1.1223889749 2.1668793995
C 0.5196153759 1.9358289963 1.5369804747
C 0.3836639546 1.9806839148 0.1496231478
C -0.6582836587 2.7143589212 -0.4121100736
C -1.5728566065 3.3920002528 0.3888053996
C -1.4369112351 3.3326998944 1.7713359387
C -0.3939892595 2.6151692698 2.3466626500
O -0.8920184611 2.7434293827 -1.7725521888
C 0.1802110316 2.7043856133 -2.6461496613
C 1.3187196569 3.4813515219 -2.4471941444
C 2.3298223801 3.4535462812 -3.4010679850
C 2.2050905305 2.6680923080 -4.5445192892
C 1.0559652492 1.9058249114 -4.7326604234
C 0.0395330523 1.9169568589 -3.7831826853
C -2.2545797698 -0.7953869035 -1.5644471215
H -2.2439929170 -0.9286231469 1.9172524589
H -2.1241417491 0.5168444755 0.9030909569
H -3.5913032881 -0.4533165280 0.8583104705
H -0.7264914812 -2.8715802473 -0.8947737088
H -1.6177901494 -3.2430127289 1.9257620921
H 0.1745440780 -2.2860167602 3.2294957640
H 2.4600860657 -4.1312165789 0.8001883665
H 1.5060735222 -3.1194614823 -0.2884198379
H 1.1471774655 -4.8579353844 -0.1404876301
H -0.2843812277 -4.6430788997 3.3431750474
H 0.1109635176 -5.7692373350 2.0338242734
H 1.4098284703 -5.0250602002 2.9841942944
H 1.9764235955 1.5972868969 3.0828307521
H 2.4487595629 0.9713091149 1.4733663665
H 1.0684143858 1.4254510812 -0.4810026935
H -2.3761578904 3.9488346218 -0.0807963803
H -2.1464881803 3.8598304002 2.4008903195
H -0.2882820028 2.5743505457 3.4264500207
H 1.4056544938 4.0967698526 -1.5583104081
H 3.2184876887 4.0584186512 -3.2515132869
H 2.9978154166 2.6527077084 -5.2845467982
H 0.9492247666 1.2913006127 -5.6207362380
H -0.8619267904 1.3275708314 -3.9096151577
H -3.3395104468 -0.7888976638 -1.7303258929
H -1.7868380991 -1.3983679402 -2.3469200858
H -1.9148801069 0.2427254042 -1.6731334306
