41
CONF17
C -3.9680550317 -0.4368965624 3.0118932819
C -3.4530215232 -1.7237203237 2.8868297045
C -3.0895588106 -2.2143081041 1.6364953858
C -3.2281889246 -1.4225546632 0.4916470990
C -3.7685277598 -0.1404487317 0.6286424043
C -4.1332517942 0.3518487873 1.8779268901
C -2.7706585032 -1.9267529286 -0.8513901465
C -1.2645701781 -1.7389563157 -1.0997990015
N -0.9226887282 -0.3115032036 -1.0796945761
C 0.3347056520 0.1543331762 -0.8102535554
C 1.4352373486 -0.6883867480 -0.5661771335
C 2.6918292427 -0.1730311658 -0.2881197885
C 2.9139296918 1.1976543440 -0.2739332345
C 1.8260694304 2.0658928007 -0.5121551457
C 0.5701083606 1.5413577390 -0.7608957362
C 1.9354659848 3.5792215239 -0.4914542050
F 0.8538355245 4.1567595472 -1.0711383608
F 3.0107606861 4.0196501267 -1.1933119005
F 2.0160593304 4.0687467490 0.7532548519
S 4.6202837590 1.7003221275 0.1147528943
O 5.3057446778 0.4793352350 0.5396475521
O 4.5719079194 2.9027720067 0.9396269816
N 5.3672590798 2.1367946359 -1.3367603429
S 1.1848549755 -2.4580294813 -0.5127933355
O 1.9118411248 -3.0126458422 0.6263741705
O 1.3251229225 -3.0046835603 -1.8634251657
N -0.4799598631 -2.5140862095 -0.1388161079
H -4.2526036693 -0.0559837242 3.9869426371
H -3.3407995692 -2.3521814392 3.7643257815
H -2.7103646568 -3.2285780552 1.5443109937
H -3.9372781634 0.4705812794 -0.2559986959
H -4.5552949222 1.3478353408 1.9640545171
H -2.9747602325 -2.9959388289 -0.9564206599
H -3.3068351598 -1.4101800894 -1.6557852988
H -1.0240784773 -2.1510344319 -2.0882367788
H -1.6784173444 0.3358423815 -0.9181021163
H 3.5087244185 -0.8468068933 -0.0516150671
H -0.2605738125 2.2140004066 -0.9405444082
H 4.9186653064 2.9351845498 -1.7737061908
H 5.4332692792 1.3439286604 -1.9677753327
H -0.6161853685 -2.1953542214 0.8222166210
