51
CONF14
C 5.7620871409 0.3958216016 2.0172308596
C 5.0865068047 -0.9304568649 2.2366954277
C 5.6753363568 -1.9853785435 2.8541417097
C 7.0604111148 -2.0712235388 3.4007970649
O 7.9178973534 -2.8957319479 2.5689785114
C 3.7259654491 -1.0850054213 1.7627623282
C 2.9860935344 -0.1294939799 1.1375924248
C 1.6467528233 -0.3570505584 0.6933057248
C 0.8188457406 0.5235494804 0.0483228157
C 1.2176399031 1.9298453054 -0.2988503882
C -0.5037760904 0.0726465970 -0.3171048273
C -1.4453861980 0.8217068801 -0.9418010446
C -2.7901047320 0.3848367174 -1.3093905177
C -3.0530324550 -0.8465766652 -1.8186202214
C -2.0034404781 -1.8417855208 -2.2312117829
C -4.4534736744 -1.3403009617 -2.0736514223
C -5.5277145330 -0.4902997639 -1.4119224696
C -5.2304041754 0.9740395235 -1.6948111095
C -3.8956896389 1.4326114828 -1.0814104583
C -3.5266222789 2.7724316411 -1.7487469771
C -4.0619672950 1.6742810261 0.4304398273
H 6.7937298991 0.4021057348 2.3668274539
H 5.7633310352 0.6496570358 0.9515437466
H 5.2204626022 1.1952760420 2.5352590701
H 5.0889027263 -2.9008462277 2.9470584442
H 7.5525141643 -1.0986723544 3.4478458888
H 7.0347978841 -2.4855995093 4.4193001808
H 7.5207129232 -3.7754862188 2.5301196013
H 3.2687893372 -2.0604820793 1.9315382399
H 3.4284811627 0.8476886708 0.9670612821
H 1.2466158444 -1.3522109505 0.8918391902
H 0.5404768170 2.6497554034 0.1757825070
H 2.2338723228 2.1668038383 0.0141478357
H 1.1476878965 2.0947723570 -1.3801089684
H -0.7462702451 -0.9515374325 -0.0392890840
H -1.2081135565 1.8647296958 -1.1354251706
H -2.3120266668 -2.3199730252 -3.1693414947
H -1.9026897237 -2.6478544810 -1.4924754460
H -1.0200663652 -1.3891173537 -2.3699637928
H -4.6201800840 -1.3798729029 -3.1620757661
H -4.5150286077 -2.3840135362 -1.7339957645
H -6.5182644206 -0.7657004753 -1.7903302914
H -5.5349143097 -0.6744766313 -0.3306485576
H -6.0294534069 1.6248556544 -1.3191529892
H -5.1851980949 1.1160143500 -2.7839996729
H -4.3956362161 3.4392790757 -1.7167624899
H -2.7053199100 3.2839764684 -1.2390783628
H -3.2487013794 2.6249199322 -2.7981695785
H -4.3816179248 0.7645676002 0.9483526068
H -3.1141811845 1.9962831482 0.8747280950
H -4.8086391810 2.4566906820 0.6097751226
