46
CONF1
C -0.9310893926 4.3367286409 0.3785249383
C 0.1490812282 3.3015349620 0.2200176820
C -0.0674592553 2.1978654516 -0.6124497056
C 0.9140466799 1.2239216988 -0.7612501021
C 2.1461463557 1.3227406266 -0.0887141157
C 2.3451551794 2.4305502212 0.7254410581
C 1.3649853889 3.4097617044 0.8871484228
C 3.1889533916 0.2608463821 -0.2727376495
O 0.7812497443 0.1047733017 -1.5398149186
C -0.4098892419 -0.0649760940 -2.3090753006
C -1.6562405589 -0.3472169709 -1.5032645274
C -2.8822980460 0.0707711318 -2.0220872279
C -4.0733279785 -0.1802994730 -1.3528805947
C -4.0491789589 -0.8411449539 -0.1292164312
C -2.8351235886 -1.2501023018 0.4046064121
C -1.6357079929 -1.0220840327 -0.2756533019
C -0.3846409437 -1.5202929202 0.3421251139
N 0.1054139939 -1.1118543518 1.4578683006
O -0.6296973111 -0.0981769131 2.0434595835
C 0.1139946649 0.4471816039 3.1416397996
C 0.3766662863 -2.6106504446 -0.3707373282
O 0.0214519620 -2.9884964574 -1.4822629036
N 1.4350421828 -3.1239602722 0.3043077054
C 2.3360209997 -4.0870943797 -0.2992350214
H -1.1337933222 4.8442629534 -0.5711659705
H -0.6471855765 5.0953572426 1.1118100719
H -1.8692807233 3.8767978781 0.7072050731
H -1.0238650630 2.0971697830 -1.1121951647
H 3.2932164114 2.5293513167 1.2480759718
H 1.5522569817 4.2605658813 1.5354040601
H 4.0653371744 0.4701221898 0.3454782022
H 3.5067353400 0.1959117642 -1.3190648145
H 2.7944531020 -0.7249915917 -0.0054121655
H -0.1927417427 -0.9267784875 -2.9468402318
H -0.5710653079 0.8173892012 -2.9446115769
H -2.8997770285 0.6051793097 -2.9688486407
H -5.0149571984 0.1491708796 -1.7800738946
H -4.9707934218 -1.0349081312 0.4094436489
H -2.8055002909 -1.7640665212 1.3596285872
H 0.3368119424 -0.3286698812 3.8826322544
H -0.5372578762 1.2080920326 3.5758422451
H 1.0374860160 0.9112769486 2.7800415711
H 1.6682607862 -2.6925126560 1.1858682884
H 1.7883055328 -4.6490992319 -1.0583017368
H 2.7072057183 -4.7776448669 0.4633307916
H 3.1925938573 -3.5993596885 -0.7840065638
