73
CONF2435
C -0.8727812754 3.0268195631 -0.9148258463
C -1.7267064446 2.3082442152 0.1073473061
O -2.9700768636 1.9735310772 -0.5559647855
C -3.8910750854 1.2627972851 0.2444110076
O -3.4014475313 -0.0113050602 0.6355484384
C -3.4040495377 -0.9973737964 -0.3997581468
C -4.5992977312 -1.9271504553 -0.2279501409
O -5.7806111861 -1.1663151000 -0.4718411608
C -4.5039809816 -3.1234339705 -1.1662302415
O -5.6007570140 -3.9840666666 -0.8435825384
C -3.1632955550 -3.8330086347 -0.9589212663
C -2.9239243703 -4.9886834193 -1.9127664162
O -3.0251784717 -4.6034167682 -3.2843190730
O -2.1070243663 -2.8808695423 -1.1991435009
C -2.1178307888 -1.8098466437 -0.2749698027
O -1.0436915014 -0.9597386256 -0.6119233129
C 0.2174884507 -1.3082394952 -0.2236686872
C 0.5333211738 -2.5406812036 0.3494806486
C 1.8533128949 -2.7763723761 0.7174775045
O 2.1699130767 -3.9701877466 1.2421513340
C 2.8640394433 -1.7965037255 0.5195155743
C 4.2471516395 -2.0929962993 0.7783380160
O 4.6256351332 -3.1843569338 1.2501068110
C 5.2350227055 -1.0223938636 0.3989701947
C 4.6096370534 0.3603692294 0.5240109852
O 3.3895814490 0.4251260487 -0.2844718233
C 2.4865861936 -0.5598377948 -0.0618160644
C 1.1787167399 -0.3144180524 -0.4376205008
C 5.5081916743 1.4712913209 0.0712023327
C 5.9100792070 1.5684963724 -1.2637611916
C 6.7617210284 2.5837358923 -1.6789060967
C 7.2339519481 3.5143292982 -0.7483735997
O 8.0783517687 4.5291031016 -1.0925388253
C 6.8421221105 3.4292067465 0.5878868946
C 5.9788495841 2.4151581402 0.9852659980
C -4.2361195871 2.0033439326 1.5363973423
O -5.0023387765 3.1475833363 1.1610748073
C -2.9626476907 2.4044482988 2.2713034716
O -3.3592349660 3.2027277559 3.3911404857
C -2.0265138122 3.1619910845 1.3437215504
O -0.8333499937 3.4194673348 2.0983650749
H 0.1058719447 3.2685389333 -0.4905247541
H -0.7168768879 2.3901501157 -1.7905026533
H -1.3589247288 3.9544110565 -1.2349276033
H -1.2331869008 1.3826609764 0.4353650051
H -4.7872057493 1.1604479273 -0.3771274240
H -3.4248776797 -0.5242448786 -1.3910335656
H -4.5967544315 -2.3023977705 0.8100328326
H -6.5255688168 -1.7785260242 -0.3952271992
H -4.5719045291 -2.7761491147 -2.2058843762
H -5.8579271336 -4.4623664908 -1.6411828344
H -3.1026671724 -4.2108227056 0.0756043486
H -3.6852248191 -5.7554467093 -1.7415282486
H -1.9391078626 -5.4256608891 -1.6953274300
H -2.3349329843 -3.9488687639 -3.4531120575
H -2.0048749108 -2.1809952425 0.7577348237
H -0.1961184049 -3.3284054384 0.4830673987
H 3.1582304080 -3.9542358119 1.3849381148
H 6.1216032221 -1.0953264508 1.0348008051
H 5.5494803338 -1.2028665198 -0.6387356092
H 4.3089903019 0.5292616851 1.5672434562
H 0.8974835182 0.6384955323 -0.8684415872
H 5.5492928672 0.8496686574 -1.9936403755
H 7.0646440112 2.6571513316 -2.7201322089
H 8.2741386792 4.4822938175 -2.0384441536
H 7.2104573174 4.1603311623 1.3000964679
H 5.6689179350 2.3571852855 2.0250456074
H -4.8321000461 1.3340628536 2.1740330613
H -5.0152188964 3.7335548056 1.9312337111
H -2.4486445728 1.4925055847 2.6138806304
H -2.5591956670 3.6292872447 3.7284846143
H -2.4969132366 4.1058537391 1.0335283030
H -0.3926237360 4.1900515529 1.7203212446
