44
CONF4
C -4.9694233137 -1.4538111865 -0.4759336912
C -5.4925360045 -0.0171697132 -0.3459596874
C -4.2074058470 0.8096139569 -0.4107489768
C -3.2100668936 0.0092339325 0.4566989427
C -3.7033889076 -1.4688306770 0.4010756809
N -1.8096273257 0.1884145643 0.0509117472
C -1.3635410531 -0.4245175904 -1.1939888242
C -0.3372423191 -1.5326249744 -1.0326523248
C -0.1026576949 -2.1552962491 0.1927950856
C 0.8307882866 -3.1827151774 0.3061631245
C 1.5287954850 -3.5806817665 -0.8257937783
C 1.3221867941 -2.9750818803 -2.0602719454
C 0.3894150540 -1.9485980088 -2.1515093766
Cl 2.7148071756 -4.8756591619 -0.6940362566
C -1.0568471350 1.1352180408 0.7061121269
O -1.5002690103 1.8281359999 1.6253456235
N 0.2543753545 1.2429644564 0.2525882916
C 1.2259298410 2.1241718985 0.7543456675
C 2.5657778476 1.7159272775 0.6968991120
C 3.5790519075 2.5649495124 1.1250361338
C 3.2750974091 3.8291927686 1.6261779302
C 1.9432822172 4.2347846320 1.6785250501
C 0.9184358369 3.4002273009 1.2425913080
H -4.7046170380 -1.6461803777 -1.5231402807
H -5.6996785639 -2.2102139063 -0.1745929184
H -6.2140549829 0.2506231054 -1.1235853077
H -5.9797709491 0.1185687443 0.6281178752
H -4.3171256264 1.8391917692 -0.0580110162
H -3.8485130045 0.8445474821 -1.4473863307
H -3.2680652801 0.3693231227 1.4846095729
H -2.9403291156 -2.1503576566 0.0154112243
H -3.9417135452 -1.8045680723 1.4148105062
H -2.2462638125 -0.8381847984 -1.6943639385
H -0.9667981691 0.3389339531 -1.8766862889
H -0.6453624146 -1.8322211265 1.0758743895
H 1.0110221942 -3.6614441746 1.2619863833
H 1.8827916706 -3.2937071749 -2.9317436231
H 0.2278393602 -1.4636243846 -3.1105572180
H 0.6331988207 0.4527625210 -0.2508913037
H 4.6106353070 2.2306039074 1.0723791282
H 1.6919349671 5.2214055484 2.0562813929
H -0.1100122677 3.7322843901 1.2769818748
H 4.0651961939 4.4902559736 1.9667032204
H 2.8071458187 0.7272634237 0.3147636551
