48
CONF11
C -4.0581420965 -1.6880160950 -2.1144199546
C -3.9296690671 -0.6906926619 -0.9717747991
C -2.4528206813 -0.3483541099 -0.7329347527
N -2.3247394265 0.6486831118 0.3349436259
C -3.1032153139 1.8702918240 0.0334235381
C -4.5658222207 1.5099359205 -0.1989498419
N -4.7533644587 0.4970126599 -1.2450183660
C -1.0763996435 0.8127511480 0.9087609452
C -0.9288114169 1.5084853687 2.1392955584
C 0.2729578636 1.6791649133 2.7625670002
C 1.4394761867 1.1254323902 2.2064022821
C 1.3186738894 0.3915199376 1.0092772208
C 0.0861596838 0.2570595162 0.3674530227
N 2.4716386554 -0.1737569700 0.4517398627
C 3.6765793224 -0.0064777003 1.0335999271
C 3.8535561431 0.7023178333 2.1943730165
C 2.7227731872 1.3055369338 2.8546453191
O 2.8399208159 1.9592728646 3.9278218871
C 5.2284654789 0.8166364505 2.7418736333
O 6.2077087399 0.3204311008 2.2079661289
O 5.3267014549 1.5109079331 3.8776719932
C 2.3937696860 -0.9436205571 -0.7549928571
C 1.8618948505 -2.2304085267 -0.7241347228
C 1.7741075237 -3.0138025385 -1.8600115287
C 2.2513879621 -2.4627144933 -3.0395129356
C 2.7940440259 -1.1901776619 -3.1213219572
C 2.8560998146 -0.4281983558 -1.9609023796
F 2.1830709178 -3.2108872852 -4.1589290626
F 1.4161757583 -2.7204213465 0.4452185847
F -2.0412007922 1.9786733803 2.7510234904
H -5.1035772838 -1.9775945677 -2.2506613183
H -3.6969061714 -1.2478853170 -3.0513763258
H -3.4700166085 -2.5883309008 -1.9127663681
H -4.3181441187 -1.1419164244 -0.0467705791
H -1.9202723260 -1.2571648916 -0.4316749252
H -2.0075246232 0.0171468684 -1.6776629574
H -2.6890054780 2.3407652836 -0.8758459890
H -3.0157214685 2.5840738182 0.8529041246
H -4.9965854150 1.1263776065 0.7355535624
H -5.1166999221 2.4162254443 -0.4734579339
H -4.4504746044 0.8925687559 -2.1341653138
H 0.3285104420 2.2122029354 3.7049603727
H 0.0360630197 -0.2605669109 -0.5805161049
H 4.5170537731 -0.4757638142 0.5335651415
H 4.3858924748 1.8186750610 4.1179144912
H 1.3596378028 -4.0143177074 -1.8232820336
H 3.1524171317 -0.8077946093 -4.0695962407
H 3.2643752574 0.5767141843 -1.9822762962
